data_PCOD8147270
_publ_section_title
;
Structure prediction by ZEFSAII (Michael W. Deem and Ramdas Pophale) SiO2 
 PCOD8147270
Probable space group: C 2/C
;
_chemical_formula_sum "Si O2"
_cell_formula_units_Z 44
_cell_length_a 23.321190
_cell_length_b 10.350251
_cell_length_c 27.915709
_cell_angle_alpha 90.000000
_cell_angle_beta 19.059387
_cell_angle_gamma 90.000000
_cell_volume 2200.377982
_symmetry_space_group_name_H-M "C 2/C"
_symmetry_group_IT_number 15
_symmetry_cell_setting 'monoclinic'
loop_
_space_group_symop_operation_xyz
x,y,z
-x,y,1/2-z
-x,-y,-z
x,-y,1/2+z
1/2+x,1/2+y,z
1/2-x,1/2+y,1/2-z
1/2-x,1/2-y,-z
1/2+x,1/2-y,1/2+z
loop_
_atom_site_type_symbol
_atom_site_label
_atom_site_fract_x
_atom_site_fract_y
_atom_site_fract_z
Si Si1 0.301576 0.521507 0.170213
Si Si2 0.863083 0.481270 0.799017
Si Si3 0.500000 0.449607 0.750000
Si Si4 0.242978 0.733481 0.396432
Si Si5 0.661753 0.744631 0.282715
Si Si6 0.247899 0.397067 0.515298
O O1 0.200128 0.565996 0.202793
O O2 0.286918 0.637471 0.219155
O O3 0.224811 0.386110 0.251005
O O4 0.500000 0.500000 0.000000
O O5 0.839478 0.631790 0.826860
O O6 0.749071 0.406477 0.929272
O O7 0.069534 0.459815 0.637687
O O8 0.656905 0.368102 0.649416
O O9 0.583718 0.535153 0.641565
O O10 0.239874 0.697077 0.342811
O O11 0.041846 0.746238 0.571078
O O12 0.250000 0.250000 0.500000
#
# Coordination Sequence:
#
# PCOD8147270 Si02
#       6
#     8   8   4   8   8   8
#     4  11  23  44  67  97 129 179 209 276 328 382
#     4  10  22  43  66  85 131 170 208 257 336 366
#     4  12  22  36  68  96 118 162 218 258 324 366
#     4  11  23  41  67  96 123 165 218 275 306 388
#     4  11  23  44  67  95 136 163 226 264 325 389
#     4  11  24  42  60  95 131 166 208 265 315 398
#
# _framework density 19.996563999999999
#
# number of rings (size 3 to 8) (size 9 to 14) (size 15 to 20)
#    0.000    1.091    3.636    5.455    0.000    4.364 
#    3.273    0.000    0.000    0.000    0.000    0.000 
#    0.000    0.000    0.000    0.000    0.000    0.000 
#
# Total GULP energy -272815.206711 kJ/mol
# GULP energy per Si atom -12400.691214 kJ/mol
# Density = 1.995105 g / cm^3
# Si number density = 19.996564 Si / 1000 Ang^3
#
#
#
# Elastic Constant Matrix: (Units=GPa)
#
#
# Indices 1 2 3 4 5 6 
#
# 1 93.6565 49.4975 -6.7173 0.0478 7.7670 0.0011
# 2 49.4975 130.8133 18.6177 -0.0193 0.0090 0.0164
# 3 -6.7173 18.6177 65.5274 -0.0630 -1.1028 0.0123
# 4 0.0478 -0.0193 -0.0630 33.5990 0.0334 3.7238
# 5 7.7670 0.0090 -1.1028 0.0334 35.8612 0.0124
# 6 0.0011 0.0164 0.0123 3.7238 0.0124 40.6493
#
#
#
# Elastic Compliance Matrix: (Units=1/GPa)
#
#
# Indices 1 2 3 4 5 6 
#
# 1 0.014217 -0.005815 0.003059 -0.000015 -0.002984 0.000003
# 2 -0.005815 0.010345 -0.003516 0.000007 0.001149 -0.000004
# 3 0.003059 -0.003516 0.016571 0.000025 -0.000152 -0.000006
# 4 -0.000015 0.000007 0.000025 0.030068 -0.000023 -0.002755
# 5 -0.002984 0.001149 -0.000152 -0.000023 0.028527 -0.000007
# 6 0.000003 -0.000004 -0.000006 -0.002755 -0.000007 0.024853
#
#
# Mechanical properties :
#
#
# Convention : Reuss Voigt Hill
#
# Bulk Modulus (GPa) = 34.97695 45.86589 40.42142
# Shear Modulus (GPa) = 34.09384 37.26183 35.67784
#
# Velocity S-wave (km/s) = 4.13363 4.32141 4.22856
# Velocity P-wave (km/s) = 6.34917 6.91998 6.64071
#
# Compressibility (1/GPa) = 0.02859026
#
# Stress axis : x y z
#
# Youngs Moduli (GPa) = 70.33677 96.66476 60.34693
#
# Poissons Ratio (x) = 0.56209 -0.18462
# Poissons Ratio (y) = 0.40899 0.21218
# Poissons Ratio (z) = -0.21518 0.33987
#
# Static dielectric constant tensor:
#      x y z
#    x -2.559100 0.003080 0.070510 
#    y 0.003080 3.336090 0.000600 
#    z 0.070510 0.000600 3.896610 
# 
# 
# High freq. dielectric constant tensor:
#      x y z
#    x 1.786780 0.000000 0.004960 
#    y 0.000000 1.782380 0.000020 
#    z 0.004960 0.000020 1.794350 
# 
# From -- ./inp_files/318554.got.cif
#   From: 2010.06.25/outbox.cif.g09.slc.cpg/sg15_160_cif.got.tgz:318554.got - 2010.06.28 07:06:18.
