data_PCOD8147992
_publ_section_title
;
Structure prediction by ZEFSAII (Michael W. Deem and Ramdas Pophale) SiO2 
 PCOD8147992
Probable space group: C 2/C
;
_chemical_formula_sum "Si O2"
_cell_formula_units_Z 16
_cell_length_a 7.025160
_cell_length_b 12.290235
_cell_length_c 6.803103
_cell_angle_alpha 90.000000
_cell_angle_beta 118.096792
_cell_angle_gamma 90.000000
_cell_volume 518.164296
_symmetry_space_group_name_H-M "C 2/C"
_symmetry_group_IT_number 15
_symmetry_cell_setting 'monoclinic'
loop_
_space_group_symop_operation_xyz
x,y,z
-x,y,1/2-z
-x,-y,-z
x,-y,1/2+z
1/2+x,1/2+y,z
1/2-x,1/2+y,1/2-z
1/2-x,1/2-y,-z
1/2+x,1/2-y,1/2+z
loop_
_atom_site_type_symbol
_atom_site_label
_atom_site_fract_x
_atom_site_fract_y
_atom_site_fract_z
Si Si1 0.322316 0.359711 0.437260
Si Si2 0.283494 0.093365 0.047558
O O1 0.250000 0.250000 0.500000
O O2 0.197300 0.462444 0.475392
O O3 0.579064 0.380631 0.589820
O O4 0.253412 0.348126 0.176701
O O5 0.500000 0.142040 0.250000
#
# Coordination Sequence:
#
# PCOD8147992 Si02
#       2
#     8   8
#     4  10  23  47  83 127 174 221 276 356 428 494
#     4  10  22  47  83 125 171 215 288 349 415 518
#
# _framework density 30.878238
#
# number of rings (size 3 to 8) (size 9 to 14) (size 15 to 20)
#    0.000    2.000    0.000    1.500    0.000    2.000 
#   18.000    2.500   22.000    9.000    0.000    0.000 
#    0.000    0.000    0.000    0.000    0.000    0.000 
#
# Total GULP energy -99328.518390 kJ/mol
# GULP energy per Si atom -12416.064799 kJ/mol
# Density = 3.080796 g / cm^3
# Si number density = 30.878238 Si / 1000 Ang^3
#
#
#
# Elastic Constant Matrix: (Units=GPa)
#
#
# Indices 1 2 3 4 5 6 
#
# 1 124.0893 84.2347 97.8425 0.0000 33.6128 0.0000
# 2 84.2347 210.9288 45.1575 0.0000 -9.5582 0.0000
# 3 97.8425 45.1575 161.3893 0.0000 62.3785 0.0000
# 4 0.0000 0.0000 0.0000 28.2724 0.0000 -0.5582
# 5 33.6128 -9.5582 62.3785 0.0000 70.7480 0.0000
# 6 0.0000 0.0000 0.0000 -0.5582 0.0000 43.5511
#
#
#
# Elastic Compliance Matrix: (Units=1/GPa)
#
#
# Indices 1 2 3 4 5 6 
#
# 1 0.020757 -0.006185 -0.010192 0.000000 -0.001711 0.000000
# 2 -0.006185 0.007318 0.000279 0.000000 0.003681 0.000000
# 3 -0.010192 0.000279 0.015793 0.000000 -0.009044 0.000000
# 4 0.000000 0.000000 0.000000 0.035379 0.000000 0.000453
# 5 -0.001711 0.003681 -0.009044 0.000000 0.023419 0.000000
# 6 0.000000 0.000000 0.000000 0.000453 0.000000 0.022967
#
#
# Mechanical properties :
#
#
# Convention : Reuss Voigt Hill
#
# Bulk Modulus (GPa) = 85.67242 105.65297 95.66269
# Shear Modulus (GPa) = 30.91787 46.45916 38.68851
#
# Velocity S-wave (km/s) = 3.16774 3.88312 3.54353
# Velocity P-wave (km/s) = 6.41755 7.37530 6.91303
#
# Compressibility (1/GPa) = 0.01167237
#
# Stress axis : x y z
#
# Youngs Moduli (GPa) = 48.17705 136.65237 63.32037
#
# Poissons Ratio (x) = 0.84517 0.64536
# Poissons Ratio (y) = 0.29796 -0.01769
# Poissons Ratio (z) = 0.49102 -0.03817
#
# Static dielectric constant tensor:
#      x y z
#    x 6.211360 0.000000 0.212150 
#    y 0.000000 5.684770 0.000000 
#    z 0.212150 0.000000 6.164220 
# 
# 
# High freq. dielectric constant tensor:
#      x y z
#    x 2.274280 0.000000 0.004710 
#    y 0.000000 2.277100 0.000000 
#    z 0.004710 0.000000 2.290030 
# 
# From -- ./inp_files/20630.got.cif
#   From: 2010.06.25/outbox.cif.g09.slc.cpg/sg15_11_cif.got.tgz:20630.got - 2010.06.28 07:06:18.
