data_PCOD8147278
_publ_section_title
;
Structure prediction by ZEFSAII (Michael W. Deem and Ramdas Pophale) SiO2 
 PCOD8147278
Probable space group: C 2/C
;
_chemical_formula_sum "Si O2"
_cell_formula_units_Z 52
_cell_length_a 26.147985
_cell_length_b 12.438583
_cell_length_c 16.863268
_cell_angle_alpha 90.000000
_cell_angle_beta 26.504578
_cell_angle_gamma 90.000000
_cell_volume 2447.642057
_symmetry_space_group_name_H-M "C 2/C"
_symmetry_group_IT_number 15
_symmetry_cell_setting 'monoclinic'
loop_
_space_group_symop_operation_xyz
x,y,z
-x,y,1/2-z
-x,-y,-z
x,-y,1/2+z
1/2+x,1/2+y,z
1/2-x,1/2+y,1/2-z
1/2-x,1/2-y,-z
1/2+x,1/2-y,1/2+z
loop_
_atom_site_type_symbol
_atom_site_label
_atom_site_fract_x
_atom_site_fract_y
_atom_site_fract_z
Si Si1 0.141390 0.913745 0.840915
Si Si2 0.792048 0.141303 0.903604
Si Si3 0.051041 0.422720 0.756391
Si Si4 0.000000 0.201738 0.250000
Si Si5 0.902973 0.368330 0.494625
Si Si6 0.037687 0.734501 0.422029
Si Si7 0.452293 0.476410 0.693937
O O1 0.273003 0.907434 0.685013
O O2 0.129090 0.961900 0.770243
O O3 0.082561 0.796553 0.920524
O O4 0.081309 0.993809 0.988550
O O5 0.857276 0.179673 0.732240
O O6 0.888982 0.079408 0.822654
O O7 0.750000 0.250000 0.000000
O O8 0.684084 0.060974 0.046628
O O9 0.038273 0.355678 0.853814
O O10 0.000000 0.361374 0.750000
O O11 0.988392 0.536374 0.852632
O O12 0.905214 0.276627 0.423475
O O13 0.942781 0.126313 0.263104
O O14 0.952230 0.320257 0.507278
#
# Coordination Sequence:
#
# PCOD8147278 Si02
#       7
#     8   8   8   4   8   8   8
#     4  10  23  43  67  92 131 177 230 276 333 410
#     4   9  21  42  66  93 127 169 223 281 334 403
#     4  11  23  40  66  99 136 170 222 285 341 395
#     4  12  26  42  64 100 140 176 232 270 344 408
#     4  12  25  42  66 101 135 182 226 279 341 406
#     4  10  23  44  67  97 131 179 228 275 339 412
#     4  10  22  43  66  92 132 179 222 284 340 399
#
# _framework density 21.244937
#
# number of rings (size 3 to 8) (size 9 to 14) (size 15 to 20)
#    0.000    1.538    2.308    1.385    2.154    5.538 
#    9.692    0.000    0.000    0.000    0.000    0.000 
#    0.000    0.000    0.000    0.000    0.000    0.000 
#
# Total GULP energy -322132.731680 kJ/mol
# GULP energy per Si atom -12389.720449 kJ/mol
# Density = 2.119658 g / cm^3
# Si number density = 21.244937 Si / 1000 Ang^3
#
#
#
# Elastic Constant Matrix: (Units=GPa)
#
#
# Indices 1 2 3 4 5 6 
#
# 1 93.8352 46.8992 47.9546 0.0000 11.6412 0.0000
# 2 46.8992 124.8022 69.5329 0.0000 -0.0891 0.0000
# 3 47.9546 69.5329 138.6234 0.0000 -14.1929 0.0000
# 4 0.0000 0.0000 0.0000 36.4742 0.0000 7.2986
# 5 11.6412 -0.0891 -14.1929 0.0000 30.4462 0.0000
# 6 0.0000 0.0000 0.0000 7.2986 0.0000 39.5792
#
#
#
# Elastic Compliance Matrix: (Units=1/GPa)
#
#
# Indices 1 2 3 4 5 6 
#
# 1 0.015679 -0.003347 -0.004579 0.000000 -0.008139 0.000000
# 2 -0.003347 0.012050 -0.004990 0.000000 -0.001011 0.000000
# 3 -0.004579 -0.004990 0.012054 0.000000 0.007355 0.000000
# 4 0.000000 0.000000 0.000000 0.028467 0.000000 -0.005249
# 5 -0.008139 -0.001011 0.007355 0.000000 0.039382 0.000000
# 6 0.000000 0.000000 0.000000 -0.005249 0.000000 0.026234
#
#
# Mechanical properties :
#
#
# Convention : Reuss Voigt Hill
#
# Bulk Modulus (GPa) = 71.67399 76.22603 73.95001
# Shear Modulus (GPa) = 30.42333 34.15819 32.29076
#
# Velocity S-wave (km/s) = 3.78832 4.01412 3.90285
# Velocity P-wave (km/s) = 7.27636 7.57903 7.42924
#
# Compressibility (1/GPa) = 0.01395206
#
# Stress axis : x y z
#
# Youngs Moduli (GPa) = 63.77764 82.98920 82.96328
#
# Poissons Ratio (x) = 0.27777 0.37985
# Poissons Ratio (y) = 0.21347 0.41397
# Poissons Ratio (z) = 0.29201 0.41410
#
# Static dielectric constant tensor:
#      x y z
#    x 3.695360 0.000000 0.011210 
#    y 0.000000 4.127860 0.000000 
#    z 0.011210 0.000000 4.427510 
# 
# 
# High freq. dielectric constant tensor:
#      x y z
#    x 1.808800 0.000000 0.010020 
#    y 0.000000 1.851050 0.000000 
#    z 0.010020 0.000000 1.849350 
# 
# From -- ./inp_files/222446.got.cif
#   From: 2010.06.25/outbox.cif.g09.slc.cpg/sg15_112_cif.got.tgz:222446.got - 2010.06.28 07:06:18.
