data_PCOD8147644
_publ_section_title
;
Structure prediction by ZEFSAII (Michael W. Deem and Ramdas Pophale) SiO2 
 PCOD8147644
Probable space group: C 2/C
;
_chemical_formula_sum "Si O2"
_cell_formula_units_Z 40
_cell_length_a 24.535749
_cell_length_b 13.317167
_cell_length_c 11.748897
_cell_angle_alpha 90.000000
_cell_angle_beta 151.715914
_cell_angle_gamma 90.000000
_cell_volume 1819.044466
_symmetry_space_group_name_H-M "C 2/C"
_symmetry_group_IT_number 15
_symmetry_cell_setting 'monoclinic'
loop_
_space_group_symop_operation_xyz
x,y,z
-x,y,1/2-z
-x,-y,-z
x,-y,1/2+z
1/2+x,1/2+y,z
1/2-x,1/2+y,1/2-z
1/2-x,1/2-y,-z
1/2+x,1/2-y,1/2+z
loop_
_atom_site_type_symbol
_atom_site_label
_atom_site_fract_x
_atom_site_fract_y
_atom_site_fract_z
Si Si1 0.883315 0.606052 0.986915
Si Si2 0.626159 0.797810 0.273142
Si Si3 0.226212 0.590857 0.155142
Si Si4 0.524742 0.390188 0.497306
Si Si5 0.810552 0.791543 0.000457
O O1 0.859477 0.705329 0.012121
O O2 0.000000 0.558027 0.250000
O O3 0.893565 0.630695 0.872117
O O4 0.784807 0.526108 0.834857
O O5 0.750000 0.750000 0.500000
O O6 0.626243 0.869100 0.385284
O O7 0.535690 0.703522 0.108539
O O8 0.355892 0.608570 0.350792
O O9 0.212740 0.649885 0.249475
O O10 0.500000 0.500000 0.500000
O O11 0.415909 0.366294 0.218831
O O12 0.750000 0.750000 0.000000
#
# Coordination Sequence:
#
# PCOD8147644 Si02
#       5
#     8   8   8   8   8
#     4  12  24  45  71  96 137 185 225 291 353 418
#     4  10  22  44  68  96 139 172 224 289 348 400
#     4  11  26  43  70 102 138 182 230 290 351 415
#     4  11  23  45  72 102 136 179 233 290 347 416
#     4  12  25  44  68 101 139 183 231 284 348 420
#
# _framework density 21.989566
#
# number of rings (size 3 to 8) (size 9 to 14) (size 15 to 20)
#    0.000    0.800    6.000    1.800    8.400    2.400 
#    0.000    0.000    0.000    0.000    0.000    0.000 
#    0.000    0.000    0.000    0.000    0.000    0.000 
#
# Total GULP energy -247874.064799 kJ/mol
# GULP energy per Si atom -12393.703240 kJ/mol
# Density = 2.193952 g / cm^3
# Si number density = 21.989566 Si / 1000 Ang^3
#
#
#
# Elastic Constant Matrix: (Units=GPa)
#
#
# Indices 1 2 3 4 5 6 
#
# 1 60.7301 61.3049 63.2555 0.0000 -28.5549 0.0000
# 2 61.3049 163.8611 58.5181 0.0000 -23.9416 0.0000
# 3 63.2555 58.5181 132.5320 0.0000 -36.1869 0.0000
# 4 0.0000 0.0000 0.0000 35.5030 0.0000 8.1737
# 5 -28.5549 -23.9416 -36.1869 0.0000 36.5887 0.0000
# 6 0.0000 0.0000 0.0000 8.1737 0.0000 40.6951
#
#
#
# Elastic Compliance Matrix: (Units=1/GPa)
#
#
# Indices 1 2 3 4 5 6 
#
# 1 0.052266 -0.011563 -0.014753 0.000000 0.018633 0.000000
# 2 -0.011563 0.009930 0.000609 0.000000 -0.001924 0.000000
# 3 -0.014753 0.000609 0.015457 0.000000 0.004172 0.000000
# 4 0.000000 0.000000 0.000000 0.029532 0.000000 -0.005932
# 5 0.018633 -0.001924 0.004172 0.000000 0.044740 0.000000
# 6 0.000000 0.000000 0.000000 -0.005932 0.000000 0.025764
#
#
# Mechanical properties :
#
#
# Convention : Reuss Voigt Hill
#
# Bulk Modulus (GPa) = 38.11039 80.36447 59.23743
# Shear Modulus (GPa) = 21.02159 34.16034 27.59096
#
# Velocity S-wave (km/s) = 3.09525 3.94570 3.54606
# Velocity P-wave (km/s) = 5.49025 7.57522 6.61539
#
# Compressibility (1/GPa) = 0.02623957
#
# Stress axis : x y z
#
# Youngs Moduli (GPa) = 19.13272 100.70223 64.69623
#
# Poissons Ratio (x) = 1.16446 0.95444
# Poissons Ratio (y) = 0.22124 -0.03940
# Poissons Ratio (z) = 0.28226 -0.06133
#
# Static dielectric constant tensor:
#      x y z
#    x 3.880340 0.000000 -0.779330 
#    y 0.000000 4.281500 0.000000 
#    z -0.779330 0.000000 4.443040 
# 
# 
# High freq. dielectric constant tensor:
#      x y z
#    x 1.838920 0.000000 -0.013680 
#    y 0.000000 1.882340 0.000000 
#    z -0.013680 0.000000 1.882980 
# 
# From -- ./inp_files/122852.got.cif
#   From: 2010.06.25/outbox.cif.g09.slc.cpg/sg15_62_cif.got.tgz:122852.got - 2010.06.28 07:06:18.
