data_PCOD8147815
_publ_section_title
;
Structure prediction by ZEFSAII (Michael W. Deem and Ramdas Pophale) SiO2 
 PCOD8147815
Probable space group: C 2/C
;
_chemical_formula_sum "Si O2"
_cell_formula_units_Z 56
_cell_length_a 11.953702
_cell_length_b 14.709323
_cell_length_c 16.962701
_cell_angle_alpha 90.000000
_cell_angle_beta 121.959722
_cell_angle_gamma 90.000000
_cell_volume 2530.470185
_symmetry_space_group_name_H-M "C 2/C"
_symmetry_group_IT_number 15
_symmetry_cell_setting 'monoclinic'
loop_
_space_group_symop_operation_xyz
x,y,z
-x,y,1/2-z
-x,-y,-z
x,-y,1/2+z
1/2+x,1/2+y,z
1/2-x,1/2+y,1/2-z
1/2-x,1/2-y,-z
1/2+x,1/2-y,1/2+z
loop_
_atom_site_type_symbol
_atom_site_label
_atom_site_fract_x
_atom_site_fract_y
_atom_site_fract_z
Si Si1 0.542966 0.128616 0.642365
Si Si2 0.680633 0.050381 0.146859
Si Si3 0.581303 0.490818 0.355966
Si Si4 0.348129 0.669944 0.513489
Si Si5 0.290200 0.866053 0.146191
Si Si6 0.422237 0.227404 0.459670
Si Si7 0.338428 0.548047 0.360700
O O1 0.652131 0.161831 0.746271
O O2 0.408176 0.098893 0.634988
O O3 0.505103 0.212740 0.571339
O O4 0.599208 0.043624 0.613877
O O5 0.801436 0.055192 0.130075
O O6 0.585794 0.130796 0.086037
O O7 0.732062 0.068411 0.253885
O O8 0.500000 0.455815 0.250000
O O9 0.655090 0.405175 0.420441
O O10 0.488498 0.545617 0.382860
O O11 0.250000 0.750000 0.500000
O O12 0.495326 0.708820 0.567509
O O13 0.316316 0.625726 0.416848
O O14 0.218756 0.777650 0.081765
O O15 0.186685 0.948409 0.112289
#
# Coordination Sequence:
#
# PCOD8147815 Si02
#       7
#     8   8   8   8   8   8   8
#     4  10  23  43  66  96 140 176 225 285 338 415
#     4  10  24  43  70  98 135 181 228 277 347 402
#     4  10  22  45  68  93 135 184 226 275 336 412
#     4  12  27  41  68 104 136 176 226 287 345 408
#     4  10  23  43  67  98 132 181 227 277 345 402
#     4  12  25  40  67 102 134 176 227 282 342 401
#     4  10  23  45  68  93 140 184 226 273 345 414
#
# _framework density 22.130274
#
# number of rings (size 3 to 8) (size 9 to 14) (size 15 to 20)
#    0.000    1.429    1.429    2.143    6.000    2.286 
#    5.143    0.000    0.000    0.000    0.000    0.000 
#    0.000    0.000    0.000    0.000    0.000    0.000 
#
# Total GULP energy -347248.447995 kJ/mol
# GULP energy per Si atom -12401.730286 kJ/mol
# Density = 2.207990 g / cm^3
# Si number density = 22.130274 Si / 1000 Ang^3
#
#
#
# Elastic Constant Matrix: (Units=GPa)
#
#
# Indices 1 2 3 4 5 6 
#
# 1 98.0859 39.8921 38.1205 0.0000 -3.0254 0.0000
# 2 39.8921 93.2025 60.7290 0.0000 0.6036 0.0000
# 3 38.1205 60.7290 99.3773 0.0000 -1.2080 0.0000
# 4 0.0000 0.0000 0.0000 38.2490 0.0000 4.5013
# 5 -3.0254 0.6036 -1.2080 0.0000 30.4341 0.0000
# 6 0.0000 0.0000 0.0000 4.5013 0.0000 38.6723
#
#
#
# Elastic Compliance Matrix: (Units=1/GPa)
#
#
# Indices 1 2 3 4 5 6 
#
# 1 0.012777 -0.003810 -0.002558 0.000000 0.001244 0.000000
# 2 -0.003810 0.018983 -0.010153 0.000000 -0.001158 0.000000
# 3 -0.002558 -0.010153 0.017256 0.000000 0.000632 0.000000
# 4 0.000000 0.000000 0.000000 0.026508 0.000000 -0.003085
# 5 0.001244 -0.001158 0.000632 0.000000 0.033030 0.000000
# 6 0.000000 0.000000 0.000000 -0.003085 0.000000 0.026217
#
#
# Mechanical properties :
#
#
# Convention : Reuss Voigt Hill
#
# Bulk Modulus (GPa) = 62.60056 63.12766 62.86411
# Shear Modulus (GPa) = 28.87871 31.59934 30.23902
#
# Velocity S-wave (km/s) = 3.61632 3.78283 3.70051
# Velocity P-wave (km/s) = 6.76651 6.90414 6.83567
#
# Compressibility (1/GPa) = 0.01597430
#
# Stress axis : x y z
#
# Youngs Moduli (GPa) = 78.26417 52.67794 57.95119
#
# Poissons Ratio (x) = 0.20073 0.14822
# Poissons Ratio (y) = 0.29822 0.58838
# Poissons Ratio (z) = 0.20017 0.53484
#
# Static dielectric constant tensor:
#      x y z
#    x 4.129670 0.000000 -0.041590 
#    y 0.000000 3.776820 0.000000 
#    z -0.041590 0.000000 4.093430 
# 
# 
# High freq. dielectric constant tensor:
#      x y z
#    x 1.877940 0.000000 0.002830 
#    y 0.000000 1.861100 0.000000 
#    z 0.002830 0.000000 1.880100 
# 
# From -- ./inp_files/197933.got.cif
#   From: 2010.06.25/outbox.cif.g09.slc.cpg/sg15_99_cif.got.tgz:197933.got - 2010.06.28 07:06:18.
