data_PCOD8147962
_publ_section_title
;
Structure prediction by ZEFSAII (Michael W. Deem and Ramdas Pophale) SiO2 
 PCOD8147962
Probable space group: C 2/C
;
_chemical_formula_sum "Si O2"
_cell_formula_units_Z 36
_cell_length_a 16.136580
_cell_length_b 10.482268
_cell_length_c 11.747751
_cell_angle_alpha 90.000000
_cell_angle_beta 59.943710
_cell_angle_gamma 90.000000
_cell_volume 1719.909126
_symmetry_space_group_name_H-M "C 2/C"
_symmetry_group_IT_number 15
_symmetry_cell_setting 'monoclinic'
loop_
_space_group_symop_operation_xyz
x,y,z
-x,y,1/2-z
-x,-y,-z
x,-y,1/2+z
1/2+x,1/2+y,z
1/2-x,1/2+y,1/2-z
1/2-x,1/2-y,-z
1/2+x,1/2-y,1/2+z
loop_
_atom_site_type_symbol
_atom_site_label
_atom_site_fract_x
_atom_site_fract_y
_atom_site_fract_z
Si Si1 0.000000 0.268715 0.250000
Si Si2 0.493454 0.350239 0.516428
Si Si3 0.179798 0.697118 0.954855
Si Si4 0.793152 0.797787 0.144901
Si Si5 0.817349 0.582007 0.962591
O O1 0.970606 0.181242 0.163608
O O2 0.911854 0.356155 0.345178
O O3 0.500000 0.500000 0.500000
O O4 0.414251 0.285213 0.489722
O O5 0.594845 0.297127 0.404200
O O6 0.233100 0.692453 0.799339
O O7 0.250000 0.750000 0.000000
O O8 0.152006 0.555307 0.012823
O O9 0.762921 0.916527 0.082752
O O10 0.771143 0.663941 0.097059
#
# Coordination Sequence:
#
# PCOD8147962 Si02
#       5
#     4   8   8   8   8
#     4  10  22  46  74  92 130 188 224 286 362 410
#     4  11  25  43  70 104 139 181 235 293 353 424
#     4  12  27  42  69 106 138 185 235 295 347 426
#     4  10  24  44  68  98 139 188 222 290 357 417
#     4  10  23  44  72  96 138 181 235 282 355 421
#
# _framework density 20.931339000000001
#
# number of rings (size 3 to 8) (size 9 to 14) (size 15 to 20)
#    0.000    1.333    2.222    1.333    6.222    8.000 
#    0.000    0.000    0.000    0.000    0.000    0.000 
#    0.000    0.000    0.000    0.000    0.000    0.000 
#
# Total GULP energy -223200.959946 kJ/mol
# GULP energy per Si atom -12400.053330 kJ/mol
# Density = 2.088370 g / cm^3
# Si number density = 20.931339 Si / 1000 Ang^3
#
#
#
# Elastic Constant Matrix: (Units=GPa)
#
#
# Indices 1 2 3 4 5 6 
#
# 1 169.3707 67.8927 55.2573 0.0000 7.7863 0.0000
# 2 67.8927 159.1819 71.1907 0.0000 9.2162 0.0000
# 3 55.2573 71.1907 114.9806 0.0000 -3.0019 0.0000
# 4 0.0000 0.0000 0.0000 21.2466 0.0000 2.2411
# 5 7.7863 9.2162 -3.0019 0.0000 30.5305 0.0000
# 6 0.0000 0.0000 0.0000 2.2411 0.0000 36.2933
#
#
#
# Elastic Compliance Matrix: (Units=1/GPa)
#
#
# Indices 1 2 3 4 5 6 
#
# 1 0.007591 -0.002072 -0.002405 0.000000 -0.001547 0.000000
# 2 -0.002072 0.009569 -0.005003 0.000000 -0.002852 0.000000
# 3 -0.002405 -0.005003 0.013040 0.000000 0.003406 0.000000
# 4 0.000000 0.000000 0.000000 0.047375 0.000000 -0.002925
# 5 -0.001547 -0.002852 0.003406 0.000000 0.034344 0.000000
# 6 0.000000 0.000000 0.000000 -0.002925 0.000000 0.027734
#
#
# Mechanical properties :
#
#
# Convention : Reuss Voigt Hill
#
# Bulk Modulus (GPa) = 88.98525 92.46829 90.72677
# Shear Modulus (GPa) = 30.79596 34.22692 32.51144
#
# Velocity S-wave (km/s) = 3.83989 4.04815 3.94539
# Velocity P-wave (km/s) = 7.89081 8.13160 8.01211
#
# Compressibility (1/GPa) = 0.01123782
#
# Stress axis : x y z
#
# Youngs Moduli (GPa) = 131.73991 104.50913 76.68954
#
# Poissons Ratio (x) = 0.21657 0.18446
# Poissons Ratio (y) = 0.27300 0.38368
# Poissons Ratio (z) = 0.31687 0.52286
#
# Static dielectric constant tensor:
#      x y z
#    x 49.107370 0.000000 49.104960 
#    y 0.000000 3.779430 0.000000 
#    z 49.104960 0.000000 57.638020 
# 
# 
# High freq. dielectric constant tensor:
#      x y z
#    x 1.838350 0.000000 -0.001410 
#    y 0.000000 1.813840 0.000000 
#    z -0.001410 0.000000 1.826880 
# 
# From -- ./inp_files/103151.got.cif
#   From: 2010.06.25/outbox.cif.g09.slc.cpg/sg15_52_cif.got.tgz:103151.got - 2010.06.28 07:06:18.
