data_PCOD8147205
_publ_section_title
;
Structure prediction by ZEFSAII (Michael W. Deem and Ramdas Pophale) SiO2 
 PCOD8147205
Probable space group: C 2/C
;
_chemical_formula_sum "Si O2"
_cell_formula_units_Z 44
_cell_length_a 17.046963
_cell_length_b 9.785062
_cell_length_c 12.867117
_cell_angle_alpha 90.000000
_cell_angle_beta 65.606285
_cell_angle_gamma 90.000000
_cell_volume 1954.704002
_symmetry_space_group_name_H-M "C 2/C"
_symmetry_group_IT_number 15
_symmetry_cell_setting 'monoclinic'
loop_
_space_group_symop_operation_xyz
x,y,z
-x,y,1/2-z
-x,-y,-z
x,-y,1/2+z
1/2+x,1/2+y,z
1/2-x,1/2+y,1/2-z
1/2-x,1/2-y,-z
1/2+x,1/2-y,1/2+z
loop_
_atom_site_type_symbol
_atom_site_label
_atom_site_fract_x
_atom_site_fract_y
_atom_site_fract_z
Si Si1 0.813683 0.999212 0.726385
Si Si2 0.783392 0.380170 0.043993
Si Si3 0.500000 0.765648 0.750000
Si Si4 0.965570 0.858922 0.059477
Si Si5 0.857239 0.513758 0.308035
Si Si6 0.912186 0.724630 0.645601
O O1 0.796818 0.052572 0.852053
O O2 0.863164 0.121103 0.635922
O O3 0.724860 0.961195 0.720015
O O4 0.873515 0.867296 0.705685
O O5 0.855580 0.337310 0.085205
O O6 0.750000 0.250000 0.000000
O O7 0.823954 0.494598 0.944850
O O8 0.483706 0.673715 0.860680
O O9 0.582372 0.855295 0.735568
O O10 0.991600 0.746430 0.956500
O O11 0.000000 0.000000 0.000000
O O12 0.911500 0.379587 0.243502
#
# Coordination Sequence:
#
# PCOD8147205 Si02
#       6
#     8   8   4   8   8   8
#     4  10  23  40  70 102 135 181 235 292 338 415
#     4  11  20  40  68  98 136 182 232 278 357 419
#     4  12  24  44  74 102 136 188 226 278 360 414
#     4  10  23  43  70 102 138 184 233 291 339 416
#     4  11  24  41  70 103 137 183 228 286 355 414
#     4  10  22  43  64 102 138 174 238 289 340 415
#
# _framework density 22.509801
#
# number of rings (size 3 to 8) (size 9 to 14) (size 15 to 20)
#    0.000    1.455    3.636    1.091    2.545    1.455 
#    0.000    5.455    0.000    0.000    0.000    0.000 
#    0.000    0.000    0.000    0.000    0.000    0.000 
#
# Total GULP energy -272671.992292 kJ/mol
# GULP energy per Si atom -12394.181468 kJ/mol
# Density = 2.245857 g / cm^3
# Si number density = 22.509801 Si / 1000 Ang^3
#
#
#
# Elastic Constant Matrix: (Units=GPa)
#
#
# Indices 1 2 3 4 5 6 
#
# 1 82.6513 42.0113 42.0006 0.0000 -6.9724 0.0000
# 2 42.0113 117.1271 92.5168 0.0000 -3.5863 0.0000
# 3 42.0006 92.5168 210.8489 0.0000 -22.1612 0.0000
# 4 0.0000 0.0000 0.0000 52.1343 0.0000 5.6483
# 5 -6.9724 -3.5863 -22.1612 0.0000 24.7187 0.0000
# 6 0.0000 0.0000 0.0000 5.6483 0.0000 31.6993
#
#
#
# Elastic Compliance Matrix: (Units=1/GPa)
#
#
# Indices 1 2 3 4 5 6 
#
# 1 0.015125 -0.004907 -0.000537 0.000000 0.003073 0.000000
# 2 -0.004907 0.014952 -0.006073 0.000000 -0.004659 0.000000
# 3 -0.000537 -0.006073 0.008176 0.000000 0.006298 0.000000
# 4 0.000000 0.000000 0.000000 0.019559 0.000000 -0.003485
# 5 0.003073 -0.004659 0.006298 0.000000 0.046292 0.000000
# 6 0.000000 0.000000 0.000000 -0.003485 0.000000 0.032167
#
#
# Mechanical properties :
#
#
# Convention : Reuss Voigt Hill
#
# Bulk Modulus (GPa) = 65.70281 84.85386 75.27834
# Shear Modulus (GPa) = 30.41748 37.31704 33.86726
#
# Velocity S-wave (km/s) = 3.67999 4.07604 3.88307
# Velocity P-wave (km/s) = 6.87811 7.74147 7.32252
#
# Compressibility (1/GPa) = 0.01522005
#
# Stress axis : x y z
#
# Youngs Moduli (GPa) = 66.11436 66.88027 122.30466
#
# Poissons Ratio (x) = 0.32819 0.06565
# Poissons Ratio (y) = 0.32443 0.74275
# Poissons Ratio (z) = 0.03549 0.40616
#
# Static dielectric constant tensor:
#      x y z
#    x 4.048880 0.000000 -0.400320 
#    y 0.000000 4.543390 0.000000 
#    z -0.400320 0.000000 5.068790 
# 
# 
# High freq. dielectric constant tensor:
#      x y z
#    x 1.867380 0.000000 -0.019250 
#    y 0.000000 1.880360 0.000000 
#    z -0.019250 0.000000 1.912440 
# 
# From -- ./inp_files/110500.got.cif
#   From: 2010.06.25/outbox.cif.g09.slc.cpg/sg15_56_cif.got.tgz:110500.got - 2010.06.28 07:06:18.
