data_PCOD8147411
_publ_section_title
;
Structure prediction by ZEFSAII (Michael W. Deem and Ramdas Pophale) SiO2 
 PCOD8147411
Probable space group: C 2/C
;
_chemical_formula_sum "Si O2"
_cell_formula_units_Z 44
_cell_length_a 16.709617
_cell_length_b 6.805885
_cell_length_c 17.880289
_cell_angle_alpha 90.000000
_cell_angle_beta 75.926988
_cell_angle_gamma 90.000000
_cell_volume 1972.383662
_symmetry_space_group_name_H-M "C 2/C"
_symmetry_group_IT_number 15
_symmetry_cell_setting 'monoclinic'
loop_
_space_group_symop_operation_xyz
x,y,z
-x,y,1/2-z
-x,-y,-z
x,-y,1/2+z
1/2+x,1/2+y,z
1/2-x,1/2+y,1/2-z
1/2-x,1/2-y,-z
1/2+x,1/2-y,1/2+z
loop_
_atom_site_type_symbol
_atom_site_label
_atom_site_fract_x
_atom_site_fract_y
_atom_site_fract_z
Si Si1 0.035000 0.436181 0.391026
Si Si2 0.175904 0.897844 0.706462
Si Si3 0.789878 0.252326 0.138512
Si Si4 0.047175 0.199034 0.972698
Si Si5 0.000000 0.765313 0.750000
Si Si6 0.266658 0.365845 0.073241
O O1 0.125541 0.368677 0.401924
O O2 0.015880 0.666794 0.410226
O O3 0.028314 0.387293 0.306443
O O4 0.961145 0.323207 0.449685
O O5 0.196211 0.873208 0.789185
O O6 0.209565 0.714347 0.651970
O O7 0.077268 0.906370 0.714292
O O8 0.215500 0.096110 0.666191
O O9 0.759213 0.105228 0.078456
O O10 0.139060 0.160744 0.927553
O O11 0.000000 0.000000 0.000000
O O12 0.250000 0.250000 0.000000
#
# Coordination Sequence:
#
# PCOD8147411 Si02
#       6
#     8   8   8   8   4   8
#     4  10  22  43  71 102 135 182 230 275 340 419
#     4  11  23  45  71 101 137 182 231 281 346 411
#     4  11  22  43  76  97 135 189 228 277 349 419
#     4  11  22  42  72  98 137 185 225 274 348 408
#     4  10  24  46  70 102 144 172 236 294 330 406
#     4  12  25  42  69 104 140 176 235 293 337 410
#
# _framework density 22.308032999999998
#
# number of rings (size 3 to 8) (size 9 to 14) (size 15 to 20)
#    0.000    1.091    5.455    1.091    0.000    0.727 
#    0.000    7.273    0.000    0.000    0.000    0.000 
#    0.000    0.000    0.000    0.000    0.000    0.000 
#
# Total GULP energy -272610.115253 kJ/mol
# GULP energy per Si atom -12391.368875 kJ/mol
# Density = 2.225726 g / cm^3
# Si number density = 22.308033 Si / 1000 Ang^3
#
#
#
# Elastic Constant Matrix: (Units=GPa)
#
#
# Indices 1 2 3 4 5 6 
#
# 1 109.5671 53.3242 31.2498 0.0000 -24.6911 0.0000
# 2 53.3242 161.9296 36.7333 0.0000 -0.7213 0.0000
# 3 31.2498 36.7333 78.1631 0.0000 -12.4416 0.0000
# 4 0.0000 0.0000 0.0000 51.0119 0.0000 -9.5551
# 5 -24.6911 -0.7213 -12.4416 0.0000 42.4114 0.0000
# 6 0.0000 0.0000 0.0000 -9.5551 0.0000 24.2320
#
#
#
# Elastic Compliance Matrix: (Units=1/GPa)
#
#
# Indices 1 2 3 4 5 6 
#
# 1 0.013209 -0.003773 -0.002406 0.000000 0.006920 0.000000
# 2 -0.003773 0.008021 -0.002716 0.000000 -0.002857 0.000000
# 3 -0.002406 -0.002716 0.015527 0.000000 0.003108 0.000000
# 4 0.000000 0.000000 0.000000 0.021167 0.000000 0.008346
# 5 0.006920 -0.002857 0.003108 0.000000 0.028470 0.000000
# 6 0.000000 0.000000 0.000000 0.008346 0.000000 0.044559
#
#
# Mechanical properties :
#
#
# Convention : Reuss Voigt Hill
#
# Bulk Modulus (GPa) = 52.72463 65.80826 59.26644
# Shear Modulus (GPa) = 32.24441 38.75456 35.49948
#
# Velocity S-wave (km/s) = 3.80599 4.17255 3.99348
# Velocity P-wave (km/s) = 6.55745 7.26481 6.92017
#
# Compressibility (1/GPa) = 0.01896647
#
# Stress axis : x y z
#
# Youngs Moduli (GPa) = 75.70726 124.66669 64.40442
#
# Poissons Ratio (x) = 0.47037 0.15497
# Poissons Ratio (y) = 0.28565 0.17492
# Poissons Ratio (z) = 0.18217 0.33859
#
# Static dielectric constant tensor:
#      x y z
#    x 3.850630 0.000000 -0.418060 
#    y 0.000000 4.196040 0.000000 
#    z -0.418060 0.000000 4.210130 
# 
# 
# High freq. dielectric constant tensor:
#      x y z
#    x 1.865430 0.000000 -0.029620 
#    y 0.000000 1.884430 0.000000 
#    z -0.029620 0.000000 1.886900 
# 
# From -- ./inp_files/246399.got.cif
#   From: 2010.06.25/outbox.cif.g09.slc.cpg/sg15_124_cif.got.tgz:246399.got - 2010.06.28 07:06:18.
