data_PCOD8147500
_publ_section_title
;
Structure prediction by ZEFSAII (Michael W. Deem and Ramdas Pophale) SiO2 
 PCOD8147500
Probable space group: C 2/C
;
_chemical_formula_sum "Si O2"
_cell_formula_units_Z 60
_cell_length_a 19.593319
_cell_length_b 26.490299
_cell_length_c 12.515759
_cell_angle_alpha 90.000000
_cell_angle_beta 153.306720
_cell_angle_gamma 90.000000
_cell_volume 2918.136163
_symmetry_space_group_name_H-M "C 2/C"
_symmetry_group_IT_number 15
_symmetry_cell_setting 'monoclinic'
loop_
_space_group_symop_operation_xyz
x,y,z
-x,y,1/2-z
-x,-y,-z
x,-y,1/2+z
1/2+x,1/2+y,z
1/2-x,1/2+y,1/2-z
1/2-x,1/2-y,-z
1/2+x,1/2-y,1/2+z
loop_
_atom_site_type_symbol
_atom_site_label
_atom_site_fract_x
_atom_site_fract_y
_atom_site_fract_z
Si Si1 0.308202 0.962597 0.149599
Si Si2 0.577928 0.073047 0.151420
Si Si3 0.137078 0.885495 0.522956
Si Si4 0.500000 0.126712 0.250000
Si Si5 0.396911 0.451937 0.836447
Si Si6 0.897796 0.112232 0.013492
Si Si7 0.966527 0.218140 0.577467
Si Si8 0.750387 0.196197 0.673318
O O1 0.466394 0.932787 0.392934
O O2 0.330750 0.021262 0.204232
O O3 0.247589 0.959627 0.943494
O O4 0.188693 0.937338 0.063267
O O5 0.700652 0.117927 0.309169
O O6 0.484660 0.089764 0.126362
O O7 0.162834 0.934422 0.632805
O O8 0.111516 0.835402 0.557783
O O9 0.000000 0.895566 0.250000
O O10 0.646103 0.163653 0.446526
O O11 0.501843 0.406425 0.943988
O O12 0.500000 0.500000 0.000000
O O13 0.000000 0.135473 0.250000
O O14 0.800127 0.158840 0.836538
O O15 0.846949 0.263224 0.394194
O O16 0.000000 0.217764 0.750000
O O17 0.115810 0.222753 0.710020
#
# Coordination Sequence:
#
# PCOD8147500 Si02
#       8
#     8   8   8   4   8   8   8   8
#     4  10  23  39  61  91 130 168 213 262 315 391
#     4  11  24  39  60  94 129 170 214 263 323 384
#     4  11  23  39  61  92 129 162 213 266 321 390
#     4  12  24  38  68  90 134 172 214 266 334 386
#     4  11  22  38  65  91 126 171 211 261 323 390
#     4  10  22  44  64  88 126 171 213 260 323 390
#     4  11  24  40  65  96 132 161 218 272 335 389
#     4  12  24  42  67  97 126 174 215 276 331 393
#
# _framework density 20.561070000000001
#
# number of rings (size 3 to 8) (size 9 to 14) (size 15 to 20)
#    0.000    1.067    3.333    3.600    3.733    3.733 
#    0.000    0.667    2.933    0.000    0.000    0.000 
#    0.000    0.000    0.000    0.000    0.000    0.000 
#
# Total GULP energy -371819.507558 kJ/mol
# GULP energy per Si atom -12393.983585 kJ/mol
# Density = 2.051427 g / cm^3
# Si number density = 20.561070 Si / 1000 Ang^3
#
#
#
# Elastic Constant Matrix: (Units=GPa)
#
#
# Indices 1 2 3 4 5 6 
#
# 1 88.9051 44.3434 43.2738 0.0000 4.4773 0.0000
# 2 44.3434 107.4548 61.3723 0.0000 -1.9112 0.0000
# 3 43.2738 61.3723 143.4813 0.0000 -6.2898 0.0000
# 4 0.0000 0.0000 0.0000 21.6922 0.0000 -3.4877
# 5 4.4773 -1.9112 -6.2898 0.0000 35.5411 0.0000
# 6 0.0000 0.0000 0.0000 -3.4877 0.0000 19.9262
#
#
#
# Elastic Compliance Matrix: (Units=1/GPa)
#
#
# Indices 1 2 3 4 5 6 
#
# 1 0.015022 -0.004754 -0.002612 0.000000 -0.002610 0.000000
# 2 -0.004754 0.013822 -0.004454 0.000000 0.000554 0.000000
# 3 -0.002612 -0.004454 0.009742 0.000000 0.001814 0.000000
# 4 0.000000 0.000000 0.000000 0.047434 0.000000 0.008302
# 5 -0.002610 0.000554 0.001814 0.000000 0.028816 0.000000
# 6 0.000000 0.000000 0.000000 0.008302 0.000000 0.051638
#
#
# Mechanical properties :
#
#
# Convention : Reuss Voigt Hill
#
# Bulk Modulus (GPa) = 66.90577 70.86890 68.88733
# Shear Modulus (GPa) = 25.62853 28.15534 26.89194
#
# Velocity S-wave (km/s) = 3.53435 3.70449 3.62042
# Velocity P-wave (km/s) = 7.01899 7.26911 7.14515
#
# Compressibility (1/GPa) = 0.01494639
#
# Stress axis : x y z
#
# Youngs Moduli (GPa) = 66.57069 72.34963 102.64993
#
# Poissons Ratio (x) = 0.34394 0.26807
# Poissons Ratio (y) = 0.31647 0.45721
# Poissons Ratio (z) = 0.17385 0.32225
#
# Static dielectric constant tensor:
#      x y z
#    x 3.578040 0.000000 0.051460 
#    y 0.000000 3.932590 0.000000 
#    z 0.051460 0.000000 3.844890 
# 
# 
# High freq. dielectric constant tensor:
#      x y z
#    x 1.798800 0.000000 0.009460 
#    y 0.000000 1.806120 0.000000 
#    z 0.009460 0.000000 1.806680 
# 
# From -- ./inp_files/108443.got.cif
#   From: 2010.06.25/outbox.cif.g09.slc.cpg/sg15_55_cif.got.tgz:108443.got - 2010.06.28 07:06:18.
