data_PCOD8147021
_publ_section_title
;
Structure prediction by ZEFSAII (Michael W. Deem and Ramdas Pophale) SiO2 
 PCOD8147021
Probable space group: C 2/C
;
_chemical_formula_sum "Si O2"
_cell_formula_units_Z 36
_cell_length_a 11.545246
_cell_length_b 8.748657
_cell_length_c 16.270653
_cell_angle_alpha 90.000000
_cell_angle_beta 90.335506
_cell_angle_gamma 90.000000
_cell_volume 1643.395594
_symmetry_space_group_name_H-M "C 2/C"
_symmetry_group_IT_number 15
_symmetry_cell_setting 'monoclinic'
loop_
_space_group_symop_operation_xyz
x,y,z
-x,y,1/2-z
-x,-y,-z
x,-y,1/2+z
1/2+x,1/2+y,z
1/2-x,1/2+y,1/2-z
1/2-x,1/2-y,-z
1/2+x,1/2-y,1/2+z
loop_
_atom_site_type_symbol
_atom_site_label
_atom_site_fract_x
_atom_site_fract_y
_atom_site_fract_z
Si Si1 0.000000 0.322350 0.750000
Si Si2 0.202921 0.851255 0.197065
Si Si3 0.077829 0.643807 0.082090
Si Si4 0.130270 0.318735 0.032384
Si Si5 0.882811 0.178344 0.292128
O O1 0.110710 0.210639 0.763880
O O2 0.981496 0.421130 0.833096
O O3 0.328639 0.800239 0.228489
O O4 0.170651 0.776272 0.107432
O O5 0.202222 0.034143 0.194396
O O6 0.858444 0.496177 0.963053
O O7 0.977227 0.721332 0.027325
O O8 0.095793 0.253218 0.120071
O O9 0.250000 0.250000 0.000000
O O10 0.000000 0.121018 0.250000
#
# Coordination Sequence:
#
# PCOD8147021 Si02
#       5
#     4   8   8   8   8
#     4   8  18  42  70  88 132 178 218 272 330 390
#     4  10  22  42  68  98 136 175 226 281 328 400
#     4   9  21  41  66  92 135 177 219 274 334 390
#     4  11  24  40  65 103 137 174 223 281 335 392
#     4  12  25  42  69 102 132 181 228 273 338 403
#
# _framework density 21.905864000000001
#
# number of rings (size 3 to 8) (size 9 to 14) (size 15 to 20)
#    1.333    0.444    1.111    2.667    1.556    6.222 
#    0.000    2.222    0.000    0.000    0.000    0.000 
#    0.000    0.000    0.000    0.000    0.000    0.000 
#
# Total GULP energy -223059.037436 kJ/mol
# GULP energy per Si atom -12392.168746 kJ/mol
# Density = 2.185600 g / cm^3
# Si number density = 21.905864 Si / 1000 Ang^3
#
#
#
# Elastic Constant Matrix: (Units=GPa)
#
#
# Indices 1 2 3 4 5 6 
#
# 1 92.3103 41.5741 54.7531 0.0000 23.4851 0.0000
# 2 41.5741 101.0850 34.3500 0.0000 15.5033 0.0000
# 3 54.7531 34.3500 103.7626 0.0000 39.3470 0.0000
# 4 0.0000 0.0000 0.0000 29.8849 0.0000 -2.5706
# 5 23.4851 15.5033 39.3470 0.0000 39.7869 0.0000
# 6 0.0000 0.0000 0.0000 -2.5706 0.0000 38.0801
#
#
#
# Elastic Compliance Matrix: (Units=1/GPa)
#
#
# Indices 1 2 3 4 5 6 
#
# 1 0.017508 -0.004536 -0.007182 0.000000 -0.001465 0.000000
# 2 -0.004536 0.012352 -0.001417 0.000000 -0.000734 0.000000
# 3 -0.007182 -0.001417 0.019327 0.000000 -0.014322 0.000000
# 4 0.000000 0.000000 0.000000 0.033657 0.000000 0.002272
# 5 -0.001465 -0.000734 -0.014322 0.000000 0.040448 0.000000
# 6 0.000000 0.000000 0.000000 0.002272 0.000000 0.026414
#
#
# Mechanical properties :
#
#
# Convention : Reuss Voigt Hill
#
# Bulk Modulus (GPa) = 43.63327 62.05693 52.84510
# Shear Modulus (GPa) = 27.23075 32.64908 29.93991
#
# Velocity S-wave (km/s) = 3.52956 3.86479 3.70097
# Velocity P-wave (km/s) = 6.04749 6.95025 6.51452
#
# Compressibility (1/GPa) = 0.02291829
#
# Stress axis : x y z
#
# Youngs Moduli (GPa) = 57.11599 80.95632 51.74073
#
# Poissons Ratio (x) = 0.36719 0.37158
# Poissons Ratio (y) = 0.25906 0.07334
# Poissons Ratio (z) = 0.41019 0.11475
#
# Static dielectric constant tensor:
#      x y z
#    x 3.757460 0.000000 0.160070 
#    y 0.000000 3.677330 0.000000 
#    z 0.160070 0.000000 3.831680 
# 
# 
# High freq. dielectric constant tensor:
#      x y z
#    x 1.858920 0.000000 0.014260 
#    y 0.000000 1.852080 0.000000 
#    z 0.014260 0.000000 1.853650 
# 
# From -- ./inp_files/194892.got.cif
#   From: 2010.06.25/outbox.cif.g09.slc.cpg/sg15_98_cif.got.tgz:194892.got - 2010.06.28 07:06:18.
