data_PCOD8147855
_publ_section_title
;
Structure prediction by ZEFSAII (Michael W. Deem and Ramdas Pophale) SiO2 
 PCOD8147855
Probable space group: C 2/C
;
_chemical_formula_sum "Si O2"
_cell_formula_units_Z 40
_cell_length_a 9.286048
_cell_length_b 11.565721
_cell_length_c 20.821671
_cell_angle_alpha 90.000000
_cell_angle_beta 140.609997
_cell_angle_gamma 90.000000
_cell_volume 1419.110864
_symmetry_space_group_name_H-M "C 2/C"
_symmetry_group_IT_number 15
_symmetry_cell_setting 'monoclinic'
loop_
_space_group_symop_operation_xyz
x,y,z
-x,y,1/2-z
-x,-y,-z
x,-y,1/2+z
1/2+x,1/2+y,z
1/2-x,1/2+y,1/2-z
1/2-x,1/2-y,-z
1/2+x,1/2-y,1/2+z
loop_
_atom_site_type_symbol
_atom_site_label
_atom_site_fract_x
_atom_site_fract_y
_atom_site_fract_z
Si Si1 0.724733 0.184396 0.860302
Si Si2 0.273603 0.622781 0.637830
Si Si3 0.638662 0.099714 0.173775
Si Si4 0.994830 0.182268 0.393260
Si Si5 0.843582 0.949869 0.016316
O O1 0.500000 0.127714 0.750000
O O2 0.825481 0.279021 0.847626
O O3 0.656001 0.244349 0.902632
O O4 0.922258 0.089234 0.936776
O O5 0.500000 0.667296 0.750000
O O6 0.197841 0.504269 0.645761
O O7 0.099451 0.728698 0.586167
O O8 0.309093 0.603935 0.575014
O O9 0.802825 0.103098 0.291926
O O10 0.373697 0.086973 0.102135
O O11 0.158795 0.088796 0.482759
#
# Coordination Sequence:
#
# PCOD8147855 Si02
#       5
#     8   8   8   8   8
#     4  10  22  45  71  99 149 187 229 296 365 413
#     4  12  23  46  77 102 144 195 242 292 362 428
#     4  11  23  46  75 104 146 193 237 296 367 423
#     4  11  26  47  72 107 145 194 238 298 363 431
#     4  12  25  48  74 107 145 191 241 299 357 433
#
# _framework density 28.186664
#
# number of rings (size 3 to 8) (size 9 to 14) (size 15 to 20)
#    0.000    0.800    4.000    4.200    0.000    1.600 
#    3.600    1.000    0.000    0.000    0.000    0.000 
#    0.000    0.000    0.000    0.000    0.000    0.000 
#
# Total GULP energy -248095.448836 kJ/mol
# GULP energy per Si atom -12404.772442 kJ/mol
# Density = 2.812251 g / cm^3
# Si number density = 28.186664 Si / 1000 Ang^3
#
#
#
# Elastic Constant Matrix: (Units=GPa)
#
#
# Indices 1 2 3 4 5 6 
#
# 1 121.2722 24.1908 59.9825 0.0000 20.9840 0.0000
# 2 24.1908 106.0882 54.3431 0.0000 25.9804 0.0000
# 3 59.9825 54.3431 155.5423 0.0000 42.9199 0.0000
# 4 0.0000 0.0000 0.0000 52.6100 0.0000 20.3526
# 5 20.9840 25.9804 42.9199 0.0000 57.8792 0.0000
# 6 0.0000 0.0000 0.0000 20.3526 0.0000 22.1197
#
#
#
# Elastic Compliance Matrix: (Units=1/GPa)
#
#
# Indices 1 2 3 4 5 6 
#
# 1 0.010240 -0.000264 -0.003602 0.000000 -0.000923 0.000000
# 2 -0.000264 0.011844 -0.003263 0.000000 -0.002801 0.000000
# 3 -0.003602 -0.003263 0.010302 0.000000 -0.004868 0.000000
# 4 0.000000 0.000000 0.000000 0.029513 0.000000 -0.027155
# 5 -0.000923 -0.002801 -0.004868 0.000000 0.022479 0.000000
# 6 0.000000 0.000000 0.000000 -0.027155 0.000000 0.070194
#
#
# Mechanical properties :
#
#
# Convention : Reuss Voigt Hill
#
# Bulk Modulus (GPa) = 55.16638 73.32616 64.24627
# Shear Modulus (GPa) = 28.59219 42.81420 35.70320
#
# Velocity S-wave (km/s) = 3.18840 3.90160 3.56289
# Velocity P-wave (km/s) = 5.75924 6.80938 6.30620
#
# Compressibility (1/GPa) = 0.01812698
#
# Stress axis : x y z
#
# Youngs Moduli (GPa) = 97.65803 84.43208 97.07133
#
# Poissons Ratio (x) = 0.02227 0.34965
# Poissons Ratio (y) = 0.02576 0.31678
# Poissons Ratio (z) = 0.35176 0.27554
#
# Static dielectric constant tensor:
#      x y z
#    x 5.329870 0.000000 0.234110 
#    y 0.000000 5.176590 0.000000 
#    z 0.234110 0.000000 5.815190 
# 
# 
# High freq. dielectric constant tensor:
#      x y z
#    x 2.149020 0.000000 0.003730 
#    y 0.000000 2.157890 0.000000 
#    z 0.003730 0.000000 2.166630 
# 
# From -- ./inp_files/292407.got.cif
#   From: 2010.06.25/outbox.cif.g09.slc.cpg/sg15_147_cif.got.tgz:292407.got - 2010.06.28 07:06:18.
