data_PCOD8147931
_publ_section_title
;
Structure prediction by ZEFSAII (Michael W. Deem and Ramdas Pophale) SiO2 
 PCOD8147931
Probable space group: C 2/C
;
_chemical_formula_sum "Si O2"
_cell_formula_units_Z 44
_cell_length_a 20.686650
_cell_length_b 11.258732
_cell_length_c 9.204763
_cell_angle_alpha 90.000000
_cell_angle_beta 66.919462
_cell_angle_gamma 90.000000
_cell_volume 1972.235206
_symmetry_space_group_name_H-M "C 2/C"
_symmetry_group_IT_number 15
_symmetry_cell_setting 'monoclinic'
loop_
_space_group_symop_operation_xyz
x,y,z
-x,y,1/2-z
-x,-y,-z
x,-y,1/2+z
1/2+x,1/2+y,z
1/2-x,1/2+y,1/2-z
1/2-x,1/2-y,-z
1/2+x,1/2-y,1/2+z
loop_
_atom_site_type_symbol
_atom_site_label
_atom_site_fract_x
_atom_site_fract_y
_atom_site_fract_z
Si Si1 0.164604 0.820797 0.307018
Si Si2 0.548811 0.504884 0.821089
Si Si3 0.500000 0.933400 0.250000
Si Si4 0.125384 0.417218 0.696862
Si Si5 0.178828 0.385673 0.330623
Si Si6 0.604545 0.737707 0.155499
O O1 0.128631 0.715573 0.249870
O O2 0.244722 0.839678 0.190339
O O3 0.160913 0.798069 0.482958
O O4 0.122845 0.937383 0.295118
O O5 0.500000 0.578053 0.750000
O O6 0.560982 0.376006 0.741231
O O7 0.500000 0.500000 0.000000
O O8 0.554899 0.840695 0.125427
O O9 0.450423 0.020713 0.197001
O O10 0.135738 0.416669 0.514090
O O11 0.184869 0.495361 0.726568
O O12 0.141369 0.284041 0.269405
#
# Coordination Sequence:
#
# PCOD8147931 Si02
#       6
#     8   8   4   8   8   8
#     4  12  27  44  71 100 144 183 232 289 345 420
#     4  12  26  44  69 102 139 182 231 284 354 407
#     4  10  22  46  70  98 134 174 230 286 342 400
#     4  11  26  44  71 105 136 183 236 288 346 412
#     4  11  27  44  72 100 141 183 232 285 351 413
#     4  11  24  46  71  99 138 184 230 287 347 416
#
# _framework density 22.309712999999999
#
# number of rings (size 3 to 8) (size 9 to 14) (size 15 to 20)
#    0.000    0.727    2.727    3.273    8.909    6.545 
#    0.000    0.000    0.000    0.000    0.000    0.000 
#    0.000    0.000    0.000    0.000    0.000    0.000 
#
# Total GULP energy -272648.389128 kJ/mol
# GULP energy per Si atom -12393.108597 kJ/mol
# Density = 2.225893 g / cm^3
# Si number density = 22.309713 Si / 1000 Ang^3
#
#
#
# Elastic Constant Matrix: (Units=GPa)
#
#
# Indices 1 2 3 4 5 6 
#
# 1 129.4588 50.6677 31.5094 0.0000 -2.6427 0.0000
# 2 50.6677 116.4808 27.3172 0.0000 2.2217 0.0000
# 3 31.5094 27.3172 120.3548 0.0000 17.1378 0.0000
# 4 0.0000 0.0000 0.0000 23.9027 0.0000 10.4056
# 5 -2.6427 2.2217 17.1378 0.0000 36.2158 0.0000
# 6 0.0000 0.0000 0.0000 10.4056 0.0000 38.4901
#
#
#
# Elastic Compliance Matrix: (Units=1/GPa)
#
#
# Indices 1 2 3 4 5 6 
#
# 1 0.009728 -0.003810 -0.001948 0.000000 0.001865 0.000000
# 2 -0.003810 0.010567 -0.001361 0.000000 -0.000282 0.000000
# 3 -0.001948 -0.001361 0.009796 0.000000 -0.004694 0.000000
# 4 0.000000 0.000000 0.000000 0.047417 0.000000 -0.012819
# 5 0.001865 -0.000282 -0.004694 0.000000 0.029987 0.000000
# 6 0.000000 0.000000 0.000000 -0.012819 0.000000 0.029446
#
#
# Mechanical properties :
#
#
# Convention : Reuss Voigt Hill
#
# Bulk Modulus (GPa) = 63.07664 65.03145 64.05405
# Shear Modulus (GPa) = 31.95658 36.84173 34.39915
#
# Velocity S-wave (km/s) = 3.78882 4.06812 3.93095
# Velocity P-wave (km/s) = 6.89019 7.16092 7.02686
#
# Compressibility (1/GPa) = 0.01585373
#
# Stress axis : x y z
#
# Youngs Moduli (GPa) = 102.79768 94.63388 102.08358
#
# Poissons Ratio (x) = 0.36059 0.19881
# Poissons Ratio (y) = 0.39169 0.13890
# Poissons Ratio (z) = 0.20020 0.12876
#
# Static dielectric constant tensor:
#      x y z
#    x 3.902900 0.000000 -0.004270 
#    y 0.000000 4.210330 0.000000 
#    z -0.004270 0.000000 3.873030 
# 
# 
# High freq. dielectric constant tensor:
#      x y z
#    x 1.887190 0.000000 0.004720 
#    y 0.000000 1.888740 0.000000 
#    z 0.004720 0.000000 1.871320 
# 
# From -- ./inp_files/54350.got.cif
#   From: 2010.06.25/outbox.cif.g09.slc.cpg/sg15_28_cif.got.tgz:54350.got - 2010.06.28 07:06:18.
