data_PCOD8147888
_publ_section_title
;
Structure prediction by ZEFSAII (Michael W. Deem and Ramdas Pophale) SiO2 
 PCOD8147888
Probable space group: C 2/C
;
_chemical_formula_sum "Si O2"
_cell_formula_units_Z 60
_cell_length_a 10.983246
_cell_length_b 16.250969
_cell_length_c 17.356056
_cell_angle_alpha 90.000000
_cell_angle_beta 73.579770
_cell_angle_gamma 90.000000
_cell_volume 2971.506102
_symmetry_space_group_name_H-M "C 2/C"
_symmetry_group_IT_number 15
_symmetry_cell_setting 'monoclinic'
loop_
_space_group_symop_operation_xyz
x,y,z
-x,y,1/2-z
-x,-y,-z
x,-y,1/2+z
1/2+x,1/2+y,z
1/2-x,1/2+y,1/2-z
1/2-x,1/2-y,-z
1/2+x,1/2-y,1/2+z
loop_
_atom_site_type_symbol
_atom_site_label
_atom_site_fract_x
_atom_site_fract_y
_atom_site_fract_z
Si Si1 0.625162 0.747929 0.774349
Si Si2 0.452564 0.965917 0.088925
Si Si3 0.197232 0.487459 0.629904
Si Si4 0.500000 0.481811 0.750000
Si Si5 0.726241 0.918888 0.790712
Si Si6 0.156568 0.143846 0.487617
Si Si7 0.695965 0.199395 0.893254
Si Si8 0.934642 0.092851 0.619103
O O1 0.500000 0.774925 0.750000
O O2 0.680958 0.825744 0.810349
O O3 0.732110 0.707770 0.700612
O O4 0.588333 0.684180 0.846570
O O5 0.565064 0.971338 0.130575
O O6 0.333759 0.021593 0.134849
O O7 0.409970 0.871105 0.092468
O O8 0.500000 0.000000 0.000000
O O9 0.179646 0.446546 0.715503
O O10 0.235244 0.417314 0.562112
O O11 0.302634 0.557589 0.613215
O O12 0.377794 0.423139 0.772952
O O13 0.498365 0.538710 0.674837
O O14 0.199120 0.181194 0.561175
O O15 0.129741 0.214295 0.428533
O O16 0.026078 0.095588 0.528015
#
# Coordination Sequence:
#
# PCOD8147888 Si02
#       8
#     8   8   8   4   8   8   8   8
#     4  12  22  40  66  93 124 169 221 269 316 388
#     4  12  25  42  66  98 133 170 213 272 331 386
#     4  11  23  43  63  96 129 171 214 267 329 386
#     4  10  22  46  64  92 128 176 216 268 328 384
#     4  11  25  42  68  95 130 171 219 266 324 394
#     4  11  21  39  63  95 125 163 220 267 320 389
#     4  11  23  39  63  92 127 168 214 272 323 380
#     4  11  22  39  67  91 124 172 219 263 320 394
#
# _framework density 20.191780000000001
#
# number of rings (size 3 to 8) (size 9 to 14) (size 15 to 20)
#    0.000    0.800    4.667    4.000    1.867    0.000 
#    2.400    0.667    0.000    0.000    0.000    0.000 
#    0.000    0.000    0.000    0.000    0.000    0.000 
#
# Total GULP energy -372178.923295 kJ/mol
# GULP energy per Si atom -12405.964110 kJ/mol
# Density = 2.014582 g / cm^3
# Si number density = 20.191780 Si / 1000 Ang^3
#
#
#
# Elastic Constant Matrix: (Units=GPa)
#
#
# Indices 1 2 3 4 5 6 
#
# 1 108.1689 48.1314 17.1931 0.0000 -0.0184 0.0000
# 2 48.1314 118.6551 8.4270 0.0000 -5.4249 0.0000
# 3 17.1931 8.4270 64.2102 0.0000 -17.4892 0.0000
# 4 0.0000 0.0000 0.0000 17.3798 0.0000 -0.8013
# 5 -0.0184 -5.4249 -17.4892 0.0000 30.8892 0.0000
# 6 0.0000 0.0000 0.0000 -0.8013 0.0000 33.7374
#
#
#
# Elastic Compliance Matrix: (Units=1/GPa)
#
#
# Indices 1 2 3 4 5 6 
#
# 1 0.011858 -0.004699 -0.003288 0.000000 -0.002680 0.000000
# 2 -0.004699 0.010396 0.000462 0.000000 0.002084 0.000000
# 3 -0.003288 0.000462 0.019408 0.000000 0.011068 0.000000
# 4 0.000000 0.000000 0.000000 0.057601 0.000000 0.001368
# 5 -0.002680 0.002084 0.011068 0.000000 0.039005 0.000000
# 6 0.000000 0.000000 0.000000 0.001368 0.000000 0.029673
#
#
# Mechanical properties :
#
#
# Convention : Reuss Voigt Hill
#
# Bulk Modulus (GPa) = 37.57848 48.72635 43.15241
# Shear Modulus (GPa) = 26.06011 30.88679 28.47345
#
# Velocity S-wave (km/s) = 3.59643 3.91534 3.75927
# Velocity P-wave (km/s) = 5.99141 6.68012 6.34512
#
# Compressibility (1/GPa) = 0.02661098
#
# Stress axis : x y z
#
# Youngs Moduli (GPa) = 84.33166 96.18674 51.52400
#
# Poissons Ratio (x) = 0.45199 0.16943
# Poissons Ratio (y) = 0.39628 -0.02378
# Poissons Ratio (z) = 0.27732 -0.04439
#
# Static dielectric constant tensor:
#      x y z
#    x 3.636870 0.000000 -0.157140 
#    y 0.000000 3.736960 0.000000 
#    z -0.157140 0.000000 3.726640 
# 
# 
# High freq. dielectric constant tensor:
#      x y z
#    x 1.783560 0.000000 -0.018330 
#    y 0.000000 1.793940 0.000000 
#    z -0.018330 0.000000 1.793560 
# 
# From -- ./inp_files/197842.got.cif
#   From: 2010.06.25/outbox.cif.g09.slc.cpg/sg15_99_cif.got.tgz:197842.got - 2010.06.28 07:06:18.
