data_PCOD8147719
_publ_section_title
;
Structure prediction by ZEFSAII (Michael W. Deem and Ramdas Pophale) SiO2 
 PCOD8147719
Probable space group: C 2/C
;
_chemical_formula_sum "Si O2"
_cell_formula_units_Z 44
_cell_length_a 12.651034
_cell_length_b 5.218494
_cell_length_c 30.276944
_cell_angle_alpha 90.000000
_cell_angle_beta 103.794731
_cell_angle_gamma 90.000000
_cell_volume 1941.209202
_symmetry_space_group_name_H-M "C 2/C"
_symmetry_group_IT_number 15
_symmetry_cell_setting 'monoclinic'
loop_
_space_group_symop_operation_xyz
x,y,z
-x,y,1/2-z
-x,-y,-z
x,-y,1/2+z
1/2+x,1/2+y,z
1/2-x,1/2+y,1/2-z
1/2-x,1/2-y,-z
1/2+x,1/2-y,1/2+z
loop_
_atom_site_type_symbol
_atom_site_label
_atom_site_fract_x
_atom_site_fract_y
_atom_site_fract_z
Si Si1 0.566549 0.301965 0.664010
Si Si2 0.690638 0.954414 0.964854
Si Si3 0.003719 0.299074 0.892404
Si Si4 0.774503 0.413399 0.725722
Si Si5 0.500000 0.130193 0.750000
Si Si6 0.411986 0.712796 0.976597
O O1 0.505378 0.520236 0.630549
O O2 0.697448 0.348423 0.675831
O O3 0.532459 0.311551 0.712202
O O4 0.540448 0.020645 0.643497
O O5 0.631832 0.835185 0.916084
O O6 0.785188 0.139485 0.958149
O O7 0.750000 0.750000 0.000000
O O8 0.592150 0.077027 0.984633
O O9 0.937854 0.318809 0.931214
O O10 0.770124 0.181045 0.759615
O O11 0.899921 0.450332 0.724244
O O12 0.500000 0.500000 0.000000
#
# Coordination Sequence:
#
# PCOD8147719 Si02
#       6
#     8   8   8   8   4   8
#     4  11  26  45  70 106 141 184 237 292 353 419
#     4  11  25  44  74 102 137 194 241 276 362 434
#     4  12  26  46  69 107 147 179 239 298 342 418
#     4  10  22  44  71  98 129 179 231 279 352 423
#     4  10  24  50  74  96 142 190 228 292 358 414
#     4  11  24  46  69  98 143 191 231 297 354 422
#
# _framework density 22.666284999999998
#
# number of rings (size 3 to 8) (size 9 to 14) (size 15 to 20)
#    0.000    1.091    1.818    3.818    5.091    8.000 
#    0.000    5.455    0.000    0.000    0.000    0.000 
#    0.000    0.000    0.000    0.000    0.000    0.000 
#
# Total GULP energy -272710.855250 kJ/mol
# GULP energy per Si atom -12395.947966 kJ/mol
# Density = 2.261470 g / cm^3
# Si number density = 22.666285 Si / 1000 Ang^3
#
#
#
# Elastic Constant Matrix: (Units=GPa)
#
#
# Indices 1 2 3 4 5 6 
#
# 1 103.9743 25.9272 53.2359 0.0000 4.9877 0.0000
# 2 25.9272 101.9349 27.4594 0.0000 0.5069 0.0000
# 3 53.2359 27.4594 101.6829 0.0000 15.5956 0.0000
# 4 0.0000 0.0000 0.0000 43.3242 0.0000 5.8758
# 5 4.9877 0.5069 15.5956 0.0000 39.9062 0.0000
# 6 0.0000 0.0000 0.0000 5.8758 0.0000 24.5330
#
#
#
# Elastic Compliance Matrix: (Units=1/GPa)
#
#
# Indices 1 2 3 4 5 6 
#
# 1 0.013424 -0.001602 -0.006746 0.000000 0.000979 0.000000
# 2 -0.001602 0.010812 -0.002224 0.000000 0.000932 0.000000
# 3 -0.006746 -0.002224 0.014715 0.000000 -0.004879 0.000000
# 4 0.000000 0.000000 0.000000 0.023857 0.000000 -0.005714
# 5 0.000979 0.000932 -0.004879 0.000000 0.026831 0.000000
# 6 0.000000 0.000000 0.000000 -0.005714 0.000000 0.042130
#
#
# Mechanical properties :
#
#
# Convention : Reuss Voigt Hill
#
# Bulk Modulus (GPa) = 56.15486 57.87079 57.01282
# Shear Modulus (GPa) = 31.47644 34.95068 33.21356
#
# Velocity S-wave (km/s) = 3.73056 3.93105 3.83211
# Velocity P-wave (km/s) = 6.58669 6.79642 6.69237
#
# Compressibility (1/GPa) = 0.01780790
#
# Stress axis : x y z
#
# Youngs Moduli (GPa) = 74.49258 92.48854 67.95728
#
# Poissons Ratio (x) = 0.14818 0.45842
# Poissons Ratio (y) = 0.11935 0.15113
# Poissons Ratio (z) = 0.50250 0.20569
#
# Static dielectric constant tensor:
#      x y z
#    x 3.733950 0.000000 0.200480 
#    y 0.000000 4.060900 0.000000 
#    z 0.200480 0.000000 4.177640 
# 
# 
# High freq. dielectric constant tensor:
#      x y z
#    x 1.910540 0.000000 0.021930 
#    y 0.000000 1.902210 0.000000 
#    z 0.021930 0.000000 1.888270 
# 
# From -- ./inp_files/309456.got.cif
#   From: 2010.06.25/outbox.cif.g09.slc.cpg/sg15_155_cif.got.tgz:309456.got - 2010.06.28 07:06:18.
