data_PCOD8147499
_publ_section_title
;
Structure prediction by ZEFSAII (Michael W. Deem and Ramdas Pophale) SiO2 
 PCOD8147499
Probable space group: C 2/C
;
_chemical_formula_sum "Si O2"
_cell_formula_units_Z 56
_cell_length_a 8.674820
_cell_length_b 13.930484
_cell_length_c 22.193500
_cell_angle_alpha 90.000000
_cell_angle_beta 93.705269
_cell_angle_gamma 90.000000
_cell_volume 2676.354948
_symmetry_space_group_name_H-M "C 2/C"
_symmetry_group_IT_number 15
_symmetry_cell_setting 'monoclinic'
loop_
_space_group_symop_operation_xyz
x,y,z
-x,y,1/2-z
-x,-y,-z
x,-y,1/2+z
1/2+x,1/2+y,z
1/2-x,1/2+y,1/2-z
1/2-x,1/2-y,-z
1/2+x,1/2-y,1/2+z
loop_
_atom_site_type_symbol
_atom_site_label
_atom_site_fract_x
_atom_site_fract_y
_atom_site_fract_z
Si Si1 0.722083 0.330841 0.169633
Si Si2 0.800096 0.977336 0.540377
Si Si3 0.677409 0.300232 0.441014
Si Si4 0.230253 0.184441 0.164838
Si Si5 0.500000 0.774309 0.750000
Si Si6 0.500000 0.769750 0.250000
Si Si7 0.134211 0.991320 0.591634
Si Si8 0.832489 0.282066 0.941643
O O1 0.579775 0.293177 0.203878
O O2 0.657732 0.431403 0.144359
O O3 0.765614 0.256545 0.117381
O O4 0.874387 0.339346 0.215303
O O5 0.773660 0.088627 0.553656
O O6 0.801862 0.963640 0.468365
O O7 0.670764 0.900158 0.560823
O O8 0.961559 0.951931 0.576362
O O9 0.750000 0.250000 0.500000
O O10 0.743893 0.276387 0.376993
O O11 0.497327 0.271255 0.440028
O O12 0.374451 0.161025 0.212288
O O13 0.079747 0.200462 0.202416
O O14 0.227029 0.099922 0.116468
O O15 0.750000 0.250000 0.000000
#
# Coordination Sequence:
#
# PCOD8147499 Si02
#       8
#     8   8   8   8   4   4   8   8
#     4  11  22  43  66  96 132 181 230 279 336 405
#     4  11  22  40  66 104 134 179 215 266 360 417
#     4  12  25  43  67 102 141 172 217 291 347 407
#     4  11  23  44  65  95 134 173 226 281 335 401
#     4  10  22  44  64  82 136 184 220 280 338 376
#     4  10  26  42  66  94 128 188 232 276 328 406
#     4  11  21  39  68  97 134 170 224 280 333 416
#     4  12  23  41  72  99 136 179 222 280 346 417
#
# _framework density 20.923981000000001
#
# number of rings (size 3 to 8) (size 9 to 14) (size 15 to 20)
#    0.000    0.857    5.714    1.714    2.000    1.714 
#    2.571    5.714    0.000    0.000    0.000    0.000 
#    0.000    0.000    0.000    0.000    0.000    0.000 
#
# Total GULP energy -346969.753596 kJ/mol
# GULP energy per Si atom -12391.776914 kJ/mol
# Density = 2.087636 g / cm^3
# Si number density = 20.923981 Si / 1000 Ang^3
#
#
#
# Elastic Constant Matrix: (Units=GPa)
#
#
# Indices 1 2 3 4 5 6 
#
# 1 77.3128 26.8095 38.7044 0.0000 -3.8946 0.0000
# 2 26.8095 114.4137 28.1759 0.0000 7.8905 0.0000
# 3 38.7044 28.1759 112.6387 0.0000 2.1710 0.0000
# 4 0.0000 0.0000 0.0000 8.2776 0.0000 12.9593
# 5 -3.8946 7.8905 2.1710 0.0000 38.9499 0.0000
# 6 0.0000 0.0000 0.0000 12.9593 0.0000 24.8814
#
#
#
# Elastic Compliance Matrix: (Units=1/GPa)
#
#
# Indices 1 2 3 4 5 6 
#
# 1 0.016556 -0.002813 -0.005034 0.000000 0.002506 0.000000
# 2 -0.002813 0.009914 -0.001471 0.000000 -0.002208 0.000000
# 3 -0.005034 -0.001471 0.010991 0.000000 -0.000818 0.000000
# 4 0.000000 0.000000 0.000000 0.654497 0.000000 -0.340889
# 5 0.002506 -0.002208 -0.000818 0.000000 0.026417 0.000000
# 6 0.000000 0.000000 0.000000 -0.340889 0.000000 0.217740
#
#
# Mechanical properties :
#
#
# Convention : Reuss Voigt Hill
#
# Bulk Modulus (GPa) = 53.11584 54.63829 53.87707
# Shear Modulus (GPa) = 5.20278 28.46683 16.83480
#
# Velocity S-wave (km/s) = 1.57858 3.69248 2.83957
# Velocity P-wave (km/s) = 5.36310 6.65948 6.04613
#
# Compressibility (1/GPa) = 0.01882678
#
# Stress axis : x y z
#
# Youngs Moduli (GPa) = 60.40122 100.87018 90.98136
#
# Poissons Ratio (x) = 0.28371 0.45797
# Poissons Ratio (y) = 0.16989 0.13382
# Poissons Ratio (z) = 0.30404 0.14836
#
# Static dielectric constant tensor:
#      x y z
#    x 3.798570 0.000000 0.230390 
#    y 0.000000 3.803430 0.000000 
#    z 0.230390 0.000000 4.243730 
# 
# 
# High freq. dielectric constant tensor:
#      x y z
#    x 1.811110 0.000000 0.015270 
#    y 0.000000 1.811770 0.000000 
#    z 0.015270 0.000000 1.843850 
# 
# From -- ./inp_files/231641.got.cif
#   From: 2010.06.25/outbox.cif.g09.slc.cpg/sg15_116_cif.got.tgz:231641.got - 2010.06.28 07:06:18.
