data_PCOD8147419
_publ_section_title
;
Structure prediction by ZEFSAII (Michael W. Deem and Ramdas Pophale) SiO2 
 PCOD8147419
Probable space group: C 2/C
;
_chemical_formula_sum "Si O2"
_cell_formula_units_Z 48
_cell_length_a 17.976769
_cell_length_b 5.279051
_cell_length_c 21.949074
_cell_angle_alpha 90.000000
_cell_angle_beta 101.889184
_cell_angle_gamma 90.000000
_cell_volume 2038.289112
_symmetry_space_group_name_H-M "C 2/C"
_symmetry_group_IT_number 15
_symmetry_cell_setting 'monoclinic'
loop_
_space_group_symop_operation_xyz
x,y,z
-x,y,1/2-z
-x,-y,-z
x,-y,1/2+z
1/2+x,1/2+y,z
1/2-x,1/2+y,1/2-z
1/2-x,1/2-y,-z
1/2+x,1/2-y,1/2+z
loop_
_atom_site_type_symbol
_atom_site_label
_atom_site_fract_x
_atom_site_fract_y
_atom_site_fract_z
Si Si1 0.325474 0.159954 0.305322
Si Si2 0.909260 0.165883 0.362526
Si Si3 0.291623 0.993519 0.562427
Si Si4 0.693605 0.367727 0.328559
Si Si5 0.136042 0.115195 0.011311
Si Si6 0.419697 0.615946 0.114062
O O1 0.373567 0.395676 0.338346
O O2 0.310320 0.192090 0.231379
O O3 0.367277 0.892613 0.321771
O O4 0.243955 0.122943 0.324970
O O5 0.908626 0.184981 0.435263
O O6 0.996079 0.202855 0.355142
O O7 0.353442 0.176118 0.601919
O O8 0.267635 0.786736 0.609989
O O9 0.205779 0.093907 0.530853
O O10 0.326919 0.871863 0.507823
O O11 0.607826 0.432730 0.335949
O O12 0.076014 0.016180 0.951432
#
# Coordination Sequence:
#
# PCOD8147419 Si02
#       6
#     8   8   8   8   8   8
#     4  12  28  49  75 106 144 198 250 308 360 448
#     4  12  28  47  74 113 152 193 241 305 383 444
#     4  10  22  43  73 106 143 191 250 307 354 447
#     4  11  26  48  73 104 138 197 255 302 369 429
#     4  10  22  43  71 110 141 201 241 303 365 441
#     4  11  26  44  73 108 153 191 243 307 378 446
#
# _framework density 23.549163
#
# number of rings (size 3 to 8) (size 9 to 14) (size 15 to 20)
#    0.000    1.000    1.667    3.000   11.667    1.333 
#    0.000    0.000    0.000    0.000    0.000    0.000 
#    0.000    0.000    0.000    0.000    0.000    0.000 
#
# Total GULP energy -297473.381859 kJ/mol
# GULP energy per Si atom -12394.724244 kJ/mol
# Density = 2.349556 g / cm^3
# Si number density = 23.549163 Si / 1000 Ang^3
#
#
#
# Elastic Constant Matrix: (Units=GPa)
#
#
# Indices 1 2 3 4 5 6 
#
# 1 121.8875 30.4117 49.4270 0.0000 -1.9123 0.0000
# 2 30.4117 83.5694 11.7611 0.0000 6.7601 0.0000
# 3 49.4270 11.7611 81.3846 0.0000 -5.0761 0.0000
# 4 0.0000 0.0000 0.0000 31.0959 0.0000 5.6518
# 5 -1.9123 6.7601 -5.0761 0.0000 24.6192 0.0000
# 6 0.0000 0.0000 0.0000 5.6518 0.0000 25.7281
#
#
#
# Elastic Compliance Matrix: (Units=1/GPa)
#
#
# Indices 1 2 3 4 5 6 
#
# 1 0.011735 -0.003379 -0.006609 0.000000 0.000477 0.000000
# 2 -0.003379 0.013542 -0.000155 0.000000 -0.004013 0.000000
# 3 -0.006609 -0.000155 0.016506 0.000000 0.002933 0.000000
# 4 0.000000 0.000000 0.000000 0.033496 0.000000 -0.007358
# 5 0.000477 -0.004013 0.002933 0.000000 0.042362 0.000000
# 6 0.000000 0.000000 0.000000 -0.007358 0.000000 0.040484
#
#
# Mechanical properties :
#
#
# Convention : Reuss Voigt Hill
#
# Bulk Modulus (GPa) = 46.51704 52.22680 49.37192
# Shear Modulus (GPa) = 26.94290 29.30476 28.12383
#
# Velocity S-wave (km/s) = 3.38614 3.53144 3.45956
# Velocity P-wave (km/s) = 5.92317 6.23330 6.08022
#
# Compressibility (1/GPa) = 0.02149750
#
# Stress axis : x y z
#
# Youngs Moduli (GPa) = 85.21672 73.84346 60.58256
#
# Poissons Ratio (x) = 0.24951 0.40038
# Poissons Ratio (y) = 0.28794 0.00940
# Poissons Ratio (z) = 0.56318 0.01146
#
# Static dielectric constant tensor:
#      x y z
#    x 4.219560 0.000000 -0.114390 
#    y 0.000000 4.208400 0.000000 
#    z -0.114390 0.000000 4.339450 
# 
# 
# High freq. dielectric constant tensor:
#      x y z
#    x 1.933120 0.000000 -0.008100 
#    y 0.000000 1.921830 0.000000 
#    z -0.008100 0.000000 1.947270 
# 
# From -- ./inp_files/275711.got.cif
#   From: 2010.06.25/outbox.cif.g09.slc.cpg/sg15_138_cif.got.tgz:275711.got - 2010.06.28 07:06:18.
