data_PCOD8147046
_publ_section_title
;
Structure prediction by ZEFSAII (Michael W. Deem and Ramdas Pophale) SiO2 
 PCOD8147046
Probable space group: C 2/C
;
_chemical_formula_sum "Si O2"
_cell_formula_units_Z 60
_cell_length_a 17.957995
_cell_length_b 10.654970
_cell_length_c 14.512571
_cell_angle_alpha 90.000000
_cell_angle_beta 100.664424
_cell_angle_gamma 90.000000
_cell_volume 2728.900601
_symmetry_space_group_name_H-M "C 2/C"
_symmetry_group_IT_number 15
_symmetry_cell_setting 'monoclinic'
loop_
_space_group_symop_operation_xyz
x,y,z
-x,y,1/2-z
-x,-y,-z
x,-y,1/2+z
1/2+x,1/2+y,z
1/2-x,1/2+y,1/2-z
1/2-x,1/2-y,-z
1/2+x,1/2-y,1/2+z
loop_
_atom_site_type_symbol
_atom_site_label
_atom_site_fract_x
_atom_site_fract_y
_atom_site_fract_z
Si Si1 0.833525 0.792341 0.494406
Si Si2 0.500000 0.605409 0.750000
Si Si3 0.120443 0.283709 0.691698
Si Si4 0.937907 0.559949 0.847637
Si Si5 0.711776 0.867598 0.880962
Si Si6 0.104112 0.405540 0.358759
Si Si7 0.856633 0.250729 0.462160
Si Si8 0.432597 0.477064 0.055914
O O1 0.750000 0.750000 0.500000
O O2 0.838310 0.774719 0.386415
O O3 0.888655 0.709426 0.569993
O O4 0.858830 0.934741 0.522850
O O5 0.550254 0.695911 0.698484
O O6 0.542918 0.512774 0.831178
O O7 0.101137 0.425280 0.659808
O O8 0.173501 0.282589 0.793694
O O9 0.916035 0.635917 0.749663
O O10 0.907815 0.650297 0.919779
O O11 0.027455 0.526391 0.877940
O O12 0.802186 0.841910 0.888049
O O13 0.680870 0.010515 0.870022
O O14 0.694591 0.830308 0.981262
O O15 0.911749 0.166958 0.535601
O O16 0.500000 0.500000 0.000000
#
# Coordination Sequence:
#
# PCOD8147046 Si02
#       8
#     8   4   8   8   8   8   8   8
#     4  12  27  44  65  99 144 186 227 284 357 426
#     4  12  24  48  74 100 138 186 250 298 356 440
#     4  11  23  45  70  99 131 181 234 291 356 423
#     4  10  23  39  73 101 129 173 230 292 350 399
#     4  10  22  42  69  95 132 173 226 287 347 416
#     4  10  22  43  64  99 134 170 225 287 337 412
#     4  11  23  41  66 101 132 176 228 284 351 421
#     4  12  26  45  69 101 140 191 238 293 361 431
#
# _framework density 21.986877
#
# number of rings (size 3 to 8) (size 9 to 14) (size 15 to 20)
#    0.000    1.067    2.667    4.000    1.867    4.267 
#    0.000    0.000    0.000    0.000    0.000    0.000 
#    0.000    0.000    0.000    0.000    0.000    0.000 
#
# Total GULP energy -371755.912899 kJ/mol
# GULP energy per Si atom -12391.863763 kJ/mol
# Density = 2.193683 g / cm^3
# Si number density = 21.986877 Si / 1000 Ang^3
#
#
#
# Elastic Constant Matrix: (Units=GPa)
#
#
# Indices 1 2 3 4 5 6 
#
# 1 92.4123 21.7266 32.9377 0.0000 -10.9109 0.0000
# 2 21.7266 74.7967 36.7084 0.0000 -5.5780 0.0000
# 3 32.9377 36.7084 117.1654 0.0000 -10.1793 0.0000
# 4 0.0000 0.0000 0.0000 36.2555 0.0000 3.2137
# 5 -10.9109 -5.5780 -10.1793 0.0000 36.0743 0.0000
# 6 0.0000 0.0000 0.0000 3.2137 0.0000 37.1066
#
#
#
# Elastic Compliance Matrix: (Units=1/GPa)
#
#
# Indices 1 2 3 4 5 6 
#
# 1 0.012588 -0.002165 -0.002623 0.000000 0.002732 0.000000
# 2 -0.002165 0.016212 -0.004418 0.000000 0.000605 0.000000
# 3 -0.002623 -0.004418 0.010793 0.000000 0.001569 0.000000
# 4 0.000000 0.000000 0.000000 0.027795 0.000000 -0.002407
# 5 0.002732 0.000605 0.001569 0.000000 0.029083 0.000000
# 6 0.000000 0.000000 0.000000 -0.002407 0.000000 0.027158
#
#
# Mechanical properties :
#
#
# Convention : Reuss Voigt Hill
#
# Bulk Modulus (GPa) = 47.21455 51.90220 49.55838
# Shear Modulus (GPa) = 33.53427 34.75405 34.14416
#
# Velocity S-wave (km/s) = 3.90961 3.98008 3.94500
# Velocity P-wave (km/s) = 6.47307 6.69168 6.58329
#
# Compressibility (1/GPa) = 0.02117991
#
# Stress axis : x y z
#
# Youngs Moduli (GPa) = 79.44328 61.68298 92.65476
#
# Poissons Ratio (x) = 0.13357 0.24302
# Poissons Ratio (y) = 0.17203 0.40934
# Poissons Ratio (z) = 0.20837 0.27251
#
# Static dielectric constant tensor:
#      x y z
#    x 4.072910 0.000000 0.239580 
#    y 0.000000 3.677320 0.000000 
#    z 0.239580 0.000000 4.298150 
# 
# 
# High freq. dielectric constant tensor:
#      x y z
#    x 1.865780 0.000000 0.008520 
#    y 0.000000 1.855110 0.000000 
#    z 0.008520 0.000000 1.882340 
# 
# From -- ./inp_files/160970.got.cif
#   From: 2010.06.25/outbox.cif.g09.slc.cpg/sg15_81_cif.got.tgz:160970.got - 2010.06.28 07:06:18.
