data_PCOD8147680
_publ_section_title
;
Structure prediction by ZEFSAII (Michael W. Deem and Ramdas Pophale) SiO2 
 PCOD8147680
Probable space group: C 2/C
;
_chemical_formula_sum "Si O2"
_cell_formula_units_Z 36
_cell_length_a 21.154101
_cell_length_b 15.087083
_cell_length_c 13.764161
_cell_angle_alpha 90.000000
_cell_angle_beta 157.906594
_cell_angle_gamma 90.000000
_cell_volume 1652.240590
_symmetry_space_group_name_H-M "C 2/C"
_symmetry_group_IT_number 15
_symmetry_cell_setting 'monoclinic'
loop_
_space_group_symop_operation_xyz
x,y,z
-x,y,1/2-z
-x,-y,-z
x,-y,1/2+z
1/2+x,1/2+y,z
1/2-x,1/2+y,1/2-z
1/2-x,1/2-y,-z
1/2+x,1/2-y,1/2+z
loop_
_atom_site_type_symbol
_atom_site_label
_atom_site_fract_x
_atom_site_fract_y
_atom_site_fract_z
Si Si1 0.653483 0.322732 0.105478
Si Si2 0.641431 0.004511 0.283636
Si Si3 0.500000 0.456347 0.750000
Si Si4 0.375207 0.810252 0.236362
Si Si5 0.332119 0.825531 0.552717
O O1 0.813107 0.313707 0.260375
O O2 0.711879 0.356614 0.293853
O O3 0.518515 0.392539 0.870624
O O4 0.563298 0.227826 0.994463
O O5 0.608198 0.086574 0.305862
O O6 0.833357 0.016848 0.518144
O O7 0.628630 0.908350 0.316800
O O8 0.500000 0.000000 0.000000
O O9 0.250000 0.750000 0.000000
O O10 0.500000 0.780558 0.750000
O O11 0.250000 0.750000 0.500000
#
# Coordination Sequence:
#
# PCOD8147680 Si02
#       5
#     8   8   4   8   8
#     4  11  21  42  69 100 142 172 231 281 346 409
#     4  11  24  45  69  98 140 182 233 287 346 409
#     4  10  22  44  70 102 138 180 234 288 342 416
#     4  11  21  44  70 104 135 178 227 286 338 416
#     4  12  27  46  67 101 140 185 229 289 353 415
#
# _framework density 21.788595999999998
#
# number of rings (size 3 to 8) (size 9 to 14) (size 15 to 20)
#    0.000    0.889    4.444    5.333    1.556    2.667 
#    4.000    2.222    0.000    0.000    0.000    0.000 
#    0.000    0.000    0.000    0.000    0.000    0.000 
#
# Total GULP energy -223110.136377 kJ/mol
# GULP energy per Si atom -12395.007576 kJ/mol
# Density = 2.173900 g / cm^3
# Si number density = 21.788596 Si / 1000 Ang^3
#
#
#
# Elastic Constant Matrix: (Units=GPa)
#
#
# Indices 1 2 3 4 5 6 
#
# 1 113.2168 55.7782 50.6238 0.0000 -5.1842 0.0000
# 2 55.7782 133.1717 40.8279 0.0000 -6.6988 0.0000
# 3 50.6238 40.8279 138.8399 0.0000 -13.6321 0.0000
# 4 0.0000 0.0000 0.0000 38.9400 0.0000 3.0128
# 5 -5.1842 -6.6988 -13.6321 0.0000 59.8886 0.0000
# 6 0.0000 0.0000 0.0000 3.0128 0.0000 29.6920
#
#
#
# Elastic Compliance Matrix: (Units=1/GPa)
#
#
# Indices 1 2 3 4 5 6 
#
# 1 0.012353 -0.004172 -0.003292 0.000000 -0.000147 0.000000
# 2 -0.004172 0.009671 -0.001280 0.000000 0.000429 0.000000
# 3 -0.003292 -0.001280 0.008937 0.000000 0.001606 0.000000
# 4 0.000000 0.000000 0.000000 0.025884 0.000000 -0.002626
# 5 -0.000147 0.000429 0.001606 0.000000 0.017099 0.000000
# 6 0.000000 0.000000 0.000000 -0.002626 0.000000 0.033946
#
#
# Mechanical properties :
#
#
# Convention : Reuss Voigt Hill
#
# Bulk Modulus (GPa) = 74.22687 75.52091 74.87389
# Shear Modulus (GPa) = 38.50043 41.57068 40.03556
#
# Velocity S-wave (km/s) = 4.20813 4.37270 4.29120
# Velocity P-wave (km/s) = 7.59947 7.76080 7.68056
#
# Compressibility (1/GPa) = 0.01347221
#
# Stress axis : x y z
#
# Youngs Moduli (GPa) = 80.94983 103.40426 111.89446
#
# Poissons Ratio (x) = 0.43144 0.36833
# Poissons Ratio (y) = 0.33775 0.14327
# Poissons Ratio (z) = 0.26647 0.13240
#
# Static dielectric constant tensor:
#      x y z
#    x 2.707480 0.000000 0.050400 
#    y 0.000000 4.430950 0.000000 
#    z 0.050400 0.000000 4.259360 
# 
# 
# High freq. dielectric constant tensor:
#      x y z
#    x 1.841340 0.000000 0.004000 
#    y 0.000000 1.850620 0.000000 
#    z 0.004000 0.000000 1.881000 
# 
# From -- ./inp_files/173746.got.cif
#   From: 2010.06.25/outbox.cif.g09.slc.cpg/sg15_87_cif.got.tgz:173746.got - 2010.06.28 07:06:18.
