data_PCOD8147758
_publ_section_title
;
Structure prediction by ZEFSAII (Michael W. Deem and Ramdas Pophale) SiO2 
 PCOD8147758
Probable space group: C 2/C
;
_chemical_formula_sum "Si O2"
_cell_formula_units_Z 52
_cell_length_a 8.934223
_cell_length_b 16.980039
_cell_length_c 17.417751
_cell_angle_alpha 90.000000
_cell_angle_beta 122.081543
_cell_angle_gamma 90.000000
_cell_volume 2238.830416
_symmetry_space_group_name_H-M "C 2/C"
_symmetry_group_IT_number 15
_symmetry_cell_setting 'monoclinic'
loop_
_space_group_symop_operation_xyz
x,y,z
-x,y,1/2-z
-x,-y,-z
x,-y,1/2+z
1/2+x,1/2+y,z
1/2-x,1/2+y,1/2-z
1/2-x,1/2-y,-z
1/2+x,1/2-y,1/2+z
loop_
_atom_site_type_symbol
_atom_site_label
_atom_site_fract_x
_atom_site_fract_y
_atom_site_fract_z
Si Si1 0.843446 0.433146 0.831849
Si Si2 0.432568 0.626578 0.873405
Si Si3 0.500000 0.534227 0.750000
Si Si4 0.398599 0.059761 0.651720
Si Si5 0.174091 0.358473 0.517438
Si Si6 0.987697 0.798560 0.956050
Si Si7 0.819510 0.267813 0.744461
O O1 0.671304 0.486106 0.771408
O O2 0.870453 0.421824 0.929647
O O3 0.803780 0.349678 0.783797
O O4 0.018435 0.472774 0.841991
O O5 0.549403 0.587792 0.837670
O O6 0.307091 0.559991 0.879379
O O7 0.309045 0.695958 0.802615
O O8 0.563489 0.657407 0.977388
O O9 0.500000 0.099776 0.750000
O O10 0.429368 0.113546 0.586305
O O11 0.103649 0.273156 0.520409
O O12 0.386042 0.354220 0.561629
O O13 0.826698 0.766529 0.862497
O O14 0.000000 0.259395 0.750000
#
# Coordination Sequence:
#
# PCOD8147758 Si02
#       7
#     8   8   4   8   8   8   8
#     4  12  25  47  69 109 144 186 240 296 358 422
#     4  11  24  48  71 102 142 191 238 293 357 426
#     4  12  26  46  68 104 146 192 234 294 366 424
#     4  11  22  43  70 101 145 184 231 289 360 424
#     4  10  22  44  74 109 135 186 243 295 352 423
#     4  10  23  45  73 108 140 182 245 296 352 419
#     4  12  26  47  74 105 145 188 238 299 353 423
#
# _framework density 23.226413000000001
#
# number of rings (size 3 to 8) (size 9 to 14) (size 15 to 20)
#    0.000    0.923    3.846    2.769    0.000    0.615 
#    9.692    2.308    0.000    0.000    0.000    0.000 
#    0.000    0.000    0.000    0.000    0.000    0.000 
#
# Total GULP energy -322260.224595 kJ/mol
# GULP energy per Si atom -12394.624023 kJ/mol
# Density = 2.317355 g / cm^3
# Si number density = 23.226413 Si / 1000 Ang^3
#
#
#
# Elastic Constant Matrix: (Units=GPa)
#
#
# Indices 1 2 3 4 5 6 
#
# 1 87.8610 42.1695 40.5277 0.0000 -13.4753 0.0000
# 2 42.1695 96.8179 24.7078 0.0000 -8.6836 0.0000
# 3 40.5277 24.7078 137.1880 0.0000 -12.0183 0.0000
# 4 0.0000 0.0000 0.0000 33.2025 0.0000 -9.4259
# 5 -13.4753 -8.6836 -12.0183 0.0000 37.6228 0.0000
# 6 0.0000 0.0000 0.0000 -9.4259 0.0000 34.9631
#
#
#
# Elastic Compliance Matrix: (Units=1/GPa)
#
#
# Indices 1 2 3 4 5 6 
#
# 1 0.016345 -0.005932 -0.003464 0.000000 0.003378 0.000000
# 2 -0.005932 0.013117 -0.000546 0.000000 0.000728 0.000000
# 3 -0.003464 -0.000546 0.008530 0.000000 0.001358 0.000000
# 4 0.000000 0.000000 0.000000 0.032614 0.000000 0.008793
# 5 0.003378 0.000728 0.001358 0.000000 0.028392 0.000000
# 6 0.000000 0.000000 0.000000 0.008793 0.000000 0.030972
#
#
# Mechanical properties :
#
#
# Convention : Reuss Voigt Hill
#
# Bulk Modulus (GPa) = 55.22692 59.63077 57.42884
# Shear Modulus (GPa) = 32.07383 35.45514 33.76448
#
# Velocity S-wave (km/s) = 3.72011 3.91128 3.81689
# Velocity P-wave (km/s) = 6.50242 6.79168 6.64863
#
# Compressibility (1/GPa) = 0.01810711
#
# Stress axis : x y z
#
# Youngs Moduli (GPa) = 61.18156 76.23639 117.23348
#
# Poissons Ratio (x) = 0.45223 0.40612
# Poissons Ratio (y) = 0.36293 0.06403
# Poissons Ratio (z) = 0.21195 0.04164
#
# Static dielectric constant tensor:
#      x y z
#    x 4.136170 0.000000 -0.254850 
#    y 0.000000 4.272180 0.000000 
#    z -0.254850 0.000000 4.298290 
# 
# 
# High freq. dielectric constant tensor:
#      x y z
#    x 1.908300 0.000000 -0.027090 
#    y 0.000000 1.915770 0.000000 
#    z -0.027090 0.000000 1.927330 
# 
# From -- ./inp_files/191145.got.cif
#   From: 2010.06.25/outbox.cif.g09.slc.cpg/sg15_96_cif.got.tgz:191145.got - 2010.06.28 07:06:18.
