data_PCOD8147222
_publ_section_title
;
Structure prediction by ZEFSAII (Michael W. Deem and Ramdas Pophale) SiO2 
 PCOD8147222
Probable space group: C 2/C
;
_chemical_formula_sum "Si O2"
_cell_formula_units_Z 52
_cell_length_a 15.414533
_cell_length_b 10.761834
_cell_length_c 18.052569
_cell_angle_alpha 90.000000
_cell_angle_beta 54.306081
_cell_angle_gamma 90.000000
_cell_volume 2432.145166
_symmetry_space_group_name_H-M "C 2/C"
_symmetry_group_IT_number 15
_symmetry_cell_setting 'monoclinic'
loop_
_space_group_symop_operation_xyz
x,y,z
-x,y,1/2-z
-x,-y,-z
x,-y,1/2+z
1/2+x,1/2+y,z
1/2-x,1/2+y,1/2-z
1/2-x,1/2-y,-z
1/2+x,1/2-y,1/2+z
loop_
_atom_site_type_symbol
_atom_site_label
_atom_site_fract_x
_atom_site_fract_y
_atom_site_fract_z
Si Si1 0.144119 0.586275 0.286151
Si Si2 0.330316 0.505220 0.602790
Si Si3 0.938233 0.861243 0.170963
Si Si4 0.221458 0.983192 0.653504
Si Si5 0.000000 0.573444 0.750000
Si Si6 0.324209 0.368333 0.455827
Si Si7 0.304318 0.778480 0.393916
O O1 0.256954 0.588028 0.187151
O O2 0.109583 0.725709 0.320080
O O3 0.169738 0.516904 0.351794
O O4 0.057076 0.512918 0.282058
O O5 0.432321 0.551018 0.599954
O O6 0.357906 0.429769 0.516082
O O7 0.270345 0.632214 0.615410
O O8 0.059951 0.839732 0.137505
O O9 0.870987 0.930790 0.267011
O O10 0.178822 0.844257 0.663397
O O11 0.245428 0.038458 0.559986
O O12 0.920604 0.656802 0.839748
O O13 0.250000 0.250000 0.500000
O O14 0.250000 0.750000 0.500000
#
# Coordination Sequence:
#
# PCOD8147222 Si02
#       7
#     8   8   8   8   4   8   8
#     4  10  23  45  68  92 130 174 224 270 335 402
#     4  10  22  43  64  94 131 173 216 279 330 399
#     4  11  24  42  67  97 131 177 222 275 337 406
#     4  11  24  42  68  98 127 176 223 273 332 402
#     4  10  26  42  68  98 132 180 220 274 342 400
#     4  12  26  42  65  98 137 172 223 280 338 397
#     4  11  22  43  68  95 135 170 223 279 334 401
#
# _framework density 21.380302
#
# number of rings (size 3 to 8) (size 9 to 14) (size 15 to 20)
#    0.000    1.231    3.077    1.846    8.615    0.000 
#    2.769    1.538    0.000    0.000    0.000    0.000 
#    0.000    0.000    0.000    0.000    0.000    0.000 
#
# Total GULP energy -322237.114049 kJ/mol
# GULP energy per Si atom -12393.735156 kJ/mol
# Density = 2.133164 g / cm^3
# Si number density = 21.380302 Si / 1000 Ang^3
#
#
#
# Elastic Constant Matrix: (Units=GPa)
#
#
# Indices 1 2 3 4 5 6 
#
# 1 137.4368 52.2698 37.6875 0.0000 4.7295 0.0000
# 2 52.2698 116.3127 27.2623 0.0000 -3.5740 0.0000
# 3 37.6875 27.2623 57.9110 0.0000 6.9585 0.0000
# 4 0.0000 0.0000 0.0000 35.4475 0.0000 3.1429
# 5 4.7295 -3.5740 6.9585 0.0000 37.2350 0.0000
# 6 0.0000 0.0000 0.0000 3.1429 0.0000 25.7245
#
#
#
# Elastic Compliance Matrix: (Units=1/GPa)
#
#
# Indices 1 2 3 4 5 6 
#
# 1 0.009880 -0.003342 -0.004774 0.000000 -0.000683 0.000000
# 2 -0.003342 0.010916 -0.003213 0.000000 0.002073 0.000000
# 3 -0.004774 -0.003213 0.022354 0.000000 -0.003879 0.000000
# 4 0.000000 0.000000 0.000000 0.028520 0.000000 -0.003484
# 5 -0.000683 0.002073 -0.003879 0.000000 0.027867 0.000000
# 6 0.000000 0.000000 0.000000 -0.003484 0.000000 0.039299
#
#
# Mechanical properties :
#
#
# Convention : Reuss Voigt Hill
#
# Bulk Modulus (GPa) = 48.80173 60.67774 54.73974
# Shear Modulus (GPa) = 29.70456 32.64413 31.17435
#
# Velocity S-wave (km/s) = 3.73143 3.91171 3.82263
# Velocity P-wave (km/s) = 6.43738 6.98883 6.71877
#
# Compressibility (1/GPa) = 0.02049108
#
# Stress axis : x y z
#
# Youngs Moduli (GPa) = 101.21741 91.60779 44.73545
#
# Poissons Ratio (x) = 0.30614 0.21358
# Poissons Ratio (y) = 0.33825 0.14374
# Poissons Ratio (z) = 0.48323 0.29435
#
# Static dielectric constant tensor:
#      x y z
#    x 4.037620 0.000000 0.302670 
#    y 0.000000 4.075820 0.000000 
#    z 0.302670 0.000000 4.182980 
# 
# 
# High freq. dielectric constant tensor:
#      x y z
#    x 1.848800 0.000000 0.016540 
#    y 0.000000 1.848750 0.000000 
#    z 0.016540 0.000000 1.831850 
# 
# From -- ./inp_files/203899.got.cif
#   From: 2010.06.25/outbox.cif.g09.slc.cpg/sg15_102_cif.got.tgz:203899.got - 2010.06.28 07:06:18.
