data_PCOD8147268
_publ_section_title
;
Structure prediction by ZEFSAII (Michael W. Deem and Ramdas Pophale) SiO2 
 PCOD8147268
Probable space group: C 2/C
;
_chemical_formula_sum "Si O2"
_cell_formula_units_Z 52
_cell_length_a 5.326204
_cell_length_b 24.130220
_cell_length_c 19.832302
_cell_angle_alpha 90.000000
_cell_angle_beta 126.924036
_cell_angle_gamma 90.000000
_cell_volume 2037.671249
_symmetry_space_group_name_H-M "C 2/C"
_symmetry_group_IT_number 15
_symmetry_cell_setting 'monoclinic'
loop_
_space_group_symop_operation_xyz
x,y,z
-x,y,1/2-z
-x,-y,-z
x,-y,1/2+z
1/2+x,1/2+y,z
1/2-x,1/2+y,1/2-z
1/2-x,1/2-y,-z
1/2+x,1/2-y,1/2+z
loop_
_atom_site_type_symbol
_atom_site_label
_atom_site_fract_x
_atom_site_fract_y
_atom_site_fract_z
Si Si1 0.054517 0.013034 0.366656
Si Si2 0.633878 0.197205 0.132187
Si Si3 0.199475 0.737194 0.661986
Si Si4 0.322487 0.042353 0.538116
Si Si5 0.000000 0.898601 0.750000
Si Si6 0.594379 0.846992 0.042643
Si Si7 0.786547 0.901454 0.338778
O O1 0.014391 0.021688 0.443639
O O2 0.906875 0.062536 0.298938
O O3 0.430990 0.008311 0.416770
O O4 0.907798 0.955385 0.316635
O O5 0.352667 0.224570 0.128615
O O6 0.966519 0.229983 0.175331
O O7 0.705480 0.139363 0.181874
O O8 0.491414 0.188465 0.035767
O O9 0.500000 0.712641 0.750000
O O10 0.997140 0.687812 0.594338
O O11 0.451648 0.092160 0.511313
O O12 0.287370 0.073449 0.601434
O O13 0.970716 0.851922 0.112115
O O14 0.500000 0.875688 0.250000
#
# Coordination Sequence:
#
# PCOD8147268 Si02
#       7
#     8   8   8   8   4   8   8
#     4  10  22  43  66 102 142 186 238 304 363 434
#     4  12  27  51  72 115 144 194 250 306 373 441
#     4  12  27  49  76 108 149 189 251 311 367 441
#     4  10  22  43  68 101 142 184 244 293 372 448
#     4  12  22  46  74  98 146 188 248 298 366 432
#     4  11  27  44  75 102 147 194 235 310 375 444
#     4  11  25  43  68 108 140 193 250 297 368 448
#
# _framework density 25.519327000000001
#
# number of rings (size 3 to 8) (size 9 to 14) (size 15 to 20)
#    0.000    0.923    3.077    2.308    6.462    1.231 
#   11.077    0.000    0.000    0.000    0.000    0.000 
#    0.000    0.000    0.000    0.000    0.000    0.000 
#
# Total GULP energy -322234.008541 kJ/mol
# GULP energy per Si atom -12393.615713 kJ/mol
# Density = 2.546124 g / cm^3
# Si number density = 25.519327 Si / 1000 Ang^3
#
#
#
# Elastic Constant Matrix: (Units=GPa)
#
#
# Indices 1 2 3 4 5 6 
#
# 1 60.0289 -5.5333 -0.5251 0.0000 -0.4326 0.0000
# 2 -5.5333 70.6984 12.9421 0.0000 3.0269 0.0000
# 3 -0.5251 12.9421 126.2325 0.0000 -5.3462 0.0000
# 4 0.0000 0.0000 0.0000 50.7783 0.0000 2.5643
# 5 -0.4326 3.0269 -5.3462 0.0000 43.2246 0.0000
# 6 0.0000 0.0000 0.0000 2.5643 0.0000 14.6710
#
#
#
# Elastic Compliance Matrix: (Units=1/GPa)
#
#
# Indices 1 2 3 4 5 6 
#
# 1 0.016780 0.001322 -0.000063 0.000000 0.000068 0.000000
# 2 0.001322 0.014581 -0.001540 0.000000 -0.001198 0.000000
# 3 -0.000063 -0.001540 0.008127 0.000000 0.001112 0.000000
# 4 0.000000 0.000000 0.000000 0.019869 0.000000 -0.003473
# 5 0.000068 -0.001198 0.001112 0.000000 0.023357 0.000000
# 6 0.000000 0.000000 0.000000 -0.003473 0.000000 0.068769
#
#
# Mechanical properties :
#
#
# Convention : Reuss Voigt Hill
#
# Bulk Modulus (GPa) = 25.68967 30.08080 27.88523
# Shear Modulus (GPa) = 30.29923 38.40651 34.35287
#
# Velocity S-wave (km/s) = 3.44947 3.88364 3.67297
# Velocity P-wave (km/s) = 5.09448 5.65007 5.37945
#
# Compressibility (1/GPa) = 0.03892615
#
# Stress axis : x y z
#
# Youngs Moduli (GPa) = 59.59320 68.58094 123.05189
#
# Poissons Ratio (x) = -0.09066 0.00774
# Poissons Ratio (y) = -0.07878 0.18953
# Poissons Ratio (z) = 0.00375 0.10563
#
# Static dielectric constant tensor:
#      x y z
#    x 4.583460 0.000000 0.006920 
#    y 0.000000 5.185430 0.000000 
#    z 0.006920 0.000000 4.867390 
# 
# 
# High freq. dielectric constant tensor:
#      x y z
#    x 1.998870 0.000000 -0.015220 
#    y 0.000000 2.029130 0.000000 
#    z -0.015220 0.000000 2.039880 
# 
# From -- ./inp_files/228651.got.cif
#   From: 2010.06.25/outbox.cif.g09.slc.cpg/sg15_115_cif.got.tgz:228651.got - 2010.06.28 07:06:18.
