data_PCOD8147445
_publ_section_title
;
Structure prediction by ZEFSAII (Michael W. Deem and Ramdas Pophale) SiO2 
 PCOD8147445
Probable space group: C 2/C
;
_chemical_formula_sum "Si O2"
_cell_formula_units_Z 56
_cell_length_a 6.658349
_cell_length_b 24.156047
_cell_length_c 17.197393
_cell_angle_alpha 90.000000
_cell_angle_beta 65.716902
_cell_angle_gamma 90.000000
_cell_volume 2521.293743
_symmetry_space_group_name_H-M "C 2/C"
_symmetry_group_IT_number 15
_symmetry_cell_setting 'monoclinic'
loop_
_space_group_symop_operation_xyz
x,y,z
-x,y,1/2-z
-x,-y,-z
x,-y,1/2+z
1/2+x,1/2+y,z
1/2-x,1/2+y,1/2-z
1/2-x,1/2-y,-z
1/2+x,1/2-y,1/2+z
loop_
_atom_site_type_symbol
_atom_site_label
_atom_site_fract_x
_atom_site_fract_y
_atom_site_fract_z
Si Si1 0.500000 0.949826 0.250000
Si Si2 0.000000 0.706361 0.250000
Si Si3 0.406357 0.887415 0.869911
Si Si4 0.383063 0.537616 0.188015
Si Si5 0.658436 0.951955 0.946948
Si Si6 0.155554 0.733597 0.892455
Si Si7 0.078155 0.175117 0.520393
Si Si8 0.876006 0.372403 0.406561
O O1 0.498762 0.912632 0.327282
O O2 0.726919 0.984169 0.217799
O O3 0.968272 0.667689 0.178824
O O4 0.218704 0.743256 0.203794
O O5 0.265186 0.911650 0.819964
O O6 0.580298 0.933232 0.872564
O O7 0.254243 0.871131 0.966848
O O8 0.500000 0.553258 0.250000
O O9 0.588088 0.527033 0.095873
O O10 0.634806 0.899628 0.007008
O O11 0.500000 0.000000 0.000000
O O12 0.025012 0.783600 0.956367
O O13 0.994615 0.686268 0.890515
O O14 0.341888 0.710463 0.919831
O O15 0.868600 0.140989 0.583028
#
# Coordination Sequence:
#
# PCOD8147445 Si02
#       8
#     4   4   8   8   8   8   8   8
#     4  12  31  44  66 100 144 182 235 290 350 418
#     4  10  23  42  70 100 140 180 217 288 352 408
#     4  11  22  45  71 107 134 178 233 282 350 410
#     4  12  25  47  69 102 142 180 229 289 346 415
#     4  12  26  43  74 103 136 184 235 288 349 414
#     4  10  23  44  67 101 136 173 225 285 347 410
#     4  10  22  43  72  96 136 174 227 287 337 420
#     4  12  25  46  67 101 132 187 230 281 355 415
#
# _framework density 22.210819999999998
#
# number of rings (size 3 to 8) (size 9 to 14) (size 15 to 20)
#    0.000    0.857    2.857    4.286    4.000    2.286 
#    0.000    1.429    0.000    0.000    0.000    0.000 
#    0.000    0.000    0.000    0.000    0.000    0.000 
#
# Total GULP energy -347265.007874 kJ/mol
# GULP energy per Si atom -12402.321710 kJ/mol
# Density = 2.216027 g / cm^3
# Si number density = 22.210820 Si / 1000 Ang^3
#
#
#
# Elastic Constant Matrix: (Units=GPa)
#
#
# Indices 1 2 3 4 5 6 
#
# 1 98.7483 38.5020 39.9857 0.0000 -11.5410 0.0000
# 2 38.5020 88.4066 27.4476 0.0000 -15.6371 0.0000
# 3 39.9857 27.4476 90.9660 0.0000 -14.0044 0.0000
# 4 0.0000 0.0000 0.0000 47.3093 0.0000 -7.8953
# 5 -11.5410 -15.6371 -14.0044 0.0000 41.9131 0.0000
# 6 0.0000 0.0000 0.0000 -7.8953 0.0000 38.9696
#
#
#
# Elastic Compliance Matrix: (Units=1/GPa)
#
#
# Indices 1 2 3 4 5 6 
#
# 1 0.013816 -0.004475 -0.004632 0.000000 0.000587 0.000000
# 2 -0.004475 0.014462 -0.001851 0.000000 0.003545 0.000000
# 3 -0.004632 -0.001851 0.014006 0.000000 0.002714 0.000000
# 4 0.000000 0.000000 0.000000 0.021877 0.000000 0.004432
# 5 0.000587 0.003545 0.002714 0.000000 0.026250 0.000000
# 6 0.000000 0.000000 0.000000 0.004432 0.000000 0.026559
#
#
# Mechanical properties :
#
#
# Convention : Reuss Voigt Hill
#
# Bulk Modulus (GPa) = 49.09911 54.44348 51.77129
# Shear Modulus (GPa) = 34.32302 37.11746 35.72024
#
# Velocity S-wave (km/s) = 3.93533 4.09240 4.01463
# Velocity P-wave (km/s) = 6.54240 6.84804 6.69697
#
# Compressibility (1/GPa) = 0.02036697
#
# Stress axis : x y z
#
# Youngs Moduli (GPa) = 72.38023 69.14720 71.39986
#
# Poissons Ratio (x) = 0.30943 0.33076
# Poissons Ratio (y) = 0.32390 0.13215
# Poissons Ratio (z) = 0.33530 0.12798
#
# Static dielectric constant tensor:
#      x y z
#    x 3.939810 0.000000 -0.178970 
#    y 0.000000 4.128460 0.000000 
#    z -0.178970 0.000000 4.180230 
# 
# 
# High freq. dielectric constant tensor:
#      x y z
#    x 1.861670 0.000000 -0.015510 
#    y 0.000000 1.882820 0.000000 
#    z -0.015510 0.000000 1.887670 
# 
# From -- ./inp_files/186159.got.cif
#   From: 2010.06.25/outbox.cif.g09.slc.cpg/sg15_94_cif.got.tgz:186159.got - 2010.06.28 07:06:18.
