data_PCOD8147729
_publ_section_title
;
Structure prediction by ZEFSAII (Michael W. Deem and Ramdas Pophale) SiO2 
 PCOD8147729
Probable space group: C 2/C
;
_chemical_formula_sum "Si O2"
_cell_formula_units_Z 48
_cell_length_a 26.207212
_cell_length_b 12.494271
_cell_length_c 21.838632
_cell_angle_alpha 90.000000
_cell_angle_beta 17.143377
_cell_angle_gamma 90.000000
_cell_volume 2107.809637
_symmetry_space_group_name_H-M "C 2/C"
_symmetry_group_IT_number 15
_symmetry_cell_setting 'monoclinic'
loop_
_space_group_symop_operation_xyz
x,y,z
-x,y,1/2-z
-x,-y,-z
x,-y,1/2+z
1/2+x,1/2+y,z
1/2-x,1/2+y,1/2-z
1/2-x,1/2-y,-z
1/2+x,1/2-y,1/2+z
loop_
_atom_site_type_symbol
_atom_site_label
_atom_site_fract_x
_atom_site_fract_y
_atom_site_fract_z
Si Si1 0.650306 0.499820 0.199260
Si Si2 0.187849 0.379171 0.179169
Si Si3 0.800864 0.806261 0.275182
Si Si4 0.452964 0.693617 0.470851
Si Si5 0.422166 0.879158 0.710737
Si Si6 0.500000 0.064377 0.250000
Si Si7 0.000000 0.935989 0.750000
O O1 0.606559 0.395819 0.289288
O O2 0.601565 0.603931 0.294185
O O3 0.537853 0.491073 0.265887
O O4 0.854443 0.508504 0.949269
O O5 0.025064 0.300943 0.355451
O O6 0.118956 0.499965 0.261826
O O7 0.277292 0.345577 0.140348
O O8 0.329461 0.365627 0.961758
O O9 0.612861 0.845554 0.469402
O O10 0.786324 0.698878 0.332972
O O11 0.918398 0.784251 0.081518
O O12 0.412074 0.865336 0.796622
#
# Coordination Sequence:
#
# PCOD8147729 Si02
#       7
#     8   8   8   8   8   4   4
#     4  10  23  42  68 100 137 178 234 290 342 418
#     4  11  26  47  71 106 141 184 234 295 345 419
#     4  11  26  44  70 102 140 189 234 285 353 412
#     4  11  26  44  70 102 140 189 234 285 353 412
#     4  11  26  47  71 106 141 184 234 295 345 419
#     4  10  22  44  72 104 138 178 234 286 364 410
#     4  10  22  44  72 104 138 178 234 286 364 410
#
# _framework density 22.772454
#
# number of rings (size 3 to 8) (size 9 to 14) (size 15 to 20)
#    0.000    1.333    1.667    1.500    9.333    9.333 
#    0.000    0.000    0.000    0.000    0.000    0.000 
#    0.000    0.000    0.000    0.000    0.000    0.000 
#
# Total GULP energy -297569.621910 kJ/mol
# GULP energy per Si atom -12398.734246 kJ/mol
# Density = 2.272062 g / cm^3
# Si number density = 22.772454 Si / 1000 Ang^3
#
#
#
# Elastic Constant Matrix: (Units=GPa)
#
#
# Indices 1 2 3 4 5 6 
#
# 1 120.4109 52.5327 39.2638 0.0255 7.7284 -0.0156
# 2 52.5327 166.1119 52.4486 0.0374 -0.7813 -0.0306
# 3 39.2638 52.4486 122.1581 0.0203 6.4860 -0.0278
# 4 0.0255 0.0374 0.0203 33.7816 -0.0272 -7.3240
# 5 7.7284 -0.7813 6.4860 -0.0272 32.2596 0.0313
# 6 -0.0156 -0.0306 -0.0278 -7.3240 0.0313 34.8257
#
#
#
# Elastic Compliance Matrix: (Units=1/GPa)
#
#
# Indices 1 2 3 4 5 6 
#
# 1 0.010247 -0.002598 -0.002067 -0.000005 -0.002102 0.000002
# 2 -0.002598 0.007642 -0.002516 -0.000004 0.001313 0.000002
# 3 -0.002067 -0.002516 0.010014 -0.000002 -0.001579 0.000006
# 4 -0.000005 -0.000004 -0.000002 0.031016 0.000021 0.006523
# 5 -0.002102 0.001313 -0.001579 0.000021 0.031852 -0.000025
# 6 0.000002 0.000002 0.000006 0.006523 -0.000025 0.030086
#
#
# Mechanical properties :
#
#
# Convention : Reuss Voigt Hill
#
# Bulk Modulus (GPa) = 73.83952 77.46347 75.65150
# Shear Modulus (GPa) = 35.78260 37.80244 36.79252
#
# Velocity S-wave (km/s) = 3.96828 4.07874 4.02389
# Velocity P-wave (km/s) = 7.31380 7.50144 7.40821
#
# Compressibility (1/GPa) = 0.01354288
#
# Stress axis : x y z
#
# Youngs Moduli (GPa) = 97.58792 130.85220 99.85652
#
# Poissons Ratio (x) = 0.33996 0.20636
# Poissons Ratio (y) = 0.25354 0.25122
# Poissons Ratio (z) = 0.20167 0.32920
#
# Static dielectric constant tensor:
#      x y z
#    x 4.233690 -0.000020 -0.087190 
#    y -0.000020 3.980820 0.000020 
#    z -0.087190 0.000020 4.219920 
# 
# 
# High freq. dielectric constant tensor:
#      x y z
#    x 1.906090 0.000000 -0.001700 
#    y 0.000000 1.882310 0.000000 
#    z -0.001700 0.000000 1.905800 
# 
# From -- ./inp_files/257624.got.cif
#   From: 2010.06.25/outbox.cif.g09.slc.cpg/sg15_129_cif.got.tgz:257624.got - 2010.06.28 07:06:18.
