data_PCOD8147973
_publ_section_title
;
Structure prediction by ZEFSAII (Michael W. Deem and Ramdas Pophale) SiO2 
 PCOD8147973
Probable space group: C 2/C
;
_chemical_formula_sum "Si O2"
_cell_formula_units_Z 52
_cell_length_a 8.302380
_cell_length_b 20.784157
_cell_length_c 18.013899
_cell_angle_alpha 90.000000
_cell_angle_beta 51.441184
_cell_angle_gamma 90.000000
_cell_volume 2430.704259
_symmetry_space_group_name_H-M "C 2/C"
_symmetry_group_IT_number 15
_symmetry_cell_setting 'monoclinic'
loop_
_space_group_symop_operation_xyz
x,y,z
-x,y,1/2-z
-x,-y,-z
x,-y,1/2+z
1/2+x,1/2+y,z
1/2-x,1/2+y,1/2-z
1/2-x,1/2-y,-z
1/2+x,1/2-y,1/2+z
loop_
_atom_site_type_symbol
_atom_site_label
_atom_site_fract_x
_atom_site_fract_y
_atom_site_fract_z
Si Si1 0.806420 0.182693 0.517867
Si Si2 0.012490 0.745758 0.085740
Si Si3 0.377000 0.888958 0.130891
Si Si4 0.866424 0.482746 0.718316
Si Si5 0.500000 0.705282 0.750000
Si Si6 0.460128 0.100349 0.065507
Si Si7 0.979742 0.106379 0.338550
O O1 0.750000 0.250000 0.500000
O O2 0.604658 0.138056 0.585521
O O3 0.976466 0.153296 0.411468
O O4 0.903131 0.196044 0.571536
O O5 0.979182 0.750934 0.183242
O O6 0.924839 0.676614 0.087148
O O7 0.250000 0.750000 0.000000
O O8 0.207462 0.835101 0.189170
O O9 0.310731 0.949227 0.198632
O O10 0.370825 0.911342 0.046428
O O11 0.015639 0.438356 0.623916
O O12 0.657494 0.445940 0.799487
O O13 0.000000 0.499580 0.750000
O O14 0.241708 0.070925 0.100130
O O15 0.000000 0.140151 0.250000
#
# Coordination Sequence:
#
# PCOD8147973 Si02
#       7
#     8   8   8   8   4   8   8
#     4  11  22  46  72 101 145 179 234 292 366 423
#     4  12  25  45  70 107 141 178 233 294 364 430
#     4  11  25  47  67 103 137 188 233 293 353 414
#     4  11  26  42  67 101 136 180 244 287 340 423
#     4  12  28  42  74 100 148 188 224 302 354 430
#     4  10  22  47  68  95 137 183 226 287 355 419
#     4   9  21  41  68 101 129 189 230 283 350 421
#
# _framework density 21.392976999999998
#
# number of rings (size 3 to 8) (size 9 to 14) (size 15 to 20)
#    0.000    1.231    4.615    0.462    8.615    3.692 
#    0.000    3.077    0.000    0.000    0.000    0.000 
#    0.000    0.000    0.000    0.000    0.000    0.000 
#
# Total GULP energy -322231.668711 kJ/mol
# GULP energy per Si atom -12393.525720 kJ/mol
# Density = 2.134429 g / cm^3
# Si number density = 21.392977 Si / 1000 Ang^3
#
#
#
# Elastic Constant Matrix: (Units=GPa)
#
#
# Indices 1 2 3 4 5 6 
#
# 1 82.3712 34.5482 52.3421 0.0000 8.5038 0.0000
# 2 34.5482 77.4412 19.8563 0.0000 0.1636 0.0000
# 3 52.3421 19.8563 108.1968 0.0000 7.8372 0.0000
# 4 0.0000 0.0000 0.0000 0.7213 0.0000 -0.9592
# 5 8.5038 0.1636 7.8372 0.0000 44.2519 0.0000
# 6 0.0000 0.0000 0.0000 -0.9592 0.0000 29.2586
#
#
#
# Elastic Compliance Matrix: (Units=1/GPa)
#
#
# Indices 1 2 3 4 5 6 
#
# 1 0.020827 -0.007082 -0.008598 0.000000 -0.002453 0.000000
# 2 -0.007082 0.015965 0.000407 0.000000 0.001230 0.000000
# 3 -0.008598 0.000407 0.013379 0.000000 -0.000719 0.000000
# 4 0.000000 0.000000 0.000000 1.449668 0.000000 0.047525
# 5 -0.002453 0.001230 -0.000719 0.000000 0.023192 0.000000
# 6 0.000000 0.000000 0.000000 0.047525 0.000000 0.035736
#
#
# Mechanical properties :
#
#
# Convention : Reuss Voigt Hill
#
# Bulk Modulus (GPa) = 50.95307 53.50026 52.22667
# Shear Modulus (GPa) = 3.13311 25.59719 14.36515
#
# Velocity S-wave (km/s) = 1.21150 3.46283 2.59412
# Velocity P-wave (km/s) = 5.08196 6.40710 5.78261
#
# Compressibility (1/GPa) = 0.01962590
#
# Stress axis : x y z
#
# Youngs Moduli (GPa) = 48.01378 62.63540 74.74190
#
# Poissons Ratio (x) = 0.44357 0.64265
# Poissons Ratio (y) = 0.34002 -0.03041
# Poissons Ratio (z) = 0.41283 -0.02548
#
# Static dielectric constant tensor:
#      x y z
#    x 4.912910 0.000000 -0.062420 
#    y 0.000000 3.914830 0.000000 
#    z -0.062420 0.000000 4.496600 
# 
# 
# High freq. dielectric constant tensor:
#      x y z
#    x 1.835570 0.000000 0.005310 
#    y 0.000000 1.827710 0.000000 
#    z 0.005310 0.000000 1.856600 
# 
# From -- ./inp_files/192470.got.cif
#   From: 2010.06.25/outbox.cif.g09.slc.cpg/sg15_97_cif.got.tgz:192470.got - 2010.06.28 07:06:18.
