data_PCOD8147606
_publ_section_title
;
Structure prediction by ZEFSAII (Michael W. Deem and Ramdas Pophale) SiO2 
 PCOD8147606
Probable space group: C 2/C
;
_chemical_formula_sum "Si O2"
_cell_formula_units_Z 44
_cell_length_a 11.860358
_cell_length_b 24.714305
_cell_length_c 11.225313
_cell_angle_alpha 90.000000
_cell_angle_beta 139.648525
_cell_angle_gamma 90.000000
_cell_volume 2130.430970
_symmetry_space_group_name_H-M "C 2/C"
_symmetry_group_IT_number 15
_symmetry_cell_setting 'monoclinic'
loop_
_space_group_symop_operation_xyz
x,y,z
-x,y,1/2-z
-x,-y,-z
x,-y,1/2+z
1/2+x,1/2+y,z
1/2-x,1/2+y,1/2-z
1/2-x,1/2-y,-z
1/2+x,1/2-y,1/2+z
loop_
_atom_site_type_symbol
_atom_site_label
_atom_site_fract_x
_atom_site_fract_y
_atom_site_fract_z
Si Si1 0.281222 0.701087 0.189241
Si Si2 0.750234 0.915334 0.231785
Si Si3 0.500000 0.455099 0.250000
Si Si4 0.566504 0.123443 0.178380
Si Si5 0.309272 0.986513 0.649099
Si Si6 0.181533 0.816366 0.048859
O O1 0.148760 0.671721 0.170070
O O2 0.257818 0.765545 0.183225
O O3 0.474628 0.685934 0.381252
O O4 0.239161 0.683158 0.020241
O O5 0.926404 0.916722 0.295769
O O6 0.726707 0.973680 0.271602
O O7 0.757550 0.870684 0.339791
O O8 0.592384 0.903992 0.017357
O O9 0.657240 0.492918 0.426869
O O10 0.500000 0.148292 0.250000
O O11 0.703028 0.075087 0.312628
O O12 0.500000 0.999033 0.750000
#
# Coordination Sequence:
#
# PCOD8147606 Si02
#       6
#     8   8   4   8   8   8
#     4  10  22  44  67  97 134 168 225 278 328 399
#     4  12  25  41  68  96 134 180 216 280 333 392
#     4  12  24  44  64  96 142 170 226 272 328 406
#     4  11  23  44  67  95 137 176 218 273 332 396
#     4  11  25  44  66  98 136 176 223 274 332 398
#     4  10  23  41  68  99 128 173 223 278 331 392
#
# _framework density 20.653098
#
# number of rings (size 3 to 8) (size 9 to 14) (size 15 to 20)
#    0.000    1.091    3.636    3.273    2.545    2.909 
#    1.636    1.818    0.000    0.000    0.000    0.000 
#    0.000    0.000    0.000    0.000    0.000    0.000 
#
# Total GULP energy -272888.563033 kJ/mol
# GULP energy per Si atom -12404.025592 kJ/mol
# Density = 2.060609 g / cm^3
# Si number density = 20.653098 Si / 1000 Ang^3
#
#
#
# Elastic Constant Matrix: (Units=GPa)
#
#
# Indices 1 2 3 4 5 6 
#
# 1 136.0300 67.5388 31.3718 0.0000 -7.2179 0.0000
# 2 67.5388 82.9264 16.2790 0.0000 -8.4494 0.0000
# 3 31.3718 16.2790 113.8270 0.0000 0.6669 0.0000
# 4 0.0000 0.0000 0.0000 28.9123 0.0000 10.9367
# 5 -7.2179 -8.4494 0.6669 0.0000 27.3750 0.0000
# 6 0.0000 0.0000 0.0000 10.9367 0.0000 21.2716
#
#
#
# Elastic Compliance Matrix: (Units=1/GPa)
#
#
# Indices 1 2 3 4 5 6 
#
# 1 0.012814 -0.009988 -0.002105 0.000000 0.000347 0.000000
# 2 -0.009988 0.020617 -0.000218 0.000000 0.003735 0.000000
# 3 -0.002105 -0.000218 0.009402 0.000000 -0.000851 0.000000
# 4 0.000000 0.000000 0.000000 0.042938 0.000000 -0.022076
# 5 0.000347 0.003735 -0.000851 0.000000 0.037795 0.000000
# 6 0.000000 0.000000 0.000000 -0.022076 0.000000 0.058362
#
#
# Mechanical properties :
#
#
# Convention : Reuss Voigt Hill
#
# Bulk Modulus (GPa) = 54.91199 62.57363 58.74281
# Shear Modulus (GPa) = 23.51624 30.01802 26.76713
#
# Velocity S-wave (km/s) = 3.37802 3.81654 3.60395
# Velocity P-wave (km/s) = 6.46994 7.05581 6.76922
#
# Compressibility (1/GPa) = 0.01821096
#
# Stress axis : x y z
#
# Youngs Moduli (GPa) = 78.03843 48.50447 106.36448
#
# Poissons Ratio (x) = 0.48445 0.22393
# Poissons Ratio (y) = 0.77943 0.02315
# Poissons Ratio (z) = 0.16430 0.01056
#
# Static dielectric constant tensor:
#      x y z
#    x 3.829860 0.000000 -0.049250 
#    y 0.000000 3.662750 0.000000 
#    z -0.049250 0.000000 3.950050 
# 
# 
# High freq. dielectric constant tensor:
#      x y z
#    x 1.815010 0.000000 0.001350 
#    y 0.000000 1.794840 0.000000 
#    z 0.001350 0.000000 1.826340 
# 
# From -- ./inp_files/91361.got.cif
#   From: 2010.06.25/outbox.cif.g09.slc.cpg/sg15_46_cif.got.tgz:91361.got - 2010.06.28 07:06:18.
