data_PCOD8148307
_publ_section_title
;
Structure prediction by ZEFSAII (Michael W. Deem and Ramdas Pophale) SiO2 
 PCOD8148307
Probable space group: C 2/C
;
_chemical_formula_sum "Si O2"
_cell_formula_units_Z 64
_cell_length_a 22.497315
_cell_length_b 9.102525
_cell_length_c 21.196874
_cell_angle_alpha 90.000000
_cell_angle_beta 137.309727
_cell_angle_gamma 90.000000
_cell_volume 2943.177354
_symmetry_space_group_name_H-M "C 2/C"
_symmetry_group_IT_number 15
_symmetry_cell_setting 'monoclinic'
loop_
_space_group_symop_operation_xyz
x,y,z
-x,y,1/2-z
-x,-y,-z
x,-y,1/2+z
1/2+x,1/2+y,z
1/2-x,1/2+y,1/2-z
1/2-x,1/2-y,-z
1/2+x,1/2-y,1/2+z
loop_
_atom_site_type_symbol
_atom_site_label
_atom_site_fract_x
_atom_site_fract_y
_atom_site_fract_z
Si Si1 0.409723 0.757224 0.200692
Si Si2 0.793922 0.290683 0.651603
Si Si3 0.639304 0.209304 0.694044
Si Si4 0.366519 0.449170 0.127985
Si Si5 0.894828 0.732425 0.041521
Si Si6 0.181627 0.491373 0.436673
Si Si7 0.491128 0.171436 0.485100
Si Si8 0.809355 0.617073 0.301406
O O1 0.500000 0.833096 0.250000
O O2 0.387479 0.804504 0.254270
O O3 0.421849 0.583333 0.198671
O O4 0.342964 0.823685 0.097025
O O5 0.863729 0.175696 0.678585
O O6 0.693333 0.236599 0.569487
O O7 0.801061 0.439179 0.617998
O O8 0.824872 0.314346 0.745773
O O9 0.549917 0.251277 0.585164
O O10 0.711837 0.339832 0.748593
O O11 0.680829 0.060130 0.696706
O O12 0.403698 0.378637 0.092066
O O13 0.268870 0.510147 0.045143
O O14 0.891214 0.586113 0.082067
O O15 0.976876 0.724030 0.058810
O O16 0.384705 0.193262 0.404926
O O17 0.500000 0.000000 0.500000
#
# Coordination Sequence:
#
# PCOD8148307 Si02
#       8
#     8   8   8   8   8   8   8   8
#     4  12  26  41  59  91 138 171 211 274 328 380
#     4   9  17  38  67  93 125 164 221 265 328 389
#     4  11  26  47  65  99 135 170 227 268 327 402
#     4   9  21  38  63  95 126 173 211 268 329 387
#     4   9  18  38  68  95 128 161 222 280 315 393
#     4   9  19  37  65  93 121 171 215 269 322 387
#     4  10  23  40  67 101 129 170 225 276 326 390
#     4  11  23  43  70  94 129 181 212 274 331 390
#
# _framework density 21.745206
#
# number of rings (size 3 to 8) (size 9 to 14) (size 15 to 20)
#    0.000    2.000    2.500    1.875    5.250    2.000 
#    2.250    3.125    0.000    0.000    0.000    0.000 
#    0.000    0.000    0.000    0.000    0.000    0.000 
#
# Total GULP energy -396487.097414 kJ/mol
# GULP energy per Si atom -12390.221794 kJ/mol
# Density = 2.169571 g / cm^3
# Si number density = 21.745206 Si / 1000 Ang^3
#
#
#
# Elastic Constant Matrix: (Units=GPa)
#
#
# Indices 1 2 3 4 5 6 
#
# 1 54.1862 16.5515 15.9070 0.0000 4.7896 0.0000
# 2 16.5515 65.9525 10.1265 0.0000 1.1894 0.0000
# 3 15.9070 10.1265 94.8844 0.0000 5.4556 0.0000
# 4 0.0000 0.0000 0.0000 28.1153 0.0000 -2.3488
# 5 4.7896 1.1894 5.4556 0.0000 28.0215 0.0000
# 6 0.0000 0.0000 0.0000 -2.3488 0.0000 19.8996
#
#
#
# Elastic Compliance Matrix: (Units=1/GPa)
#
#
# Indices 1 2 3 4 5 6 
#
# 1 0.021002 -0.004782 -0.002848 0.000000 -0.002832 0.000000
# 2 -0.004782 0.016507 -0.000978 0.000000 0.000307 0.000000
# 3 -0.002848 -0.000978 0.011216 0.000000 -0.001655 0.000000
# 4 0.000000 0.000000 0.000000 0.035922 0.000000 0.004240
# 5 -0.002832 0.000307 -0.001655 0.000000 0.036480 0.000000
# 6 0.000000 0.000000 0.000000 0.004240 0.000000 0.050753
#
#
# Mechanical properties :
#
#
# Convention : Reuss Voigt Hill
#
# Bulk Modulus (GPa) = 31.73600 33.35476 32.54538
# Shear Modulus (GPa) = 25.05024 26.70316 25.87670
#
# Velocity S-wave (km/s) = 3.39778 3.50809 3.45337
# Velocity P-wave (km/s) = 5.47899 5.63747 5.55880
#
# Compressibility (1/GPa) = 0.03150996
#
# Stress axis : x y z
#
# Youngs Moduli (GPa) = 47.61454 60.57970 89.15784
#
# Poissons Ratio (x) = 0.28971 0.25389
# Poissons Ratio (y) = 0.22771 0.08716
# Poissons Ratio (z) = 0.13559 0.05922
#
# Static dielectric constant tensor:
#      x y z
#    x 3.834980 0.000000 0.070620 
#    y 0.000000 4.010390 0.000000 
#    z 0.070620 0.000000 4.217720 
# 
# 
# High freq. dielectric constant tensor:
#      x y z
#    x 1.844790 0.000000 0.000640 
#    y 0.000000 1.838430 0.000000 
#    z 0.000640 0.000000 1.860110 
# 
# From -- ./inp_files/255059.got.cif
#   From: 2010.06.25/outbox.cif.g09.slc.cpg/sg15_128_cif.got.tgz:255059.got - 2010.06.28 07:06:18.
