data_PCOD8148570
_publ_section_title
;
Structure prediction by ZEFSAII (Michael W. Deem and Ramdas Pophale) SiO2 
 PCOD8148570
Probable space group: C 2/C
;
_chemical_formula_sum "Si O2"
_cell_formula_units_Z 60
_cell_length_a 8.839158
_cell_length_b 26.635630
_cell_length_c 12.461760
_cell_angle_alpha 90.000000
_cell_angle_beta 93.348618
_cell_angle_gamma 90.000000
_cell_volume 2928.944283
_symmetry_space_group_name_H-M "C 2/C"
_symmetry_group_IT_number 15
_symmetry_cell_setting 'monoclinic'
loop_
_space_group_symop_operation_xyz
x,y,z
-x,y,1/2-z
-x,-y,-z
x,-y,1/2+z
1/2+x,1/2+y,z
1/2-x,1/2+y,1/2-z
1/2-x,1/2-y,-z
1/2+x,1/2-y,1/2+z
loop_
_atom_site_type_symbol
_atom_site_label
_atom_site_fract_x
_atom_site_fract_y
_atom_site_fract_z
Si Si1 0.325638 0.849394 0.250299
Si Si2 0.657247 0.556991 0.809389
Si Si3 0.680486 0.961707 0.755326
Si Si4 0.180884 0.696625 0.970332
Si Si5 0.410335 0.450118 0.958560
Si Si6 0.634822 0.224535 0.575308
Si Si7 0.000000 0.203686 0.250000
Si Si8 0.332445 0.620899 0.125874
O O1 0.500000 0.867080 0.250000
O O2 0.219970 0.897927 0.239250
O O3 0.293696 0.809859 0.155265
O O4 0.283279 0.820283 0.357860
O O5 0.500000 0.539430 0.750000
O O6 0.768470 0.509930 0.809688
O O7 0.647305 0.574658 0.933015
O O8 0.500000 0.964085 0.750000
O O9 0.766284 0.961518 0.875029
O O10 0.718416 0.912831 0.688272
O O11 0.004155 0.699938 0.996328
O O12 0.250000 0.750000 0.000000
O O13 0.249759 0.645635 0.021254
O O14 0.520593 0.411320 0.902356
O O15 0.500000 0.500000 0.000000
O O16 0.750000 0.250000 0.500000
O O17 0.565713 0.263945 0.656053
O O18 0.131682 0.168204 0.298477
#
# Coordination Sequence:
#
# PCOD8148570 Si02
#       8
#     8   8   8   8   8   8   4   8
#     4  10  23  42  62  97 139 173 225 291 350 405
#     4  12  24  42  70  99 135 180 232 281 344 429
#     4  12  27  45  67 105 139 176 232 291 351 425
#     4  11  22  42  68  98 135 183 231 283 350 412
#     4  12  24  46  72  99 138 186 233 281 353 429
#     4  11  24  43  68  99 138 182 233 285 355 414
#     4  12  22  46  72  92 144 186 222 294 346 416
#     4  12  24  44  73  96 138 186 229 283 353 420
#
# _framework density 20.485199000000001
#
# number of rings (size 3 to 8) (size 9 to 14) (size 15 to 20)
#    0.000    0.533    7.333    1.200    1.867    4.800 
#    0.000    1.333    0.000    0.000    0.000    0.000 
#    0.000    0.000    0.000    0.000    0.000    0.000 
#
# Total GULP energy -371940.262676 kJ/mol
# GULP energy per Si atom -12398.008756 kJ/mol
# Density = 2.043857 g / cm^3
# Si number density = 20.485199 Si / 1000 Ang^3
#
#
#
# Elastic Constant Matrix: (Units=GPa)
#
#
# Indices 1 2 3 4 5 6 
#
# 1 131.6203 49.5764 55.7760 0.0000 5.1316 0.0000
# 2 49.5764 109.1777 19.6739 0.0000 -1.4456 0.0000
# 3 55.7760 19.6739 89.5566 0.0000 3.5169 0.0000
# 4 0.0000 0.0000 0.0000 40.2922 0.0000 1.2206
# 5 5.1316 -1.4456 3.5169 0.0000 38.6144 0.0000
# 6 0.0000 0.0000 0.0000 1.2206 0.0000 38.8912
#
#
#
# Elastic Compliance Matrix: (Units=1/GPa)
#
#
# Indices 1 2 3 4 5 6 
#
# 1 0.012014 -0.004301 -0.006492 0.000000 -0.001166 0.000000
# 2 -0.004301 0.011088 0.000205 0.000000 0.000968 0.000000
# 3 -0.006492 0.000205 0.015184 0.000000 -0.000513 0.000000
# 4 0.000000 0.000000 0.000000 0.024842 0.000000 -0.000780
# 5 -0.001166 0.000968 -0.000513 0.000000 0.026135 0.000000
# 6 0.000000 0.000000 0.000000 -0.000780 0.000000 0.025737
#
#
# Mechanical properties :
#
#
# Convention : Reuss Voigt Hill
#
# Bulk Modulus (GPa) = 58.44279 64.48969 61.46624
# Shear Modulus (GPa) = 35.24080 37.24812 36.24446
#
# Velocity S-wave (km/s) = 4.15216 4.26877 4.21087
# Velocity P-wave (km/s) = 7.18181 7.47302 7.32886
#
# Compressibility (1/GPa) = 0.01711075
#
# Stress axis : x y z
#
# Youngs Moduli (GPa) = 83.23538 90.18450 65.85741
#
# Poissons Ratio (x) = 0.38789 0.42753
# Poissons Ratio (y) = 0.35800 -0.01349
# Poissons Ratio (z) = 0.54034 -0.01847
#
# Static dielectric constant tensor:
#      x y z
#    x 3.313300 0.000000 0.308580 
#    y 0.000000 3.930950 0.000000 
#    z 0.308580 0.000000 3.935330 
# 
# 
# High freq. dielectric constant tensor:
#      x y z
#    x 1.794460 0.000000 0.009110 
#    y 0.000000 1.818300 0.000000 
#    z 0.009110 0.000000 1.808720 
# 
# From -- ./inp_files/81384.got.cif
#   From: 2010.06.25/outbox.cif.g09.slc.cpg/sg15_41_cif.got.tgz:81384.got - 2010.06.28 07:06:18.
