data_PCOD8148376
_publ_section_title
;
Structure prediction by ZEFSAII (Michael W. Deem and Ramdas Pophale) SiO2 
 PCOD8148376
Probable space group: C 2/C
;
_chemical_formula_sum "Si O2"
_cell_formula_units_Z 40
_cell_length_a 9.105129
_cell_length_b 21.700280
_cell_length_c 9.752100
_cell_angle_alpha 90.000000
_cell_angle_beta 98.075491
_cell_angle_gamma 90.000000
_cell_volume 1907.750423
_symmetry_space_group_name_H-M "C 2/C"
_symmetry_group_IT_number 15
_symmetry_cell_setting 'monoclinic'
loop_
_space_group_symop_operation_xyz
x,y,z
-x,y,1/2-z
-x,-y,-z
x,-y,1/2+z
1/2+x,1/2+y,z
1/2-x,1/2+y,1/2-z
1/2-x,1/2-y,-z
1/2+x,1/2-y,1/2+z
loop_
_atom_site_type_symbol
_atom_site_label
_atom_site_fract_x
_atom_site_fract_y
_atom_site_fract_z
Si Si1 0.399657 0.512905 0.853173
Si Si2 0.676096 0.183638 0.486532
Si Si3 0.840553 0.608786 0.740272
Si Si4 0.332308 0.378646 0.752334
Si Si5 0.158619 0.688536 0.006828
O O1 0.500000 0.543534 0.750000
O O2 0.271901 0.563190 0.852884
O O3 0.329092 0.451087 0.782082
O O4 0.500000 0.500000 0.000000
O O5 0.750000 0.250000 0.500000
O O6 0.706115 0.135279 0.616092
O O7 0.748745 0.153586 0.364421
O O8 0.501691 0.196956 0.443866
O O9 0.861749 0.669002 0.651814
O O10 0.000000 0.573990 0.750000
O O11 0.500000 0.354737 0.750000
O O12 0.245762 0.363777 0.601957
O O13 0.250000 0.750000 0.000000
#
# Coordination Sequence:
#
# PCOD8148376 Si02
#       5
#     8   8   8   8   8
#     4  11  23  41  64  92 123 163 210 257 308 367
#     4  11  23  40  63  92 123 164 208 253 312 371
#     4  10  23  41  62  90 126 162 204 256 312 369
#     4  11  23  40  61  89 124 162 207 257 306 366
#     4  11  23  40  62  91 125 163 206 257 310 369
#
# _framework density 20.967103000000002
#
# number of rings (size 3 to 8) (size 9 to 14) (size 15 to 20)
#    0.000    1.200    0.000    6.600    0.000    4.800 
#    0.000    5.000    0.000    0.000    0.000    0.000 
#    0.000    0.000    0.000    0.000    0.000    0.000 
#
# Total GULP energy -247809.285012 kJ/mol
# GULP energy per Si atom -12390.464251 kJ/mol
# Density = 2.091938 g / cm^3
# Si number density = 20.967103 Si / 1000 Ang^3
#
#
#
# Elastic Constant Matrix: (Units=GPa)
#
#
# Indices 1 2 3 4 5 6 
#
# 1 175.0149 60.2774 49.2451 0.0000 -0.0836 0.0000
# 2 60.2774 93.6385 25.0754 0.0000 9.4312 0.0000
# 3 49.2451 25.0754 108.0359 0.0000 -1.9986 0.0000
# 4 0.0000 0.0000 0.0000 28.0969 0.0000 7.4966
# 5 -0.0836 9.4312 -1.9986 0.0000 45.0364 0.0000
# 6 0.0000 0.0000 0.0000 7.4966 0.0000 40.7411
#
#
#
# Elastic Compliance Matrix: (Units=1/GPa)
#
#
# Indices 1 2 3 4 5 6 
#
# 1 0.008006 -0.004550 -0.002578 0.000000 0.000853 0.000000
# 2 -0.004550 0.014262 -0.001293 0.000000 -0.003052 0.000000
# 3 -0.002578 -0.001293 0.010745 0.000000 0.000743 0.000000
# 4 0.000000 0.000000 0.000000 0.037429 0.000000 -0.006887
# 5 0.000853 -0.003052 0.000743 0.000000 0.022878 0.000000
# 6 0.000000 0.000000 0.000000 -0.006887 0.000000 0.025812
#
#
# Mechanical properties :
#
#
# Convention : Reuss Voigt Hill
#
# Bulk Modulus (GPa) = 61.83235 71.76501 66.79868
# Shear Modulus (GPa) = 35.36976 38.91431 37.14204
#
# Velocity S-wave (km/s) = 4.11167 4.31277 4.21342
# Velocity P-wave (km/s) = 7.21770 7.68776 7.45644
#
# Compressibility (1/GPa) = 0.01617276
#
# Stress axis : x y z
#
# Youngs Moduli (GPa) = 124.89901 70.11789 93.06656
#
# Poissons Ratio (x) = 0.31901 0.23990
# Poissons Ratio (y) = 0.56824 0.12032
# Poissons Ratio (z) = 0.32196 0.09065
#
# Static dielectric constant tensor:
#      x y z
#    x 4.377440 0.000000 0.136080 
#    y 0.000000 3.501170 0.000000 
#    z 0.136080 0.000000 4.890350 
# 
# 
# High freq. dielectric constant tensor:
#      x y z
#    x 1.840920 0.000000 -0.005400 
#    y 0.000000 1.818850 0.000000 
#    z -0.005400 0.000000 1.836210 
# 
# From -- ./inp_files/23410.got.cif
#   From: 2010.06.25/outbox.cif.g09.slc.cpg/sg15_12_cif.got.tgz:23410.got - 2010.06.28 07:06:18.
