data_PCOD8148451
_publ_section_title
;
Structure prediction by ZEFSAII (Michael W. Deem and Ramdas Pophale) SiO2 
 PCOD8148451
Probable space group: C 2/C
;
_chemical_formula_sum "Si O2"
_cell_formula_units_Z 56
_cell_length_a 9.021583
_cell_length_b 14.019467
_cell_length_c 20.483468
_cell_angle_alpha 90.000000
_cell_angle_beta 83.638351
_cell_angle_gamma 90.000000
_cell_volume 2574.750911
_symmetry_space_group_name_H-M "C 2/C"
_symmetry_group_IT_number 15
_symmetry_cell_setting 'monoclinic'
loop_
_space_group_symop_operation_xyz
x,y,z
-x,y,1/2-z
-x,-y,-z
x,-y,1/2+z
1/2+x,1/2+y,z
1/2-x,1/2+y,1/2-z
1/2-x,1/2-y,-z
1/2+x,1/2-y,1/2+z
loop_
_atom_site_type_symbol
_atom_site_label
_atom_site_fract_x
_atom_site_fract_y
_atom_site_fract_z
Si Si1 0.870110 0.863548 0.597580
Si Si2 0.653846 0.758281 0.097041
Si Si3 0.630713 0.121443 0.477949
Si Si4 0.839729 0.638419 0.773493
Si Si5 0.444577 0.459068 0.181223
Si Si6 0.196112 0.193283 0.645635
Si Si7 0.301406 0.087485 0.516874
O O1 0.721176 0.808756 0.634840
O O2 0.832451 0.898592 0.527029
O O3 0.002938 0.789984 0.580567
O O4 0.948058 0.949519 0.634302
O O5 0.800998 0.695526 0.076878
O O6 0.641324 0.777394 0.174692
O O7 0.668265 0.852973 0.051639
O O8 0.454712 0.115041 0.473338
O O9 0.704823 0.020636 0.458778
O O10 0.731503 0.560755 0.809735
O O11 0.769722 0.677605 0.711381
O O12 0.000000 0.591612 0.750000
O O13 0.500000 0.490536 0.250000
O O14 0.534024 0.361678 0.153464
O O15 0.288912 0.150326 0.581853
#
# Coordination Sequence:
#
# PCOD8148451 Si02
#       7
#     8   8   8   8   8   8   8
#     4  12  24  41  70  98 132 183 223 282 344 417
#     4  11  23  39  68 101 128 180 227 279 345 411
#     4  10  23  41  65  99 137 172 227 283 337 410
#     4  11  22  45  69  94 136 175 222 287 347 404
#     4  10  26  44  67  98 138 179 232 289 350 421
#     4  11  24  43  67  99 137 179 226 285 346 411
#     4  11  23  43  64  99 138 175 224 283 342 408
#
# _framework density 21.749676999999998
#
# number of rings (size 3 to 8) (size 9 to 14) (size 15 to 20)
#    0.000    1.143    2.857    2.143    4.000    4.571 
#    0.000    2.143    0.000    0.000    0.000    0.000 
#    0.000    0.000    0.000    0.000    0.000    0.000 
#
# Total GULP energy -346926.444481 kJ/mol
# GULP energy per Si atom -12390.230160 kJ/mol
# Density = 2.170017 g / cm^3
# Si number density = 21.749677 Si / 1000 Ang^3
#
#
#
# Elastic Constant Matrix: (Units=GPa)
#
#
# Indices 1 2 3 4 5 6 
#
# 1 92.7575 53.4680 35.9329 0.0000 -5.5591 0.0000
# 2 53.4680 56.6252 14.1593 0.0000 1.8728 0.0000
# 3 35.9329 14.1593 93.1400 0.0000 9.0874 0.0000
# 4 0.0000 0.0000 0.0000 24.6292 0.0000 3.7916
# 5 -5.5591 1.8728 9.0874 0.0000 28.2809 0.0000
# 6 0.0000 0.0000 0.0000 3.7916 0.0000 35.3632
#
#
#
# Elastic Compliance Matrix: (Units=1/GPa)
#
#
# Indices 1 2 3 4 5 6 
#
# 1 0.030034 -0.026563 -0.008565 0.000000 0.010415 0.000000
# 2 -0.026563 0.041853 0.004816 0.000000 -0.009540 0.000000
# 3 -0.008565 0.004816 0.013941 0.000000 -0.006482 0.000000
# 4 0.000000 0.000000 0.000000 0.041284 0.000000 -0.004426
# 5 0.010415 -0.009540 -0.006482 0.000000 0.040122 0.000000
# 6 0.000000 0.000000 0.000000 -0.004426 0.000000 0.028753
#
#
# Mechanical properties :
#
#
# Convention : Reuss Voigt Hill
#
# Bulk Modulus (GPa) = 39.67473 49.96035 44.81754
# Shear Modulus (GPa) = 18.86712 26.91882 22.89297
#
# Velocity S-wave (km/s) = 2.94847 3.52186 3.24785
# Velocity P-wave (km/s) = 5.46557 6.28956 5.89198
#
# Compressibility (1/GPa) = 0.02520496
#
# Stress axis : x y z
#
# Youngs Moduli (GPa) = 33.29513 23.89326 71.72951
#
# Poissons Ratio (x) = 0.63467 0.61438
# Poissons Ratio (y) = 0.88440 -0.34545
# Poissons Ratio (z) = 0.28518 -0.11507
#
# Static dielectric constant tensor:
#      x y z
#    x 4.237800 0.000000 -0.218040 
#    y 0.000000 4.049490 0.000000 
#    z -0.218040 0.000000 3.960730 
# 
# 
# High freq. dielectric constant tensor:
#      x y z
#    x 1.862640 0.000000 0.001820 
#    y 0.000000 1.847600 0.000000 
#    z 0.001820 0.000000 1.858130 
# 
# From -- ./inp_files/231554.got.cif
#   From: 2010.06.25/outbox.cif.g09.slc.cpg/sg15_116_cif.got.tgz:231554.got - 2010.06.28 07:06:18.
