data_PCOD8148093
_publ_section_title
;
Structure prediction by ZEFSAII (Michael W. Deem and Ramdas Pophale) SiO2 
 PCOD8148093
Probable space group: C 2/C
;
_chemical_formula_sum "Si O2"
_cell_formula_units_Z 64
_cell_length_a 14.365660
_cell_length_b 22.668794
_cell_length_c 9.053529
_cell_angle_alpha 90.000000
_cell_angle_beta 97.636875
_cell_angle_gamma 90.000000
_cell_volume 2922.150723
_symmetry_space_group_name_H-M "C 2/C"
_symmetry_group_IT_number 15
_symmetry_cell_setting 'monoclinic'
loop_
_space_group_symop_operation_xyz
x,y,z
-x,y,1/2-z
-x,-y,-z
x,-y,1/2+z
1/2+x,1/2+y,z
1/2-x,1/2+y,1/2-z
1/2-x,1/2-y,-z
1/2+x,1/2-y,1/2+z
loop_
_atom_site_type_symbol
_atom_site_label
_atom_site_fract_x
_atom_site_fract_y
_atom_site_fract_z
Si Si1 0.660755 0.011838 0.868824
Si Si2 0.988249 0.908663 0.587873
Si Si3 0.361212 0.479648 0.041398
Si Si4 0.633472 0.882277 0.894697
Si Si5 0.536455 0.109222 0.922949
Si Si6 0.171109 0.310828 0.611272
Si Si7 0.250727 0.598923 0.692695
Si Si8 0.839264 0.821399 0.448247
O O1 0.581004 0.043123 0.954200
O O2 0.665317 0.056474 0.729612
O O3 0.629452 0.946586 0.816153
O O4 0.764497 0.008000 0.961215
O O5 0.934865 0.859561 0.479127
O O6 0.000000 0.879058 0.750000
O O7 0.089238 0.929726 0.549375
O O8 0.927321 0.967151 0.595914
O O9 0.340160 0.444480 0.189208
O O10 0.647996 0.834761 0.769651
O O11 0.538312 0.874658 0.966025
O O12 0.720601 0.876106 0.026287
O O13 0.500000 0.120534 0.750000
O O14 0.619245 0.155385 0.968852
O O15 0.135754 0.243589 0.602525
O O16 0.282004 0.317426 0.591877
O O17 0.272928 0.650561 0.809295
#
# Coordination Sequence:
#
# PCOD8148093 Si02
#       8
#     8   8   8   8   8   8   8   8
#     4  11  22  40  70  99 147 180 219 280 360 426
#     4  11  23  39  64 101 138 177 235 287 348 417
#     4  10  23  38  64 102 141 180 223 286 349 419
#     4  11  26  40  70 107 139 181 229 291 345 425
#     4  12  23  45  68 104 142 182 230 287 355 417
#     4  11  26  47  70  97 139 189 242 288 350 415
#     4  11  22  43  67 101 133 186 225 283 355 418
#     4  11  25  48  71  94 138 194 235 291 351 418
#
# _framework density 21.901675999999998
#
# number of rings (size 3 to 8) (size 9 to 14) (size 15 to 20)
#    0.000    1.000    3.750    1.500   10.500    2.000 
#    4.500    0.000    0.000    0.000    0.000    0.000 
#    0.000    0.000    0.000    0.000    0.000    0.000 
#
# Total GULP energy -396620.392625 kJ/mol
# GULP energy per Si atom -12394.387270 kJ/mol
# Density = 2.185183 g / cm^3
# Si number density = 21.901676 Si / 1000 Ang^3
#
#
#
# Elastic Constant Matrix: (Units=GPa)
#
#
# Indices 1 2 3 4 5 6 
#
# 1 66.2024 30.0608 38.6696 0.0000 -9.9408 0.0000
# 2 30.0608 134.0069 53.4021 0.0000 -4.4673 0.0000
# 3 38.6696 53.4021 116.6546 0.0000 -4.2952 0.0000
# 4 0.0000 0.0000 0.0000 33.0042 0.0000 -7.9561
# 5 -9.9408 -4.4673 -4.2952 0.0000 31.3426 0.0000
# 6 0.0000 0.0000 0.0000 -7.9561 0.0000 25.7928
#
#
#
# Elastic Compliance Matrix: (Units=1/GPa)
#
#
# Indices 1 2 3 4 5 6 
#
# 1 0.020076 -0.002143 -0.005478 0.000000 0.005311 0.000000
# 2 -0.002143 0.009373 -0.003574 0.000000 0.000166 0.000000
# 3 -0.005478 -0.003574 0.012002 0.000000 -0.000602 0.000000
# 4 0.000000 0.000000 0.000000 0.032733 0.000000 0.010097
# 5 0.005311 0.000166 -0.000602 0.000000 0.033531 0.000000
# 6 0.000000 0.000000 0.000000 0.010097 0.000000 0.041885
#
#
# Mechanical properties :
#
#
# Convention : Reuss Voigt Hill
#
# Bulk Modulus (GPa) = 52.46658 62.34764 57.40711
# Shear Modulus (GPa) = 28.03556 31.01001 29.52279
#
# Velocity S-wave (km/s) = 3.58168 3.76689 3.67545
# Velocity P-wave (km/s) = 6.41187 6.88826 6.65433
#
# Compressibility (1/GPa) = 0.01905975
#
# Stress axis : x y z
#
# Youngs Moduli (GPa) = 49.81123 106.69000 83.31774
#
# Poissons Ratio (x) = 0.22867 0.45643
# Poissons Ratio (y) = 0.10676 0.29779
# Poissons Ratio (z) = 0.27287 0.38132
#
# Static dielectric constant tensor:
#      x y z
#    x 4.183550 0.000000 -0.224830 
#    y 0.000000 3.859860 0.000000 
#    z -0.224830 0.000000 3.887170 
# 
# 
# High freq. dielectric constant tensor:
#      x y z
#    x 1.872460 0.000000 -0.010490 
#    y 0.000000 1.846250 0.000000 
#    z -0.010490 0.000000 1.858920 
# 
# From -- ./inp_files/42669.got.cif
#   From: 2010.06.25/outbox.cif.g09.slc.cpg/sg15_22_cif.got.tgz:42669.got - 2010.06.28 07:06:18.
