data_PCOD8148496
_publ_section_title
;
Structure prediction by ZEFSAII (Michael W. Deem and Ramdas Pophale) SiO2 
 PCOD8148496
Probable space group: C 2/C
;
_chemical_formula_sum "Si O2"
_cell_formula_units_Z 52
_cell_length_a 6.301852
_cell_length_b 23.572027
_cell_length_c 17.803004
_cell_angle_alpha 90.000000
_cell_angle_beta 75.890813
_cell_angle_gamma 90.000000
_cell_volume 2564.810895
_symmetry_space_group_name_H-M "C 2/C"
_symmetry_group_IT_number 15
_symmetry_cell_setting 'monoclinic'
loop_
_space_group_symop_operation_xyz
x,y,z
-x,y,1/2-z
-x,-y,-z
x,-y,1/2+z
1/2+x,1/2+y,z
1/2-x,1/2+y,1/2-z
1/2-x,1/2-y,-z
1/2+x,1/2-y,1/2+z
loop_
_atom_site_type_symbol
_atom_site_label
_atom_site_fract_x
_atom_site_fract_y
_atom_site_fract_z
Si Si1 0.443914 0.577136 0.453354
Si Si2 0.956532 0.620560 0.912401
Si Si3 0.049391 0.179152 0.157280
Si Si4 0.802656 0.731420 0.578647
Si Si5 0.500000 0.837223 0.250000
Si Si6 0.884951 0.754963 0.190168
Si Si7 0.279632 0.033852 0.533340
O O1 0.440699 0.617789 0.381841
O O2 0.682443 0.570664 0.471539
O O3 0.393367 0.513845 0.426317
O O4 0.266894 0.598688 0.530229
O O5 0.010652 0.683500 0.937814
O O6 0.938138 0.622579 0.824472
O O7 0.163605 0.579707 0.908476
O O8 0.283365 0.211371 0.137981
O O9 0.000000 0.172428 0.250000
O O10 0.878823 0.215759 0.123634
O O11 0.750000 0.750000 0.500000
O O12 0.570202 0.708682 0.630820
O O13 0.706583 0.796013 0.245006
O O14 0.000000 0.721899 0.250000
O O15 0.500000 0.000000 0.500000
#
# Coordination Sequence:
#
# PCOD8148496 Si02
#       7
#     8   8   8   8   4   8   8
#     4  10  23  41  68  85 125 167 210 278 320 393
#     4  11  22  39  62  93 123 164 216 256 325 386
#     4  12  23  41  60  97 131 169 217 263 337 395
#     4  12  25  37  64  98 128 174 219 261 320 400
#     4  12  24  38  60  96 128 176 206 260 330 388
#     4  12  21  42  59  87 141 174 204 262 321 388
#     4   9  21  45  63  89 119 164 217 269 331 379
#
# _framework density 20.2744
#
# number of rings (size 3 to 8) (size 9 to 14) (size 15 to 20)
#    0.000    0.923    5.385    1.846    4.308    2.462 
#    0.000    4.615    0.000    0.000    0.000    0.000 
#    0.000    0.000    0.000    0.000    0.000    0.000 
#
# Total GULP energy -322095.283214 kJ/mol
# GULP energy per Si atom -12388.280124 kJ/mol
# Density = 2.022825 g / cm^3
# Si number density = 20.274400 Si / 1000 Ang^3
#
#
#
# Elastic Constant Matrix: (Units=GPa)
#
#
# Indices 1 2 3 4 5 6 
#
# 1 111.0368 28.7736 51.2532 0.0000 16.2349 0.0000
# 2 28.7736 98.7095 49.8789 0.0000 18.9910 0.0000
# 3 51.2532 49.8789 127.8806 0.0000 24.4035 0.0000
# 4 0.0000 0.0000 0.0000 28.2671 0.0000 9.8373
# 5 16.2349 18.9910 24.4035 0.0000 35.8890 0.0000
# 6 0.0000 0.0000 0.0000 9.8373 0.0000 31.9754
#
#
#
# Elastic Compliance Matrix: (Units=1/GPa)
#
#
# Indices 1 2 3 4 5 6 
#
# 1 0.011293 -0.001009 -0.003746 0.000000 -0.002028 0.000000
# 2 -0.001009 0.013182 -0.004014 0.000000 -0.003790 0.000000
# 3 -0.003746 -0.004014 0.011673 0.000000 -0.004119 0.000000
# 4 0.000000 0.000000 0.000000 0.039619 0.000000 -0.012189
# 5 -0.002028 -0.003790 -0.004119 0.000000 0.033587 0.000000
# 6 0.000000 0.000000 0.000000 -0.012189 0.000000 0.035024
#
#
# Mechanical properties :
#
#
# Convention : Reuss Voigt Hill
#
# Bulk Modulus (GPa) = 53.73338 66.38205 60.05772
# Shear Modulus (GPa) = 29.74101 33.07437 31.40769
#
# Velocity S-wave (km/s) = 3.83420 4.04336 3.94017
# Velocity P-wave (km/s) = 6.79427 7.38994 7.09836
#
# Compressibility (1/GPa) = 0.01861040
#
# Stress axis : x y z
#
# Youngs Moduli (GPa) = 88.55137 75.85918 85.67080
#
# Poissons Ratio (x) = 0.07655 0.32088
# Poissons Ratio (y) = 0.08936 0.34389
# Poissons Ratio (z) = 0.33167 0.30450
#
# Static dielectric constant tensor:
#      x y z
#    x 4.153440 0.000000 0.189540 
#    y 0.000000 3.918180 0.000000 
#    z 0.189540 0.000000 3.677540 
# 
# 
# High freq. dielectric constant tensor:
#      x y z
#    x 1.815540 0.000000 0.016380 
#    y 0.000000 1.779590 0.000000 
#    z 0.016380 0.000000 1.779640 
# 
# From -- ./inp_files/185833.got.cif
#   From: 2010.06.25/outbox.cif.g09.slc.cpg/sg15_93_cif.got.tgz:185833.got - 2010.06.28 07:06:18.
