data_PCOD8148829
_publ_section_title
;
Structure prediction by ZEFSAII (Michael W. Deem and Ramdas Pophale) SiO2 
 PCOD8148829
Probable space group: C 2/C
;
_chemical_formula_sum "Si O2"
_cell_formula_units_Z 40
_cell_length_a 5.010349
_cell_length_b 24.737183
_cell_length_c 15.004873
_cell_angle_alpha 90.000000
_cell_angle_beta 60.180433
_cell_angle_gamma 90.000000
_cell_volume 1613.496121
_symmetry_space_group_name_H-M "C 2/C"
_symmetry_group_IT_number 15
_symmetry_cell_setting 'monoclinic'
loop_
_space_group_symop_operation_xyz
x,y,z
-x,y,1/2-z
-x,-y,-z
x,-y,1/2+z
1/2+x,1/2+y,z
1/2-x,1/2+y,1/2-z
1/2-x,1/2-y,-z
1/2+x,1/2-y,1/2+z
loop_
_atom_site_type_symbol
_atom_site_label
_atom_site_fract_x
_atom_site_fract_y
_atom_site_fract_z
Si Si1 0.273727 0.637496 0.633004
Si Si2 0.910484 0.307285 0.045598
Si Si3 0.790963 0.696003 0.371171
Si Si4 0.139158 0.908782 0.821635
Si Si5 0.356614 0.474300 0.179451
O O1 0.549711 0.676820 0.615664
O O2 0.410440 0.576050 0.603645
O O3 0.000000 0.641180 0.750000
O O4 0.134727 0.652881 0.560555
O O5 0.942767 0.246422 0.079721
O O6 0.998995 0.308752 0.926026
O O7 0.581922 0.641180 0.399189
O O8 0.000000 0.703739 0.250000
O O9 0.500000 0.913714 0.750000
O O10 0.000000 0.892879 0.750000
O O11 0.004926 0.967483 0.877208
O O12 0.500000 0.457472 0.250000
O O13 0.000000 0.483930 0.250000
#
# Coordination Sequence:
#
# PCOD8148829 Si02
#       5
#     8   8   8   8   8
#     4  11  21  39  62  90 125 160 196 252 303 349
#     4  11  25  39  62  94 120 156 210 245 299 371
#     4  10  23  43  63  87 124 163 199 253 303 354
#     4   9  19  35  59  86 115 158 202 239 294 358
#     4   9  17  33  58  87 118 157 199 241 296 354
#
# _framework density 24.790884999999999
#
# number of rings (size 3 to 8) (size 9 to 14) (size 15 to 20)
#    0.000    2.000    0.000    4.200    0.000   10.400 
#    0.000    2.000    0.000    0.000    0.000    0.000 
#    0.000    0.000    0.000    0.000    0.000    0.000 
#
# Total GULP energy -247836.999521 kJ/mol
# GULP energy per Si atom -12391.849976 kJ/mol
# Density = 2.473446 g / cm^3
# Si number density = 24.790885 Si / 1000 Ang^3
#
#
#
# Elastic Constant Matrix: (Units=GPa)
#
#
# Indices 1 2 3 4 5 6 
#
# 1 106.4530 49.4333 25.3283 0.0000 35.7648 0.0000
# 2 49.4333 229.8245 89.2691 0.0000 48.3580 0.0000
# 3 25.3283 89.2691 114.9761 0.0000 21.8968 0.0000
# 4 0.0000 0.0000 0.0000 29.0328 0.0000 26.9654
# 5 35.7648 48.3580 21.8968 0.0000 46.2593 0.0000
# 6 0.0000 0.0000 0.0000 26.9654 0.0000 25.8932
#
#
#
# Elastic Compliance Matrix: (Units=1/GPa)
#
#
# Indices 1 2 3 4 5 6 
#
# 1 0.012854 -0.000629 -0.000633 0.000000 -0.008980 0.000000
# 2 -0.000629 0.007322 -0.004595 0.000000 -0.004992 0.000000
# 3 -0.000633 -0.004595 0.012526 0.000000 -0.000636 0.000000
# 4 0.000000 0.000000 0.000000 1.051894 0.000000 -1.095454
# 5 -0.008980 -0.004992 -0.000636 0.000000 0.034080 0.000000
# 6 0.000000 0.000000 0.000000 -1.095454 0.000000 1.179437
#
#
# Mechanical properties :
#
#
# Convention : Reuss Voigt Hill
#
# Bulk Modulus (GPa) = 47.64943 86.59055 67.11999
# Shear Modulus (GPa) = 2.15813 39.38524 20.77169
#
# Velocity S-wave (km/s) = 0.93404 3.99017 2.89775
# Velocity P-wave (km/s) = 4.51946 7.49886 6.19106
#
# Compressibility (1/GPa) = 0.02098661
#
# Stress axis : x y z
#
# Youngs Moduli (GPa) = 77.79858 136.57576 79.83439
#
# Poissons Ratio (x) = 0.08597 0.05050
# Poissons Ratio (y) = 0.04897 0.36687
# Poissons Ratio (z) = 0.04921 0.62763
#
# Static dielectric constant tensor:
#      x y z
#    x 4.390340 0.000000 0.141560 
#    y 0.000000 5.839430 0.000000 
#    z 0.141560 0.000000 4.144560 
# 
# 
# High freq. dielectric constant tensor:
#      x y z
#    x 1.992490 0.000000 0.019000 
#    y 0.000000 2.017420 0.000000 
#    z 0.019000 0.000000 1.956330 
# 
# From -- ./inp_files/129053.got.cif
#   From: 2010.06.25/outbox.cif.g09.slc.cpg/sg15_65_cif.got.tgz:129053.got - 2010.06.28 07:06:18.
