data_PCOD8148339
_publ_section_title
;
Structure prediction by ZEFSAII (Michael W. Deem and Ramdas Pophale) SiO2 
 PCOD8148339
Probable space group: C 2/C
;
_chemical_formula_sum "Si O2"
_cell_formula_units_Z 32
_cell_length_a 10.079677
_cell_length_b 27.855532
_cell_length_c 5.523924
_cell_angle_alpha 90.000000
_cell_angle_beta 119.799901
_cell_angle_gamma 90.000000
_cell_volume 1345.886862
_symmetry_space_group_name_H-M "C 2/C"
_symmetry_group_IT_number 15
_symmetry_cell_setting 'monoclinic'
loop_
_space_group_symop_operation_xyz
x,y,z
-x,y,1/2-z
-x,-y,-z
x,-y,1/2+z
1/2+x,1/2+y,z
1/2-x,1/2+y,1/2-z
1/2-x,1/2-y,-z
1/2+x,1/2-y,1/2+z
loop_
_atom_site_type_symbol
_atom_site_label
_atom_site_fract_x
_atom_site_fract_y
_atom_site_fract_z
Si Si1 0.000000 0.818386 0.750000
Si Si2 0.230225 0.706185 0.303514
Si Si3 0.500000 0.171871 0.750000
Si Si4 0.221036 0.871308 0.270025
Si Si5 0.826530 0.018027 0.808758
O O1 0.861283 0.785836 0.721125
O O2 0.937450 0.851307 0.477801
O O3 0.250000 0.750000 0.500000
O O4 0.246809 0.654549 0.446282
O O5 0.063999 0.706127 0.023610
O O6 0.637513 0.138151 0.783132
O O7 0.192462 0.927017 0.284190
O O8 0.749228 0.991063 0.504401
O O9 0.000000 0.000000 0.000000
#
# Coordination Sequence:
#
# PCOD8148339 Si02
#       5
#     4   8   4   8   8
#     4  10  24  41  72 104 140 186 252 294 373 442
#     4  11  26  46  72 106 144 194 246 306 377 452
#     4  10  26  47  70 100 150 190 244 302 385 446
#     4  11  24  43  73 104 147 192 242 311 375 449
#     4  10  23  40  70 107 147 187 251 312 379 442
#
# _framework density 23.776145
#
# number of rings (size 3 to 8) (size 9 to 14) (size 15 to 20)
#    0.000    1.500    0.000    3.000   14.000   10.000 
#    0.000    5.000    0.000    0.000    0.000    0.000 
#    0.000    0.000    0.000    0.000    0.000    0.000 
#
# Total GULP energy -198358.667640 kJ/mol
# GULP energy per Si atom -12397.416728 kJ/mol
# Density = 2.372203 g / cm^3
# Si number density = 23.776145 Si / 1000 Ang^3
#
#
#
# Elastic Constant Matrix: (Units=GPa)
#
#
# Indices 1 2 3 4 5 6 
#
# 1 63.8432 24.5944 28.7122 0.0000 2.9945 0.0000
# 2 24.5944 159.7684 72.5726 0.0000 -0.9953 0.0000
# 3 28.7122 72.5726 197.4024 0.0000 -9.2842 0.0000
# 4 0.0000 0.0000 0.0000 41.0959 0.0000 -4.6509
# 5 2.9945 -0.9953 -9.2842 0.0000 47.4759 0.0000
# 6 0.0000 0.0000 0.0000 -4.6509 0.0000 30.4578
#
#
#
# Elastic Compliance Matrix: (Units=1/GPa)
#
#
# Indices 1 2 3 4 5 6 
#
# 1 0.017292 -0.001797 -0.001925 0.000000 -0.001505 0.000000
# 2 -0.001797 0.007708 -0.002583 0.000000 -0.000230 0.000000
# 3 -0.001925 -0.002583 0.006357 0.000000 0.001310 0.000000
# 4 0.000000 0.000000 0.000000 0.024761 0.000000 0.003781
# 5 -0.001505 -0.000230 0.001310 0.000000 0.021410 0.000000
# 6 0.000000 0.000000 0.000000 0.003781 0.000000 0.033410
#
#
# Mechanical properties :
#
#
# Convention : Reuss Voigt Hill
#
# Bulk Modulus (GPa) = 53.34370 74.75250 64.04810
# Shear Modulus (GPa) = 38.52191 43.48158 41.00175
#
# Velocity S-wave (km/s) = 4.02953 4.28108 4.15720
# Velocity P-wave (km/s) = 6.64334 7.47965 7.07387
#
# Compressibility (1/GPa) = 0.01874635
#
# Stress axis : x y z
#
# Youngs Moduli (GPa) = 57.83024 129.74321 157.30421
#
# Poissons Ratio (x) = 0.23311 0.30287
# Poissons Ratio (y) = 0.10390 0.40633
# Poissons Ratio (z) = 0.11134 0.33514
#
# Static dielectric constant tensor:
#      x y z
#    x 5.191370 0.000000 -1.808800 
#    y 0.000000 3.991560 0.000000 
#    z -1.808800 0.000000 7.707140 
# 
# 
# High freq. dielectric constant tensor:
#      x y z
#    x 1.938520 0.000000 -0.018780 
#    y 0.000000 1.930120 0.000000 
#    z -0.018780 0.000000 1.961350 
# 
# From -- ./inp_files/5676.got.cif
#   From: 2010.06.25/outbox.cif.g09.slc.cpg/sg15_3_cif.got.tgz:5676.got - 2010.06.28 07:06:18.
