data_PCOD8148109
_publ_section_title
;
Structure prediction by ZEFSAII (Michael W. Deem and Ramdas Pophale) SiO2 
 PCOD8148109
Probable space group: C 2/C
;
_chemical_formula_sum "Si O2"
_cell_formula_units_Z 64
_cell_length_a 20.624135
_cell_length_b 23.101681
_cell_length_c 17.956400
_cell_angle_alpha 90.000000
_cell_angle_beta 19.750577
_cell_angle_gamma 90.000000
_cell_volume 2891.082310
_symmetry_space_group_name_H-M "C 2/C"
_symmetry_group_IT_number 15
_symmetry_cell_setting 'monoclinic'
loop_
_space_group_symop_operation_xyz
x,y,z
-x,y,1/2-z
-x,-y,-z
x,-y,1/2+z
1/2+x,1/2+y,z
1/2-x,1/2+y,1/2-z
1/2-x,1/2-y,-z
1/2+x,1/2-y,1/2+z
loop_
_atom_site_type_symbol
_atom_site_label
_atom_site_fract_x
_atom_site_fract_y
_atom_site_fract_z
Si Si1 0.232972 0.182570 0.334071
Si Si2 0.642497 0.125745 0.440321
Si Si3 0.907550 0.137271 0.777345
Si Si4 0.099012 0.099992 0.214666
Si Si5 0.216973 0.520471 0.986313
Si Si6 0.274870 0.498057 0.756948
Si Si7 0.756977 0.604834 0.796305
Si Si8 0.144287 0.684332 0.944112
O O1 0.276768 0.176475 0.198847
O O2 0.158825 0.247300 0.420512
O O3 0.070268 0.137614 0.537224
O O4 0.420374 0.168452 0.180748
O O5 0.719291 0.132278 0.442520
O O6 0.703155 0.067299 0.331605
O O7 0.410234 0.127056 0.692195
O O8 0.842101 0.074663 0.878969
O O9 0.721007 0.168164 0.943445
O O10 0.000000 0.169702 0.750000
O O11 0.000000 0.131363 0.250000
O O12 0.949426 0.097150 0.443576
O O13 0.174050 0.037800 0.105250
O O14 0.214153 0.525570 0.900904
O O15 0.000000 0.521078 0.250000
O O16 0.500000 0.500000 0.500000
O O17 0.176759 0.540835 0.802759
O O18 0.740306 0.650178 0.745764
#
# Coordination Sequence:
#
# PCOD8148109 Si02
#       8
#     8   8   8   8   8   8   8   8
#     4  11  24  44  69  95 129 170 229 291 330 393
#     4  10  23  38  66  97 123 169 218 277 332 400
#     4  12  26  42  64  92 136 182 225 274 331 391
#     4  11  25  42  66  96 139 172 213 269 346 414
#     4  11  25  42  66  97 141 183 222 270 332 403
#     4  11  19  39  66  94 130 166 226 270 329 401
#     4  11  22  40  68  96 124 177 219 282 329 404
#     4  11  24  44  68  99 126 171 235 283 335 387
#
# _framework density 22.137039000000001
#
# number of rings (size 3 to 8) (size 9 to 14) (size 15 to 20)
#    0.000    1.000    5.000    2.250    5.250    0.500 
#    0.000    0.000    0.000    0.750    0.000    0.000 
#    0.000    0.000    0.000    0.000    0.000    0.000 
#
# Total GULP energy -396592.039720 kJ/mol
# GULP energy per Si atom -12393.501241 kJ/mol
# Density = 2.208665 g / cm^3
# Si number density = 22.137039 Si / 1000 Ang^3
#
#
#
# Elastic Constant Matrix: (Units=GPa)
#
#
# Indices 1 2 3 4 5 6 
#
# 1 146.5157 11.0098 18.8251 -0.1064 -26.9875 0.0636
# 2 11.0098 44.2601 26.1917 0.2148 -2.2567 -0.0854
# 3 18.8251 26.1917 117.5126 0.1649 -6.4323 0.0722
# 4 -0.1064 0.2148 0.1649 25.6089 -0.1709 -3.1643
# 5 -26.9875 -2.2567 -6.4323 -0.1709 31.2691 0.0296
# 6 0.0636 -0.0854 0.0722 -3.1643 0.0296 16.8153
#
#
#
# Elastic Compliance Matrix: (Units=1/GPa)
#
#
# Indices 1 2 3 4 5 6 
#
# 1 0.008283 -0.001321 -0.000654 0.000092 0.006920 -0.000030
# 2 -0.001321 0.026253 -0.005662 -0.000176 -0.000411 0.000130
# 3 -0.000654 -0.005662 0.009935 -0.000021 0.001071 -0.000075
# 4 0.000092 -0.000176 -0.000021 0.039982 0.000274 0.007522
# 5 0.006920 -0.000411 0.001071 0.000274 0.038145 -0.000048
# 6 -0.000030 0.000130 -0.000075 0.007522 -0.000048 0.060886
#
#
# Mechanical properties :
#
#
# Convention : Reuss Voigt Hill
#
# Bulk Modulus (GPa) = 34.24996 46.70462 40.47729
# Shear Modulus (GPa) = 23.98182 31.55612 27.76897
#
# Velocity S-wave (km/s) = 3.29498 3.77966 3.54561
# Velocity P-wave (km/s) = 5.47551 6.33968 5.92337
#
# Compressibility (1/GPa) = 0.02919711
#
# Stress axis : x y z
#
# Youngs Moduli (GPa) = 120.72723 38.09070 100.65286
#
# Poissons Ratio (x) = 0.05033 0.06581
# Poissons Ratio (y) = 0.15951 0.56991
# Poissons Ratio (z) = 0.07893 0.21567
#
# Static dielectric constant tensor:
#      x y z
#    x 4.037870 -0.000810 -0.225270 
#    y -0.000810 3.870470 0.000900 
#    z -0.225270 0.000900 4.053000 
# 
# 
# High freq. dielectric constant tensor:
#      x y z
#    x 1.875210 -0.000040 -0.022660 
#    y -0.000040 1.839830 0.000100 
#    z -0.022660 0.000100 1.878310 
# 
# From -- ./inp_files/216950.got.cif
#   From: 2010.06.25/outbox.cif.g09.slc.cpg/sg15_109_cif.got.tgz:216950.got - 2010.06.28 07:06:18.
