data_PCOD8148938
_publ_section_title
;
Structure prediction by ZEFSAII (Michael W. Deem and Ramdas Pophale) SiO2 
 PCOD8148938
Probable space group: C 2/C
;
_chemical_formula_sum "Si O2"
_cell_formula_units_Z 48
_cell_length_a 12.388495
_cell_length_b 10.904494
_cell_length_c 17.422967
_cell_angle_alpha 90.000000
_cell_angle_beta 67.077867
_cell_angle_gamma 90.000000
_cell_volume 2167.815542
_symmetry_space_group_name_H-M "C 2/C"
_symmetry_group_IT_number 15
_symmetry_cell_setting 'monoclinic'
loop_
_space_group_symop_operation_xyz
x,y,z
-x,y,1/2-z
-x,-y,-z
x,-y,1/2+z
1/2+x,1/2+y,z
1/2-x,1/2+y,1/2-z
1/2-x,1/2-y,-z
1/2+x,1/2-y,1/2+z
loop_
_atom_site_type_symbol
_atom_site_label
_atom_site_fract_x
_atom_site_fract_y
_atom_site_fract_z
Si Si1 0.932807 0.364085 0.347336
Si Si2 0.479414 0.573608 0.670452
Si Si3 0.895529 0.821595 0.650984
Si Si4 0.517626 0.079032 0.420279
Si Si5 0.781762 0.748640 0.173378
Si Si6 0.130763 0.812396 0.013348
O O1 0.803148 0.305245 0.370323
O O2 0.000000 0.352254 0.250000
O O3 0.004313 0.281494 0.388337
O O4 0.946381 0.505437 0.372706
O O5 0.500000 0.626583 0.750000
O O6 0.447419 0.431643 0.686646
O O7 0.373662 0.644186 0.660572
O O8 0.596336 0.582576 0.584570
O O9 0.784382 0.769507 0.727509
O O10 0.861777 0.866258 0.574803
O O11 0.654812 0.116593 0.364723
O O12 0.466306 0.210842 0.448511
O O13 0.500000 0.000000 0.500000
O O14 0.250000 0.750000 0.000000
#
# Coordination Sequence:
#
# PCOD8148938 Si02
#       6
#     8   8   8   8   8   8
#     4  10  23  43  67  99 132 179 233 279 342 420
#     4  11  24  43  65  97 134 176 224 278 345 410
#     4  11  23  44  67  95 134 177 225 275 346 411
#     4  11  24  44  67  99 137 176 223 280 349 412
#     4  10  25  41  69 101 132 178 230 285 339 416
#     4  11  25  42  66 100 134 173 224 282 340 410
#
# _framework density 22.142106999999999
#
# number of rings (size 3 to 8) (size 9 to 14) (size 15 to 20)
#    0.000    1.333    1.667    3.000    7.000    6.000 
#    0.000    0.000    0.000    0.000    0.000    0.000 
#    0.000    0.000    0.000    0.000    0.000    0.000 
#
# Total GULP energy -297391.434802 kJ/mol
# GULP energy per Si atom -12391.309783 kJ/mol
# Density = 2.209171 g / cm^3
# Si number density = 22.142107 Si / 1000 Ang^3
#
#
#
# Elastic Constant Matrix: (Units=GPa)
#
#
# Indices 1 2 3 4 5 6 
#
# 1 110.1801 20.5905 48.2171 0.0000 -1.8384 0.0000
# 2 20.5905 84.3202 17.0065 0.0000 -5.6917 0.0000
# 3 48.2171 17.0065 98.3172 0.0000 3.5315 0.0000
# 4 0.0000 0.0000 0.0000 31.3999 0.0000 -1.4668
# 5 -1.8384 -5.6917 3.5315 0.0000 32.3657 0.0000
# 6 0.0000 0.0000 0.0000 -1.4668 0.0000 38.7002
#
#
#
# Elastic Compliance Matrix: (Units=1/GPa)
#
#
# Indices 1 2 3 4 5 6 
#
# 1 0.011838 -0.001706 -0.005546 0.000000 0.000977 0.000000
# 2 -0.001706 0.012723 -0.001447 0.000000 0.002298 0.000000
# 3 -0.005546 -0.001447 0.013213 0.000000 -0.002011 0.000000
# 4 0.000000 0.000000 0.000000 0.031904 0.000000 0.001209
# 5 0.000977 0.002298 -0.002011 0.000000 0.031576 0.000000
# 6 0.000000 0.000000 0.000000 0.001209 0.000000 0.025885
#
#
# Mechanical properties :
#
#
# Convention : Reuss Voigt Hill
#
# Bulk Modulus (GPa) = 49.07355 51.60506 50.33931
# Shear Modulus (GPa) = 33.04050 34.29338 33.66694
#
# Velocity S-wave (km/s) = 3.86709 3.93973 3.90358
# Velocity P-wave (km/s) = 6.49233 6.63718 6.56516
#
# Compressibility (1/GPa) = 0.02037758
#
# Stress axis : x y z
#
# Youngs Moduli (GPa) = 84.47278 78.59705 75.68113
#
# Poissons Ratio (x) = 0.13411 0.41970
# Poissons Ratio (y) = 0.14414 0.10947
# Poissons Ratio (z) = 0.46846 0.11369
#
# Static dielectric constant tensor:
#      x y z
#    x 4.747280 0.000000 -1.211260 
#    y 0.000000 6.441860 0.000000 
#    z -1.211260 0.000000 6.731210 
# 
# 
# High freq. dielectric constant tensor:
#      x y z
#    x 1.870580 0.000000 -0.002120 
#    y 0.000000 1.872990 0.000000 
#    z -0.002120 0.000000 1.878130 
# 
# From -- ./inp_files/196465.got.cif
#   From: 2010.06.25/outbox.cif.g09.slc.cpg/sg15_99_cif.got.tgz:196465.got - 2010.06.28 07:06:18.
