data_PCOD8148561
_publ_section_title
;
Structure prediction by ZEFSAII (Michael W. Deem and Ramdas Pophale) SiO2 
 PCOD8148561
Probable space group: C 2/C
;
_chemical_formula_sum "Si O2"
_cell_formula_units_Z 48
_cell_length_a 26.282013
_cell_length_b 21.661183
_cell_length_c 12.290179
_cell_angle_alpha 90.000000
_cell_angle_beta 19.145923
_cell_angle_gamma 90.000000
_cell_volume 2294.774320
_symmetry_space_group_name_H-M "C 2/C"
_symmetry_group_IT_number 15
_symmetry_cell_setting 'monoclinic'
loop_
_space_group_symop_operation_xyz
x,y,z
-x,y,1/2-z
-x,-y,-z
x,-y,1/2+z
1/2+x,1/2+y,z
1/2-x,1/2+y,1/2-z
1/2-x,1/2-y,-z
1/2+x,1/2-y,1/2+z
loop_
_atom_site_type_symbol
_atom_site_label
_atom_site_fract_x
_atom_site_fract_y
_atom_site_fract_z
Si Si1 0.349637 0.477768 0.864900
Si Si2 0.616200 0.092855 0.682282
Si Si3 0.584651 0.651440 0.185608
Si Si4 0.864173 0.707417 0.704923
Si Si5 0.123235 0.793471 0.203458
Si Si6 0.783555 0.406628 0.759795
O O1 0.500000 0.500000 0.500000
O O2 0.397437 0.421599 0.845280
O O3 0.208789 0.458569 0.066611
O O4 0.314118 0.532723 0.019387
O O5 0.585108 0.153900 0.814649
O O6 0.711938 0.105953 0.378376
O O7 0.445501 0.073739 0.988704
O O8 0.500000 0.674224 0.250000
O O9 0.486141 0.673760 0.487529
O O10 0.759124 0.678839 0.821357
O O11 0.010654 0.746459 0.363410
O O12 0.750000 0.750000 0.000000
O O13 0.250000 0.750000 0.000000
O O14 0.204468 0.844884 0.966184
#
# Coordination Sequence:
#
# PCOD8148561 Si02
#       6
#     8   8   8   8   8   8
#     4  11  23  41  64  91 129 162 212 273 318 376
#     4  10  23  42  64  93 129 171 211 265 325 387
#     4  10  23  42  62  89 126 170 206 263 322 372
#     4   9  20  41  61  88 128 166 205 259 319 368
#     4  11  21  39  67  93 128 165 212 262 313 390
#     4  11  23  40  68  97 125 170 215 259 329 391
#
# _framework density 20.917090000000002
#
# number of rings (size 3 to 8) (size 9 to 14) (size 15 to 20)
#    0.000    1.667    3.333    0.500    2.333    2.667 
#    0.000    5.833    0.000    0.000    0.000    0.000 
#    0.000    0.000    0.000    0.000    0.000    0.000 
#
# Total GULP energy -297333.022339 kJ/mol
# GULP energy per Si atom -12388.875931 kJ/mol
# Density = 2.086948 g / cm^3
# Si number density = 20.917090 Si / 1000 Ang^3
#
#
#
# Elastic Constant Matrix: (Units=GPa)
#
#
# Indices 1 2 3 4 5 6 
#
# 1 96.1818 26.7665 27.8052 -0.0059 -5.7433 0.0058
# 2 26.7665 132.5681 49.5612 -0.0030 -3.7773 0.0029
# 3 27.8052 49.5612 102.6563 -0.0059 -7.8464 0.0053
# 4 -0.0059 -0.0030 -0.0059 40.4269 0.0043 -12.7422
# 5 -5.7433 -3.7773 -7.8464 0.0043 30.9223 -0.0045
# 6 0.0058 0.0029 0.0053 -12.7422 -0.0045 12.2833
#
#
#
# Elastic Compliance Matrix: (Units=1/GPa)
#
#
# Indices 1 2 3 4 5 6 
#
# 1 0.011550 -0.001419 -0.002338 0.000000 0.001379 -0.000004
# 2 -0.001419 0.009379 -0.004157 0.000000 -0.000173 0.000000
# 3 -0.002338 -0.004157 0.012553 0.000000 0.002243 -0.000002
# 4 0.000000 0.000000 0.000000 0.036753 0.000000 0.038126
# 5 0.001379 -0.000173 0.002243 0.000000 0.033143 0.000011
# 6 -0.000004 0.000000 -0.000002 0.038126 0.000011 0.120961
#
#
# Mechanical properties :
#
#
# Convention : Reuss Voigt Hill
#
# Bulk Modulus (GPa) = 56.64314 59.96356 58.30335
# Shear Modulus (GPa) = 20.32094 31.87806 26.09950
#
# Velocity S-wave (km/s) = 3.12027 3.90810 3.53620
# Velocity P-wave (km/s) = 6.33404 7.00670 6.67885
#
# Compressibility (1/GPa) = 0.01765439
#
# Stress axis : x y z
#
# Youngs Moduli (GPa) = 86.57992 106.62224 79.66267
#
# Poissons Ratio (x) = 0.15126 0.18626
# Poissons Ratio (y) = 0.12282 0.33116
# Poissons Ratio (z) = 0.20244 0.44323
#
# Static dielectric constant tensor:
#      x y z
#    x 3.769840 -0.000010 -0.374360 
#    y -0.000010 4.476650 0.000030 
#    z -0.374360 0.000030 4.133090 
# 
# 
# High freq. dielectric constant tensor:
#      x y z
#    x 1.811060 0.000000 -0.023190 
#    y 0.000000 1.834420 0.000000 
#    z -0.023190 0.000000 1.825990 
# 
# From -- ./inp_files/124325.got.cif
#   From: 2010.06.25/outbox.cif.g09.slc.cpg/sg15_63_cif.got.tgz:124325.got - 2010.06.28 07:06:18.
