data_PCOD8148204
_publ_section_title
;
Structure prediction by ZEFSAII (Michael W. Deem and Ramdas Pophale) SiO2 
 PCOD8148204
Probable space group: C 2/C
;
_chemical_formula_sum "Si O2"
_cell_formula_units_Z 52
_cell_length_a 26.748474
_cell_length_b 11.487431
_cell_length_c 8.664272
_cell_angle_alpha 90.000000
_cell_angle_beta 123.963415
_cell_angle_gamma 90.000000
_cell_volume 2208.081690
_symmetry_space_group_name_H-M "C 2/C"
_symmetry_group_IT_number 15
_symmetry_cell_setting 'monoclinic'
loop_
_space_group_symop_operation_xyz
x,y,z
-x,y,1/2-z
-x,-y,-z
x,-y,1/2+z
1/2+x,1/2+y,z
1/2-x,1/2+y,1/2-z
1/2-x,1/2-y,-z
1/2+x,1/2-y,1/2+z
loop_
_atom_site_type_symbol
_atom_site_label
_atom_site_fract_x
_atom_site_fract_y
_atom_site_fract_z
Si Si1 0.000000 0.795525 0.250000
Si Si2 0.635553 0.968385 0.325483
Si Si3 0.174258 0.119359 0.712136
Si Si4 0.108952 0.650325 0.056434
Si Si5 0.013618 0.368241 0.062653
Si Si6 0.135165 0.879698 0.493315
Si Si7 0.716885 0.192127 0.797767
O O1 0.000012 0.717839 0.400418
O O2 0.062178 0.870960 0.352635
O O3 0.644264 0.954617 0.524929
O O4 0.584066 0.865245 0.224474
O O5 0.692131 0.927746 0.325201
O O6 0.616755 0.100452 0.247007
O O7 0.135681 0.224117 0.574578
O O8 0.168695 0.117638 0.886540
O O9 0.241979 0.149278 0.774402
O O10 0.149240 0.999961 0.602288
O O11 0.037279 0.661258 0.894604
O O12 0.000000 0.500000 0.000000
O O13 0.164141 0.775143 0.642237
O O14 0.750000 0.250000 0.000000
#
# Coordination Sequence:
#
# PCOD8148204 Si02
#       7
#     4   8   8   8   8   8   8
#     4  12  24  50  76 112 152 204 258 322 392 456
#     4  11  25  42  73 106 146 191 242 312 382 440
#     4  12  28  49  73 108 155 204 257 308 380 460
#     4  11  25  44  73 110 145 191 246 313 383 452
#     4  10  23  39  71 107 149 179 244 313 382 450
#     4  12  29  52  77 111 156 207 263 319 383 461
#     4  12  26  49  76 108 153 197 254 315 380 461
#
# _framework density 23.549852000000001
#
# number of rings (size 3 to 8) (size 9 to 14) (size 15 to 20)
#    0.000    0.615    4.615    1.846   12.923    1.846 
#    2.769    0.000    0.000    0.000    0.000    0.000 
#    0.000    0.000    0.000    0.000    0.000    0.000 
#
# Total GULP energy -322104.766808 kJ/mol
# GULP energy per Si atom -12388.644877 kJ/mol
# Density = 2.349625 g / cm^3
# Si number density = 23.549852 Si / 1000 Ang^3
#
#
#
# Elastic Constant Matrix: (Units=GPa)
#
#
# Indices 1 2 3 4 5 6 
#
# 1 145.3574 10.1846 13.0062 0.0000 -3.9772 0.0000
# 2 10.1846 58.7192 -0.5112 0.0000 0.4462 0.0000
# 3 13.0062 -0.5112 65.7926 0.0000 -2.2596 0.0000
# 4 0.0000 0.0000 0.0000 37.4018 0.0000 -3.6034
# 5 -3.9772 0.4462 -2.2596 0.0000 39.8019 0.0000
# 6 0.0000 0.0000 0.0000 -3.6034 0.0000 30.6312
#
#
#
# Elastic Compliance Matrix: (Units=1/GPa)
#
#
# Indices 1 2 3 4 5 6 
#
# 1 0.007109 -0.001250 -0.001393 0.000000 0.000645 0.000000
# 2 -0.001250 0.017253 0.000371 0.000000 -0.000297 0.000000
# 3 -0.001393 0.000371 0.015503 0.000000 0.000737 0.000000
# 4 0.000000 0.000000 0.000000 0.027043 0.000000 0.003181
# 5 0.000645 -0.000297 0.000737 0.000000 0.025234 0.000000
# 6 0.000000 0.000000 0.000000 0.003181 0.000000 0.033021
#
#
# Mechanical properties :
#
#
# Convention : Reuss Voigt Hill
#
# Bulk Modulus (GPa) = 28.31214 35.02538 31.66876
# Shear Modulus (GPa) = 35.34052 38.04628 36.69340
#
# Velocity S-wave (km/s) = 3.87805 4.02377 3.95158
# Velocity P-wave (km/s) = 5.66575 6.04092 5.85634
#
# Compressibility (1/GPa) = 0.03532053
#
# Stress axis : x y z
#
# Youngs Moduli (GPa) = 140.65712 57.96256 64.50435
#
# Poissons Ratio (x) = 0.07246 0.08985
# Poissons Ratio (y) = 0.17584 -0.02393
# Poissons Ratio (z) = 0.19593 -0.02150
#
# Static dielectric constant tensor:
#      x y z
#    x 5.079050 0.000000 0.263180 
#    y 0.000000 4.047450 0.000000 
#    z 0.263180 0.000000 4.635050 
# 
# 
# High freq. dielectric constant tensor:
#      x y z
#    x 1.963270 0.000000 -0.007530 
#    y 0.000000 1.918690 0.000000 
#    z -0.007530 0.000000 1.942700 
# 
# From -- ./inp_files/65613.got.cif
#   From: 2010.06.25/outbox.cif.g09.slc.cpg/sg15_33_cif.got.tgz:65613.got - 2010.06.28 07:06:18.
