data_PCOD8148153
_publ_section_title
;
Structure prediction by ZEFSAII (Michael W. Deem and Ramdas Pophale) SiO2 
 PCOD8148153
Probable space group: C 2/C
;
_chemical_formula_sum "Si O2"
_cell_formula_units_Z 48
_cell_length_a 16.075536
_cell_length_b 27.088096
_cell_length_c 12.925316
_cell_angle_alpha 90.000000
_cell_angle_beta 154.234281
_cell_angle_gamma 90.000000
_cell_volume 2446.623288
_symmetry_space_group_name_H-M "C 2/C"
_symmetry_group_IT_number 15
_symmetry_cell_setting 'monoclinic'
loop_
_space_group_symop_operation_xyz
x,y,z
-x,y,1/2-z
-x,-y,-z
x,-y,1/2+z
1/2+x,1/2+y,z
1/2-x,1/2+y,1/2-z
1/2-x,1/2-y,-z
1/2+x,1/2-y,1/2+z
loop_
_atom_site_type_symbol
_atom_site_label
_atom_site_fract_x
_atom_site_fract_y
_atom_site_fract_z
Si Si1 0.552118 0.394514 0.690998
Si Si2 0.675441 0.226039 0.309372
Si Si3 0.617528 0.028893 0.979054
Si Si4 0.689099 0.056962 0.697290
Si Si5 0.607250 0.141426 0.467107
Si Si6 0.005823 0.820377 0.055235
O O1 0.500000 0.378022 0.750000
O O2 0.392409 0.432448 0.475498
O O3 0.556457 0.345624 0.622876
O O4 0.752828 0.423724 0.905943
O O5 0.750000 0.250000 0.500000
O O6 0.483215 0.195328 0.115929
O O7 0.826770 0.188028 0.430230
O O8 0.609973 0.267526 0.152935
O O9 0.500000 0.009565 0.750000
O O10 0.456073 0.040026 0.880256
O O11 0.735532 0.983087 0.159240
O O12 0.581850 0.105527 0.534992
O O13 0.500000 0.116553 0.250000
O O14 0.837271 0.146452 0.707522
#
# Coordination Sequence:
#
# PCOD8148153 Si02
#       6
#     8   8   8   8   8   8
#     4  11  23  43  63  86 124 166 203 250 304 361
#     4  12  21  37  60  87 123 162 196 249 317 363
#     4  11  21  41  66  90 119 158 202 248 311 365
#     4  10  23  39  63  92 120 157 202 253 300 365
#     4  11  21  35  58  88 125 155 197 249 303 364
#     4  11  23  36  59  88 117 160 207 243 300 367
#
# _framework density 19.618874999999999
#
# number of rings (size 3 to 8) (size 9 to 14) (size 15 to 20)
#    0.000    1.000    5.000    2.500    0.000    0.000 
#    0.000    0.833    0.000    0.000    0.000    0.000 
#    0.000    0.000    0.000    0.000    0.000    0.000 
#
# Total GULP energy -297396.652967 kJ/mol
# GULP energy per Si atom -12391.527207 kJ/mol
# Density = 1.957422 g / cm^3
# Si number density = 19.618875 Si / 1000 Ang^3
#
#
#
# Elastic Constant Matrix: (Units=GPa)
#
#
# Indices 1 2 3 4 5 6 
#
# 1 112.5555 44.0020 50.6676 0.0001 -10.6303 -0.0001
# 2 44.0020 81.8874 25.4529 0.0000 -14.2075 0.0000
# 3 50.6676 25.4529 91.6294 0.0001 -11.1426 -0.0002
# 4 0.0001 0.0000 0.0001 50.5844 0.0001 -10.2190
# 5 -10.6303 -14.2075 -11.1426 0.0001 32.3226 -0.0001
# 6 -0.0001 0.0000 -0.0002 -10.2190 -0.0001 25.9381
#
#
#
# Elastic Compliance Matrix: (Units=1/GPa)
#
#
# Indices 1 2 3 4 5 6 
#
# 1 0.013780 -0.005511 -0.006088 0.000000 0.000011 0.000000
# 2 -0.005511 0.016322 -0.000871 0.000000 0.005062 0.000000
# 3 -0.006088 -0.000871 0.014855 0.000000 0.002736 0.000000
# 4 0.000000 0.000000 0.000000 0.021478 0.000000 0.008462
# 5 0.000011 0.005062 0.002736 0.000000 0.034110 0.000000
# 6 0.000000 0.000000 0.000000 0.008462 0.000000 0.041887
#
#
# Mechanical properties :
#
#
# Convention : Reuss Voigt Hill
#
# Bulk Modulus (GPa) = 49.95645 58.47969 54.21807
# Shear Modulus (GPa) = 28.72829 32.83235 30.78032
#
# Velocity S-wave (km/s) = 3.83079 4.09529 3.96525
# Velocity P-wave (km/s) = 6.71456 7.22734 6.97567
#
# Compressibility (1/GPa) = 0.02001744
#
# Stress axis : x y z
#
# Youngs Moduli (GPa) = 72.56701 61.26690 67.31915
#
# Poissons Ratio (x) = 0.33762 0.40983
# Poissons Ratio (y) = 0.39989 0.05865
# Poissons Ratio (z) = 0.44178 0.05338
#
# Static dielectric constant tensor:
#      x y z
#    x 3.808570 0.000000 -0.584840 
#    y 0.000000 3.737250 0.000000 
#    z -0.584840 0.000000 5.092580 
# 
# 
# High freq. dielectric constant tensor:
#      x y z
#    x 1.756270 0.000000 0.008960 
#    y 0.000000 1.761710 0.000000 
#    z 0.008960 0.000000 1.776590 
# 
# From -- ./inp_files/101706.got.cif
#   From: 2010.06.25/outbox.cif.g09.slc.cpg/sg15_51_cif.got.tgz:101706.got - 2010.06.28 07:06:18.
