data_PCOD8148892
_publ_section_title
;
Structure prediction by ZEFSAII (Michael W. Deem and Ramdas Pophale) SiO2 
 PCOD8148892
Probable space group: C 2/C
;
_chemical_formula_sum "Si O2"
_cell_formula_units_Z 56
_cell_length_a 19.169244
_cell_length_b 8.262562
_cell_length_c 17.740186
_cell_angle_alpha 90.000000
_cell_angle_beta 119.597327
_cell_angle_gamma 90.000000
_cell_volume 2443.185536
_symmetry_space_group_name_H-M "C 2/C"
_symmetry_group_IT_number 15
_symmetry_cell_setting 'monoclinic'
loop_
_space_group_symop_operation_xyz
x,y,z
-x,y,1/2-z
-x,-y,-z
x,-y,1/2+z
1/2+x,1/2+y,z
1/2-x,1/2+y,1/2-z
1/2-x,1/2-y,-z
1/2+x,1/2-y,1/2+z
loop_
_atom_site_type_symbol
_atom_site_label
_atom_site_fract_x
_atom_site_fract_y
_atom_site_fract_z
Si Si1 0.133698 0.578978 0.654998
Si Si2 0.347680 0.921843 0.982780
Si Si3 0.284371 0.755882 0.737751
Si Si4 0.391418 0.377598 0.405150
Si Si5 0.019620 0.303615 0.348463
Si Si6 0.947821 0.953255 0.069331
Si Si7 0.202858 0.134896 0.920329
O O1 0.120177 0.561602 0.557201
O O2 0.188507 0.738069 0.698812
O O3 0.180505 0.422506 0.712530
O O4 0.049686 0.592945 0.650057
O O5 0.359405 0.755607 0.945995
O O6 0.253026 0.964395 0.946396
O O7 0.398272 0.904211 0.088068
O O8 0.323927 0.605151 0.805446
O O9 0.306595 0.724791 0.663491
O O10 0.475516 0.337762 0.406023
O O11 0.402842 0.535119 0.463815
O O12 0.000000 0.294481 0.250000
O O13 0.019665 0.126098 0.384450
O O14 0.887868 0.885731 0.099704
O O15 0.250000 0.250000 0.000000
#
# Coordination Sequence:
#
# PCOD8148892 Si02
#       7
#     8   8   8   8   8   8   8
#     4  10  23  43  66  96 130 173 229 265 334 397
#     4   9  22  46  64  93 132 179 221 273 332 400
#     4  10  24  40  69  94 129 175 221 275 321 407
#     4   9  21  42  69  92 128 180 221 269 324 407
#     4  11  25  38  68  96 134 170 220 280 334 405
#     4  10  24  42  65  99 132 175 222 274 342 391
#     4  11  26  41  66  99 139 174 220 283 343 391
#
# _framework density 22.920895000000002
#
# number of rings (size 3 to 8) (size 9 to 14) (size 15 to 20)
#    0.000    2.000    0.000    0.429    8.000   12.571 
#    0.000    0.000    0.000    0.000    0.000    0.000 
#    0.000    0.000    0.000    0.000    0.000    0.000 
#
# Total GULP energy -346880.519007 kJ/mol
# GULP energy per Si atom -12388.589965 kJ/mol
# Density = 2.286873 g / cm^3
# Si number density = 22.920895 Si / 1000 Ang^3
#
#
#
# Elastic Constant Matrix: (Units=GPa)
#
#
# Indices 1 2 3 4 5 6 
#
# 1 98.8163 0.7366 11.6995 0.0000 -8.3016 0.0000
# 2 0.7366 42.7726 10.3494 0.0000 4.5292 0.0000
# 3 11.6995 10.3494 143.9242 0.0000 -12.2224 0.0000
# 4 0.0000 0.0000 0.0000 18.0150 0.0000 4.7740
# 5 -8.3016 4.5292 -12.2224 0.0000 28.6324 0.0000
# 6 0.0000 0.0000 0.0000 4.7740 0.0000 36.5802
#
#
#
# Elastic Compliance Matrix: (Units=1/GPa)
#
#
# Indices 1 2 3 4 5 6 
#
# 1 0.010429 -0.000338 -0.000583 0.000000 0.002828 0.000000
# 2 -0.000338 0.024420 -0.002143 0.000000 -0.004875 0.000000
# 3 -0.000583 -0.002143 0.007433 0.000000 0.003343 0.000000
# 4 0.000000 0.000000 0.000000 0.057498 0.000000 -0.007504
# 5 0.002828 -0.004875 0.003343 0.000000 0.037944 0.000000
# 6 0.000000 0.000000 0.000000 -0.007504 0.000000 0.028316
#
#
# Mechanical properties :
#
#
# Convention : Reuss Voigt Hill
#
# Bulk Modulus (GPa) = 27.65883 36.78712 32.22297
# Shear Modulus (GPa) = 27.14150 34.16070 30.65110
#
# Velocity S-wave (km/s) = 3.44486 3.86472 3.66082
# Velocity P-wave (km/s) = 5.28356 5.99994 5.65311
#
# Compressibility (1/GPa) = 0.03615482
#
# Stress axis : x y z
#
# Youngs Moduli (GPa) = 95.88678 40.95008 134.52660
#
# Poissons Ratio (x) = 0.01384 0.07847
# Poissons Ratio (y) = 0.03240 0.28823
# Poissons Ratio (z) = 0.05593 0.08774
#
# Static dielectric constant tensor:
#      x y z
#    x 5.575500 0.000000 -0.198130 
#    y 0.000000 3.950060 0.000000 
#    z -0.198130 0.000000 5.050740 
# 
# 
# High freq. dielectric constant tensor:
#      x y z
#    x 1.904320 0.000000 0.002430 
#    y 0.000000 1.888810 0.000000 
#    z 0.002430 0.000000 1.922910 
# 
# From -- ./inp_files/214022.got.cif
#   From: 2010.06.25/outbox.cif.g09.slc.cpg/sg15_108_cif.got.tgz:214022.got - 2010.06.28 07:06:18.
