data_PCOD8148423
_publ_section_title
;
Structure prediction by ZEFSAII (Michael W. Deem and Ramdas Pophale) SiO2 
 PCOD8148423
Probable space group: C 2/C
;
_chemical_formula_sum "Si O2"
_cell_formula_units_Z 48
_cell_length_a 12.967788
_cell_length_b 16.763855
_cell_length_c 11.460883
_cell_angle_alpha 90.000000
_cell_angle_beta 117.754796
_cell_angle_gamma 90.000000
_cell_volume 2204.834280
_symmetry_space_group_name_H-M "C 2/C"
_symmetry_group_IT_number 15
_symmetry_cell_setting 'monoclinic'
loop_
_space_group_symop_operation_xyz
x,y,z
-x,y,1/2-z
-x,-y,-z
x,-y,1/2+z
1/2+x,1/2+y,z
1/2-x,1/2+y,1/2-z
1/2-x,1/2-y,-z
1/2+x,1/2-y,1/2+z
loop_
_atom_site_type_symbol
_atom_site_label
_atom_site_fract_x
_atom_site_fract_y
_atom_site_fract_z
Si Si1 0.848720 0.811854 0.352839
Si Si2 0.523111 0.827686 0.542326
Si Si3 0.610362 0.114513 0.735907
Si Si4 0.837197 0.297655 0.624959
Si Si5 0.437938 0.519043 0.842289
Si Si6 0.694514 0.942497 0.750575
O O1 0.922595 0.756034 0.482755
O O2 0.725911 0.840177 0.342301
O O3 0.833160 0.746943 0.244703
O O4 0.917053 0.886712 0.336875
O O5 0.415987 0.860849 0.410526
O O6 0.465305 0.804690 0.636125
O O7 0.620840 0.896765 0.610864
O O8 0.500000 0.144544 0.750000
O O9 0.624455 0.020256 0.754940
O O10 0.750000 0.250000 0.500000
O O11 0.790045 0.387130 0.626909
O O12 0.500000 0.500234 0.750000
O O13 0.320072 0.468213 0.768365
O O14 0.500000 0.500000 0.000000
#
# Coordination Sequence:
#
# PCOD8148423 Si02
#       6
#     8   8   8   8   8   8
#     4  10  23  41  64  96 122 173 230 279 337 401
#     4  11  22  40  67  90 126 171 227 284 330 401
#     4  11  23  40  59  91 135 172 214 278 345 412
#     4  11  21  40  71  95 123 167 231 289 332 400
#     4  11  26  44  68  98 142 183 227 286 346 416
#     4  10  24  40  65 100 127 171 230 274 352 397
#
# _framework density 21.770343
#
# number of rings (size 3 to 8) (size 9 to 14) (size 15 to 20)
#    0.000    1.333    1.667    4.500    4.667    3.333 
#    0.000    5.833    0.000    0.000    0.000    0.000 
#    0.000    0.000    0.000    0.000    0.000    0.000 
#
# Total GULP energy -297343.353798 kJ/mol
# GULP energy per Si atom -12389.306408 kJ/mol
# Density = 2.172079 g / cm^3
# Si number density = 21.770343 Si / 1000 Ang^3
#
#
#
# Elastic Constant Matrix: (Units=GPa)
#
#
# Indices 1 2 3 4 5 6 
#
# 1 125.8886 57.7535 19.8553 0.0000 -1.3347 0.0000
# 2 57.7535 162.6605 26.8082 0.0000 8.2293 0.0000
# 3 19.8553 26.8082 67.0068 0.0000 -0.4660 0.0000
# 4 0.0000 0.0000 0.0000 34.9510 0.0000 8.9434
# 5 -1.3347 8.2293 -0.4660 0.0000 27.8991 0.0000
# 6 0.0000 0.0000 0.0000 8.9434 0.0000 26.4474
#
#
#
# Elastic Compliance Matrix: (Units=1/GPa)
#
#
# Indices 1 2 3 4 5 6 
#
# 1 0.009699 -0.003257 -0.001561 0.000000 0.001399 0.000000
# 2 -0.003257 0.007787 -0.002168 0.000000 -0.002489 0.000000
# 3 -0.001561 -0.002168 0.016260 0.000000 0.000836 0.000000
# 4 0.000000 0.000000 0.000000 0.031322 0.000000 -0.010592
# 5 0.001399 -0.002489 0.000836 0.000000 0.036659 0.000000
# 6 0.000000 0.000000 0.000000 -0.010592 0.000000 0.041393
#
#
# Mechanical properties :
#
#
# Convention : Reuss Voigt Hill
#
# Bulk Modulus (GPa) = 50.57188 62.71000 56.64094
# Shear Modulus (GPa) = 30.54705 34.60209 32.57457
#
# Velocity S-wave (km/s) = 3.74993 3.99107 3.87238
# Velocity P-wave (km/s) = 6.48301 7.07856 6.78732
#
# Compressibility (1/GPa) = 0.01977383
#
# Stress axis : x y z
#
# Youngs Moduli (GPa) = 103.10530 128.41224 61.50232
#
# Poissons Ratio (x) = 0.41825 0.09601
# Poissons Ratio (y) = 0.33582 0.13332
# Poissons Ratio (z) = 0.16096 0.27837
#
# Static dielectric constant tensor:
#      x y z
#    x -10.785180 0.000000 -35.856950 
#    y 0.000000 3.134590 0.000000 
#    z -35.856950 0.000000 -84.186120 
# 
# 
# High freq. dielectric constant tensor:
#      x y z
#    x 1.861360 0.000000 0.019110 
#    y 0.000000 1.875030 0.000000 
#    z 0.019110 0.000000 1.842640 
# 
# From -- ./inp_files/87855.got.cif
#   From: 2010.06.25/outbox.cif.g09.slc.cpg/sg15_44_cif.got.tgz:87855.got - 2010.06.28 07:06:18.
