data_PCOD8148175
_publ_section_title
;
Structure prediction by ZEFSAII (Michael W. Deem and Ramdas Pophale) SiO2 
 PCOD8148175
Probable space group: C 2/C
;
_chemical_formula_sum "Si O2"
_cell_formula_units_Z 48
_cell_length_a 13.179871
_cell_length_b 15.427300
_cell_length_c 14.362438
_cell_angle_alpha 90.000000
_cell_angle_beta 121.809527
_cell_angle_gamma 90.000000
_cell_volume 2481.695906
_symmetry_space_group_name_H-M "C 2/C"
_symmetry_group_IT_number 15
_symmetry_cell_setting 'monoclinic'
loop_
_space_group_symop_operation_xyz
x,y,z
-x,y,1/2-z
-x,-y,-z
x,-y,1/2+z
1/2+x,1/2+y,z
1/2-x,1/2+y,1/2-z
1/2-x,1/2-y,-z
1/2+x,1/2-y,1/2+z
loop_
_atom_site_type_symbol
_atom_site_label
_atom_site_fract_x
_atom_site_fract_y
_atom_site_fract_z
Si Si1 0.258443 0.389047 0.002837
Si Si2 0.447583 0.760177 0.621175
Si Si3 0.367287 0.495754 0.696937
Si Si4 0.379025 0.695494 0.144786
Si Si5 0.863954 0.012355 0.905115
Si Si6 0.650143 0.286524 0.080618
O O1 0.361199 0.317209 0.048738
O O2 0.269861 0.437927 0.107720
O O3 0.126767 0.349408 0.925862
O O4 0.277886 0.458827 0.930763
O O5 0.500000 0.750036 0.750000
O O6 0.556918 0.760897 0.602651
O O7 0.500000 0.537329 0.750000
O O8 0.362697 0.407959 0.634870
O O9 0.340325 0.474947 0.790895
O O10 0.500000 0.725307 0.250000
O O11 0.276080 0.739494 0.156161
O O12 0.387709 0.729012 0.043871
O O13 0.832292 0.113159 0.887213
O O14 0.000000 0.000000 0.000000
#
# Coordination Sequence:
#
# PCOD8148175 Si02
#       6
#     8   8   8   8   8   8
#     4  11  23  40  62  96 126 164 211 263 320 374
#     4  11  25  40  62  94 132 165 206 261 328 386
#     4  11  20  37  63  92 119 158 217 261 304 372
#     4  10  23  39  65  89 118 161 214 259 311 370
#     4  12  20  36  65  92 123 163 214 264 309 372
#     4  11  22  41  62  90 126 159 208 263 309 384
#
# _framework density 19.341612999999999
#
# number of rings (size 3 to 8) (size 9 to 14) (size 15 to 20)
#    0.000    1.000    5.000    2.500    2.333    2.667 
#    0.000    1.667    0.000    0.000    0.000    0.000 
#    0.000    0.000    0.000    0.000    0.000    0.000 
#
# Total GULP energy -297668.802129 kJ/mol
# GULP energy per Si atom -12402.866755 kJ/mol
# Density = 1.929759 g / cm^3
# Si number density = 19.341613 Si / 1000 Ang^3
#
#
#
# Elastic Constant Matrix: (Units=GPa)
#
#
# Indices 1 2 3 4 5 6 
#
# 1 140.4977 55.7436 57.5408 0.0000 -2.2703 0.0000
# 2 55.7436 77.8665 28.6231 0.0000 10.7352 0.0000
# 3 57.5408 28.6231 90.2196 0.0000 -5.2606 0.0000
# 4 0.0000 0.0000 0.0000 30.0349 0.0000 2.8758
# 5 -2.2703 10.7352 -5.2606 0.0000 33.8445 0.0000
# 6 0.0000 0.0000 0.0000 2.8758 0.0000 36.5415
#
#
#
# Elastic Compliance Matrix: (Units=1/GPa)
#
#
# Indices 1 2 3 4 5 6 
#
# 1 0.012145 -0.007016 -0.005392 0.000000 0.002202 0.000000
# 2 -0.007016 0.019630 -0.002163 0.000000 -0.007033 0.000000
# 3 -0.005392 -0.002163 0.015367 0.000000 0.002713 0.000000
# 4 0.000000 0.000000 0.000000 0.033547 0.000000 -0.002640
# 5 0.002202 -0.007033 0.002713 0.000000 0.032347 0.000000
# 6 0.000000 0.000000 0.000000 -0.002640 0.000000 0.027574
#
#
# Mechanical properties :
#
#
# Convention : Reuss Voigt Hill
#
# Bulk Modulus (GPa) = 55.55382 65.82209 60.68796
# Shear Modulus (GPa) = 28.44908 31.19593 29.82250
#
# Velocity S-wave (km/s) = 3.83936 4.02044 3.93094
# Velocity P-wave (km/s) = 6.95981 7.46037 7.21444
#
# Compressibility (1/GPa) = 0.01800056
#
# Stress axis : x y z
#
# Youngs Moduli (GPa) = 82.33886 50.94224 65.07362
#
# Poissons Ratio (x) = 0.35742 0.35085
# Poissons Ratio (y) = 0.57770 0.14077
# Poissons Ratio (z) = 0.44393 0.11020
#
# Static dielectric constant tensor:
#      x y z
#    x 3.575390 0.000000 -0.066730 
#    y 0.000000 3.624890 0.000000 
#    z -0.066730 0.000000 3.633510 
# 
# 
# High freq. dielectric constant tensor:
#      x y z
#    x 1.741390 0.000000 -0.014940 
#    y 0.000000 1.752980 0.000000 
#    z -0.014940 0.000000 1.761680 
# 
# From -- ./inp_files/143464.got.cif
#   From: 2010.06.25/outbox.cif.g09.slc.cpg/sg15_72_cif.got.tgz:143464.got - 2010.06.28 07:06:18.
