data_PCOD8148664
_publ_section_title
;
Structure prediction by ZEFSAII (Michael W. Deem and Ramdas Pophale) SiO2 
 PCOD8148664
Probable space group: C 2/C
;
_chemical_formula_sum "Si O2"
_cell_formula_units_Z 48
_cell_length_a 7.668528
_cell_length_b 17.954975
_cell_length_c 13.827525
_cell_angle_alpha 90.000000
_cell_angle_beta 90.891035
_cell_angle_gamma 90.000000
_cell_volume 1903.657200
_symmetry_space_group_name_H-M "C 2/C"
_symmetry_group_IT_number 15
_symmetry_cell_setting 'monoclinic'
loop_
_space_group_symop_operation_xyz
x,y,z
-x,y,1/2-z
-x,-y,-z
x,-y,1/2+z
1/2+x,1/2+y,z
1/2-x,1/2+y,1/2-z
1/2-x,1/2-y,-z
1/2+x,1/2-y,1/2+z
loop_
_atom_site_type_symbol
_atom_site_label
_atom_site_fract_x
_atom_site_fract_y
_atom_site_fract_z
Si Si1 0.763152 0.833124 0.962321
Si Si2 0.204173 0.322701 0.743235
Si Si3 0.229420 0.654680 0.773168
Si Si4 0.481177 0.081523 0.576986
Si Si5 0.763681 0.452457 0.907987
Si Si6 0.442501 0.591122 0.614600
O O1 0.786622 0.840499 0.847808
O O2 0.750000 0.750000 0.000000
O O3 0.592903 0.877998 0.994759
O O4 0.938582 0.871364 0.008129
O O5 0.272357 0.242564 0.709489
O O6 0.256467 0.384451 0.666033
O O7 0.000000 0.315386 0.750000
O O8 0.051638 0.628465 0.824764
O O9 0.262382 0.628420 0.662331
O O10 0.388595 0.611777 0.825696
O O11 0.290792 0.071596 0.520966
O O12 0.562913 0.002730 0.611484
O O13 0.588966 0.502465 0.893510
#
# Coordination Sequence:
#
# PCOD8148664 Si02
#       6
#     8   8   8   8   8   8
#     4  11  21  42  68  97 133 175 223 277 328 392
#     4  12  22  42  70  97 130 176 224 275 329 400
#     4  11  23  44  69  95 132 180 218 274 338 396
#     4  10  24  41  73  98 130 176 229 272 329 412
#     4  10  24  42  68 102 128 174 225 275 332 402
#     4  10  23  42  66  95 140 173 213 275 347 387
#
# _framework density 25.214624000000001
#
# number of rings (size 3 to 8) (size 9 to 14) (size 15 to 20)
#    0.000    1.333    5.000    0.000    2.333    3.333 
#    0.000    1.667    0.000    0.000    0.000    0.000 
#    0.000    0.000    0.000    0.000    0.000    0.000 
#
# Total GULP energy -297545.674001 kJ/mol
# GULP energy per Si atom -12397.736417 kJ/mol
# Density = 2.515723 g / cm^3
# Si number density = 25.214624 Si / 1000 Ang^3
#
#
#
# Elastic Constant Matrix: (Units=GPa)
#
#
# Indices 1 2 3 4 5 6 
#
# 1 11.1917 -16.2760 -2.2439 0.0000 0.0762 0.0000
# 2 -16.2760 166.2065 58.4483 0.0000 -3.3886 0.0000
# 3 -2.2439 58.4483 138.3042 0.0000 12.7309 0.0000
# 4 0.0000 0.0000 0.0000 29.7229 0.0000 2.6018
# 5 0.0762 -3.3886 12.7309 0.0000 35.0410 0.0000
# 6 0.0000 0.0000 0.0000 2.6018 0.0000 30.5765
#
#
#
# Elastic Compliance Matrix: (Units=1/GPa)
#
#
# Indices 1 2 3 4 5 6 
#
# 1 0.105467 0.011555 -0.003366 0.000000 0.002111 0.000000
# 2 0.011555 0.008448 -0.003575 0.000000 0.002091 0.000000
# 3 -0.003366 -0.003575 0.009020 0.000000 -0.003615 0.000000
# 4 0.000000 0.000000 0.000000 0.033897 0.000000 -0.002884
# 5 0.002111 0.002091 -0.003615 0.000000 0.030049 0.000000
# 6 0.000000 0.000000 0.000000 -0.002884 0.000000 0.032950
#
#
# Mechanical properties :
#
#
# Convention : Reuss Voigt Hill
#
# Bulk Modulus (GPa) = 7.56651 43.95103 25.75877
# Shear Modulus (GPa) = 19.63419 37.45300 28.54360
#
# Velocity S-wave (km/s) = 2.79352 3.85823 3.36821
# Velocity P-wave (km/s) = 3.66229 6.10872 5.03631
#
# Compressibility (1/GPa) = 0.13216131
#
# Stress axis : x y z
#
# Youngs Moduli (GPa) = 9.48163 118.37090 110.87080
#
# Poissons Ratio (x) = -1.36776 0.37324
# Poissons Ratio (y) = -0.10956 0.39638
# Poissons Ratio (z) = 0.03192 0.42320
#
# Static dielectric constant tensor:
#      x y z
#    x 4.379570 0.000000 -0.289220 
#    y 0.000000 4.624350 0.000000 
#    z -0.289220 0.000000 4.057410 
# 
# 
# High freq. dielectric constant tensor:
#      x y z
#    x 2.009410 0.000000 0.023650 
#    y 0.000000 2.008720 0.000000 
#    z 0.023650 0.000000 2.028400 
# 
# From -- ./inp_files/134829.got.cif
#   From: 2010.06.25/outbox.cif.g09.slc.cpg/sg15_68_cif.got.tgz:134829.got - 2010.06.28 07:06:18.
