data_PCOD8148602
_publ_section_title
;
Structure prediction by ZEFSAII (Michael W. Deem and Ramdas Pophale) SiO2 
 PCOD8148602
Probable space group: C 2/C
;
_chemical_formula_sum "Si O2"
_cell_formula_units_Z 36
_cell_length_a 11.689282
_cell_length_b 25.866041
_cell_length_c 5.224770
_cell_angle_alpha 90.000000
_cell_angle_beta 114.121459
_cell_angle_gamma 90.000000
_cell_volume 1441.796844
_symmetry_space_group_name_H-M "C 2/C"
_symmetry_group_IT_number 15
_symmetry_cell_setting 'monoclinic'
loop_
_space_group_symop_operation_xyz
x,y,z
-x,y,1/2-z
-x,-y,-z
x,-y,1/2+z
1/2+x,1/2+y,z
1/2-x,1/2+y,1/2-z
1/2-x,1/2-y,-z
1/2+x,1/2-y,1/2+z
loop_
_atom_site_type_symbol
_atom_site_label
_atom_site_fract_x
_atom_site_fract_y
_atom_site_fract_z
Si Si1 0.641724 0.522467 0.316628
Si Si2 0.579317 0.797005 0.579397
Si Si3 0.581463 0.679525 0.581531
Si Si4 0.000000 0.536854 0.750000
Si Si5 0.228375 0.616850 0.003352
O O1 0.500000 0.505357 0.250000
O O2 0.708470 0.509592 0.650100
O O3 0.658642 0.582992 0.268723
O O4 0.500000 0.814460 0.750000
O O5 0.628860 0.738775 0.656849
O O6 0.693715 0.837409 0.668516
O O7 0.500000 0.804747 0.250000
O O8 0.500000 0.662216 0.750000
O O9 0.707609 0.644599 0.685365
O O10 0.500000 0.674582 0.250000
O O11 0.117930 0.576156 0.843051
O O12 0.000000 0.500000 0.500000
#
# Coordination Sequence:
#
# PCOD8148602 Si02
#       5
#     8   8   8   4   8
#     4  10  23  42  64  94 128 167 222 287 341 393
#     4  10  23  43  66 103 142 178 224 280 341 418
#     4  10  24  44  70 107 140 174 228 286 348 412
#     4  12  30  48  68 102 142 186 240 282 336 412
#     4  12  24  45  74  98 137 186 229 280 348 408
#
# _framework density 24.968841000000001
#
# number of rings (size 3 to 8) (size 9 to 14) (size 15 to 20)
#    0.000    1.333    1.111    2.667    1.556    9.778 
#    0.000    6.667    0.000    0.000    0.000    0.000 
#    0.000    0.000    0.000    0.000    0.000    0.000 
#
# Total GULP energy -223008.062930 kJ/mol
# GULP energy per Si atom -12389.336829 kJ/mol
# Density = 2.491201 g / cm^3
# Si number density = 24.968841 Si / 1000 Ang^3
#
#
#
# Elastic Constant Matrix: (Units=GPa)
#
#
# Indices 1 2 3 4 5 6 
#
# 1 143.5195 99.4825 61.1748 0.0000 -43.3705 0.0000
# 2 99.4825 172.1347 43.5741 0.0000 -34.4648 0.0000
# 3 61.1748 43.5741 130.7791 0.0000 -53.0286 0.0000
# 4 0.0000 0.0000 0.0000 6.9842 0.0000 -6.5570
# 5 -43.3705 -34.4648 -53.0286 0.0000 38.1647 0.0000
# 6 0.0000 0.0000 0.0000 -6.5570 0.0000 73.0416
#
#
#
# Elastic Compliance Matrix: (Units=1/GPa)
#
#
# Indices 1 2 3 4 5 6 
#
# 1 0.014641 -0.006284 -0.000709 0.000000 0.009978 0.000000
# 2 -0.006284 0.009806 0.000841 0.000000 0.002882 0.000000
# 3 -0.000709 0.000841 0.017589 0.000000 0.024393 0.000000
# 4 0.000000 0.000000 0.000000 0.156359 0.000000 0.014037
# 5 0.009978 0.002882 0.024393 0.000000 0.074038 0.000000
# 6 0.000000 0.000000 0.000000 0.014037 0.000000 0.014951
#
#
# Mechanical properties :
#
#
# Convention : Reuss Voigt Hill
#
# Bulk Modulus (GPa) = 33.63436 94.98844 64.31140
# Shear Modulus (GPa) = 16.15000 39.78488 27.96744
#
# Velocity S-wave (km/s) = 2.54600 3.99605 3.35041
# Velocity P-wave (km/s) = 4.70559 7.70822 6.38589
#
# Compressibility (1/GPa) = 0.02973150
#
# Stress axis : x y z
#
# Youngs Moduli (GPa) = 68.29962 101.98355 56.85458
#
# Poissons Ratio (x) = 0.64091 0.04030
# Poissons Ratio (y) = 0.42922 -0.04783
# Poissons Ratio (z) = 0.04842 -0.08580
#
# Static dielectric constant tensor:
#      x y z
#    x 4.976770 0.000000 -0.209090 
#    y 0.000000 4.818620 0.000000 
#    z -0.209090 0.000000 4.603620 
# 
# 
# High freq. dielectric constant tensor:
#      x y z
#    x 2.007120 0.000000 -0.021620 
#    y 0.000000 2.015960 0.000000 
#    z -0.021620 0.000000 1.976520 
# 
# From -- ./inp_files/4400.got.cif
#   From: 2010.06.25/outbox.cif.g09.slc.cpg/sg15_3_cif.got.tgz:4400.got - 2010.06.28 07:06:18.
