data_PCOD8148520
_publ_section_title
;
Structure prediction by ZEFSAII (Michael W. Deem and Ramdas Pophale) SiO2 
 PCOD8148520
Probable space group: C 2/C
;
_chemical_formula_sum "Si O2"
_cell_formula_units_Z 48
_cell_length_a 27.281132
_cell_length_b 11.059834
_cell_length_c 8.451318
_cell_angle_alpha 90.000000
_cell_angle_beta 124.858205
_cell_angle_gamma 90.000000
_cell_volume 2092.428144
_symmetry_space_group_name_H-M "C 2/C"
_symmetry_group_IT_number 15
_symmetry_cell_setting 'monoclinic'
loop_
_space_group_symop_operation_xyz
x,y,z
-x,y,1/2-z
-x,-y,-z
x,-y,1/2+z
1/2+x,1/2+y,z
1/2-x,1/2+y,1/2-z
1/2-x,1/2-y,-z
1/2+x,1/2-y,1/2+z
loop_
_atom_site_type_symbol
_atom_site_label
_atom_site_fract_x
_atom_site_fract_y
_atom_site_fract_z
Si Si1 0.401964 0.084188 0.487091
Si Si2 0.364310 0.420220 0.248346
Si Si3 0.790393 0.717090 0.224384
Si Si4 0.480229 0.301486 0.541306
Si Si5 0.323472 0.656832 0.327647
Si Si6 0.587840 0.836519 0.135193
O O1 0.335364 0.102675 0.288535
O O2 0.447160 0.173317 0.484021
O O3 0.400561 0.112874 0.669418
O O4 0.426894 0.949554 0.505594
O O5 0.333727 0.334008 0.326774
O O6 0.436661 0.406554 0.392902
O O7 0.340309 0.554671 0.231372
O O8 0.346940 0.382005 0.041480
O O9 0.747498 0.686111 0.293490
O O10 0.750000 0.750000 0.000000
O O11 0.500000 0.347149 0.750000
O O12 0.537598 0.270093 0.537644
O O13 0.351996 0.780912 0.323184
#
# Coordination Sequence:
#
# PCOD8148520 Si02
#       6
#     8   8   8   8   8   8
#     4  10  23  41  69  95 135 170 219 277 325 393
#     4  10  24  45  67  93 138 171 220 273 322 393
#     4   9  22  43  67  94 130 173 216 268 327 381
#     4   9  21  44  66  94 132 173 220 271 328 386
#     4  11  26  42  68  99 130 178 221 265 332 392
#     4  11  25  41  67 101 131 174 222 270 337 387
#
# _framework density 22.939857
#
# number of rings (size 3 to 8) (size 9 to 14) (size 15 to 20)
#    0.000    2.000    0.000    0.500   16.333    3.333 
#    0.000    0.000    0.000    0.000    0.000    0.000 
#    0.000    0.000    0.000    0.000    0.000    0.000 
#
# Total GULP energy -297477.997313 kJ/mol
# GULP energy per Si atom -12394.916555 kJ/mol
# Density = 2.288765 g / cm^3
# Si number density = 22.939857 Si / 1000 Ang^3
#
#
#
# Elastic Constant Matrix: (Units=GPa)
#
#
# Indices 1 2 3 4 5 6 
#
# 1 94.1300 1.7967 21.3483 0.0000 3.7344 0.0000
# 2 1.7967 47.3786 -0.9512 0.0000 -15.9215 0.0000
# 3 21.3483 -0.9512 62.9472 0.0000 3.5673 0.0000
# 4 0.0000 0.0000 0.0000 27.9800 0.0000 -2.6988
# 5 3.7344 -15.9215 3.5673 0.0000 33.0730 0.0000
# 6 0.0000 0.0000 0.0000 -2.6988 0.0000 39.8689
#
#
#
# Elastic Compliance Matrix: (Units=1/GPa)
#
#
# Indices 1 2 3 4 5 6 
#
# 1 0.011572 -0.000973 -0.003862 0.000000 -0.001358 0.000000
# 2 -0.000973 0.025268 0.000016 0.000000 0.012272 0.000000
# 3 -0.003862 0.000016 0.017277 0.000000 -0.001420 0.000000
# 4 0.000000 0.000000 0.000000 0.035975 0.000000 0.002435
# 5 -0.001358 0.012272 -0.001420 0.000000 0.036451 0.000000
# 6 0.000000 0.000000 0.000000 0.002435 0.000000 0.025247
#
#
# Mechanical properties :
#
#
# Convention : Reuss Voigt Hill
#
# Bulk Modulus (GPa) = 22.48253 27.64926 25.06589
# Shear Modulus (GPa) = 28.36828 32.33517 30.35173
#
# Velocity S-wave (km/s) = 3.52040 3.75849 3.64139
# Velocity P-wave (km/s) = 5.13286 5.56004 5.35071
#
# Compressibility (1/GPa) = 0.04447899
#
# Stress axis : x y z
#
# Youngs Moduli (GPa) = 86.41524 39.57605 57.88064
#
# Poissons Ratio (x) = 0.03850 0.22355
# Poissons Ratio (y) = 0.08407 -0.00094
# Poissons Ratio (z) = 0.33376 -0.00065
#
# Static dielectric constant tensor:
#      x y z
#    x 4.686350 0.000000 0.329080 
#    y 0.000000 4.115150 0.000000 
#    z 0.329080 0.000000 3.935720 
# 
# 
# High freq. dielectric constant tensor:
#      x y z
#    x 1.921620 0.000000 0.013400 
#    y 0.000000 1.897150 0.000000 
#    z 0.013400 0.000000 1.889920 
# 
# From -- ./inp_files/60617.got.cif
#   From: 2010.06.25/outbox.cif.g09.slc.cpg/sg15_31_cif.got.tgz:60617.got - 2010.06.28 07:06:18.
