data_PCOD8148604
_publ_section_title
;
Structure prediction by ZEFSAII (Michael W. Deem and Ramdas Pophale) SiO2 
 PCOD8148604
Probable space group: C 2/C
;
_chemical_formula_sum "Si O2"
_cell_formula_units_Z 40
_cell_length_a 24.048191
_cell_length_b 7.056770
_cell_length_c 21.987354
_cell_angle_alpha 90.000000
_cell_angle_beta 150.107150
_cell_angle_gamma 90.000000
_cell_volume 1859.608669
_symmetry_space_group_name_H-M "C 2/C"
_symmetry_group_IT_number 15
_symmetry_cell_setting 'monoclinic'
loop_
_space_group_symop_operation_xyz
x,y,z
-x,y,1/2-z
-x,-y,-z
x,-y,1/2+z
1/2+x,1/2+y,z
1/2-x,1/2+y,1/2-z
1/2-x,1/2-y,-z
1/2+x,1/2-y,1/2+z
loop_
_atom_site_type_symbol
_atom_site_label
_atom_site_fract_x
_atom_site_fract_y
_atom_site_fract_z
Si Si1 0.885256 0.536215 0.608434
Si Si2 0.906240 0.362830 0.884593
Si Si3 0.565012 0.244109 0.441410
Si Si4 0.324279 0.559433 0.014346
Si Si5 0.809406 0.971524 0.367343
O O1 0.882938 0.446789 0.538399
O O2 0.777060 0.467275 0.543429
O O3 0.879156 0.762675 0.599313
O O4 0.000000 0.474643 0.750000
O O5 0.890760 0.177655 0.911617
O O6 0.795160 0.488080 0.774913
O O7 0.940742 0.296511 0.848693
O O8 0.000000 0.500000 0.000000
O O9 0.575223 0.405179 0.398318
O O10 0.631547 0.323636 0.564035
O O11 0.275805 0.615850 0.901483
#
# Coordination Sequence:
#
# PCOD8148604 Si02
#       5
#     8   8   8   8   8
#     4  11  21  42  66  96 128 175 222 273 334 389
#     4  12  23  43  70  94 135 176 224 277 332 402
#     4  10  23  42  64  94 132 175 217 273 333 393
#     4   9  23  41  61  95 132 166 224 274 325 403
#     4  10  24  42  62 102 129 177 220 275 333 395
#
# _framework density 21.509903000000001
#
# number of rings (size 3 to 8) (size 9 to 14) (size 15 to 20)
#    1.200    0.400    0.000    4.800    0.000    0.800 
#   10.800    0.000    0.000    0.000    0.000    0.000 
#    0.000    0.000    0.000    0.000    0.000    0.000 
#
# Total GULP energy -247792.315867 kJ/mol
# GULP energy per Si atom -12389.615793 kJ/mol
# Density = 2.146095 g / cm^3
# Si number density = 21.509903 Si / 1000 Ang^3
#
#
#
# Elastic Constant Matrix: (Units=GPa)
#
#
# Indices 1 2 3 4 5 6 
#
# 1 164.5310 57.0962 16.5129 0.0000 16.3803 0.0000
# 2 57.0962 96.0094 43.4098 -0.0001 16.1523 0.0000
# 3 16.5129 43.4098 73.4685 0.0000 5.7583 0.0000
# 4 0.0000 -0.0001 0.0000 33.9048 0.0000 -1.7107
# 5 16.3803 16.1523 5.7583 0.0000 22.3047 0.0000
# 6 0.0000 0.0000 0.0000 -1.7107 0.0000 55.3599
#
#
#
# Elastic Compliance Matrix: (Units=1/GPa)
#
#
# Indices 1 2 3 4 5 6 
#
# 1 0.007886 -0.004830 0.001287 0.000000 -0.002626 0.000000
# 2 -0.004830 0.018851 -0.009452 0.000000 -0.007664 0.000000
# 3 0.001287 -0.009452 0.018825 0.000000 0.001040 0.000000
# 4 0.000000 0.000000 0.000000 0.029540 0.000000 0.000913
# 5 -0.002626 -0.007664 0.001040 0.000000 0.052044 0.000000
# 6 0.000000 0.000000 0.000000 0.000913 0.000000 0.018092
#
#
# Mechanical properties :
#
#
# Convention : Reuss Voigt Hill
#
# Bulk Modulus (GPa) = 51.09136 63.11631 57.10384
# Shear Modulus (GPa) = 28.12886 36.77987 32.45436
#
# Velocity S-wave (km/s) = 3.62016 4.13958 3.88855
# Velocity P-wave (km/s) = 6.42481 7.22875 6.83860
#
# Compressibility (1/GPa) = 0.01957278
#
# Stress axis : x y z
#
# Youngs Moduli (GPa) = 126.80181 53.04706 53.11970
#
# Poissons Ratio (x) = 0.25623 -0.06838
# Poissons Ratio (y) = 0.61247 0.50210
# Poissons Ratio (z) = -0.16323 0.50141
#
# Static dielectric constant tensor:
#      x y z
#    x 4.132500 0.000000 0.106060 
#    y 0.000000 3.774410 0.000000 
#    z 0.106060 0.000000 3.363480 
# 
# 
# High freq. dielectric constant tensor:
#      x y z
#    x 1.863630 0.000000 0.003090 
#    y 0.000000 1.847480 0.000000 
#    z 0.003090 0.000000 1.806420 
# 
# From -- ./inp_files/255120.got.cif
#   From: 2010.06.25/outbox.cif.g09.slc.cpg/sg15_128_cif.got.tgz:255120.got - 2010.06.28 07:06:18.
