data_PCOD8148046
_publ_section_title
;
Structure prediction by ZEFSAII (Michael W. Deem and Ramdas Pophale) SiO2 
 PCOD8148046
Probable space group: C 2/C
;
_chemical_formula_sum "Si O2"
_cell_formula_units_Z 40
_cell_length_a 19.843178
_cell_length_b 17.696584
_cell_length_c 8.872191
_cell_angle_alpha 90.000000
_cell_angle_beta 137.541472
_cell_angle_gamma 90.000000
_cell_volume 2103.156517
_symmetry_space_group_name_H-M "C 2/C"
_symmetry_group_IT_number 15
_symmetry_cell_setting 'monoclinic'
loop_
_space_group_symop_operation_xyz
x,y,z
-x,y,1/2-z
-x,-y,-z
x,-y,1/2+z
1/2+x,1/2+y,z
1/2-x,1/2+y,1/2-z
1/2-x,1/2-y,-z
1/2+x,1/2-y,1/2+z
loop_
_atom_site_type_symbol
_atom_site_label
_atom_site_fract_x
_atom_site_fract_y
_atom_site_fract_z
Si Si1 0.470046 0.769573 0.526302
Si Si2 0.610340 0.054543 0.375421
Si Si3 0.160246 0.584768 0.769217
Si Si4 0.176883 0.304608 0.789567
Si Si5 0.786696 0.818280 0.659898
O O1 0.500000 0.777818 0.750000
O O2 0.409277 0.842044 0.367454
O O3 0.570868 0.761621 0.594643
O O4 0.403275 0.693809 0.392648
O O5 0.500000 0.077315 0.250000
O O6 0.681955 0.048738 0.640882
O O7 0.656941 0.118104 0.345716
O O8 0.602242 0.975332 0.276570
O O9 0.264816 0.606628 0.024125
O O10 0.221349 0.324349 0.702230
O O11 0.250000 0.250000 0.000000
O O12 0.750000 0.750000 0.500000
#
# Coordination Sequence:
#
# PCOD8148046 Si02
#       5
#     8   8   8   8   8
#     4  11  20  40  59  90 125 155 203 251 292 367
#     4  12  23  37  59  90 129 158 196 252 312 367
#     4  11  22  37  57  87 126 157 194 245 307 360
#     4  12  21  37  63  86 119 166 200 248 311 353
#     4  10  23  37  57  87 122 161 205 243 294 360
#
# _framework density 19.019030999999998
#
# number of rings (size 3 to 8) (size 9 to 14) (size 15 to 20)
#    0.000    0.800    6.000    3.000    2.800    2.400 
#    0.000    0.000    0.000    1.200    0.000    0.000 
#    0.000    0.000    0.000    0.000    0.000    0.000 
#
# Total GULP energy -247860.068205 kJ/mol
# GULP energy per Si atom -12393.003410 kJ/mol
# Density = 1.897574 g / cm^3
# Si number density = 19.019031 Si / 1000 Ang^3
#
#
#
# Elastic Constant Matrix: (Units=GPa)
#
#
# Indices 1 2 3 4 5 6 
#
# 1 97.9397 34.8193 63.8171 0.0000 -9.7521 0.0000
# 2 34.8193 75.7344 59.9137 0.0000 -2.4065 0.0000
# 3 63.8171 59.9137 130.5227 0.0000 -4.1444 0.0000
# 4 0.0000 0.0000 0.0000 31.2120 0.0000 -5.9138
# 5 -9.7521 -2.4065 -4.1444 0.0000 40.2725 0.0000
# 6 0.0000 0.0000 0.0000 -5.9138 0.0000 35.0435
#
#
#
# Elastic Compliance Matrix: (Units=1/GPa)
#
#
# Indices 1 2 3 4 5 6 
#
# 1 0.015470 -0.001741 -0.006671 0.000000 0.002956 0.000000
# 2 -0.001741 0.020932 -0.008759 0.000000 -0.000072 0.000000
# 3 -0.006671 -0.008759 0.014925 0.000000 -0.000603 0.000000
# 4 0.000000 0.000000 0.000000 0.033097 0.000000 0.005585
# 5 0.002956 -0.000072 -0.000603 0.000000 0.025480 0.000000
# 6 0.000000 0.000000 0.000000 0.005585 0.000000 0.029479
#
#
# Mechanical properties :
#
#
# Convention : Reuss Voigt Hill
#
# Bulk Modulus (GPa) = 58.87857 69.03301 63.95579
# Shear Modulus (GPa) = 27.87268 31.01536 29.44402
#
# Velocity S-wave (km/s) = 3.83236 4.04264 3.93890
# Velocity P-wave (km/s) = 7.11390 7.62668 7.37475
#
# Compressibility (1/GPa) = 0.01698411
#
# Stress axis : x y z
#
# Youngs Moduli (GPa) = 64.63929 47.77431 67.00306
#
# Poissons Ratio (x) = 0.08319 0.44697
# Poissons Ratio (y) = 0.11256 0.58689
# Poissons Ratio (z) = 0.43120 0.41846
#
# Static dielectric constant tensor:
#      x y z
#    x 3.606410 0.000000 -0.025460 
#    y 0.000000 3.343570 0.000000 
#    z -0.025460 0.000000 4.418120 
# 
# 
# High freq. dielectric constant tensor:
#      x y z
#    x 1.729310 0.000000 -0.024420 
#    y 0.000000 1.722230 0.000000 
#    z -0.024420 0.000000 1.753230 
# 
# From -- ./inp_files/38580.got.cif
#   From: 2010.06.25/outbox.cif.g09.slc.cpg/sg15_20_cif.got.tgz:38580.got - 2010.06.28 07:06:18.
