data_PCOD8148431
_publ_section_title
;
Structure prediction by ZEFSAII (Michael W. Deem and Ramdas Pophale) SiO2 
 PCOD8148431
Probable space group: C 2/C
;
_chemical_formula_sum "Si O2"
_cell_formula_units_Z 40
_cell_length_a 22.022799
_cell_length_b 16.952037
_cell_length_c 13.368049
_cell_angle_alpha 90.000000
_cell_angle_beta 22.196254
_cell_angle_gamma 90.000000
_cell_volume 1885.392122
_symmetry_space_group_name_H-M "C 2/C"
_symmetry_group_IT_number 15
_symmetry_cell_setting 'monoclinic'
loop_
_space_group_symop_operation_xyz
x,y,z
-x,y,1/2-z
-x,-y,-z
x,-y,1/2+z
1/2+x,1/2+y,z
1/2-x,1/2+y,1/2-z
1/2-x,1/2-y,-z
1/2+x,1/2-y,1/2+z
loop_
_atom_site_type_symbol
_atom_site_label
_atom_site_fract_x
_atom_site_fract_y
_atom_site_fract_z
Si Si1 0.355165 0.056880 0.746628
Si Si2 0.842796 0.685980 0.926344
Si Si3 0.098097 0.166160 0.467841
Si Si4 0.461723 0.847181 0.918224
Si Si5 0.789312 0.901770 0.499884
O O1 0.402274 0.116176 0.763865
O O2 0.321983 0.105620 0.693475
O O3 0.500000 0.000000 0.500000
O O4 0.214308 0.997944 0.998616
O O5 0.000000 0.717274 0.750000
O O6 0.750000 0.750000 0.000000
O O7 0.708288 0.651031 0.204548
O O8 0.093203 0.257575 0.505478
O O9 0.167821 0.118248 0.452901
O O10 0.918819 0.131619 0.722246
O O11 0.500000 0.882716 0.750000
O O12 0.623560 0.856437 0.734395
#
# Coordination Sequence:
#
# PCOD8148431 Si02
#       5
#     8   8   8   8   8
#     4  10  23  44  66  98 141 179 226 286 346 415
#     4  12  26  46  74 105 139 186 235 289 352 419
#     4  11  23  41  70  95 139 177 227 291 339 412
#     4  11  21  38  70  96 128 184 228 273 343 418
#     4  10  23  41  65 102 137 175 233 287 341 408
#
# _framework density 21.215744999999998
#
# number of rings (size 3 to 8) (size 9 to 14) (size 15 to 20)
#    0.000    1.200    4.000    3.000    0.000    7.200 
#    3.600    0.000    0.000    0.000    0.000    0.000 
#    0.000    0.000    0.000    0.000    0.000    0.000 
#
# Total GULP energy -247811.095007 kJ/mol
# GULP energy per Si atom -12390.554750 kJ/mol
# Density = 2.116746 g / cm^3
# Si number density = 21.215745 Si / 1000 Ang^3
#
#
#
# Elastic Constant Matrix: (Units=GPa)
#
#
# Indices 1 2 3 4 5 6 
#
# 1 94.3377 45.3997 34.4357 0.0012 13.3247 -0.0006
# 2 45.3997 116.2082 37.0858 0.0048 -2.2413 -0.0006
# 3 34.4357 37.0858 105.1746 0.0003 23.8212 -0.0009
# 4 0.0012 0.0048 0.0003 -28.1960 0.0017 -3.6077
# 5 13.3247 -2.2413 23.8212 0.0017 42.7767 -0.0001
# 6 -0.0006 -0.0006 -0.0009 -3.6077 -0.0001 34.1405
#
#
#
# Elastic Compliance Matrix: (Units=1/GPa)
#
#
# Indices 1 2 3 4 5 6 
#
# 1 0.014260 -0.004962 -0.002122 0.000000 -0.003520 0.000000
# 2 -0.004962 0.011716 -0.003428 0.000002 0.004068 0.000000
# 3 -0.002122 -0.003428 0.012934 -0.000001 -0.006721 0.000000
# 4 0.000000 0.000002 -0.000001 -0.034993 0.000002 -0.003698
# 5 -0.003520 0.004068 -0.006721 0.000002 0.028430 0.000000
# 6 0.000000 0.000000 0.000000 -0.003698 0.000000 0.028900
#
#
# Mechanical properties :
#
#
# Convention : Reuss Voigt Hill
#
# Bulk Modulus (GPa) = 55.90952 61.06254 58.48603
# Shear Modulus (GPa) = 56.66848 22.99753 39.83300
#
# Velocity S-wave (km/s) = 5.17383 3.29596 4.33774
# Velocity P-wave (km/s) = 7.88045 6.58245 7.26052
#
# Compressibility (1/GPa) = 0.01788604
#
# Stress axis : x y z
#
# Youngs Moduli (GPa) = 70.12731 85.35223 77.31601
#
# Poissons Ratio (x) = 0.42349 0.16407
# Poissons Ratio (y) = 0.34794 0.26506
# Poissons Ratio (z) = 0.14881 0.29261
#
# Static dielectric constant tensor:
#      x y z
#    x 4.003570 0.000000 0.246080 
#    y 0.000000 4.467960 0.000010 
#    z 0.246080 0.000010 4.538230 
# 
# 
# High freq. dielectric constant tensor:
#      x y z
#    x 1.826310 0.000000 0.019580 
#    y 0.000000 1.835990 0.000000 
#    z 0.019580 0.000000 1.834170 
# 
# From -- ./inp_files/174042.got.cif
#   From: 2010.06.25/outbox.cif.g09.slc.cpg/sg15_88_cif.got.tgz:174042.got - 2010.06.28 07:06:18.
