data_PCOD8148428
_publ_section_title
;
Structure prediction by ZEFSAII (Michael W. Deem and Ramdas Pophale) SiO2 
 PCOD8148428
Probable space group: C 2/C
;
_chemical_formula_sum "Si O2"
_cell_formula_units_Z 64
_cell_length_a 30.812576
_cell_length_b 8.213486
_cell_length_c 18.196099
_cell_angle_alpha 90.000000
_cell_angle_beta 140.663232
_cell_angle_gamma 90.000000
_cell_volume 2919.033251
_symmetry_space_group_name_H-M "C 2/C"
_symmetry_group_IT_number 15
_symmetry_cell_setting 'monoclinic'
loop_
_space_group_symop_operation_xyz
x,y,z
-x,y,1/2-z
-x,-y,-z
x,-y,1/2+z
1/2+x,1/2+y,z
1/2-x,1/2+y,1/2-z
1/2-x,1/2-y,-z
1/2+x,1/2-y,1/2+z
loop_
_atom_site_type_symbol
_atom_site_label
_atom_site_fract_x
_atom_site_fract_y
_atom_site_fract_z
Si Si1 0.105691 0.616165 0.612557
Si Si2 0.004732 0.057484 0.337954
Si Si3 0.751626 0.006245 0.144459
Si Si4 0.750001 0.866311 0.294553
Si Si5 0.970775 0.705294 0.507336
Si Si6 0.391746 0.633777 0.769482
Si Si7 0.364452 0.371086 0.974734
Si Si8 0.318898 0.189353 0.056214
O O1 0.180363 0.562740 0.743796
O O2 0.066701 0.464486 0.525057
O O3 0.132082 0.750231 0.589507
O O4 0.052660 0.689158 0.601815
O O5 0.000000 0.129218 0.250000
O O6 0.038595 0.197932 0.430744
O O7 0.932669 0.996302 0.274628
O O8 0.056604 0.908582 0.407289
O O9 0.738547 0.182833 0.162196
O O10 0.737546 0.870180 0.189331
O O11 0.827971 0.972171 0.214979
O O12 0.696774 0.984539 0.004587
O O13 0.817166 0.973121 0.395502
O O14 0.937258 0.800252 0.395563
O O15 0.373806 0.793111 0.694736
O O16 0.338317 0.308349 0.017045
O O17 0.250000 0.250000 0.000000
#
# Coordination Sequence:
#
# PCOD8148428 Si02
#       8
#     8   8   8   8   8   8   8   8
#     4  11  25  45  68 106 138 183 235 301 352 418
#     4  12  25  44  72 102 139 183 231 289 351 427
#     4  11  23  39  66 102 140 186 237 288 351 422
#     4  12  24  40  68 101 139 184 233 295 348 423
#     4  11  26  44  73 104 137 178 243 291 355 429
#     4  11  23  44  73  99 141 192 231 289 361 421
#     4  12  24  42  68 100 135 185 238 282 359 422
#     4  10  23  41  64  97 142 184 233 289 347 426
#
# _framework density 21.925068
#
# number of rings (size 3 to 8) (size 9 to 14) (size 15 to 20)
#    0.000    0.750    5.000    1.875    7.000    0.000 
#    0.000    8.125    2.750    0.000    0.000    0.000 
#    0.000    0.000    0.000    0.000    0.000    0.000 
#
# Total GULP energy -396431.977358 kJ/mol
# GULP energy per Si atom -12388.499292 kJ/mol
# Density = 2.187517 g / cm^3
# Si number density = 21.925068 Si / 1000 Ang^3
#
#
#
# Elastic Constant Matrix: (Units=GPa)
#
#
# Indices 1 2 3 4 5 6 
#
# 1 114.8274 66.3298 46.4514 0.0000 1.9693 0.0000
# 2 66.3298 107.5408 37.2819 0.0000 -0.3579 0.0000
# 3 46.4514 37.2819 101.8315 0.0000 -4.3860 0.0000
# 4 0.0000 0.0000 0.0000 25.4986 0.0000 10.7522
# 5 1.9693 -0.3579 -4.3860 0.0000 35.3530 0.0000
# 6 0.0000 0.0000 0.0000 10.7522 0.0000 18.7598
#
#
#
# Elastic Compliance Matrix: (Units=1/GPa)
#
#
# Indices 1 2 3 4 5 6 
#
# 1 0.014833 -0.007774 -0.003981 0.000000 -0.001399 0.000000
# 2 -0.007774 0.014730 -0.001831 0.000000 0.000355 0.000000
# 3 -0.003981 -0.001831 0.012381 0.000000 0.001739 0.000000
# 4 0.000000 0.000000 0.000000 0.051717 0.000000 -0.029642
# 5 -0.001399 0.000355 0.001739 0.000000 0.028583 0.000000
# 6 0.000000 0.000000 0.000000 -0.029642 0.000000 0.070295
#
#
# Mechanical properties :
#
#
# Convention : Reuss Voigt Hill
#
# Bulk Modulus (GPa) = 67.69107 69.36952 68.53029
# Shear Modulus (GPa) = 22.25827 27.53138 24.89482
#
# Velocity S-wave (km/s) = 3.18967 3.54743 3.37330
# Velocity P-wave (km/s) = 6.67130 6.96327 6.81885
#
# Compressibility (1/GPa) = 0.01477300
#
# Stress axis : x y z
#
# Youngs Moduli (GPa) = 67.41498 67.89037 80.76684
#
# Poissons Ratio (x) = 0.52777 0.32150
# Poissons Ratio (y) = 0.52407 0.14791
# Poissons Ratio (z) = 0.26835 0.12433
#
# Static dielectric constant tensor:
#      x y z
#    x 4.294860 0.000000 0.050550 
#    y 0.000000 3.846230 0.000000 
#    z 0.050550 0.000000 4.549850 
# 
# 
# High freq. dielectric constant tensor:
#      x y z
#    x 1.886870 0.000000 0.016690 
#    y 0.000000 1.846000 0.000000 
#    z 0.016690 0.000000 1.863740 
# 
# From -- ./inp_files/224624.got.cif
#   From: 2010.06.25/outbox.cif.g09.slc.cpg/sg15_113_cif.got.tgz:224624.got - 2010.06.28 07:06:18.
