data_PCOD8148346
_publ_section_title
;
Structure prediction by ZEFSAII (Michael W. Deem and Ramdas Pophale) SiO2 
 PCOD8148346
Probable space group: C 2/C
;
_chemical_formula_sum "Si O2"
_cell_formula_units_Z 56
_cell_length_a 18.612548
_cell_length_b 8.877684
_cell_length_c 15.190893
_cell_angle_alpha 90.000000
_cell_angle_beta 87.837247
_cell_angle_gamma 90.000000
_cell_volume 2508.299216
_symmetry_space_group_name_H-M "C 2/C"
_symmetry_group_IT_number 15
_symmetry_cell_setting 'monoclinic'
loop_
_space_group_symop_operation_xyz
x,y,z
-x,y,1/2-z
-x,-y,-z
x,-y,1/2+z
1/2+x,1/2+y,z
1/2-x,1/2+y,1/2-z
1/2-x,1/2-y,-z
1/2+x,1/2-y,1/2+z
loop_
_atom_site_type_symbol
_atom_site_label
_atom_site_fract_x
_atom_site_fract_y
_atom_site_fract_z
Si Si1 0.341591 0.665272 0.752291
Si Si2 0.699110 0.003187 0.704488
Si Si3 0.823516 0.305739 0.457441
Si Si4 0.957904 0.164828 0.044357
Si Si5 0.062262 0.598745 0.811932
Si Si6 0.405701 0.481660 0.904844
Si Si7 0.566444 0.202957 0.401008
O O1 0.277261 0.551312 0.734434
O O2 0.388918 0.596187 0.827913
O O3 0.393748 0.679356 0.665615
O O4 0.309099 0.824871 0.783877
O O5 0.689160 0.050076 0.603616
O O6 0.638812 0.091197 0.762090
O O7 0.750000 0.250000 0.500000
O O8 0.875282 0.360972 0.532668
O O9 0.856536 0.166324 0.401072
O O10 0.924525 0.294902 0.104839
O O11 0.895491 0.062173 0.002122
O O12 0.010513 0.067125 0.104114
O O13 0.001144 0.225178 0.956851
O O14 0.035426 0.436007 0.846437
O O15 0.000000 0.661102 0.750000
#
# Coordination Sequence:
#
# PCOD8148346 Si02
#       7
#     8   8   8   8   8   8   8
#     4  11  24  44  69 102 133 177 224 278 334 398
#     4  11  25  43  68 101 135 176 224 278 335 398
#     4  11  22  45  66  94 135 177 219 275 336 391
#     4  10  23  46  64  99 133 176 222 272 332 398
#     4  11  24  41  67 100 133 173 224 274 333 397
#     4  10  24  43  67  98 133 172 230 266 342 390
#     4  10  23  40  71  95 132 177 221 274 331 398
#
# _framework density 22.325885
#
# number of rings (size 3 to 8) (size 9 to 14) (size 15 to 20)
#    0.000    1.429    1.429    3.000    8.000    1.143 
#   20.571    1.429    0.000    0.000    0.000    0.000 
#    0.000    0.000    0.000    0.000    0.000    0.000 
#
# Total GULP energy -347203.907674 kJ/mol
# GULP energy per Si atom -12400.139560 kJ/mol
# Density = 2.227507 g / cm^3
# Si number density = 22.325885 Si / 1000 Ang^3
#
#
#
# Elastic Constant Matrix: (Units=GPa)
#
#
# Indices 1 2 3 4 5 6 
#
# 1 41.1562 6.0185 28.6023 0.0000 12.9951 0.0000
# 2 6.0185 68.1785 38.8539 0.0000 5.7102 0.0000
# 3 28.6023 38.8539 113.8154 0.0000 11.0472 0.0000
# 4 0.0000 0.0000 0.0000 44.0997 0.0000 10.7838
# 5 12.9951 5.7102 11.0472 0.0000 32.5267 0.0000
# 6 0.0000 0.0000 0.0000 10.7838 0.0000 30.9094
#
#
#
# Elastic Compliance Matrix: (Units=1/GPa)
#
#
# Indices 1 2 3 4 5 6 
#
# 1 0.033004 0.002635 -0.008137 0.000000 -0.010885 0.000000
# 2 0.002635 0.018460 -0.006771 0.000000 -0.001994 0.000000
# 3 -0.008137 -0.006771 0.013145 0.000000 -0.000025 0.000000
# 4 0.000000 0.000000 0.000000 0.024791 0.000000 -0.008649
# 5 -0.010885 -0.001994 -0.000025 0.000000 0.035451 0.000000
# 6 0.000000 0.000000 0.000000 -0.008649 0.000000 0.035370
#
#
# Mechanical properties :
#
#
# Convention : Reuss Voigt Hill
#
# Bulk Modulus (GPa) = 24.95978 41.12219 33.04099
# Shear Modulus (GPa) = 25.23705 31.48553 28.36129
#
# Velocity S-wave (km/s) = 3.36578 3.75943 3.56804
# Velocity P-wave (km/s) = 5.12920 6.10766 5.63969
#
# Compressibility (1/GPa) = 0.04006446
#
# Stress axis : x y z
#
# Youngs Moduli (GPa) = 30.29908 54.17047 76.07541
#
# Poissons Ratio (x) = -0.14277 0.61905
# Poissons Ratio (y) = -0.07985 0.51508
# Poissons Ratio (z) = 0.24655 0.36677
#
# Static dielectric constant tensor:
#      x y z
#    x 3.941270 0.000000 0.101880 
#    y 0.000000 4.753920 0.000000 
#    z 0.101880 0.000000 4.110080 
# 
# 
# High freq. dielectric constant tensor:
#      x y z
#    x 1.871620 0.000000 0.009230 
#    y 0.000000 1.884860 0.000000 
#    z 0.009230 0.000000 1.889740 
# 
# From -- ./inp_files/166666.got.cif
#   From: 2010.06.25/outbox.cif.g09.slc.cpg/sg15_84_cif.got.tgz:166666.got - 2010.06.28 07:06:18.
