data_PCOD8148574
_publ_section_title
;
Structure prediction by ZEFSAII (Michael W. Deem and Ramdas Pophale) SiO2 
 PCOD8148574
Probable space group: C 2/C
;
_chemical_formula_sum "Si O2"
_cell_formula_units_Z 44
_cell_length_a 26.782796
_cell_length_b 8.662250
_cell_length_c 9.785201
_cell_angle_alpha 90.000000
_cell_angle_beta 60.170461
_cell_angle_gamma 90.000000
_cell_volume 1969.384104
_symmetry_space_group_name_H-M "C 2/C"
_symmetry_group_IT_number 15
_symmetry_cell_setting 'monoclinic'
loop_
_space_group_symop_operation_xyz
x,y,z
-x,y,1/2-z
-x,-y,-z
x,-y,1/2+z
1/2+x,1/2+y,z
1/2-x,1/2+y,1/2-z
1/2-x,1/2-y,-z
1/2+x,1/2-y,1/2+z
loop_
_atom_site_type_symbol
_atom_site_label
_atom_site_fract_x
_atom_site_fract_y
_atom_site_fract_z
Si Si1 0.041429 0.837122 0.873806
Si Si2 0.802459 0.694715 0.249532
Si Si3 0.000000 0.409246 0.250000
Si Si4 0.797423 0.572214 0.552195
Si Si5 0.921989 0.156865 0.653406
Si Si6 0.576828 0.831701 0.579993
O O1 0.048192 0.690920 0.765156
O O2 0.078645 0.985829 0.774280
O O3 0.062161 0.803825 0.997504
O O4 0.971597 0.860786 0.970480
O O5 0.798029 0.576492 0.385155
O O6 0.793183 0.600273 0.121021
O O7 0.753834 0.823865 0.321532
O O8 0.862313 0.789983 0.166991
O O9 0.040161 0.513832 0.096611
O O10 0.855868 0.643328 0.529588
O O11 0.940077 0.280379 0.743732
#
# Coordination Sequence:
#
# PCOD8148574 Si02
#       6
#     8   8   4   8   8   8
#     4  11  24  38  64  95 124 170 204 262 319 385
#     4  10  23  46  65  98 129 173 212 275 310 390
#     4  12  24  36  64  94 128 162 212 252 328 374
#     4  10  24  42  68  92 132 167 222 263 328 368
#     4  10  23  42  63  89 133 161 214 258 319 373
#     4  11  23  42  62  91 129 167 208 270 306 386
#
# _framework density 22.342009000000001
#
# number of rings (size 3 to 8) (size 9 to 14) (size 15 to 20)
#    0.000    1.455    1.818    1.636   12.727    0.727 
#    0.000    0.000    0.000    0.000    0.000    0.000 
#    0.000    0.000    0.000    0.000    0.000    0.000 
#
# Total GULP energy -272675.349747 kJ/mol
# GULP energy per Si atom -12394.334079 kJ/mol
# Density = 2.229116 g / cm^3
# Si number density = 22.342009 Si / 1000 Ang^3
#
#
#
# Elastic Constant Matrix: (Units=GPa)
#
#
# Indices 1 2 3 4 5 6 
#
# 1 99.4164 48.2818 28.0400 0.0000 -14.5448 0.0000
# 2 48.2818 126.6883 30.3894 0.0000 -4.8445 0.0000
# 3 28.0400 30.3894 56.4285 0.0000 -13.4078 0.0000
# 4 0.0000 0.0000 0.0000 32.6050 0.0000 4.0583
# 5 -14.5448 -4.8445 -13.4078 0.0000 22.8503 0.0000
# 6 0.0000 0.0000 0.0000 4.0583 0.0000 48.6273
#
#
#
# Elastic Compliance Matrix: (Units=1/GPa)
#
#
# Indices 1 2 3 4 5 6 
#
# 1 0.013940 -0.004324 -0.003146 0.000000 0.006110 0.000000
# 2 -0.004324 0.010429 -0.004179 0.000000 -0.002994 0.000000
# 3 -0.003146 -0.004179 0.024227 0.000000 0.011327 0.000000
# 4 0.000000 0.000000 0.000000 0.030992 0.000000 -0.002586
# 5 0.006110 -0.002994 0.011327 0.000000 0.053664 0.000000
# 6 0.000000 0.000000 0.000000 -0.002586 0.000000 0.020780
#
#
# Mechanical properties :
#
#
# Convention : Reuss Voigt Hill
#
# Bulk Modulus (GPa) = 39.53061 55.10618 47.31840
# Shear Modulus (GPa) = 26.91569 32.53798 29.72683
#
# Velocity S-wave (km/s) = 3.47466 3.82037 3.65161
# Velocity P-wave (km/s) = 5.81631 6.64670 6.24532
#
# Compressibility (1/GPa) = 0.02529685
#
# Stress axis : x y z
#
# Youngs Moduli (GPa) = 71.73505 95.88243 41.27615
#
# Poissons Ratio (x) = 0.41463 0.12987
# Poissons Ratio (y) = 0.31021 0.17250
# Poissons Ratio (z) = 0.22570 0.40072
#
# Static dielectric constant tensor:
#      x y z
#    x 4.032850 0.000000 -0.086090 
#    y 0.000000 4.195370 0.000000 
#    z -0.086090 0.000000 3.871610 
# 
# 
# High freq. dielectric constant tensor:
#      x y z
#    x 1.880800 0.000000 -0.005570 
#    y 0.000000 1.887200 0.000000 
#    z -0.005570 0.000000 1.863920 
# 
# From -- ./inp_files/125484.got.cif
#   From: 2010.06.25/outbox.cif.g09.slc.cpg/sg15_63_cif.got.tgz:125484.got - 2010.06.28 07:06:18.
