data_PCOD8148757
_publ_section_title
;
Structure prediction by ZEFSAII (Michael W. Deem and Ramdas Pophale) SiO2 
 PCOD8148757
Probable space group: C 2/C
;
_chemical_formula_sum "Si O2"
_cell_formula_units_Z 64
_cell_length_a 26.917218
_cell_length_b 8.555901
_cell_length_c 15.182576
_cell_angle_alpha 90.000000
_cell_angle_beta 128.348418
_cell_angle_gamma 90.000000
_cell_volume 2742.187910
_symmetry_space_group_name_H-M "C 2/C"
_symmetry_group_IT_number 15
_symmetry_cell_setting 'monoclinic'
loop_
_space_group_symop_operation_xyz
x,y,z
-x,y,1/2-z
-x,-y,-z
x,-y,1/2+z
1/2+x,1/2+y,z
1/2-x,1/2+y,1/2-z
1/2-x,1/2-y,-z
1/2+x,1/2-y,1/2+z
loop_
_atom_site_type_symbol
_atom_site_label
_atom_site_fract_x
_atom_site_fract_y
_atom_site_fract_z
Si Si1 0.903197 0.609880 0.091458
Si Si2 0.729649 0.178874 0.619504
Si Si3 0.644803 0.807683 0.277538
Si Si4 0.533038 0.833176 0.016214
Si Si5 0.848599 0.661702 0.203274
Si Si6 0.568215 0.237969 0.856243
Si Si7 0.087771 0.829926 0.072777
Si Si8 0.690738 0.569752 0.207211
O O1 0.940406 0.694878 0.053656
O O2 0.902664 0.696814 0.187059
O O3 0.938904 0.447044 0.139860
O O4 0.827737 0.589720 0.990780
O O5 0.787432 0.227643 0.617983
O O6 0.703414 0.339739 0.631212
O O7 0.756395 0.064019 0.724686
O O8 0.619688 0.725253 0.338273
O O9 0.697436 0.690777 0.296332
O O10 0.671939 0.980060 0.325985
O O11 0.590233 0.821905 0.145467
O O12 0.485646 0.687657 0.980759
O O13 0.500000 0.000000 0.000000
O O14 0.875255 0.696358 0.330400
O O15 0.500000 0.304721 0.750000
O O16 0.594217 0.308187 0.975393
O O17 0.119239 0.997373 0.128919
#
# Coordination Sequence:
#
# PCOD8148757 Si02
#       8
#     8   8   8   8   8   8   8   8
#     4  11  23  39  69 104 134 182 232 278 343 407
#     4  11  24  46  69  96 143 178 235 289 347 413
#     4  11  21  42  65 102 133 178 229 281 335 416
#     4  12  20  38  71  97 142 175 223 277 337 407
#     4  10  23  42  70 100 139 181 233 286 340 409
#     4  11  22  41  69  99 138 180 232 274 343 422
#     4  11  24  43  67 102 138 184 225 284 347 414
#     4  11  26  43  72  97 137 184 233 285 360 406
#
# _framework density 23.339027999999999
#
# number of rings (size 3 to 8) (size 9 to 14) (size 15 to 20)
#    0.000    1.000    5.000    1.125    5.250    0.500 
#    6.750    1.250    0.000    0.750    0.000    0.000 
#    0.000    0.000    0.000    0.000    0.000    0.000 
#
# Total GULP energy -396596.752166 kJ/mol
# GULP energy per Si atom -12393.648505 kJ/mol
# Density = 2.328591 g / cm^3
# Si number density = 23.339028 Si / 1000 Ang^3
#
#
#
# Elastic Constant Matrix: (Units=GPa)
#
#
# Indices 1 2 3 4 5 6 
#
# 1 94.1168 25.8445 20.9404 0.0000 -28.0177 0.0000
# 2 25.8445 66.2063 20.0106 0.0000 -5.3244 0.0000
# 3 20.9404 20.0106 93.0967 0.0000 -15.2335 0.0000
# 4 0.0000 0.0000 0.0000 15.2949 0.0000 4.0482
# 5 -28.0177 -5.3244 -15.2335 0.0000 50.6245 0.0000
# 6 0.0000 0.0000 0.0000 4.0482 0.0000 38.3789
#
#
#
# Elastic Compliance Matrix: (Units=1/GPa)
#
#
# Indices 1 2 3 4 5 6 
#
# 1 0.014249 -0.004678 -0.001041 0.000000 0.007081 0.000000
# 2 -0.004678 0.017713 -0.003023 0.000000 -0.001636 0.000000
# 3 -0.001041 -0.003023 0.012074 0.000000 0.002739 0.000000
# 4 0.000000 0.000000 0.000000 0.067259 0.000000 -0.007094
# 5 0.007081 -0.001636 0.002739 0.000000 0.024324 0.000000
# 6 0.000000 0.000000 0.000000 -0.007094 0.000000 0.026804
#
#
# Mechanical properties :
#
#
# Convention : Reuss Voigt Hill
#
# Bulk Modulus (GPa) = 37.66226 43.00120 40.33173
# Shear Modulus (GPa) = 26.48906 33.30128 29.89517
#
# Velocity S-wave (km/s) = 3.37258 3.78146 3.58286
# Velocity P-wave (km/s) = 5.59802 6.12622 5.86807
#
# Compressibility (1/GPa) = 0.02655178
#
# Stress axis : x y z
#
# Youngs Moduli (GPa) = 70.17901 56.45706 82.82583
#
# Poissons Ratio (x) = 0.26413 0.08621
# Poissons Ratio (y) = 0.32832 0.25035
# Poissons Ratio (z) = 0.07305 0.17065
#
# Static dielectric constant tensor:
#      x y z
#    x 4.621860 0.000000 -0.176210 
#    y 0.000000 4.338880 0.000000 
#    z -0.176210 0.000000 4.269930 
# 
# 
# High freq. dielectric constant tensor:
#      x y z
#    x 1.932570 0.000000 -0.008710 
#    y 0.000000 1.898890 0.000000 
#    z -0.008710 0.000000 1.921040 
# 
# From -- ./inp_files/181180.got.cif
#   From: 2010.06.25/outbox.cif.g09.slc.cpg/sg15_91_cif.got.tgz:181180.got - 2010.06.28 07:06:18.
