data_PCOD8148067
_publ_section_title
;
Structure prediction by ZEFSAII (Michael W. Deem and Ramdas Pophale) SiO2 
 PCOD8148067
Probable space group: C 2/C
;
_chemical_formula_sum "Si O2"
_cell_formula_units_Z 40
_cell_length_a 10.697586
_cell_length_b 8.972244
_cell_length_c 22.989779
_cell_angle_alpha 90.000000
_cell_angle_beta 63.720908
_cell_angle_gamma 90.000000
_cell_volume 1978.534687
_symmetry_space_group_name_H-M "C 2/C"
_symmetry_group_IT_number 15
_symmetry_cell_setting 'monoclinic'
loop_
_space_group_symop_operation_xyz
x,y,z
-x,y,1/2-z
-x,-y,-z
x,-y,1/2+z
1/2+x,1/2+y,z
1/2-x,1/2+y,1/2-z
1/2-x,1/2-y,-z
1/2+x,1/2-y,1/2+z
loop_
_atom_site_type_symbol
_atom_site_label
_atom_site_fract_x
_atom_site_fract_y
_atom_site_fract_z
Si Si1 0.868465 0.080355 0.000156
Si Si2 0.309030 0.035934 0.681376
Si Si3 0.339659 0.773343 0.287912
Si Si4 0.691494 0.287719 0.103415
Si Si5 0.620821 0.971105 0.112041
O O1 0.894810 0.116381 0.926864
O O2 0.837030 0.234275 0.042306
O O3 0.731462 0.972672 0.035703
O O4 0.000000 0.000000 0.000000
O O5 0.297409 0.109842 0.746836
O O6 0.206741 0.112197 0.656722
O O7 0.464293 0.064233 0.624097
O O8 0.265559 0.864223 0.694948
O O9 0.500000 0.719571 0.250000
O O10 0.319641 0.855648 0.353271
O O11 0.610335 0.139124 0.141004
#
# Coordination Sequence:
#
# PCOD8148067 Si02
#       5
#     8   8   8   8   8
#     4   9  20  39  62  84 120 153 195 236 288 347
#     4  11  22  39  61  85 120 149 197 240 288 348
#     4  10  23  38  56  90 115 153 194 239 292 350
#     4   9  21  38  58  89 113 156 195 232 291 348
#     4   9  21  38  60  85 119 150 192 237 287 341
#
# _framework density 20.216984
#
# number of rings (size 3 to 8) (size 9 to 14) (size 15 to 20)
#    1.200    1.200    0.000    1.200    2.800    5.600 
#    0.000    2.000    0.000    0.000    0.000    0.000 
#    0.000    0.000    0.000    0.000    0.000    0.000 
#
# Total GULP energy -247802.060143 kJ/mol
# GULP energy per Si atom -12390.103007 kJ/mol
# Density = 2.017097 g / cm^3
# Si number density = 20.216984 Si / 1000 Ang^3
#
#
#
# Elastic Constant Matrix: (Units=GPa)
#
#
# Indices 1 2 3 4 5 6 
#
# 1 74.8292 30.3411 6.2390 0.0000 14.8902 0.0000
# 2 30.3411 76.6850 7.3897 0.0000 15.7597 0.0000
# 3 6.2390 7.3897 22.3565 0.0000 8.9854 0.0000
# 4 0.0000 0.0000 0.0000 28.7190 0.0000 7.4706
# 5 14.8902 15.7597 8.9854 0.0000 26.6684 0.0000
# 6 0.0000 0.0000 0.0000 7.4706 0.0000 42.4805
#
#
#
# Elastic Compliance Matrix: (Units=1/GPa)
#
#
# Indices 1 2 3 4 5 6 
#
# 1 0.016775 -0.005349 -0.000485 0.000000 -0.006042 0.000000
# 2 -0.005349 0.016598 -0.001448 0.000000 -0.006334 0.000000
# 3 -0.000485 -0.001448 0.051922 0.000000 -0.016368 0.000000
# 4 0.000000 0.000000 0.000000 0.036489 0.000000 -0.006417
# 5 -0.006042 -0.006334 -0.016368 0.000000 0.050129 0.000000
# 6 0.000000 0.000000 0.000000 -0.006417 0.000000 0.024669
#
#
# Mechanical properties :
#
#
# Convention : Reuss Voigt Hill
#
# Bulk Modulus (GPa) = 14.13789 29.09004 21.61396
# Shear Modulus (GPa) = 21.30168 28.23363 24.76766
#
# Velocity S-wave (km/s) = 3.24952 3.74107 3.50393
# Velocity P-wave (km/s) = 4.59211 5.75161 5.20425
#
# Compressibility (1/GPa) = 0.07073191
#
# Stress axis : x y z
#
# Youngs Moduli (GPa) = 59.61139 60.24831 19.25966
#
# Poissons Ratio (x) = 0.32226 0.00934
# Poissons Ratio (y) = 0.31885 0.02788
# Poissons Ratio (z) = 0.02892 0.08722
#
# Static dielectric constant tensor:
#      x y z
#    x 3.476610 0.000000 0.020090 
#    y 0.000000 3.568410 0.000000 
#    z 0.020090 0.000000 3.439280 
# 
# 
# High freq. dielectric constant tensor:
#      x y z
#    x 1.782940 0.000000 0.005790 
#    y 0.000000 1.786410 0.000000 
#    z 0.005790 0.000000 1.774030 
# 
# From -- ./inp_files/235725.got.cif
#   From: 2010.06.25/outbox.cif.g09.slc.cpg/sg15_118_cif.got.tgz:235725.got - 2010.06.28 07:06:18.
