data_PCOD8148341
_publ_section_title
;
Structure prediction by ZEFSAII (Michael W. Deem and Ramdas Pophale) SiO2 
 PCOD8148341
Probable space group: C 2/C
;
_chemical_formula_sum "Si O2"
_cell_formula_units_Z 56
_cell_length_a 20.954726
_cell_length_b 22.653234
_cell_length_c 8.370650
_cell_angle_alpha 90.000000
_cell_angle_beta 138.184892
_cell_angle_gamma 90.000000
_cell_volume 2649.236548
_symmetry_space_group_name_H-M "C 2/C"
_symmetry_group_IT_number 15
_symmetry_cell_setting 'monoclinic'
loop_
_space_group_symop_operation_xyz
x,y,z
-x,y,1/2-z
-x,-y,-z
x,-y,1/2+z
1/2+x,1/2+y,z
1/2-x,1/2+y,1/2-z
1/2-x,1/2-y,-z
1/2+x,1/2-y,1/2+z
loop_
_atom_site_type_symbol
_atom_site_label
_atom_site_fract_x
_atom_site_fract_y
_atom_site_fract_z
Si Si1 0.110133 0.838506 0.948817
Si Si2 0.252123 0.317766 0.556502
Si Si3 0.756002 0.076111 0.618005
Si Si4 0.805602 0.522437 0.298014
Si Si5 0.607853 0.080310 0.750984
Si Si6 0.181833 0.723464 0.240294
Si Si7 0.936934 0.636953 0.278368
O O1 0.151541 0.845713 0.844537
O O2 0.000000 0.856116 0.750000
O O3 0.161901 0.879970 0.174456
O O4 0.125977 0.771708 0.033389
O O5 0.250000 0.250000 0.500000
O O6 0.167125 0.358957 0.327830
O O7 0.245600 0.317381 0.738278
O O8 0.768723 0.012935 0.728098
O O9 0.651056 0.102068 0.466615
O O10 0.757611 0.066582 0.429679
O O11 0.878663 0.562009 0.538580
O O12 0.861642 0.475669 0.295715
O O13 0.502485 0.092517 0.997158
O O14 0.250000 0.750000 0.500000
O O15 0.098719 0.688604 0.174442
O O16 0.000000 0.662693 0.250000
#
# Coordination Sequence:
#
# PCOD8148341 Si02
#       7
#     8   8   8   8   8   8   8
#     4  11  24  45  68  94 128 176 231 283 338 393
#     4  10  23  43  67  93 134 176 226 282 340 401
#     4  11  22  44  62  96 133 176 218 284 333 404
#     4  10  23  40  70  95 142 180 224 270 348 410
#     4  11  23  41  67 103 139 186 220 276 344 422
#     4  11  25  41  68  95 132 179 222 279 343 406
#     4  12  24  39  66 101 144 175 222 271 337 411
#
# _framework density 21.138165999999998
#
# number of rings (size 3 to 8) (size 9 to 14) (size 15 to 20)
#    0.000    1.143    4.286    0.857    6.000    5.143 
#    0.000    0.714    0.000    0.000    0.000    0.000 
#    0.000    0.000    0.000    0.000    0.000    0.000 
#
# Total GULP energy -347010.269547 kJ/mol
# GULP energy per Si atom -12393.223912 kJ/mol
# Density = 2.109005 g / cm^3
# Si number density = 21.138166 Si / 1000 Ang^3
#
#
#
# Elastic Constant Matrix: (Units=GPa)
#
#
# Indices 1 2 3 4 5 6 
#
# 1 129.4601 47.8514 74.8038 0.0000 -13.9047 0.0000
# 2 47.8514 94.5011 52.7515 0.0000 -1.4366 0.0000
# 3 74.8038 52.7515 141.4606 0.0000 -0.8841 0.0000
# 4 0.0000 0.0000 0.0000 39.8463 0.0000 -8.1233
# 5 -13.9047 -1.4366 -0.8841 0.0000 36.8698 0.0000
# 6 0.0000 0.0000 0.0000 -8.1233 0.0000 36.4248
#
#
#
# Elastic Compliance Matrix: (Units=1/GPa)
#
#
# Indices 1 2 3 4 5 6 
#
# 1 0.012516 -0.003272 -0.005371 0.000000 0.004464 0.000000
# 2 -0.003272 0.014225 -0.003579 0.000000 -0.000766 0.000000
# 3 -0.005371 -0.003579 0.011232 0.000000 -0.001896 0.000000
# 4 0.000000 0.000000 0.000000 0.026292 0.000000 0.005863
# 5 0.004464 -0.000766 -0.001896 0.000000 0.028731 0.000000
# 6 0.000000 0.000000 0.000000 0.005863 0.000000 0.028761
#
#
# Mechanical properties :
#
#
# Convention : Reuss Voigt Hill
#
# Bulk Modulus (GPa) = 73.91081 79.58170 76.74626
# Shear Modulus (GPa) = 33.17614 35.29587 34.23601
#
# Velocity S-wave (km/s) = 3.96598 4.09071 4.02883
# Velocity P-wave (km/s) = 7.48421 7.74868 7.61759
#
# Compressibility (1/GPa) = 0.01352982
#
# Stress axis : x y z
#
# Youngs Moduli (GPa) = 79.89467 70.29888 89.03217
#
# Poissons Ratio (x) = 0.23002 0.47816
# Poissons Ratio (y) = 0.26142 0.31866
# Poissons Ratio (z) = 0.42908 0.25161
#
# Static dielectric constant tensor:
#      x y z
#    x 4.081800 0.000000 -0.374130 
#    y 0.000000 4.201720 0.000000 
#    z -0.374130 0.000000 3.978370 
# 
# 
# High freq. dielectric constant tensor:
#      x y z
#    x 1.830440 0.000000 -0.033990 
#    y 0.000000 1.838370 0.000000 
#    z -0.033990 0.000000 1.808660 
# 
# From -- ./inp_files/51585.got.cif
#   From: 2010.06.25/outbox.cif.g09.slc.cpg/sg15_26_cif.got.tgz:51585.got - 2010.06.28 07:06:18.
