data_PCOD8148237
_publ_section_title
;
Structure prediction by ZEFSAII (Michael W. Deem and Ramdas Pophale) SiO2 
 PCOD8148237
Probable space group: C 2/C
;
_chemical_formula_sum "Si O2"
_cell_formula_units_Z 48
_cell_length_a 11.176546
_cell_length_b 11.147441
_cell_length_c 19.371610
_cell_angle_alpha 90.000000
_cell_angle_beta 106.525254
_cell_angle_gamma 90.000000
_cell_volume 2313.815500
_symmetry_space_group_name_H-M "C 2/C"
_symmetry_group_IT_number 15
_symmetry_cell_setting 'monoclinic'
loop_
_space_group_symop_operation_xyz
x,y,z
-x,y,1/2-z
-x,-y,-z
x,-y,1/2+z
1/2+x,1/2+y,z
1/2-x,1/2+y,1/2-z
1/2-x,1/2-y,-z
1/2+x,1/2-y,1/2+z
loop_
_atom_site_type_symbol
_atom_site_label
_atom_site_fract_x
_atom_site_fract_y
_atom_site_fract_z
Si Si1 0.518184 0.877502 0.675879
Si Si2 0.179770 0.224165 0.918619
Si Si3 0.986250 0.029070 0.918241
Si Si4 0.052940 0.809456 0.833461
Si Si5 0.713478 0.321871 0.178659
Si Si6 0.640140 0.114129 0.663705
O O1 0.500000 0.927954 0.750000
O O2 0.379937 0.845411 0.623655
O O3 0.606452 0.761159 0.693771
O O4 0.583554 0.981749 0.641258
O O5 0.061535 0.147393 0.917307
O O6 0.268667 0.151447 0.882306
O O7 0.250000 0.250000 0.000000
O O8 0.844166 0.067415 0.875355
O O9 0.042471 0.923448 0.881065
O O10 0.000000 0.000000 0.000000
O O11 0.194939 0.761825 0.852062
O O12 0.000000 0.846815 0.750000
O O13 0.973785 0.705213 0.855062
O O14 0.788092 0.385486 0.252167
#
# Coordination Sequence:
#
# PCOD8148237 Si02
#       6
#     8   8   8   8   8   8
#     4  11  22  40  66  95 127 170 220 273 331 392
#     4  11  25  43  64  94 133 172 219 275 337 398
#     4  11  25  41  66  93 129 177 214 273 341 391
#     4  10  23  40  62  97 126 166 220 269 327 396
#     4  10  23  40  64  96 127 167 221 273 325 396
#     4  11  23  39  66  95 127 170 218 272 331 394
#
# _framework density 20.744955000000001
#
# number of rings (size 3 to 8) (size 9 to 14) (size 15 to 20)
#    0.000    1.333    1.667    3.500    7.000    5.333 
#    0.000    0.000    0.000    0.000    0.000    0.000 
#    0.000    0.000    0.000    0.000    0.000    0.000 
#
# Total GULP energy -297602.582967 kJ/mol
# GULP energy per Si atom -12400.107624 kJ/mol
# Density = 2.069774 g / cm^3
# Si number density = 20.744955 Si / 1000 Ang^3
#
#
#
# Elastic Constant Matrix: (Units=GPa)
#
#
# Indices 1 2 3 4 5 6 
#
# 1 82.9590 19.7658 14.8972 0.0000 12.5172 0.0000
# 2 19.7658 84.9664 29.4080 0.0000 14.0323 0.0000
# 3 14.8972 29.4080 64.0961 0.0000 18.5651 0.0000
# 4 0.0000 0.0000 0.0000 16.0505 0.0000 -7.1610
# 5 12.5172 14.0323 18.5651 0.0000 27.6559 0.0000
# 6 0.0000 0.0000 0.0000 -7.1610 0.0000 48.3403
#
#
#
# Elastic Compliance Matrix: (Units=1/GPa)
#
#
# Indices 1 2 3 4 5 6 
#
# 1 0.013372 -0.002079 -0.000877 0.000000 -0.004409 0.000000
# 2 -0.002079 0.014587 -0.005385 0.000000 -0.002845 0.000000
# 3 -0.000877 -0.005385 0.021562 0.000000 -0.011345 0.000000
# 4 0.000000 0.000000 0.000000 0.066712 0.000000 0.009883
# 5 -0.004409 -0.002845 -0.011345 0.000000 0.047213 0.000000
# 6 0.000000 0.000000 0.000000 0.009883 0.000000 0.022151
#
#
# Mechanical properties :
#
#
# Convention : Reuss Voigt Hill
#
# Bulk Modulus (GPa) = 30.45226 40.01816 35.23521
# Shear Modulus (GPa) = 23.44918 29.60604 26.52761
#
# Velocity S-wave (km/s) = 3.36572 3.78185 3.57984
# Velocity P-wave (km/s) = 5.46034 6.19696 5.84028
#
# Compressibility (1/GPa) = 0.03283828
#
# Stress axis : x y z
#
# Youngs Moduli (GPa) = 74.78195 68.55510 46.37718
#
# Poissons Ratio (x) = 0.14253 0.04068
# Poissons Ratio (y) = 0.15548 0.24976
# Poissons Ratio (z) = 0.06559 0.36919
#
# Static dielectric constant tensor:
#      x y z
#    x 4.084200 0.000000 0.041090 
#    y 0.000000 3.813370 0.000000 
#    z 0.041090 0.000000 3.846910 
# 
# 
# High freq. dielectric constant tensor:
#      x y z
#    x 1.830110 0.000000 0.000740 
#    y 0.000000 1.820100 0.000000 
#    z 0.000740 0.000000 1.799100 
# 
# From -- ./inp_files/196209.got.cif
#   From: 2010.06.25/outbox.cif.g09.slc.cpg/sg15_99_cif.got.tgz:196209.got - 2010.06.28 07:06:18.
