data_PCOD8148768
_publ_section_title
;
Structure prediction by ZEFSAII (Michael W. Deem and Ramdas Pophale) SiO2 
 PCOD8148768
Probable space group: C 2/C
;
_chemical_formula_sum "Si O2"
_cell_formula_units_Z 48
_cell_length_a 29.474299
_cell_length_b 9.073929
_cell_length_c 16.363223
_cell_angle_alpha 90.000000
_cell_angle_beta 150.178001
_cell_angle_gamma 90.000000
_cell_volume 2176.368225
_symmetry_space_group_name_H-M "C 2/C"
_symmetry_group_IT_number 15
_symmetry_cell_setting 'monoclinic'
loop_
_space_group_symop_operation_xyz
x,y,z
-x,y,1/2-z
-x,-y,-z
x,-y,1/2+z
1/2+x,1/2+y,z
1/2-x,1/2+y,1/2-z
1/2-x,1/2-y,-z
1/2+x,1/2-y,1/2+z
loop_
_atom_site_type_symbol
_atom_site_label
_atom_site_fract_x
_atom_site_fract_y
_atom_site_fract_z
Si Si1 0.729557 0.365471 0.809688
Si Si2 0.324796 0.898539 0.384826
Si Si3 0.182991 0.017811 0.892970
Si Si4 0.138119 0.670737 0.373941
Si Si5 0.089859 0.763889 0.837318
Si Si6 0.497305 0.967904 0.090511
O O1 0.685659 0.221787 0.702039
O O2 0.733204 0.502516 0.751697
O O3 0.665855 0.421771 0.784275
O O4 0.835505 0.343320 0.004164
O O5 0.341770 0.816553 0.498023
O O6 0.395340 0.023698 0.465206
O O7 0.128869 0.170640 0.815603
O O8 0.147730 0.911853 0.909907
O O9 0.289483 0.066561 0.062201
O O10 0.040272 0.601316 0.208903
O O11 0.049088 0.684585 0.692589
O O12 0.000000 0.800290 0.750000
O O13 0.500000 0.000000 0.000000
#
# Coordination Sequence:
#
# PCOD8148768 Si02
#       6
#     8   8   8   8   8   8
#     4  11  24  43  69 100 135 177 238 276 349 419
#     4  11  24  43  69  99 142 183 231 285 353 412
#     4  10  23  42  70  94 134 178 227 284 348 400
#     4  10  23  45  66  97 142 184 229 283 349 414
#     4  12  23  45  67 102 136 174 229 288 336 417
#     4  12  24  42  69  99 136 187 229 282 345 413
#
# _framework density 22.055091000000001
#
# number of rings (size 3 to 8) (size 9 to 14) (size 15 to 20)
#    0.000    1.000    5.000    2.000    4.667    4.000 
#    0.000    1.667    0.000    0.000    0.000    0.000 
#    0.000    0.000    0.000    0.000    0.000    0.000 
#
# Total GULP energy -297333.026631 kJ/mol
# GULP energy per Si atom -12388.876110 kJ/mol
# Density = 2.200489 g / cm^3
# Si number density = 22.055091 Si / 1000 Ang^3
#
#
#
# Elastic Constant Matrix: (Units=GPa)
#
#
# Indices 1 2 3 4 5 6 
#
# 1 112.9322 43.5214 20.9479 0.0000 3.0194 0.0000
# 2 43.5214 123.6002 17.9334 0.0000 -7.0352 0.0000
# 3 20.9479 17.9334 49.0517 0.0000 -14.0817 0.0000
# 4 0.0000 0.0000 0.0000 24.4894 0.0000 -2.0811
# 5 3.0194 -7.0352 -14.0817 0.0000 21.9341 0.0000
# 6 0.0000 0.0000 0.0000 -2.0811 0.0000 51.3633
#
#
#
# Elastic Compliance Matrix: (Units=1/GPa)
#
#
# Indices 1 2 3 4 5 6 
#
# 1 0.011386 -0.003588 -0.005310 0.000000 -0.006127 0.000000
# 2 -0.003588 0.009689 -0.001197 0.000000 0.002833 0.000000
# 3 -0.005310 -0.001197 0.028432 0.000000 0.018600 0.000000
# 4 0.000000 0.000000 0.000000 0.040975 0.000000 0.001660
# 5 -0.006127 0.002833 0.018600 0.000000 0.059285 0.000000
# 6 0.000000 0.000000 0.000000 0.001660 0.000000 0.019536
#
#
# Mechanical properties :
#
#
# Convention : Reuss Voigt Hill
#
# Bulk Modulus (GPa) = 34.10872 50.04327 42.07600
# Shear Modulus (GPa) = 25.09237 33.10279 29.09758
#
# Velocity S-wave (km/s) = 3.37666 3.87837 3.63618
# Velocity P-wave (km/s) = 5.54087 6.54179 6.06202
#
# Compressibility (1/GPa) = 0.02931801
#
# Stress axis : x y z
#
# Youngs Moduli (GPa) = 87.82569 103.21254 35.17213
#
# Poissons Ratio (x) = 0.37028 0.18676
# Poissons Ratio (y) = 0.31508 0.04209
# Poissons Ratio (z) = 0.46635 0.12352
#
# Static dielectric constant tensor:
#      x y z
#    x 4.086760 0.000000 0.111840 
#    y 0.000000 4.044320 0.000000 
#    z 0.111840 0.000000 3.791050 
# 
# 
# High freq. dielectric constant tensor:
#      x y z
#    x 1.884410 0.000000 0.009710 
#    y 0.000000 1.876530 0.000000 
#    z 0.009710 0.000000 1.832280 
# 
# From -- ./inp_files/224704.got.cif
#   From: 2010.06.25/outbox.cif.g09.slc.cpg/sg15_113_cif.got.tgz:224704.got - 2010.06.28 07:06:18.
