data_PCOD8148310
_publ_section_title
;
Structure prediction by ZEFSAII (Michael W. Deem and Ramdas Pophale) SiO2 
 PCOD8148310
Probable space group: C 2/C
;
_chemical_formula_sum "Si O2"
_cell_formula_units_Z 48
_cell_length_a 20.117403
_cell_length_b 6.811046
_cell_length_c 22.535213
_cell_angle_alpha 90.000000
_cell_angle_beta 129.426642
_cell_angle_gamma 90.000000
_cell_volume 2385.125426
_symmetry_space_group_name_H-M "C 2/C"
_symmetry_group_IT_number 15
_symmetry_cell_setting 'monoclinic'
loop_
_space_group_symop_operation_xyz
x,y,z
-x,y,1/2-z
-x,-y,-z
x,-y,1/2+z
1/2+x,1/2+y,z
1/2-x,1/2+y,1/2-z
1/2-x,1/2-y,-z
1/2+x,1/2-y,1/2+z
loop_
_atom_site_type_symbol
_atom_site_label
_atom_site_fract_x
_atom_site_fract_y
_atom_site_fract_z
Si Si1 0.244078 0.051457 0.459151
Si Si2 0.591712 0.566484 0.072335
Si Si3 0.192600 0.945860 0.796745
Si Si4 0.575995 0.706097 0.664001
Si Si5 0.372429 0.714483 0.529257
Si Si6 0.347800 0.885083 0.313410
O O1 0.250000 0.250000 0.500000
O O2 0.210530 0.101906 0.374957
O O3 0.336110 0.938074 0.508891
O O4 0.173351 0.908348 0.446172
O O5 0.624887 0.389852 0.133753
O O6 0.584173 0.761830 0.108510
O O7 0.500000 0.500000 0.000000
O O8 0.649054 0.611107 0.046620
O O9 0.105678 0.077490 0.737907
O O10 0.268898 0.071536 0.811687
O O11 0.184854 0.736220 0.761243
O O12 0.473555 0.710513 0.599550
O O13 0.606815 0.926872 0.688242
#
# Coordination Sequence:
#
# PCOD8148310 Si02
#       6
#     8   8   8   8   8   8
#     4  11  26  42  65  89 132 176 214 263 315 400
#     4   9  20  37  63  95 123 157 208 268 323 384
#     4  11  23  40  62  96 126 166 218 262 327 386
#     4  10  23  40  67  94 128 163 213 278 321 379
#     4  10  23  43  62  93 127 171 214 256 329 381
#     4  11  21  37  64  96 125 164 210 275 327 371
#
# _framework density 20.124728000000001
#
# number of rings (size 3 to 8) (size 9 to 14) (size 15 to 20)
#    0.000    1.667    3.333    0.000    2.333   10.000 
#    0.000    0.000    0.000    0.000    0.000    0.000 
#    0.000    0.000    0.000    0.000    0.000    0.000 
#
# Total GULP energy -297481.750955 kJ/mol
# GULP energy per Si atom -12395.072956 kJ/mol
# Density = 2.007892 g / cm^3
# Si number density = 20.124728 Si / 1000 Ang^3
#
#
#
# Elastic Constant Matrix: (Units=GPa)
#
#
# Indices 1 2 3 4 5 6 
#
# 1 86.9333 45.9280 55.4184 0.0000 -7.5457 0.0000
# 2 45.9280 142.8471 75.2494 0.0000 -8.5048 -0.0001
# 3 55.4184 75.2494 149.7517 0.0000 -17.2900 0.0000
# 4 0.0000 0.0000 0.0000 30.9048 0.0000 1.5455
# 5 -7.5457 -8.5048 -17.2900 0.0000 36.5922 0.0000
# 6 0.0000 -0.0001 0.0000 1.5455 0.0000 31.9161
#
#
#
# Elastic Compliance Matrix: (Units=1/GPa)
#
#
# Indices 1 2 3 4 5 6 
#
# 1 0.015805 -0.002722 -0.004419 0.000000 0.000539 0.000000
# 2 -0.002722 0.009989 -0.004029 0.000000 -0.000143 0.000000
# 3 -0.004419 -0.004029 0.010709 0.000000 0.003212 0.000000
# 4 0.000000 0.000000 0.000000 0.032436 0.000000 -0.001571
# 5 0.000539 -0.000143 0.003212 0.000000 0.028924 0.000000
# 6 0.000000 0.000000 0.000000 -0.001571 0.000000 0.031408
#
#
# Mechanical properties :
#
#
# Convention : Reuss Voigt Hill
#
# Bulk Modulus (GPa) = 70.60472 81.41376 76.00924
# Shear Modulus (GPa) = 31.98340 33.41168 32.69754
#
# Velocity S-wave (km/s) = 3.99088 4.07901 4.03518
# Velocity P-wave (km/s) = 7.50972 7.92003 7.71760
#
# Compressibility (1/GPa) = 0.01416336
#
# Stress axis : x y z
#
# Youngs Moduli (GPa) = 63.27214 100.10606 93.38375
#
# Poissons Ratio (x) = 0.27244 0.41267
# Poissons Ratio (y) = 0.17220 0.37624
# Poissons Ratio (z) = 0.27961 0.40333
#
# Static dielectric constant tensor:
#      x y z
#    x 3.639260 0.000000 -0.206580 
#    y 0.000000 3.933480 0.000010 
#    z -0.206580 0.000010 4.165480 
# 
# 
# High freq. dielectric constant tensor:
#      x y z
#    x 1.763340 0.000000 -0.002590 
#    y 0.000000 1.797890 0.000000 
#    z -0.002590 0.000000 1.800160 
# 
# From -- ./inp_files/279023.got.cif
#   From: 2010.06.25/outbox.cif.g09.slc.cpg/sg15_140_cif.got.tgz:279023.got - 2010.06.28 07:06:18.
