data_PCOD8148674
_publ_section_title
;
Structure prediction by ZEFSAII (Michael W. Deem and Ramdas Pophale) SiO2 
 PCOD8148674
Probable space group: C 2/C
;
_chemical_formula_sum "Si O2"
_cell_formula_units_Z 64
_cell_length_a 27.632374
_cell_length_b 14.271231
_cell_length_c 13.251530
_cell_angle_alpha 90.000000
_cell_angle_beta 35.774080
_cell_angle_gamma 90.000000
_cell_volume 3054.903945
_symmetry_space_group_name_H-M "C 2/C"
_symmetry_group_IT_number 15
_symmetry_cell_setting 'monoclinic'
loop_
_space_group_symop_operation_xyz
x,y,z
-x,y,1/2-z
-x,-y,-z
x,-y,1/2+z
1/2+x,1/2+y,z
1/2-x,1/2+y,1/2-z
1/2-x,1/2-y,-z
1/2+x,1/2-y,1/2+z
loop_
_atom_site_type_symbol
_atom_site_label
_atom_site_fract_x
_atom_site_fract_y
_atom_site_fract_z
Si Si1 0.593295 0.027612 0.317509
Si Si2 0.372830 0.673660 0.318504
Si Si3 0.317199 0.002573 0.138488
Si Si4 0.589099 0.356390 0.147428
Si Si5 0.090453 0.653410 0.134567
Si Si6 0.964972 0.100811 0.541022
Si Si7 0.302573 0.125564 0.974368
Si Si8 0.640933 0.548949 0.972741
O O1 0.595097 0.117021 0.241515
O O2 0.500000 0.000000 0.500000
O O3 0.640983 0.055608 0.338530
O O4 0.644232 0.940784 0.187088
O O5 0.457094 0.671961 0.108989
O O6 0.351413 0.777007 0.392614
O O7 0.293019 0.632401 0.396460
O O8 0.395702 0.608685 0.374076
O O9 0.238634 0.937673 0.296410
O O10 0.379210 0.925748 0.991469
O O11 0.297839 0.085394 0.094276
O O12 0.500000 0.357720 0.250000
O O13 0.635212 0.255657 0.051938
O O14 0.585943 0.368670 0.274120
O O15 0.635186 0.438707 0.009713
O O16 0.000000 0.675962 0.250000
O O17 0.903100 0.089216 0.551844
O O18 0.000000 0.000000 0.500000
#
# Coordination Sequence:
#
# PCOD8148674 Si02
#       8
#     8   8   8   8   8   8   8   8
#     4  11  22  43  67  91 127 172 217 265 325 379
#     4  11  23  44  67  97 128 172 220 263 324 392
#     4  11  24  43  67  93 134 171 209 273 324 379
#     4  11  24  41  66  98 129 169 219 267 319 388
#     4  10  23  42  66  99 125 167 223 265 322 392
#     4  12  23  41  66  95 133 171 211 269 324 379
#     4  10  25  42  66  97 130 169 219 268 322 388
#     4  12  24  43  66  97 134 172 215 266 330 388
#
# _framework density 20.949922999999998
#
# number of rings (size 3 to 8) (size 9 to 14) (size 15 to 20)
#    0.000    1.000    5.000    1.125    1.750    2.000 
#    2.250    1.250    0.000    0.000    0.000    0.000 
#    0.000    0.000    0.000    0.000    0.000    0.000 
#
# Total GULP energy -396662.953274 kJ/mol
# GULP energy per Si atom -12395.717290 kJ/mol
# Density = 2.090224 g / cm^3
# Si number density = 20.949923 Si / 1000 Ang^3
#
#
#
# Elastic Constant Matrix: (Units=GPa)
#
#
# Indices 1 2 3 4 5 6 
#
# 1 134.0603 29.3128 24.6586 0.0000 15.6078 0.0000
# 2 29.3128 98.8432 -3.4410 0.0000 15.5533 0.0000
# 3 24.6586 -3.4410 58.5140 0.0000 3.9017 0.0000
# 4 0.0000 0.0000 0.0000 83.2017 0.0000 129.2101
# 5 15.6078 15.5533 3.9017 0.0000 36.7618 0.0000
# 6 0.0000 0.0000 0.0000 129.2101 0.0000 306.6718
#
#
#
# Elastic Compliance Matrix: (Units=1/GPa)
#
#
# Indices 1 2 3 4 5 6 
#
# 1 0.008955 -0.002412 -0.003757 0.000000 -0.002383 0.000000
# 2 -0.002412 0.011541 0.001966 0.000000 -0.004067 0.000000
# 3 -0.003757 0.001966 0.018871 0.000000 -0.001240 0.000000
# 4 0.000000 0.000000 0.000000 0.034769 0.000000 -0.014649
# 5 -0.002383 -0.004067 -0.001240 0.000000 0.030066 0.000000
# 6 0.000000 0.000000 0.000000 -0.014649 0.000000 0.009433
#
#
# Mechanical properties :
#
#
# Convention : Reuss Voigt Hill
#
# Bulk Modulus (GPa) = 32.29673 43.60872 37.95272
# Shear Modulus (GPa) = 37.77576 101.38620 69.58098
#
# Velocity S-wave (km/s) = 4.25095 6.96417 5.76932
# Velocity P-wave (km/s) = 6.28838 9.24808 7.90793
#
# Compressibility (1/GPa) = 0.03096289
#
# Stress axis : x y z
#
# Youngs Moduli (GPa) = 111.66889 86.65012 52.99043
#
# Poissons Ratio (x) = 0.20896 0.19907
# Poissons Ratio (y) = 0.26929 -0.10419
# Poissons Ratio (z) = 0.41951 -0.17036
#
# Static dielectric constant tensor:
#      x y z
#    x 3.692220 0.000000 0.090260 
#    y 0.000000 5.098850 0.000000 
#    z 0.090260 0.000000 3.952350 
# 
# 
# High freq. dielectric constant tensor:
#      x y z
#    x 1.832190 0.000000 0.007530 
#    y 0.000000 1.823050 0.000000 
#    z 0.007530 0.000000 1.823480 
# 
# From -- ./inp_files/123525.got.cif
#   From: 2010.06.25/outbox.cif.g09.slc.cpg/sg15_62_cif.got.tgz:123525.got - 2010.06.28 07:06:18.
