data_PCOD8148203
_publ_section_title
;
Structure prediction by ZEFSAII (Michael W. Deem and Ramdas Pophale) SiO2 
 PCOD8148203
Probable space group: C 2/C
;
_chemical_formula_sum "Si O2"
_cell_formula_units_Z 48
_cell_length_a 24.467468
_cell_length_b 9.329953
_cell_length_c 18.086156
_cell_angle_alpha 90.000000
_cell_angle_beta 35.629064
_cell_angle_gamma 90.000000
_cell_volume 2405.121623
_symmetry_space_group_name_H-M "C 2/C"
_symmetry_group_IT_number 15
_symmetry_cell_setting 'monoclinic'
loop_
_space_group_symop_operation_xyz
x,y,z
-x,y,1/2-z
-x,-y,-z
x,-y,1/2+z
1/2+x,1/2+y,z
1/2-x,1/2+y,1/2-z
1/2-x,1/2-y,-z
1/2+x,1/2-y,1/2+z
loop_
_atom_site_type_symbol
_atom_site_label
_atom_site_fract_x
_atom_site_fract_y
_atom_site_fract_z
Si Si1 0.449182 0.358275 0.027710
Si Si2 0.854928 0.317782 0.755146
Si Si3 0.372703 0.268712 0.745499
Si Si4 0.900198 0.531518 0.827626
Si Si5 0.258464 0.064555 0.773495
Si Si6 0.249329 0.959954 0.114130
O O1 0.430463 0.249934 0.116095
O O2 0.351923 0.401559 0.095249
O O3 0.500000 0.500000 0.000000
O O4 0.516785 0.278144 0.895476
O O5 0.909734 0.401016 0.759228
O O6 0.783599 0.422726 0.791144
O O7 0.793210 0.193732 0.860400
O O8 0.333100 0.425019 0.806304
O O9 0.358945 0.171383 0.832798
O O10 0.316793 0.201058 0.737933
O O11 0.000000 0.570533 0.750000
O O12 0.834816 0.491756 0.967285
O O13 0.285404 0.039998 0.658671
#
# Coordination Sequence:
#
# PCOD8148203 Si02
#       6
#     8   8   8   8   8   8
#     4  11  22  39  69 100 123 156 219 260 319 366
#     4  10  23  42  65  92 127 166 207 264 311 369
#     4  11  24  43  65  95 127 166 208 264 311 374
#     4  11  27  40  61  91 128 171 208 254 313 375
#     4  10  23  39  70  97 125 164 205 271 313 364
#     4  11  21  43  63  89 128 166 206 251 315 374
#
# _framework density 19.957411
#
# number of rings (size 3 to 8) (size 9 to 14) (size 15 to 20)
#    0.000    1.333    3.333    3.000    7.000    1.333 
#    0.000    0.833    0.000    0.000    0.000    0.000 
#    0.000    0.000    0.000    0.000    0.000    0.000 
#
# Total GULP energy -297685.877559 kJ/mol
# GULP energy per Si atom -12403.578232 kJ/mol
# Density = 1.991199 g / cm^3
# Si number density = 19.957411 Si / 1000 Ang^3
#
#
#
# Elastic Constant Matrix: (Units=GPa)
#
#
# Indices 1 2 3 4 5 6 
#
# 1 94.8810 39.0554 13.1288 -0.0003 -8.8468 0.0000
# 2 39.0554 109.8228 25.9659 -0.0001 -2.9956 0.0004
# 3 13.1288 25.9659 80.3733 -0.0011 -10.3075 0.0000
# 4 -0.0003 -0.0001 -0.0011 26.1728 -0.0001 -4.5313
# 5 -8.8468 -2.9956 -10.3075 -0.0001 22.3951 -0.0003
# 6 0.0000 0.0004 0.0000 -4.5313 -0.0003 18.4622
#
#
#
# Elastic Compliance Matrix: (Units=1/GPa)
#
#
# Indices 1 2 3 4 5 6 
#
# 1 0.012776 -0.004399 -0.000100 0.000000 0.004412 0.000000
# 2 -0.004399 0.011374 -0.003171 0.000000 -0.001676 0.000000
# 3 -0.000100 -0.003171 0.014265 0.000001 0.006102 0.000000
# 4 0.000000 0.000000 0.000001 0.039903 0.000001 0.009794
# 5 0.004412 -0.001676 0.006102 0.000001 0.048980 0.000001
# 6 0.000000 0.000000 0.000000 0.009794 0.000001 0.056568
#
#
# Mechanical properties :
#
#
# Convention : Reuss Voigt Hill
#
# Bulk Modulus (GPa) = 43.33691 49.04191 46.18941
# Shear Modulus (GPa) = 24.16646 27.20114 25.68380
#
# Velocity S-wave (km/s) = 3.48358 3.69583 3.59127
# Velocity P-wave (km/s) = 6.15973 6.54514 6.35536
#
# Compressibility (1/GPa) = 0.02307502
#
# Stress axis : x y z
#
# Youngs Moduli (GPa) = 78.27408 87.91916 70.10058
#
# Poissons Ratio (x) = 0.38679 0.00699
# Poissons Ratio (y) = 0.34436 0.22228
# Poissons Ratio (z) = 0.00780 0.27878
#
# Static dielectric constant tensor:
#      x y z
#    x 3.622800 0.000000 0.016740 
#    y 0.000000 3.884090 0.000000 
#    z 0.016740 0.000000 3.733720 
# 
# 
# High freq. dielectric constant tensor:
#      x y z
#    x 1.772530 0.000000 -0.000900 
#    y 0.000000 1.799710 0.000000 
#    z -0.000900 0.000000 1.779010 
# 
# From -- ./inp_files/257117.got.cif
#   From: 2010.06.25/outbox.cif.g09.slc.cpg/sg15_129_cif.got.tgz:257117.got - 2010.06.28 07:06:18.
