data_PCOD8148358
_publ_section_title
;
Structure prediction by ZEFSAII (Michael W. Deem and Ramdas Pophale) SiO2 
 PCOD8148358
Probable space group: C 2/C
;
_chemical_formula_sum "Si O2"
_cell_formula_units_Z 60
_cell_length_a 19.038313
_cell_length_b 20.907245
_cell_length_c 9.492897
_cell_angle_alpha 90.000000
_cell_angle_beta 57.994441
_cell_angle_gamma 90.000000
_cell_volume 3204.189483
_symmetry_space_group_name_H-M "C 2/C"
_symmetry_group_IT_number 15
_symmetry_cell_setting 'monoclinic'
loop_
_space_group_symop_operation_xyz
x,y,z
-x,y,1/2-z
-x,-y,-z
x,-y,1/2+z
1/2+x,1/2+y,z
1/2-x,1/2+y,1/2-z
1/2-x,1/2-y,-z
1/2+x,1/2-y,1/2+z
loop_
_atom_site_type_symbol
_atom_site_label
_atom_site_fract_x
_atom_site_fract_y
_atom_site_fract_z
Si Si1 0.167175 0.238350 0.494252
Si Si2 0.167286 0.438997 0.592376
Si Si3 0.821324 0.418384 0.468649
Si Si4 0.000000 0.175666 0.750000
Si Si5 0.797710 0.891438 0.660813
Si Si6 0.630804 0.866080 0.366281
Si Si7 0.036771 0.570684 0.455075
Si Si8 0.468606 0.552362 0.926733
O O1 0.250000 0.250000 0.500000
O O2 0.083369 0.219450 0.671333
O O3 0.177825 0.182626 0.368529
O O4 0.150125 0.300094 0.420009
O O5 0.187343 0.512913 0.594633
O O6 0.236271 0.397668 0.595311
O O7 0.165299 0.423165 0.428907
O O8 0.080122 0.420853 0.757649
O O9 0.740049 0.404332 0.645857
O O10 0.827543 0.368509 0.332606
O O11 0.901645 0.417122 0.481338
O O12 0.997389 0.126967 0.615135
O O13 0.870558 0.941928 0.554642
O O14 0.532631 0.875310 0.454287
O O15 0.000000 0.500000 0.500000
O O16 0.500000 0.519385 0.750000
O O17 0.500000 0.500000 0.000000
#
# Coordination Sequence:
#
# PCOD8148358 Si02
#       8
#     8   8   8   4   8   8   8   8
#     4  11  23  43  63  87 125 169 221 253 302 380
#     4  11  21  37  59  95 122 167 202 253 313 379
#     4  11  23  37  57  96 130 158 203 258 318 374
#     4   8  22  40  64  94 122 156 210 258 304 386
#     4  10  23  41  60  86 125 159 205 263 307 370
#     4  12  23  34  63  90 121 176 208 246 306 364
#     4  11  21  37  57  87 137 162 201 250 310 375
#     4   9  20  41  65  90 116 152 195 263 328 365
#
# _framework density 18.725486
#
# number of rings (size 3 to 8) (size 9 to 14) (size 15 to 20)
#    0.400    1.067    4.000    1.600    3.733    0.533 
#    2.400    0.000    0.000    6.400    0.000    0.000 
#    0.000    0.000    0.000    0.000    0.000    0.000 
#
# Total GULP energy -371685.398704 kJ/mol
# GULP energy per Si atom -12389.513290 kJ/mol
# Density = 1.868287 g / cm^3
# Si number density = 18.725486 Si / 1000 Ang^3
#
#
#
# Elastic Constant Matrix: (Units=GPa)
#
#
# Indices 1 2 3 4 5 6 
#
# 1 86.0224 49.6917 68.5319 0.0000 -14.7607 0.0000
# 2 49.6917 95.7394 42.3030 0.0000 -2.0325 0.0000
# 3 68.5319 42.3030 161.0229 0.0000 -8.3344 0.0000
# 4 0.0000 0.0000 0.0000 28.5648 0.0000 3.8740
# 5 -14.7607 -2.0325 -8.3344 0.0000 34.1296 0.0000
# 6 0.0000 0.0000 0.0000 3.8740 0.0000 34.8953
#
#
#
# Elastic Compliance Matrix: (Units=1/GPa)
#
#
# Indices 1 2 3 4 5 6 
#
# 1 0.024261 -0.009099 -0.007515 0.000000 0.008115 0.000000
# 2 -0.009099 0.015230 -0.000289 0.000000 -0.003099 0.000000
# 3 -0.007515 -0.000289 0.009435 0.000000 -0.000963 0.000000
# 4 0.000000 0.000000 0.000000 0.035543 0.000000 -0.003946
# 5 0.008115 -0.003099 -0.000963 0.000000 0.032390 0.000000
# 6 0.000000 0.000000 0.000000 -0.003946 0.000000 0.029095
#
#
# Mechanical properties :
#
#
# Convention : Reuss Voigt Hill
#
# Bulk Modulus (GPa) = 66.14130 73.75977 69.95053
# Shear Modulus (GPa) = 27.05648 31.66850 29.36249
#
# Velocity S-wave (km/s) = 3.80531 4.11688 3.96416
# Velocity P-wave (km/s) = 7.39631 7.87869 7.64131
#
# Compressibility (1/GPa) = 0.01511915
#
# Stress axis : x y z
#
# Youngs Moduli (GPa) = 41.21917 65.66160 105.99245
#
# Poissons Ratio (x) = 0.59747 0.79652
# Poissons Ratio (y) = 0.37506 0.03061
# Poissons Ratio (z) = 0.30976 0.01896
#
# Static dielectric constant tensor:
#      x y z
#    x 3.399640 0.000000 -0.123570 
#    y 0.000000 3.474840 0.000000 
#    z -0.123570 0.000000 3.490080 
# 
# 
# High freq. dielectric constant tensor:
#      x y z
#    x 1.717540 0.000000 -0.012770 
#    y 0.000000 1.721840 0.000000 
#    z -0.012770 0.000000 1.733930 
# 
# From -- ./inp_files/50660.got.cif
#   From: 2010.06.25/outbox.cif.g09.slc.cpg/sg15_26_cif.got.tgz:50660.got - 2010.06.28 07:06:18.
