data_PCOD8148894
_publ_section_title
;
Structure prediction by ZEFSAII (Michael W. Deem and Ramdas Pophale) SiO2 
 PCOD8148894
Probable space group: C 2/C
;
_chemical_formula_sum "Si O2"
_cell_formula_units_Z 48
_cell_length_a 12.253203
_cell_length_b 22.255797
_cell_length_c 9.474176
_cell_angle_alpha 90.000000
_cell_angle_beta 61.397984
_cell_angle_gamma 90.000000
_cell_volume 2268.360056
_symmetry_space_group_name_H-M "C 2/C"
_symmetry_group_IT_number 15
_symmetry_cell_setting 'monoclinic'
loop_
_space_group_symop_operation_xyz
x,y,z
-x,y,1/2-z
-x,-y,-z
x,-y,1/2+z
1/2+x,1/2+y,z
1/2-x,1/2+y,1/2-z
1/2-x,1/2-y,-z
1/2+x,1/2-y,1/2+z
loop_
_atom_site_type_symbol
_atom_site_label
_atom_site_fract_x
_atom_site_fract_y
_atom_site_fract_z
Si Si1 0.531375 0.630790 0.889434
Si Si2 0.399757 0.827813 0.702900
Si Si3 0.776120 0.776710 0.137269
Si Si4 0.568405 0.130007 0.848631
Si Si5 0.232406 0.962024 0.184926
Si Si6 0.216010 0.072513 0.385693
O O1 0.500000 0.653634 0.750000
O O2 0.598910 0.682737 0.938013
O O3 0.619096 0.572761 0.827039
O O4 0.408972 0.611874 0.051179
O O5 0.500000 0.801383 0.750000
O O6 0.296779 0.777652 0.733314
O O7 0.462999 0.848590 0.519905
O O8 0.332718 0.883122 0.821113
O O9 0.660126 0.814367 0.265196
O O10 0.750000 0.750000 0.000000
O O11 0.500000 0.109243 0.750000
O O12 0.638837 0.071687 0.863091
O O13 0.232831 0.029711 0.241019
O O14 0.212916 0.967022 0.029381
#
# Coordination Sequence:
#
# PCOD8148894 Si02
#       6
#     8   8   8   8   8   8
#     4   9  21  44  66  97 131 175 220 275 327 390
#     4  12  26  43  65 100 132 177 221 267 331 398
#     4  11  24  42  68  96 133 171 222 277 329 386
#     4  11  24  44  65  95 137 171 216 275 333 390
#     4  10  23  43  66  96 133 172 222 273 328 391
#     4  11  24  41  69  98 130 175 223 270 330 391
#
# _framework density 21.16066
#
# number of rings (size 3 to 8) (size 9 to 14) (size 15 to 20)
#    0.000    1.333    3.333    1.000    4.667    2.000 
#    0.000    1.667    0.000    0.000    0.000    0.000 
#    0.000    0.000    0.000    0.000    0.000    0.000 
#
# Total GULP energy -297733.422092 kJ/mol
# GULP energy per Si atom -12405.559254 kJ/mol
# Density = 2.111250 g / cm^3
# Si number density = 21.160660 Si / 1000 Ang^3
#
#
#
# Elastic Constant Matrix: (Units=GPa)
#
#
# Indices 1 2 3 4 5 6 
#
# 1 106.6652 39.9371 20.3892 0.0000 7.7199 0.0000
# 2 39.9371 100.1336 33.7029 0.0000 3.3755 0.0000
# 3 20.3892 33.7029 66.6179 0.0000 -1.2589 0.0000
# 4 0.0000 0.0000 0.0000 29.2245 0.0000 9.9893
# 5 7.7199 3.3755 -1.2589 0.0000 40.1779 0.0000
# 6 0.0000 0.0000 0.0000 9.9893 0.0000 30.0533
#
#
#
# Elastic Compliance Matrix: (Units=1/GPa)
#
#
# Indices 1 2 3 4 5 6 
#
# 1 0.011268 -0.003926 -0.001498 0.000000 -0.001882 0.000000
# 2 -0.003926 0.013463 -0.005620 0.000000 -0.000553 0.000000
# 3 -0.001498 -0.005620 0.018338 0.000000 0.001335 0.000000
# 4 0.000000 0.000000 0.000000 0.038604 0.000000 -0.012831
# 5 -0.001882 -0.000553 0.001335 0.000000 0.025339 0.000000
# 6 0.000000 0.000000 0.000000 -0.012831 0.000000 0.037539
#
#
# Mechanical properties :
#
#
# Convention : Reuss Voigt Hill
#
# Bulk Modulus (GPa) = 47.66355 51.27503 49.46929
# Shear Modulus (GPa) = 28.79657 31.85031 30.32344
#
# Velocity S-wave (km/s) = 3.69298 3.88386 3.78962
# Velocity P-wave (km/s) = 6.38417 6.66306 6.52510
#
# Compressibility (1/GPa) = 0.02098039
#
# Stress axis : x y z
#
# Youngs Moduli (GPa) = 88.74876 74.27878 54.53252
#
# Poissons Ratio (x) = 0.29165 0.08168
# Poissons Ratio (y) = 0.34847 0.30646
# Poissons Ratio (z) = 0.13292 0.41743
#
# Static dielectric constant tensor:
#      x y z
#    x 3.925130 0.000000 -0.071680 
#    y 0.000000 3.761690 0.000000 
#    z -0.071680 0.000000 3.612930 
# 
# 
# High freq. dielectric constant tensor:
#      x y z
#    x 1.848130 0.000000 0.000600 
#    y 0.000000 1.825820 0.000000 
#    z 0.000600 0.000000 1.823200 
# 
# From -- ./inp_files/32490.got.cif
#   From: 2010.06.25/outbox.cif.g09.slc.cpg/sg15_17_cif.got.tgz:32490.got - 2010.06.28 07:06:18.
