data_PCOD8148094
_publ_section_title
;
Structure prediction by ZEFSAII (Michael W. Deem and Ramdas Pophale) SiO2 
 PCOD8148094
Probable space group: C 2/C
;
_chemical_formula_sum "Si O2"
_cell_formula_units_Z 56
_cell_length_a 14.399584
_cell_length_b 11.482674
_cell_length_c 19.429413
_cell_angle_alpha 90.000000
_cell_angle_beta 128.740898
_cell_angle_gamma 90.000000
_cell_volume 2505.753254
_symmetry_space_group_name_H-M "C 2/C"
_symmetry_group_IT_number 15
_symmetry_cell_setting 'monoclinic'
loop_
_space_group_symop_operation_xyz
x,y,z
-x,y,1/2-z
-x,-y,-z
x,-y,1/2+z
1/2+x,1/2+y,z
1/2-x,1/2+y,1/2-z
1/2-x,1/2-y,-z
1/2+x,1/2-y,1/2+z
loop_
_atom_site_type_symbol
_atom_site_label
_atom_site_fract_x
_atom_site_fract_y
_atom_site_fract_z
Si Si1 0.641987 0.691229 0.620601
Si Si2 0.000000 0.555517 0.250000
Si Si3 0.000000 0.155949 0.250000
Si Si4 0.719319 0.199362 0.294383
Si Si5 0.678326 0.928735 0.126163
Si Si6 0.847386 0.355204 0.122618
Si Si7 0.083832 0.379403 0.489822
Si Si8 0.378799 0.474832 0.812904
O O1 0.715886 0.755960 0.714081
O O2 0.723474 0.621342 0.603127
O O3 0.566365 0.786134 0.543521
O O4 0.565543 0.589121 0.623368
O O5 0.094929 0.639167 0.256611
O O6 0.069304 0.469838 0.334162
O O7 0.109770 0.238204 0.319326
O O8 0.025703 0.073791 0.196563
O O9 0.750101 0.309117 0.358652
O O10 0.836523 0.117094 0.351366
O O11 0.655691 0.005945 0.047742
O O12 0.753868 0.997675 0.217340
O O13 0.548531 0.905584 0.099274
O O14 0.838025 0.328393 0.036731
#
# Coordination Sequence:
#
# PCOD8148094 Si02
#       8
#     8   4   4   8   8   8   8   8
#     4  11  23  39  67  94 130 167 216 270 326 378
#     4  11  24  39  72  98 128 173 221 268 328 392
#     4  11  22  39  70 100 126 169 221 278 324 378
#     4  11  21  42  66  97 127 168 218 270 315 397
#     4  10  23  38  64  91 134 171 210 268 327 379
#     4  11  22  38  67  99 126 169 224 273 317 390
#     4  11  22  40  64  97 129 178 216 265 327 386
#     4  11  21  41  67  96 127 165 220 273 319 389
#
# _framework density 22.348568
#
# number of rings (size 3 to 8) (size 9 to 14) (size 15 to 20)
#    0.000    1.143    4.286    2.143    6.000    2.286 
#    0.000    3.571    3.143    0.000    0.000    0.000 
#    0.000    0.000    0.000    0.000    0.000    0.000 
#
# Total GULP energy -346989.466692 kJ/mol
# GULP energy per Si atom -12392.480953 kJ/mol
# Density = 2.229770 g / cm^3
# Si number density = 22.348568 Si / 1000 Ang^3
#
#
#
# Elastic Constant Matrix: (Units=GPa)
#
#
# Indices 1 2 3 4 5 6 
#
# 1 102.6098 41.6743 7.9020 0.0000 -18.6422 0.0000
# 2 41.6743 131.5425 14.7199 0.0000 -7.1644 0.0000
# 3 7.9020 14.7199 41.7053 0.0000 -5.1874 0.0000
# 4 0.0000 0.0000 0.0000 19.7914 0.0000 -3.6451
# 5 -18.6422 -7.1644 -5.1874 0.0000 29.5488 0.0000
# 6 0.0000 0.0000 0.0000 -3.6451 0.0000 34.6168
#
#
#
# Elastic Compliance Matrix: (Units=1/GPa)
#
#
# Indices 1 2 3 4 5 6 
#
# 1 0.012469 -0.003544 -0.000246 0.000000 0.006964 0.000000
# 2 -0.003544 0.008984 -0.002563 0.000000 -0.000507 0.000000
# 3 -0.000246 -0.002563 0.025387 0.000000 0.003680 0.000000
# 4 0.000000 0.000000 0.000000 0.051526 0.000000 0.005426
# 5 0.006964 -0.000507 0.003680 0.000000 0.038759 0.000000
# 6 0.000000 0.000000 0.000000 0.005426 0.000000 0.029459
#
#
# Mechanical properties :
#
#
# Convention : Reuss Voigt Hill
#
# Bulk Modulus (GPa) = 29.29453 44.93889 37.11671
# Shear Modulus (GPa) = 26.22384 30.89549 28.55966
#
# Velocity S-wave (km/s) = 3.42921 3.72215 3.57868
# Velocity P-wave (km/s) = 5.36803 6.21485 5.80690
#
# Compressibility (1/GPa) = 0.03413607
#
# Stress axis : x y z
#
# Youngs Moduli (GPa) = 80.19855 111.31049 39.39097
#
# Poissons Ratio (x) = 0.39444 0.00967
# Poissons Ratio (y) = 0.28419 0.10094
# Poissons Ratio (z) = 0.01970 0.28524
#
# Static dielectric constant tensor:
#      x y z
#    x 3.668410 0.000000 -0.083060 
#    y 0.000000 4.453660 0.000000 
#    z -0.083060 0.000000 3.824120 
# 
# 
# High freq. dielectric constant tensor:
#      x y z
#    x 1.861020 0.000000 -0.008690 
#    y 0.000000 1.902860 0.000000 
#    z -0.008690 0.000000 1.855630 
# 
# From -- ./inp_files/204577.got.cif
#   From: 2010.06.25/outbox.cif.g09.slc.cpg/sg15_103_cif.got.tgz:204577.got - 2010.06.28 07:06:18.
