data_PCOD8148599
_publ_section_title
;
Structure prediction by ZEFSAII (Michael W. Deem and Ramdas Pophale) SiO2 
 PCOD8148599
Probable space group: C 2/C
;
_chemical_formula_sum "Si O2"
_cell_formula_units_Z 48
_cell_length_a 9.064658
_cell_length_b 14.876662
_cell_length_c 29.736921
_cell_angle_alpha 90.000000
_cell_angle_beta 37.916992
_cell_angle_gamma 90.000000
_cell_volume 2464.270436
_symmetry_space_group_name_H-M "C 2/C"
_symmetry_group_IT_number 15
_symmetry_cell_setting 'monoclinic'
loop_
_space_group_symop_operation_xyz
x,y,z
-x,y,1/2-z
-x,-y,-z
x,-y,1/2+z
1/2+x,1/2+y,z
1/2-x,1/2+y,1/2-z
1/2-x,1/2-y,-z
1/2+x,1/2-y,1/2+z
loop_
_atom_site_type_symbol
_atom_site_label
_atom_site_fract_x
_atom_site_fract_y
_atom_site_fract_z
Si Si1 0.716951 0.941660 0.317621
Si Si2 0.759028 0.633323 0.209547
Si Si3 0.601229 0.011388 0.525262
Si Si4 0.705971 0.172382 0.046314
Si Si5 0.769112 0.752621 0.695919
Si Si6 0.054387 0.173234 0.046049
O O1 0.618895 0.952649 0.391845
O O2 0.608658 0.846486 0.324860
O O3 0.000000 0.937344 0.250000
O O4 0.639058 0.030686 0.307704
O O5 0.500000 0.627019 0.250000
O O6 0.709894 0.683080 0.267233
O O7 0.949686 0.687313 0.132942
O O8 0.824636 0.078524 0.472529
O O9 0.500000 0.000000 0.500000
O O10 0.706197 0.918832 0.518333
O O11 0.921529 0.171292 0.030217
O O12 0.750000 0.250000 0.000000
O O13 0.500000 0.728134 0.750000
O O14 0.867273 0.807079 0.630192
O O15 0.250000 0.250000 0.000000
#
# Coordination Sequence:
#
# PCOD8148599 Si02
#       6
#     8   8   8   8   8   8
#     4   9  21  39  63  89 126 161 211 255 320 381
#     4  10  23  42  64  93 127 166 211 268 322 386
#     4  11  24  41  67  95 128 174 218 268 329 383
#     4  11  25  43  64  96 134 168 221 269 321 391
#     4  11  22  42  66  91 130 166 214 266 325 389
#     4  12  24  41  66  95 129 174 220 264 328 379
#
# _framework density 19.478380000000001
#
# number of rings (size 3 to 8) (size 9 to 14) (size 15 to 20)
#    0.000    1.333    3.333    1.500    9.333    0.000 
#    0.000    0.833    0.000    0.000    0.000    0.000 
#    0.000    0.000    0.000    0.000    0.000    0.000 
#
# Total GULP energy -297475.669523 kJ/mol
# GULP energy per Si atom -12394.819563 kJ/mol
# Density = 1.943405 g / cm^3
# Si number density = 19.478380 Si / 1000 Ang^3
#
#
#
# Elastic Constant Matrix: (Units=GPa)
#
#
# Indices 1 2 3 4 5 6 
#
# 1 134.5745 76.6085 50.4114 0.0026 17.0116 -0.0014
# 2 76.6085 159.2257 76.3170 0.0008 26.9331 -0.0013
# 3 50.4114 76.3170 127.1824 0.0091 12.6819 -0.0031
# 4 0.0026 0.0008 0.0091 35.1501 -0.0018 -0.4908
# 5 17.0116 26.9331 12.6819 -0.0018 38.5072 0.0023
# 6 -0.0014 -0.0013 -0.0031 -0.4908 0.0023 31.9790
#
#
#
# Elastic Compliance Matrix: (Units=1/GPa)
#
#
# Indices 1 2 3 4 5 6 
#
# 1 0.010509 -0.004080 -0.001591 0.000000 -0.001265 0.000000
# 2 -0.004080 0.011254 -0.004685 0.000001 -0.004526 0.000000
# 3 -0.001591 -0.004685 0.011278 -0.000003 0.000265 0.000001
# 4 0.000000 0.000001 -0.000003 0.028456 0.000002 0.000437
# 5 -0.001265 -0.004526 0.000265 0.000002 0.029607 -0.000002
# 6 0.000000 0.000000 0.000001 0.000437 -0.000002 0.031277
#
#
# Mechanical properties :
#
#
# Convention : Reuss Voigt Hill
#
# Bulk Modulus (GPa) = 81.10230 91.96180 86.53205
# Shear Modulus (GPa) = 33.96672 35.63699 34.80185
#
# Velocity S-wave (km/s) = 4.18043 4.28198 4.23151
# Velocity P-wave (km/s) = 8.06405 8.47124 8.27015
#
# Compressibility (1/GPa) = 0.01233011
#
# Stress axis : x y z
#
# Youngs Moduli (GPa) = 95.15422 88.85489 88.66615
#
# Poissons Ratio (x) = 0.36249 0.14111
# Poissons Ratio (y) = 0.38819 0.41539
# Poissons Ratio (z) = 0.15143 0.41628
#
# Static dielectric constant tensor:
#      x y z
#    x 3.356160 -0.000010 -0.164540 
#    y -0.000010 4.302450 0.000010 
#    z -0.164540 0.000010 3.455850 
# 
# 
# High freq. dielectric constant tensor:
#      x y z
#    x 1.734670 0.000000 -0.003880 
#    y 0.000000 1.783090 0.000000 
#    z -0.003880 0.000000 1.779480 
# 
# From -- ./inp_files/189271.got.cif
#   From: 2010.06.25/outbox.cif.g09.slc.cpg/sg15_95_cif.got.tgz:189271.got - 2010.06.28 07:06:18.
