data_PCOD8148430
_publ_section_title
;
Structure prediction by ZEFSAII (Michael W. Deem and Ramdas Pophale) SiO2 
 PCOD8148430
Probable space group: C 2/C
;
_chemical_formula_sum "Si O2"
_cell_formula_units_Z 56
_cell_length_a 10.429743
_cell_length_b 10.199094
_cell_length_c 25.971160
_cell_angle_alpha 90.000000
_cell_angle_beta 71.089887
_cell_angle_gamma 90.000000
_cell_volume 2613.548829
_symmetry_space_group_name_H-M "C 2/C"
_symmetry_group_IT_number 15
_symmetry_cell_setting 'monoclinic'
loop_
_space_group_symop_operation_xyz
x,y,z
-x,y,1/2-z
-x,-y,-z
x,-y,1/2+z
1/2+x,1/2+y,z
1/2-x,1/2+y,1/2-z
1/2-x,1/2-y,-z
1/2+x,1/2-y,1/2+z
loop_
_atom_site_type_symbol
_atom_site_label
_atom_site_fract_x
_atom_site_fract_y
_atom_site_fract_z
Si Si1 0.885221 0.336439 0.166617
Si Si2 0.429602 0.090728 0.206760
Si Si3 0.192039 0.005652 0.933106
Si Si4 0.349087 0.758137 0.871667
Si Si5 0.888395 0.024688 0.941411
Si Si6 0.646078 0.315143 0.730525
Si Si7 0.840647 0.230297 0.388810
O O1 0.937887 0.485434 0.159430
O O2 0.742841 0.318105 0.157488
O O3 0.875923 0.307968 0.229019
O O4 0.999251 0.252461 0.122600
O O5 0.500000 0.043988 0.250000
O O6 0.505085 0.220012 0.174714
O O7 0.269563 0.105778 0.239846
O O8 0.289339 0.900385 0.893438
O O9 0.251172 0.153140 0.924052
O O10 0.177456 0.965919 0.994185
O O11 0.048598 0.999898 0.922988
O O12 0.363371 0.665615 0.918984
O O13 0.811151 0.908867 0.920060
O O14 0.500000 0.393201 0.750000
O O15 0.691544 0.273731 0.667666
#
# Coordination Sequence:
#
# PCOD8148430 Si02
#       7
#     8   8   8   8   8   8   8
#     4  11  23  41  66  98 134 177 220 279 329 415
#     4  12  23  43  66 100 138 180 226 271 342 411
#     4  11  24  45  69  94 135 181 228 283 348 398
#     4  12  24  44  68 102 137 174 227 283 344 397
#     4  11  25  43  68 100 131 176 235 286 336 405
#     4  10  23  41  64  99 134 178 219 276 333 409
#     4  11  21  44  68  95 136 182 220 277 346 400
#
# _framework density 21.426803
#
# number of rings (size 3 to 8) (size 9 to 14) (size 15 to 20)
#    0.000    0.857    4.286    3.857    0.000    0.000 
#    7.714    0.714    0.000    0.000    0.000    0.000 
#    0.000    0.000    0.000    0.000    0.000    0.000 
#
# Total GULP energy -347117.291516 kJ/mol
# GULP energy per Si atom -12397.046126 kJ/mol
# Density = 2.137803 g / cm^3
# Si number density = 21.426803 Si / 1000 Ang^3
#
#
#
# Elastic Constant Matrix: (Units=GPa)
#
#
# Indices 1 2 3 4 5 6 
#
# 1 134.2074 33.5070 43.2165 0.0000 2.2042 0.0000
# 2 33.5070 95.2085 23.3881 0.0000 3.7648 0.0000
# 3 43.2165 23.3881 71.7987 0.0000 4.9341 0.0000
# 4 0.0000 0.0000 0.0000 32.4375 0.0000 -2.2353
# 5 2.2042 3.7648 4.9341 0.0000 25.6791 0.0000
# 6 0.0000 0.0000 0.0000 -2.2353 0.0000 31.5001
#
#
#
# Elastic Compliance Matrix: (Units=1/GPa)
#
#
# Indices 1 2 3 4 5 6 
#
# 1 0.009632 -0.002148 -0.005130 0.000000 0.000474 0.000000
# 2 -0.002148 0.011920 -0.002516 0.000000 -0.001080 0.000000
# 3 -0.005130 -0.002516 0.018018 0.000000 -0.002653 0.000000
# 4 0.000000 0.000000 0.000000 0.030980 0.000000 0.002198
# 5 0.000474 -0.001080 -0.002653 0.000000 0.039570 0.000000
# 6 0.000000 0.000000 0.000000 0.002198 0.000000 0.031902
#
#
# Mechanical properties :
#
#
# Convention : Reuss Voigt Hill
#
# Bulk Modulus (GPa) = 50.04743 55.71531 52.88137
# Shear Modulus (GPa) = 29.71430 31.33022 30.52226
#
# Velocity S-wave (km/s) = 3.72799 3.82802 3.77834
# Velocity P-wave (km/s) = 6.47601 6.75258 6.61574
#
# Compressibility (1/GPa) = 0.01998105
#
# Stress axis : x y z
#
# Youngs Moduli (GPa) = 103.82374 83.89295 55.50143
#
# Poissons Ratio (x) = 0.18022 0.28474
# Poissons Ratio (y) = 0.22303 0.13962
# Poissons Ratio (z) = 0.53264 0.21104
#
# Static dielectric constant tensor:
#      x y z
#    x 4.093300 0.000000 -0.014960 
#    y 0.000000 3.783050 0.000000 
#    z -0.014960 0.000000 3.692440 
# 
# 
# High freq. dielectric constant tensor:
#      x y z
#    x 1.854340 0.000000 0.003000 
#    y 0.000000 1.834250 0.000000 
#    z 0.003000 0.000000 1.836700 
# 
# From -- ./inp_files/291494.got.cif
#   From: 2010.06.25/outbox.cif.g09.slc.cpg/sg15_146_cif.got.tgz:291494.got - 2010.06.28 07:06:18.
