data_PCOD8148105
_publ_section_title
;
Structure prediction by ZEFSAII (Michael W. Deem and Ramdas Pophale) SiO2 
 PCOD8148105
Probable space group: C 2/C
;
_chemical_formula_sum "Si O2"
_cell_formula_units_Z 56
_cell_length_a 13.695333
_cell_length_b 19.986660
_cell_length_c 17.587515
_cell_angle_alpha 90.000000
_cell_angle_beta 147.943372
_cell_angle_gamma 90.000000
_cell_volume 2555.131001
_symmetry_space_group_name_H-M "C 2/C"
_symmetry_group_IT_number 15
_symmetry_cell_setting 'monoclinic'
loop_
_space_group_symop_operation_xyz
x,y,z
-x,y,1/2-z
-x,-y,-z
x,-y,1/2+z
1/2+x,1/2+y,z
1/2-x,1/2+y,1/2-z
1/2-x,1/2-y,-z
1/2+x,1/2-y,1/2+z
loop_
_atom_site_type_symbol
_atom_site_label
_atom_site_fract_x
_atom_site_fract_y
_atom_site_fract_z
Si Si1 0.365062 0.639721 0.871060
Si Si2 0.366981 0.480885 0.269343
Si Si3 0.724432 0.599030 0.186695
Si Si4 0.000000 0.251879 0.250000
Si Si5 0.000000 0.442557 0.750000
Si Si6 0.543427 0.150605 0.900024
Si Si7 0.834032 0.709002 0.375269
Si Si8 0.741162 0.016587 0.028002
O O1 0.394322 0.595740 0.814164
O O2 0.385826 0.719628 0.871852
O O3 0.156525 0.624833 0.761317
O O4 0.511288 0.616480 0.030575
O O5 0.267237 0.526129 0.267680
O O6 0.246402 0.479101 0.112890
O O7 0.563613 0.514055 0.384146
O O8 0.836449 0.600058 0.180872
O O9 0.822301 0.654696 0.301896
O O10 0.881403 0.297974 0.113561
O O11 0.858143 0.208073 0.204889
O O12 0.917619 0.486143 0.627971
O O13 0.512467 0.187465 0.961327
O O14 0.693351 0.093539 0.010785
#
# Coordination Sequence:
#
# PCOD8148105 Si02
#       8
#     8   8   8   4   4   8   8   8
#     4  11  24  44  66 101 139 189 228 279 344 413
#     4  11  25  44  73 101 145 183 228 291 349 413
#     4  12  26  47  69 102 138 185 234 295 344 411
#     4  10  23  38  66 108 143 176 218 284 354 425
#     4  12  27  46  70 100 133 180 252 290 344 399
#     4  11  23  39  68 105 144 182 222 282 349 434
#     4  11  25  44  71 103 144 187 230 282 354 423
#     4  11  25  43  69 110 137 182 230 288 353 418
#
# _framework density 21.916684
#
# number of rings (size 3 to 8) (size 9 to 14) (size 15 to 20)
#    0.000    0.857    2.857    3.857   10.000    1.143 
#    0.000    2.143    0.000    0.000    0.000    0.000 
#    0.000    0.000    0.000    0.000    0.000    0.000 
#
# Total GULP energy -347183.606354 kJ/mol
# GULP energy per Si atom -12399.414513 kJ/mol
# Density = 2.186680 g / cm^3
# Si number density = 21.916684 Si / 1000 Ang^3
#
#
#
# Elastic Constant Matrix: (Units=GPa)
#
#
# Indices 1 2 3 4 5 6 
#
# 1 98.2012 44.6437 31.5452 -0.0037 -2.5022 0.0007
# 2 44.6437 124.3135 39.5586 -0.0108 -14.3777 -0.0004
# 3 31.5452 39.5586 119.0145 -0.0238 -14.1671 -0.0079
# 4 -0.0037 -0.0108 -0.0238 27.9781 -0.0089 -5.8428
# 5 -2.5022 -14.3777 -14.1671 -0.0089 35.7191 -0.0018
# 6 0.0007 -0.0004 -0.0079 -5.8428 -0.0018 34.0981
#
#
#
# Elastic Compliance Matrix: (Units=1/GPa)
#
#
# Indices 1 2 3 4 5 6 
#
# 1 0.012689 -0.004040 -0.002213 -0.000003 -0.001615 -0.000001
# 2 -0.004040 0.010510 -0.002049 0.000003 0.003135 0.000000
# 3 -0.002213 -0.002049 0.010027 0.000009 0.002997 0.000004
# 4 -0.000003 0.000003 0.000009 0.037069 0.000014 0.006352
# 5 -0.001615 0.003135 0.002997 0.000014 0.030334 0.000005
# 6 -0.000001 0.000000 0.000004 0.006352 0.000005 0.030416
#
#
# Mechanical properties :
#
#
# Convention : Reuss Voigt Hill
#
# Bulk Modulus (GPa) = 60.16131 63.66935 61.91533
# Shear Modulus (GPa) = 32.63965 34.61116 33.62541
#
# Velocity S-wave (km/s) = 3.86328 3.97825 3.92118
# Velocity P-wave (km/s) = 6.88546 7.08630 6.98660
#
# Compressibility (1/GPa) = 0.01662198
#
# Stress axis : x y z
#
# Youngs Moduli (GPa) = 78.80634 95.15140 99.73263
#
# Poissons Ratio (x) = 0.38437 0.22070
# Poissons Ratio (y) = 0.31835 0.20439
# Poissons Ratio (z) = 0.17439 0.19500
#
# Static dielectric constant tensor:
#      x y z
#    x 3.784770 0.000000 -0.152500 
#    y 0.000000 3.934030 -0.000010 
#    z -0.152500 -0.000010 4.203840 
# 
# 
# High freq. dielectric constant tensor:
#      x y z
#    x 1.841740 0.000000 -0.009540 
#    y 0.000000 1.856570 0.000000 
#    z -0.009540 0.000000 1.883960 
# 
# From -- ./inp_files/207028.got.cif
#   From: 2010.06.25/outbox.cif.g09.slc.cpg/sg15_104_cif.got.tgz:207028.got - 2010.06.28 07:06:18.
