data_PCOD8148250
_publ_section_title
;
Structure prediction by ZEFSAII (Michael W. Deem and Ramdas Pophale) SiO2 
 PCOD8148250
Probable space group: C 2/C
;
_chemical_formula_sum "Si O2"
_cell_formula_units_Z 28
_cell_length_a 9.708872
_cell_length_b 21.991439
_cell_length_c 10.549936
_cell_angle_alpha 90.000000
_cell_angle_beta 28.405348
_cell_angle_gamma 90.000000
_cell_volume 1071.546850
_symmetry_space_group_name_H-M "C 2/C"
_symmetry_group_IT_number 15
_symmetry_cell_setting 'monoclinic'
loop_
_space_group_symop_operation_xyz
x,y,z
-x,y,1/2-z
-x,-y,-z
x,-y,1/2+z
1/2+x,1/2+y,z
1/2-x,1/2+y,1/2-z
1/2-x,1/2-y,-z
1/2+x,1/2-y,1/2+z
loop_
_atom_site_type_symbol
_atom_site_label
_atom_site_fract_x
_atom_site_fract_y
_atom_site_fract_z
Si Si1 0.500000 0.018140 0.250000
Si Si2 0.919790 0.616851 0.108897
Si Si3 0.500000 0.436898 0.750000
Si Si4 0.836385 0.290302 0.255291
Si Si5 0.500000 0.207765 0.250000
O O1 0.505195 0.055285 0.113312
O O2 0.216049 0.976933 0.489732
O O3 0.658113 0.606343 0.223151
O O4 0.834284 0.665928 0.282930
O O5 0.183962 0.648086 0.814444
O O6 0.522730 0.262024 0.532876
O O7 0.000000 0.309988 0.250000
O O8 0.250000 0.250000 0.500000
#
# Coordination Sequence:
#
# PCOD8148250 Si02
#       5
#     4   8   4   8   4
#     4  11  28  50  70 104 144 190 244 311 358 420
#     4  11  26  46  78 102 145 194 236 297 368 420
#     4  12  28  47  72 108 140 185 258 302 352 418
#     4  10  23  40  64 103 140 174 224 283 344 426
#     4  11  26  49  72 110 150 187 232 285 362 450
#
# _framework density 26.130448000000001
#
# number of rings (size 3 to 8) (size 9 to 14) (size 15 to 20)
#    0.000    1.143    0.000    3.429    8.000    9.143 
#    0.000    0.000    0.000    0.000    0.000    0.000 
#    0.000    0.000    0.000    0.000    0.000    0.000 
#
# Total GULP energy -173520.712335 kJ/mol
# GULP energy per Si atom -12394.336595 kJ/mol
# Density = 2.607097 g / cm^3
# Si number density = 26.130448 Si / 1000 Ang^3
#
#
#
# Elastic Constant Matrix: (Units=GPa)
#
#
# Indices 1 2 3 4 5 6 
#
# 1 163.2400 78.8314 21.4452 0.0000 22.7788 -0.0001
# 2 78.8314 138.6082 56.0228 0.0000 20.8538 0.0000
# 3 21.4452 56.0228 124.3455 -0.0001 15.8372 0.0000
# 4 0.0000 0.0000 -0.0001 32.1713 0.0001 8.1710
# 5 22.7788 20.8538 15.8372 0.0001 35.9909 0.0000
# 6 -0.0001 0.0000 0.0000 8.1710 0.0000 33.4194
#
#
#
# Elastic Compliance Matrix: (Units=1/GPa)
#
#
# Indices 1 2 3 4 5 6 
#
# 1 0.008840 -0.005007 0.001138 0.000000 -0.003195 0.000000
# 2 -0.005007 0.012110 -0.004346 0.000000 -0.001935 0.000000
# 3 0.001138 -0.004346 0.010143 0.000000 -0.002666 0.000000
# 4 0.000000 0.000000 0.000000 0.033142 0.000000 -0.008103
# 5 -0.003195 -0.001935 -0.002666 0.000000 0.032101 0.000000
# 6 0.000000 0.000000 0.000000 -0.008103 0.000000 0.031904
#
#
# Mechanical properties :
#
#
# Convention : Reuss Voigt Hill
#
# Bulk Modulus (GPa) = 68.19567 82.08805 75.14186
# Shear Modulus (GPa) = 33.43178 38.30928 35.87053
#
# Velocity S-wave (km/s) = 3.58078 3.83309 3.70908
# Velocity P-wave (km/s) = 6.57653 7.14654 6.86745
#
# Compressibility (1/GPa) = 0.01466369
#
# Stress axis : x y z
#
# Youngs Moduli (GPa) = 113.11902 82.57577 98.58636
#
# Poissons Ratio (x) = 0.41347 -0.11221
# Poissons Ratio (y) = 0.56640 0.42846
# Poissons Ratio (z) = -0.12875 0.35888
#
# Static dielectric constant tensor:
#      x y z
#    x 5.201880 0.000000 0.644270 
#    y 0.000000 4.968100 0.000000 
#    z 0.644270 0.000000 4.852020 
# 
# 
# High freq. dielectric constant tensor:
#      x y z
#    x 2.065620 0.000000 0.021980 
#    y 0.000000 2.061830 0.000000 
#    z 0.021980 0.000000 2.044180 
# 
# From -- ./inp_files/88705.got.cif
#   From: 2010.06.25/outbox.cif.g09.slc.cpg/sg15_45_cif.got.tgz:88705.got - 2010.06.28 07:06:18.
