data_PCOD8148201
_publ_section_title
;
Structure prediction by ZEFSAII (Michael W. Deem and Ramdas Pophale) SiO2 
 PCOD8148201
Probable space group: C 2/C
;
_chemical_formula_sum "Si O2"
_cell_formula_units_Z 64
_cell_length_a 14.485619
_cell_length_b 11.051973
_cell_length_c 19.795285
_cell_angle_alpha 90.000000
_cell_angle_beta 69.986754
_cell_angle_gamma 90.000000
_cell_volume 2977.747659
_symmetry_space_group_name_H-M "C 2/C"
_symmetry_group_IT_number 15
_symmetry_cell_setting 'monoclinic'
loop_
_space_group_symop_operation_xyz
x,y,z
-x,y,1/2-z
-x,-y,-z
x,-y,1/2+z
1/2+x,1/2+y,z
1/2-x,1/2+y,1/2-z
1/2-x,1/2-y,-z
1/2+x,1/2-y,1/2+z
loop_
_atom_site_type_symbol
_atom_site_label
_atom_site_fract_x
_atom_site_fract_y
_atom_site_fract_z
Si Si1 0.865212 0.346942 0.267424
Si Si2 0.416917 0.145462 0.015562
Si Si3 0.482264 0.250995 0.861792
Si Si4 0.245144 0.171206 0.401388
Si Si5 0.648513 0.288667 0.354356
Si Si6 0.866038 0.616372 0.501536
Si Si7 0.055272 0.022246 0.416381
Si Si8 0.604695 0.870292 0.745641
O O1 0.908212 0.295426 0.185883
O O2 0.749454 0.338284 0.299619
O O3 0.894939 0.486204 0.265260
O O4 0.911286 0.265097 0.315649
O O5 0.344984 0.243139 0.069190
O O6 0.362942 0.016955 0.034497
O O7 0.436810 0.170654 0.932439
O O8 0.519828 0.155192 0.030912
O O9 0.491520 0.389243 0.884605
O O10 0.195664 0.297308 0.433923
O O11 0.318529 0.118596 0.439598
O O12 0.162062 0.072630 0.408227
O O13 0.309575 0.193475 0.318785
O O14 0.569591 0.397987 0.371128
O O15 0.617232 0.170842 0.319731
O O16 0.000000 0.000000 0.500000
O O17 0.500000 0.818309 0.750000
#
# Coordination Sequence:
#
# PCOD8148201 Si02
#       8
#     8   8   8   8   8   8   8   8
#     4  11  26  45  71 101 130 187 231 285 341 416
#     4  11  23  41  69 104 135 178 233 290 334 419
#     4  11  23  46  72  92 140 182 230 278 345 407
#     4  11  22  44  66  98 137 183 222 291 345 410
#     4  12  27  42  67 106 136 177 231 281 355 404
#     4  10  23  39  70 102 134 177 237 278 353 403
#     4  12  24  45  67  98 142 184 219 285 352 418
#     4  12  25  46  72  97 140 179 236 287 344 414
#
# _framework density 21.492754999999999
#
# number of rings (size 3 to 8) (size 9 to 14) (size 15 to 20)
#    0.000    0.750    5.000    2.250    3.500    2.500 
#    2.250    0.000    0.000    0.000    0.000    0.000 
#    0.000    0.000    0.000    0.000    0.000    0.000 
#
# Total GULP energy -396817.147284 kJ/mol
# GULP energy per Si atom -12400.535853 kJ/mol
# Density = 2.144384 g / cm^3
# Si number density = 21.492755 Si / 1000 Ang^3
#
#
#
# Elastic Constant Matrix: (Units=GPa)
#
#
# Indices 1 2 3 4 5 6 
#
# 1 71.5469 29.7491 33.0300 0.0000 -6.0151 0.0000
# 2 29.7491 120.2589 55.1410 0.0000 -4.4754 0.0000
# 3 33.0300 55.1410 138.8181 0.0000 -15.1563 0.0000
# 4 0.0000 0.0000 0.0000 37.7761 0.0000 3.2899
# 5 -6.0151 -4.4754 -15.1563 0.0000 38.7119 0.0000
# 6 0.0000 0.0000 0.0000 3.2899 0.0000 33.2751
#
#
#
# Elastic Compliance Matrix: (Units=1/GPa)
#
#
# Indices 1 2 3 4 5 6 
#
# 1 0.016479 -0.002805 -0.002677 0.000000 0.001188 0.000000
# 2 -0.002805 0.010651 -0.003632 0.000000 -0.000626 0.000000
# 3 -0.002677 -0.003632 0.009603 0.000000 0.002924 0.000000
# 4 0.000000 0.000000 0.000000 0.026702 0.000000 -0.002640
# 5 0.001188 -0.000626 0.002924 0.000000 0.027089 0.000000
# 6 0.000000 0.000000 0.000000 -0.002640 0.000000 0.030314
#
#
# Mechanical properties :
#
#
# Convention : Reuss Voigt Hill
#
# Bulk Modulus (GPa) = 54.03919 62.94044 58.48981
# Shear Modulus (GPa) = 34.42759 36.13286 35.28023
#
# Velocity S-wave (km/s) = 4.00662 4.10465 4.05593
# Velocity P-wave (km/s) = 6.82653 7.19807 7.01476
#
# Compressibility (1/GPa) = 0.01850509
#
# Stress axis : x y z
#
# Youngs Moduli (GPa) = 60.68389 93.88626 104.13937
#
# Poissons Ratio (x) = 0.26333 0.27879
# Poissons Ratio (y) = 0.17020 0.37822
# Poissons Ratio (z) = 0.16246 0.34098
#
# Static dielectric constant tensor:
#      x y z
#    x 3.950120 0.000000 -0.130490 
#    y 0.000000 3.872160 0.000000 
#    z -0.130490 0.000000 4.047830 
# 
# 
# High freq. dielectric constant tensor:
#      x y z
#    x 1.837100 0.000000 -0.013120 
#    y 0.000000 1.845490 0.000000 
#    z -0.013120 0.000000 1.859810 
# 
# From -- ./inp_files/243711.got.cif
#   From: 2010.06.25/outbox.cif.g09.slc.cpg/sg15_122_cif.got.tgz:243711.got - 2010.06.28 07:06:18.
