data_PCOD8148196
_publ_section_title
;
Structure prediction by ZEFSAII (Michael W. Deem and Ramdas Pophale) SiO2 
 PCOD8148196
Probable space group: C 2/C
;
_chemical_formula_sum "Si O2"
_cell_formula_units_Z 60
_cell_length_a 14.296708
_cell_length_b 28.010190
_cell_length_c 14.329690
_cell_angle_alpha 90.000000
_cell_angle_beta 151.022720
_cell_angle_gamma 90.000000
_cell_volume 2780.028815
_symmetry_space_group_name_H-M "C 2/C"
_symmetry_group_IT_number 15
_symmetry_cell_setting 'monoclinic'
loop_
_space_group_symop_operation_xyz
x,y,z
-x,y,1/2-z
-x,-y,-z
x,-y,1/2+z
1/2+x,1/2+y,z
1/2-x,1/2+y,1/2-z
1/2-x,1/2-y,-z
1/2+x,1/2-y,1/2+z
loop_
_atom_site_type_symbol
_atom_site_label
_atom_site_fract_x
_atom_site_fract_y
_atom_site_fract_z
Si Si1 0.360482 0.608370 0.386805
Si Si2 0.084717 0.190439 0.494719
Si Si3 0.500000 0.574879 0.250000
Si Si4 0.383607 0.482103 0.811188
Si Si5 0.510091 0.152715 0.363169
Si Si6 0.649876 0.578740 0.796621
Si Si7 0.808786 0.653338 0.525493
Si Si8 0.964173 0.294656 0.429230
O O1 0.437683 0.646500 0.378128
O O2 0.264145 0.563140 0.247806
O O3 0.541733 0.597104 0.610639
O O4 0.193806 0.627435 0.306334
O O5 0.170126 0.188837 0.464162
O O6 0.966229 0.238698 0.408828
O O7 0.257769 0.185171 0.719011
O O8 0.466944 0.540906 0.132175
O O9 0.695930 0.604778 0.407081
O O10 0.267085 0.525592 0.659275
O O11 0.500000 0.500000 0.000000
O O12 0.500000 0.174590 0.250000
O O13 0.679269 0.114185 0.525490
O O14 0.520957 0.195793 0.447082
O O15 0.500000 0.573634 0.750000
O O16 0.862896 0.678948 0.475295
O O17 0.000000 0.640687 0.750000
#
# Coordination Sequence:
#
# PCOD8148196 Si02
#       8
#     8   8   4   8   8   8   8   8
#     4  11  22  43  66  94 131 171 215 278 332 390
#     4  11  22  42  67  96 139 172 218 273 331 401
#     4  12  20  40  66  94 130 174 208 276 324 388
#     4  10  23  39  68  95 129 170 218 268 337 395
#     4  12  25  42  68  95 130 180 229 273 331 390
#     4  11  22  44  67  92 128 173 222 276 333 394
#     4  10  24  40  65  99 134 172 217 268 330 398
#     4  11  24  41  64 101 133 179 222 275 326 400
#
# _framework density 21.582509999999999
#
# number of rings (size 3 to 8) (size 9 to 14) (size 15 to 20)
#    0.000    1.067    4.667    2.000    1.867    0.533 
#    0.000    6.667    0.000    0.000    0.000    0.000 
#    0.000    0.000    0.000    0.000    0.000    0.000 
#
# Total GULP energy -371793.781014 kJ/mol
# GULP energy per Si atom -12393.126034 kJ/mol
# Density = 2.153339 g / cm^3
# Si number density = 21.582510 Si / 1000 Ang^3
#
#
#
# Elastic Constant Matrix: (Units=GPa)
#
#
# Indices 1 2 3 4 5 6 
#
# 1 116.9595 34.2699 33.3581 0.0000 -11.4857 0.0001
# 2 34.2699 107.8257 33.6565 0.0000 -0.9717 0.0000
# 3 33.3581 33.6565 75.5964 0.0000 -7.6918 0.0001
# 4 0.0000 0.0000 0.0000 20.7783 0.0000 -8.4553
# 5 -11.4857 -0.9717 -7.6918 0.0000 32.9211 0.0001
# 6 0.0001 0.0000 0.0001 -8.4553 0.0001 29.9715
#
#
#
# Elastic Compliance Matrix: (Units=1/GPa)
#
#
# Indices 1 2 3 4 5 6 
#
# 1 0.010431 -0.002256 -0.003314 0.000000 0.002798 0.000000
# 2 -0.002256 0.011281 -0.004172 0.000000 -0.001429 0.000000
# 3 -0.003314 -0.004172 0.016818 0.000000 0.002650 0.000000
# 4 0.000000 0.000000 0.000000 0.054368 0.000000 0.015338
# 5 0.002798 -0.001429 0.002650 0.000000 0.031929 0.000000
# 6 0.000000 0.000000 0.000000 0.015338 0.000000 0.037692
#
#
# Mechanical properties :
#
#
# Convention : Reuss Voigt Hill
#
# Bulk Modulus (GPa) = 52.50574 55.88341 54.19457
# Shear Modulus (GPa) = 26.54626 30.00732 28.27679
#
# Velocity S-wave (km/s) = 3.51093 3.73279 3.62356
# Velocity P-wave (km/s) = 6.38875 6.67289 6.53237
#
# Compressibility (1/GPa) = 0.01904554
#
# Stress axis : x y z
#
# Youngs Moduli (GPa) = 95.86981 88.64786 59.46140
#
# Poissons Ratio (x) = 0.19995 0.19704
# Poissons Ratio (y) = 0.21624 0.24809
# Poissons Ratio (z) = 0.31770 0.36987
#
# Static dielectric constant tensor:
#      x y z
#    x 4.083120 0.000000 -0.149380 
#    y 0.000000 4.157580 0.000000 
#    z -0.149380 0.000000 3.940590 
# 
# 
# High freq. dielectric constant tensor:
#      x y z
#    x 1.857760 0.000000 -0.018450 
#    y 0.000000 1.847810 0.000000 
#    z -0.018450 0.000000 1.841260 
# 
# From -- ./inp_files/157322.got.cif
#   From: 2010.06.25/outbox.cif.g09.slc.cpg/sg15_79_cif.got.tgz:157322.got - 2010.06.28 07:06:18.
