data_PCOD8148534
_publ_section_title
;
Structure prediction by ZEFSAII (Michael W. Deem and Ramdas Pophale) SiO2 
 PCOD8148534
Probable space group: C 2/C
;
_chemical_formula_sum "Si O2"
_cell_formula_units_Z 60
_cell_length_a 24.090206
_cell_length_b 14.685648
_cell_length_c 8.587964
_cell_angle_alpha 90.000000
_cell_angle_beta 66.516486
_cell_angle_gamma 90.000000
_cell_volume 2786.608408
_symmetry_space_group_name_H-M "C 2/C"
_symmetry_group_IT_number 15
_symmetry_cell_setting 'monoclinic'
loop_
_space_group_symop_operation_xyz
x,y,z
-x,y,1/2-z
-x,-y,-z
x,-y,1/2+z
1/2+x,1/2+y,z
1/2-x,1/2+y,1/2-z
1/2-x,1/2-y,-z
1/2+x,1/2-y,1/2+z
loop_
_atom_site_type_symbol
_atom_site_label
_atom_site_fract_x
_atom_site_fract_y
_atom_site_fract_z
Si Si1 0.880707 0.060746 0.805991
Si Si2 0.721589 0.279165 0.693877
Si Si3 0.520838 0.301587 0.398539
Si Si4 0.295334 0.067423 0.262552
Si Si5 0.000000 0.497312 0.750000
Si Si6 0.603061 0.374811 0.862287
Si Si7 0.746928 0.896092 0.352781
Si Si8 0.431486 0.109766 0.083345
O O1 0.933352 0.114178 0.657733
O O2 0.817538 0.088728 0.800612
O O3 0.893228 0.953611 0.771537
O O4 0.880078 0.083201 0.988935
O O5 0.750000 0.250000 0.500000
O O6 0.747976 0.376085 0.713989
O O7 0.649303 0.293996 0.763083
O O8 0.736476 0.206841 0.810917
O O9 0.500000 0.272829 0.250000
O O10 0.463431 0.330999 0.566014
O O11 0.554500 0.216812 0.439254
O O12 0.291244 0.087643 0.449197
O O13 0.361363 0.093648 0.128955
O O14 0.279434 0.961770 0.251792
O O15 0.949363 0.432950 0.729577
O O16 0.030846 0.561888 0.591875
#
# Coordination Sequence:
#
# PCOD8148534 Si02
#       8
#     8   8   8   8   4   8   8   8
#     4  11  22  45  69  98 135 177 224 282 343 410
#     4  12  27  42  67 101 139 183 232 286 350 418
#     4  10  23  41  71  98 131 181 228 278 342 406
#     4  12  25  43  69 101 134 188 226 291 354 415
#     4  10  24  42  68  92 134 182 220 294 342 408
#     4  11  25  44  70  98 138 178 225 281 347 406
#     4  12  24  42  69  98 141 178 235 286 352 419
#     4  11  23  44  66  98 136 175 236 281 349 415
#
# _framework density 21.531551
#
# number of rings (size 3 to 8) (size 9 to 14) (size 15 to 20)
#    0.000    0.800    3.333    3.200    5.600    3.200 
#    2.400    0.000    0.000    0.000    0.000    0.000 
#    0.000    0.000    0.000    0.000    0.000    0.000 
#
# Total GULP energy -372242.797327 kJ/mol
# GULP energy per Si atom -12408.093244 kJ/mol
# Density = 2.148254 g / cm^3
# Si number density = 21.531551 Si / 1000 Ang^3
#
#
#
# Elastic Constant Matrix: (Units=GPa)
#
#
# Indices 1 2 3 4 5 6 
#
# 1 101.4589 23.9489 17.4778 0.0000 -27.1900 0.0000
# 2 23.9489 74.6122 11.5728 0.0000 -5.4928 0.0000
# 3 17.4778 11.5728 83.5592 0.0000 -7.3603 0.0000
# 4 0.0000 0.0000 0.0000 26.9243 0.0000 -4.0911
# 5 -27.1900 -5.4928 -7.3603 0.0000 37.7370 0.0000
# 6 0.0000 0.0000 0.0000 -4.0911 0.0000 31.3409
#
#
#
# Elastic Compliance Matrix: (Units=1/GPa)
#
#
# Indices 1 2 3 4 5 6 
#
# 1 0.013267 -0.003375 -0.001535 0.000000 0.008769 0.000000
# 2 -0.003375 0.014657 -0.001374 0.000000 -0.000566 0.000000
# 3 -0.001535 -0.001374 0.012580 0.000000 0.001147 0.000000
# 4 0.000000 0.000000 0.000000 0.037893 0.000000 0.004946
# 5 0.008769 -0.000566 0.001147 0.000000 0.032958 0.000000
# 6 0.000000 0.000000 0.000000 0.004946 0.000000 0.032553
#
#
# Mechanical properties :
#
#
# Convention : Reuss Voigt Hill
#
# Bulk Modulus (GPa) = 35.79560 40.62548 38.21054
# Shear Modulus (GPa) = 30.15883 32.97581 31.56732
#
# Velocity S-wave (km/s) = 3.74663 3.91770 3.83312
# Velocity P-wave (km/s) = 5.94786 6.27482 6.11353
#
# Compressibility (1/GPa) = 0.02793639
#
# Stress axis : x y z
#
# Youngs Moduli (GPa) = 75.37406 68.22529 79.49089
#
# Poissons Ratio (x) = 0.23025 0.12204
# Poissons Ratio (y) = 0.25437 0.10922
# Poissons Ratio (z) = 0.11572 0.09374
#
# Static dielectric constant tensor:
#      x y z
#    x 3.976320 0.000000 -0.128160 
#    y 0.000000 4.149860 0.000000 
#    z -0.128160 0.000000 3.904940 
# 
# 
# High freq. dielectric constant tensor:
#      x y z
#    x 1.852570 0.000000 -0.011270 
#    y 0.000000 1.854750 0.000000 
#    z -0.011270 0.000000 1.849420 
# 
# From -- ./inp_files/61873.got.cif
#   From: 2010.06.25/outbox.cif.g09.slc.cpg/sg15_31_cif.got.tgz:61873.got - 2010.06.28 07:06:18.
