data_PCOD8148249
_publ_section_title
;
Structure prediction by ZEFSAII (Michael W. Deem and Ramdas Pophale) SiO2 
 PCOD8148249
Probable space group: C 2/C
;
_chemical_formula_sum "Si O2"
_cell_formula_units_Z 48
_cell_length_a 12.480315
_cell_length_b 18.702495
_cell_length_c 12.801174
_cell_angle_alpha 90.000000
_cell_angle_beta 131.804030
_cell_angle_gamma 90.000000
_cell_volume 2227.312976
_symmetry_space_group_name_H-M "C 2/C"
_symmetry_group_IT_number 15
_symmetry_cell_setting 'monoclinic'
loop_
_space_group_symop_operation_xyz
x,y,z
-x,y,1/2-z
-x,-y,-z
x,-y,1/2+z
1/2+x,1/2+y,z
1/2-x,1/2+y,1/2-z
1/2-x,1/2-y,-z
1/2+x,1/2-y,1/2+z
loop_
_atom_site_type_symbol
_atom_site_label
_atom_site_fract_x
_atom_site_fract_y
_atom_site_fract_z
Si Si1 0.154441 0.606003 0.396194
Si Si2 0.357843 0.756564 0.713001
Si Si3 0.109179 0.719051 0.032285
Si Si4 0.149634 0.627654 0.625797
Si Si5 0.131773 0.152428 0.405857
Si Si6 0.171218 0.453908 0.341569
O O1 0.229731 0.682069 0.413063
O O2 0.138196 0.586867 0.508009
O O3 0.221469 0.536659 0.383335
O O4 0.000000 0.624261 0.250000
O O5 0.500000 0.725720 0.750000
O O6 0.254370 0.692538 0.672395
O O7 0.410338 0.787928 0.857123
O O8 0.072006 0.797549 0.961124
O O9 0.996530 0.659390 0.918211
O O10 0.272075 0.701523 0.107063
O O11 0.210203 0.572175 0.750278
O O12 0.231354 0.088969 0.513159
O O13 0.000000 0.122297 0.250000
O O14 0.000000 0.448116 0.250000
#
# Coordination Sequence:
#
# PCOD8148249 Si02
#       6
#     8   8   8   8   8   8
#     4  10  23  40  64 100 130 172 225 272 329 394
#     4  11  22  40  65 101 134 173 222 275 335 395
#     4  11  22  38  67  99 130 174 223 278 326 395
#     4  12  22  42  70  96 132 171 227 279 329 393
#     4  11  24  41  65 100 139 173 222 278 335 394
#     4  11  24  42  69  99 131 176 225 273 335 398
#
# _framework density 21.550630000000002
#
# number of rings (size 3 to 8) (size 9 to 14) (size 15 to 20)
#    0.000    1.000    6.667    1.500    2.333    4.000 
#    0.000    0.833    0.000    4.000    0.000    0.000 
#    0.000    0.000    0.000    0.000    0.000    0.000 
#
# Total GULP energy -297462.036164 kJ/mol
# GULP energy per Si atom -12394.251507 kJ/mol
# Density = 2.150158 g / cm^3
# Si number density = 21.550630 Si / 1000 Ang^3
#
#
#
# Elastic Constant Matrix: (Units=GPa)
#
#
# Indices 1 2 3 4 5 6 
#
# 1 86.8652 40.6900 37.6306 0.0000 -14.9065 0.0000
# 2 40.6900 123.2626 32.4979 0.0000 -4.0263 0.0000
# 3 37.6306 32.4979 102.6866 0.0000 -4.8200 0.0000
# 4 0.0000 0.0000 0.0000 -13.6221 0.0000 -6.9941
# 5 -14.9065 -4.0263 -4.8200 0.0000 34.9841 0.0000
# 6 0.0000 0.0000 0.0000 -6.9941 0.0000 32.2853
#
#
#
# Elastic Compliance Matrix: (Units=1/GPa)
#
#
# Indices 1 2 3 4 5 6 
#
# 1 0.016330 -0.004030 -0.004433 0.000000 0.005883 0.000000
# 2 -0.004030 0.009860 -0.001682 0.000000 -0.000814 0.000000
# 3 -0.004433 -0.001682 0.011874 0.000000 -0.000446 0.000000
# 4 0.000000 0.000000 0.000000 -0.066062 0.000000 -0.014311
# 5 0.005883 -0.000814 -0.000446 0.000000 0.030936 0.000000
# 6 0.000000 0.000000 0.000000 -0.014311 0.000000 0.027874
#
#
# Mechanical properties :
#
#
# Convention : Reuss Voigt Hill
#
# Bulk Modulus (GPa) = 56.25880 59.38347 57.82114
# Shear Modulus (GPa) = 87.68119 24.19585 55.93852
#
# Velocity S-wave (km/s) = 6.38549 3.35437 5.10031
# Velocity P-wave (km/s) = 8.97374 6.52821 7.84683
#
# Compressibility (1/GPa) = 0.01777500
#
# Stress axis : x y z
#
# Youngs Moduli (GPa) = 61.23845 101.42157 84.21693
#
# Poissons Ratio (x) = 0.40870 0.37331
# Poissons Ratio (y) = 0.24677 0.14164
# Poissons Ratio (z) = 0.27145 0.17058
#
# Static dielectric constant tensor:
#      x y z
#    x 3.860860 0.000000 -0.382140 
#    y 0.000000 3.897060 0.000000 
#    z -0.382140 0.000000 4.244560 
# 
# 
# High freq. dielectric constant tensor:
#      x y z
#    x 1.833180 0.000000 -0.019340 
#    y 0.000000 1.839690 0.000000 
#    z -0.019340 0.000000 1.852670 
# 
# From -- ./inp_files/89768.got.cif
#   From: 2010.06.25/outbox.cif.g09.slc.cpg/sg15_45_cif.got.tgz:89768.got - 2010.06.28 07:06:18.
