data_PCOD8148455
_publ_section_title
;
Structure prediction by ZEFSAII (Michael W. Deem and Ramdas Pophale) SiO2 
 PCOD8148455
Probable space group: C 2/C
;
_chemical_formula_sum "Si O2"
_cell_formula_units_Z 64
_cell_length_a 26.190522
_cell_length_b 10.380909
_cell_length_c 19.835717
_cell_angle_alpha 90.000000
_cell_angle_beta 29.496026
_cell_angle_gamma 90.000000
_cell_volume 2655.296482
_symmetry_space_group_name_H-M "C 2/C"
_symmetry_group_IT_number 15
_symmetry_cell_setting 'monoclinic'
loop_
_space_group_symop_operation_xyz
x,y,z
-x,y,1/2-z
-x,-y,-z
x,-y,1/2+z
1/2+x,1/2+y,z
1/2-x,1/2+y,1/2-z
1/2-x,1/2-y,-z
1/2+x,1/2-y,1/2+z
loop_
_atom_site_type_symbol
_atom_site_label
_atom_site_fract_x
_atom_site_fract_y
_atom_site_fract_z
Si Si1 0.757345 0.620064 0.308402
Si Si2 0.391803 0.476211 0.339836
Si Si3 0.329134 0.141458 0.082480
Si Si4 0.037010 0.167177 0.506453
Si Si5 0.038229 0.432237 0.279098
Si Si6 0.107089 0.706824 0.236230
Si Si7 0.260013 0.886389 0.385994
Si Si8 0.617968 0.441041 0.790518
O O1 0.820995 0.675458 0.171160
O O2 0.634019 0.622594 0.440068
O O3 0.788020 0.700707 0.339902
O O4 0.788714 0.470631 0.286722
O O5 0.500000 0.492052 0.250000
O O6 0.379054 0.328913 0.328809
O O7 0.302554 0.516835 0.493260
O O8 0.393019 0.577914 0.276523
O O9 0.306668 0.263792 0.059812
O O10 0.239175 0.037074 0.169473
O O11 0.441048 0.081415 0.940717
O O12 0.074882 0.182237 0.384467
O O13 0.988785 0.289752 0.599393
O O14 0.944022 0.064744 0.614129
O O15 0.082591 0.578126 0.222120
O O16 0.133809 0.344603 0.197295
O O17 0.000000 0.384560 0.250000
#
# Coordination Sequence:
#
# PCOD8148455 Si02
#       8
#     8   8   8   8   8   8   8   8
#     4  10  24  42  65  97 131 172 221 277 340 396
#     4  11  23  41  67  98 135 177 222 273 330 400
#     4  11  26  45  68  96 133 176 222 282 335 394
#     4   9  19  38  65  95 127 168 219 271 326 395
#     4  11  26  45  67  97 134 175 220 274 340 399
#     4  10  23  41  66 100 134 170 219 279 336 397
#     4  11  26  44  65  99 134 174 228 273 333 409
#     4   9  20  38  62  92 125 169 221 262 321 393
#
# _framework density 24.102771000000001
#
# number of rings (size 3 to 8) (size 9 to 14) (size 15 to 20)
#    0.000    1.750    0.000    2.625    0.000   21.500 
#    0.000    0.000    0.000    0.000    0.000    0.000 
#    0.000    0.000    0.000    0.000    0.000    0.000 
#
# Total GULP energy -396523.825503 kJ/mol
# GULP energy per Si atom -12391.369547 kJ/mol
# Density = 2.404791 g / cm^3
# Si number density = 24.102771 Si / 1000 Ang^3
#
#
#
# Elastic Constant Matrix: (Units=GPa)
#
#
# Indices 1 2 3 4 5 6 
#
# 1 134.2454 20.0068 44.9796 0.0002 -10.0993 0.0000
# 2 20.0068 47.6814 31.5762 0.0015 -5.1931 -0.0007
# 3 44.9796 31.5762 122.9058 0.0006 -14.5121 -0.0003
# 4 0.0002 0.0015 0.0006 46.3608 -0.0006 -2.8848
# 5 -10.0993 -5.1931 -14.5121 -0.0006 41.2562 0.0002
# 6 0.0000 -0.0007 -0.0003 -2.8848 0.0002 37.4883
#
#
#
# Elastic Compliance Matrix: (Units=1/GPa)
#
#
# Indices 1 2 3 4 5 6 
#
# 1 0.008660 -0.001813 -0.002588 0.000000 0.000982 0.000000
# 2 -0.001813 0.025687 -0.005849 -0.000001 0.000732 0.000000
# 3 -0.002588 -0.005849 0.010876 0.000000 0.002456 0.000000
# 4 0.000000 -0.000001 0.000000 0.021674 0.000000 0.001668
# 5 0.000982 0.000732 0.002456 0.000000 0.025435 0.000000
# 6 0.000000 0.000000 0.000000 0.001668 0.000000 0.026803
#
#
# Mechanical properties :
#
#
# Convention : Reuss Voigt Hill
#
# Bulk Modulus (GPa) = 40.44874 55.32864 47.88869
# Shear Modulus (GPa) = 33.81212 38.90572 36.35892
#
# Velocity S-wave (km/s) = 3.74950 4.02202 3.88815
# Velocity P-wave (km/s) = 5.96349 6.67638 6.32998
#
# Compressibility (1/GPa) = 0.02472265
#
# Stress axis : x y z
#
# Youngs Moduli (GPa) = 115.47215 38.93071 91.94536
#
# Poissons Ratio (x) = 0.07059 0.23792
# Poissons Ratio (y) = 0.20938 0.53781
# Poissons Ratio (z) = 0.29879 0.22772
#
# Static dielectric constant tensor:
#      x y z
#    x 4.779920 -0.000010 0.479060 
#    y -0.000010 4.212090 -0.000030 
#    z 0.479060 -0.000030 5.649520 
# 
# 
# High freq. dielectric constant tensor:
#      x y z
#    x 1.974450 0.000000 -0.003870 
#    y 0.000000 1.930390 0.000000 
#    z -0.003870 0.000000 1.965230 
# 
# From -- ./inp_files/257511.got.cif
#   From: 2010.06.25/outbox.cif.g09.slc.cpg/sg15_129_cif.got.tgz:257511.got - 2010.06.28 07:06:18.
