data_PCOD8148461
_publ_section_title
;
Structure prediction by ZEFSAII (Michael W. Deem and Ramdas Pophale) SiO2 
 PCOD8148461
Probable space group: C 2/C
;
_chemical_formula_sum "Si O2"
_cell_formula_units_Z 52
_cell_length_a 14.348432
_cell_length_b 11.870151
_cell_length_c 21.530765
_cell_angle_alpha 90.000000
_cell_angle_beta 138.472120
_cell_angle_gamma 90.000000
_cell_volume 2431.215548
_symmetry_space_group_name_H-M "C 2/C"
_symmetry_group_IT_number 15
_symmetry_cell_setting 'monoclinic'
loop_
_space_group_symop_operation_xyz
x,y,z
-x,y,1/2-z
-x,-y,-z
x,-y,1/2+z
1/2+x,1/2+y,z
1/2-x,1/2+y,1/2-z
1/2-x,1/2-y,-z
1/2+x,1/2-y,1/2+z
loop_
_atom_site_type_symbol
_atom_site_label
_atom_site_fract_x
_atom_site_fract_y
_atom_site_fract_z
Si Si1 0.624402 0.486508 0.431408
Si Si2 0.000000 0.391838 0.250000
Si Si3 0.670939 0.823021 0.011660
Si Si4 0.705292 0.518371 0.614481
Si Si5 0.333201 0.723725 0.357855
Si Si6 0.589013 0.304319 0.146928
Si Si7 0.411784 0.267288 0.595642
O O1 0.771996 0.450068 0.471268
O O2 0.649763 0.503003 0.517354
O O3 0.506498 0.391022 0.360754
O O4 0.570292 0.602517 0.374463
O O5 0.127054 0.474612 0.297337
O O6 0.044025 0.313295 0.327833
O O7 0.711333 0.782354 0.100501
O O8 0.750000 0.750000 0.000000
O O9 0.503598 0.805682 0.918360
O O10 0.662067 0.411242 0.633880
O O11 0.637816 0.632150 0.608614
O O12 0.221588 0.761282 0.250750
O O13 0.488171 0.761438 0.412970
O O14 0.250000 0.250000 0.500000
#
# Coordination Sequence:
#
# PCOD8148461 Si02
#       7
#     8   4   8   8   8   8   8
#     4  11  23  44  71  97 138 188 224 290 354 407
#     4  12  28  42  70 108 138 182 238 292 348 424
#     4  10  23  41  66 109 134 174 232 291 347 403
#     4  12  23  45  74 100 137 191 239 276 355 423
#     4  12  25  43  74 103 137 184 235 292 346 414
#     4  11  23  41  70 103 137 175 240 287 338 420
#     4  12  26  45  69  99 141 184 234 289 349 421
#
# _framework density 21.388477999999999
#
# number of rings (size 3 to 8) (size 9 to 14) (size 15 to 20)
#    0.000    0.615    7.692    1.385    2.154    3.692 
#    0.000    0.769    0.000    0.000    0.000    0.000 
#    0.000    0.000    0.000    0.000    0.000    0.000 
#
# Total GULP energy -322372.164663 kJ/mol
# GULP energy per Si atom -12398.929410 kJ/mol
# Density = 2.133980 g / cm^3
# Si number density = 21.388478 Si / 1000 Ang^3
#
#
#
# Elastic Constant Matrix: (Units=GPa)
#
#
# Indices 1 2 3 4 5 6 
#
# 1 123.0156 21.7013 46.7484 0.0000 9.5595 0.0000
# 2 21.7013 45.1254 20.5137 0.0000 -3.7779 0.0000
# 3 46.7484 20.5137 105.6555 0.0000 8.0401 0.0000
# 4 0.0000 0.0000 0.0000 27.2882 0.0000 15.1375
# 5 9.5595 -3.7779 8.0401 0.0000 39.8575 0.0000
# 6 0.0000 0.0000 0.0000 15.1375 0.0000 33.8578
#
#
#
# Elastic Compliance Matrix: (Units=1/GPa)
#
#
# Indices 1 2 3 4 5 6 
#
# 1 0.010315 -0.003431 -0.003742 0.000000 -0.002044 0.000000
# 2 -0.003431 0.025883 -0.003815 0.000000 0.004046 0.000000
# 3 -0.003742 -0.003815 0.012005 0.000000 -0.001886 0.000000
# 4 0.000000 0.000000 0.000000 0.048732 0.000000 -0.021788
# 5 -0.002044 0.004046 -0.001886 0.000000 0.026344 0.000000
# 6 0.000000 0.000000 0.000000 -0.021788 0.000000 0.039276
#
#
# Mechanical properties :
#
#
# Convention : Reuss Voigt Hill
#
# Bulk Modulus (GPa) = 38.12906 50.19147 44.16026
# Shear Modulus (GPa) = 25.86988 32.52290 29.19639
#
# Velocity S-wave (km/s) = 3.48159 3.90369 3.69867
# Velocity P-wave (km/s) = 5.83332 6.62087 6.23953
#
# Compressibility (1/GPa) = 0.02622672
#
# Stress axis : x y z
#
# Youngs Moduli (GPa) = 96.94316 38.63469 83.29920
#
# Poissons Ratio (x) = 0.13254 0.31175
# Poissons Ratio (y) = 0.33257 0.31782
# Poissons Ratio (z) = 0.36281 0.14741
#
# Static dielectric constant tensor:
#      x y z
#    x 4.445290 0.000000 0.471730 
#    y 0.000000 4.328810 0.000000 
#    z 0.471730 0.000000 3.693980 
# 
# 
# High freq. dielectric constant tensor:
#      x y z
#    x 1.849620 0.000000 0.017290 
#    y 0.000000 1.833920 0.000000 
#    z 0.017290 0.000000 1.838240 
# 
# From -- ./inp_files/273895.got.cif
#   From: 2010.06.25/outbox.cif.g09.slc.cpg/sg15_137_cif.got.tgz:273895.got - 2010.06.28 07:06:18.
