data_PCOD8148590
_publ_section_title
;
Structure prediction by ZEFSAII (Michael W. Deem and Ramdas Pophale) SiO2 
 PCOD8148590
Probable space group: C 2/C
;
_chemical_formula_sum "Si O2"
_cell_formula_units_Z 52
_cell_length_a 8.849841
_cell_length_b 11.228011
_cell_length_c 25.624332
_cell_angle_alpha 90.000000
_cell_angle_beta 70.078523
_cell_angle_gamma 90.000000
_cell_volume 2393.827422
_symmetry_space_group_name_H-M "C 2/C"
_symmetry_group_IT_number 15
_symmetry_cell_setting 'monoclinic'
loop_
_space_group_symop_operation_xyz
x,y,z
-x,y,1/2-z
-x,-y,-z
x,-y,1/2+z
1/2+x,1/2+y,z
1/2-x,1/2+y,1/2-z
1/2-x,1/2-y,-z
1/2+x,1/2-y,1/2+z
loop_
_atom_site_type_symbol
_atom_site_label
_atom_site_fract_x
_atom_site_fract_y
_atom_site_fract_z
Si Si1 0.302578 0.237229 0.623205
Si Si2 0.751046 0.878444 0.842778
Si Si3 0.514862 0.965482 0.438831
Si Si4 0.269695 0.009099 0.882301
Si Si5 0.953921 0.832666 0.154498
Si Si6 0.000000 0.973161 0.250000
Si Si7 0.493920 0.814376 0.311332
O O1 0.443151 0.175586 0.571979
O O2 0.297093 0.378683 0.621253
O O3 0.334283 0.198387 0.680145
O O4 0.141294 0.177456 0.621342
O O5 0.615295 0.799887 0.830103
O O6 0.878014 0.784157 0.853169
O O7 0.661715 0.959426 0.896054
O O8 0.848271 0.952994 0.788635
O O9 0.500000 0.000000 0.500000
O O10 0.339636 0.987429 0.433004
O O11 0.122116 0.097814 0.886300
O O12 0.420762 0.052765 0.828407
O O13 0.920144 0.898735 0.212709
O O14 0.500000 0.784262 0.250000
#
# Coordination Sequence:
#
# PCOD8148590 Si02
#       7
#     8   8   8   8   8   4   8
#     4  11  23  45  69  97 141 177 227 285 336 409
#     4  11  23  45  65  98 142 173 229 280 336 416
#     4  11  25  48  73  96 133 184 234 296 352 400
#     4  10  24  44  64 100 138 172 232 282 336 413
#     4  11  25  41  69 103 137 181 225 271 345 411
#     4  12  24  40  66 100 140 182 212 266 344 416
#     4  10  23  42  64 100 144 182 220 274 343 414
#
# _framework density 21.722535000000001
#
# number of rings (size 3 to 8) (size 9 to 14) (size 15 to 20)
#    0.000    1.231    3.846    0.923    4.308    0.615 
#    1.385    7.692    0.000    0.000    0.000    0.000 
#    0.000    0.000    0.000    0.000    0.000    0.000 
#
# Total GULP energy -322152.684980 kJ/mol
# GULP energy per Si atom -12390.487884 kJ/mol
# Density = 2.167309 g / cm^3
# Si number density = 21.722535 Si / 1000 Ang^3
#
#
#
# Elastic Constant Matrix: (Units=GPa)
#
#
# Indices 1 2 3 4 5 6 
#
# 1 123.0065 34.1477 34.3835 0.0000 22.2339 0.0000
# 2 34.1477 135.2141 34.0131 0.0000 -3.8664 0.0000
# 3 34.3835 34.0131 97.3825 0.0000 11.5462 0.0000
# 4 0.0000 0.0000 0.0000 12.2903 0.0000 -1.1065
# 5 22.2339 -3.8664 11.5462 0.0000 29.1321 0.0000
# 6 0.0000 0.0000 0.0000 -1.1065 0.0000 48.3436
#
#
#
# Elastic Compliance Matrix: (Units=1/GPa)
#
#
# Indices 1 2 3 4 5 6 
#
# 1 0.010772 -0.002429 -0.002038 0.000000 -0.007736 0.000000
# 2 -0.002429 0.008806 -0.002704 0.000000 0.004094 0.000000
# 3 -0.002038 -0.002704 0.012372 0.000000 -0.003707 0.000000
# 4 0.000000 0.000000 0.000000 0.081533 0.000000 0.001866
# 5 -0.007736 0.004094 -0.003707 0.000000 0.042243 0.000000
# 6 0.000000 0.000000 0.000000 0.001866 0.000000 0.020728
#
#
# Mechanical properties :
#
#
# Convention : Reuss Voigt Hill
#
# Bulk Modulus (GPa) = 56.78712 62.29909 59.54310
# Shear Modulus (GPa) = 25.42397 34.82377 30.12387
#
# Velocity S-wave (km/s) = 3.42482 4.00824 3.72796
# Velocity P-wave (km/s) = 6.46823 7.08259 6.78237
#
# Compressibility (1/GPa) = 0.01760963
#
# Stress axis : x y z
#
# Youngs Moduli (GPa) = 92.83453 113.55537 80.82708
#
# Poissons Ratio (x) = 0.27583 0.16470
# Poissons Ratio (y) = 0.22550 0.21852
# Poissons Ratio (z) = 0.18917 0.30701
#
# Static dielectric constant tensor:
#      x y z
#    x 4.294250 0.000000 0.127890 
#    y 0.000000 4.334270 0.000000 
#    z 0.127890 0.000000 3.471680 
# 
# 
# High freq. dielectric constant tensor:
#      x y z
#    x 1.876750 0.000000 0.015070 
#    y 0.000000 1.876510 0.000000 
#    z 0.015070 0.000000 1.796880 
# 
# From -- ./inp_files/287619.got.cif
#   From: 2010.06.25/outbox.cif.g09.slc.cpg/sg15_144_cif.got.tgz:287619.got - 2010.06.28 07:06:18.
