data_PCOD8148629
_publ_section_title
;
Structure prediction by ZEFSAII (Michael W. Deem and Ramdas Pophale) SiO2 
 PCOD8148629
Probable space group: C 2/C
;
_chemical_formula_sum "Si O2"
_cell_formula_units_Z 48
_cell_length_a 14.111646
_cell_length_b 27.514928
_cell_length_c 7.684218
_cell_angle_alpha 90.000000
_cell_angle_beta 39.571607
_cell_angle_gamma 90.000000
_cell_volume 1900.701221
_symmetry_space_group_name_H-M "C 2/C"
_symmetry_group_IT_number 15
_symmetry_cell_setting 'monoclinic'
loop_
_space_group_symop_operation_xyz
x,y,z
-x,y,1/2-z
-x,-y,-z
x,-y,1/2+z
1/2+x,1/2+y,z
1/2-x,1/2+y,1/2-z
1/2-x,1/2-y,-z
1/2+x,1/2-y,1/2+z
loop_
_atom_site_type_symbol
_atom_site_label
_atom_site_fract_x
_atom_site_fract_y
_atom_site_fract_z
Si Si1 0.084999 0.693369 0.448049
Si Si2 0.337658 0.641447 0.275636
Si Si3 0.170726 0.357774 0.371704
Si Si4 0.909079 0.201009 0.699661
Si Si5 0.336104 0.037497 0.479235
Si Si6 0.148302 0.041684 0.428497
O O1 0.234864 0.663677 0.269383
O O2 0.132273 0.745448 0.305604
O O3 0.989901 0.665858 0.435222
O O4 0.000000 0.700616 0.750000
O O5 0.263360 0.645877 0.565556
O O6 0.380110 0.586438 0.161718
O O7 0.486385 0.672954 0.084475
O O8 0.253279 0.329430 0.414502
O O9 0.145163 0.414300 0.435743
O O10 0.000000 0.199843 0.750000
O O11 0.500000 0.011383 0.250000
O O12 0.288872 0.052933 0.352717
O O13 0.200401 0.004734 0.742902
O O14 0.000000 0.030483 0.750000
#
# Coordination Sequence:
#
# PCOD8148629 Si02
#       6
#     8   8   8   8   8   8
#     4  10  23  42  65  94 130 175 226 278 335 400
#     4  11  23  43  68  96 132 175 225 279 338 401
#     4  11  24  43  68  96 132 177 224 278 339 400
#     4  12  25  40  63  97 135 177 226 278 334 399
#     4  12  26  45  70 100 137 178 226 280 341 407
#     4  12  26  45  70 101 138 177 226 281 341 408
#
# _framework density 25.253837999999998
#
# number of rings (size 3 to 8) (size 9 to 14) (size 15 to 20)
#    0.000    0.667    0.000    8.000    0.000   10.667 
#    0.000    0.000    0.000    0.000    0.000    0.000 
#    0.000    0.000    0.000    0.000    0.000    0.000 
#
# Total GULP energy -297649.788273 kJ/mol
# GULP energy per Si atom -12402.074511 kJ/mol
# Density = 2.519636 g / cm^3
# Si number density = 25.253838 Si / 1000 Ang^3
#
#
#
# Elastic Constant Matrix: (Units=GPa)
#
#
# Indices 1 2 3 4 5 6 
#
# 1 128.7269 24.9908 2.8640 0.0000 -10.6210 0.0000
# 2 24.9908 154.4112 44.5937 0.0000 0.8446 0.0000
# 3 2.8640 44.5937 17.7992 0.0000 -40.6608 0.0000
# 4 0.0000 0.0000 0.0000 12.7296 0.0000 28.8909
# 5 -10.6210 0.8446 -40.6608 0.0000 23.7208 0.0000
# 6 0.0000 0.0000 0.0000 28.8909 0.0000 -13.0105
#
#
#
# Elastic Compliance Matrix: (Units=1/GPa)
#
#
# Indices 1 2 3 4 5 6 
#
# 1 0.007825 -0.000471 -0.002731 0.000000 -0.001161 0.000000
# 2 -0.000471 0.005151 0.004709 0.000000 0.007677 0.000000
# 3 -0.002731 0.004709 -0.014284 0.000000 -0.025875 0.000000
# 4 0.000000 0.000000 0.000000 0.013007 0.000000 0.028882
# 5 -0.001161 0.007677 -0.025875 0.000000 -0.002989 0.000000
# 6 0.000000 0.000000 0.000000 0.028882 0.000000 -0.012726
#
#
# Mechanical properties :
#
#
# Convention : Reuss Voigt Hill
#
# Bulk Modulus (GPa) = 586.79579 49.53716 318.16648
# Shear Modulus (GPa) = -773.92047 19.92057 -376.99995
#
# Velocity S-wave (km/s) = -17.52489 2.81163 -12.23145
# Velocity P-wave (km/s) = 13.29031 5.49533 8.55668
#
# Compressibility (1/GPa) = 0.00170417
#
# Stress axis : x y z
#
# Youngs Moduli (GPa) = 127.79827 194.15014 -70.01024
#
# Poissons Ratio (x) = 0.09150 -0.19121
# Poissons Ratio (y) = 0.06023 0.32965
# Poissons Ratio (z) = 0.34904 -0.91418
#
# Static dielectric constant tensor:
#      x y z
#    x 4.850740 0.000000 -0.130960 
#    y 0.000000 4.410360 0.000000 
#    z -0.130960 0.000000 4.857330 
# 
# 
# High freq. dielectric constant tensor:
#      x y z
#    x 2.030000 0.000000 -0.001020 
#    y 0.000000 2.002070 0.000000 
#    z -0.001020 0.000000 2.034080 
# 
# From -- ./inp_files/43831.got.cif
#   From: 2010.06.25/outbox.cif.g09.slc.cpg/sg15_22_cif.got.tgz:43831.got - 2010.06.28 07:06:18.
