data_PCOD8148712
_publ_section_title
;
Structure prediction by ZEFSAII (Michael W. Deem and Ramdas Pophale) SiO2 
 PCOD8148712
Probable space group: C 2/C
;
_chemical_formula_sum "Si O2"
_cell_formula_units_Z 40
_cell_length_a 13.766694
_cell_length_b 7.725328
_cell_length_c 14.063423
_cell_angle_alpha 90.000000
_cell_angle_beta 109.484540
_cell_angle_gamma 90.000000
_cell_volume 1410.021250
_symmetry_space_group_name_H-M "C 2/C"
_symmetry_group_IT_number 15
_symmetry_cell_setting 'monoclinic'
loop_
_space_group_symop_operation_xyz
x,y,z
-x,y,1/2-z
-x,-y,-z
x,-y,1/2+z
1/2+x,1/2+y,z
1/2-x,1/2+y,1/2-z
1/2-x,1/2-y,-z
1/2+x,1/2-y,1/2+z
loop_
_atom_site_type_symbol
_atom_site_label
_atom_site_fract_x
_atom_site_fract_y
_atom_site_fract_z
Si Si1 0.052012 0.065265 0.669138
Si Si2 0.158724 0.467609 0.005119
Si Si3 0.228563 0.147824 0.301312
Si Si4 0.623731 0.983215 0.791441
Si Si5 0.501574 0.747865 0.466843
O O1 0.000000 0.134782 0.750000
O O2 0.053071 0.204630 0.585282
O O3 0.167136 0.002550 0.726185
O O4 0.986388 0.903223 0.606333
O O5 0.182881 0.407164 0.905306
O O6 0.062269 0.590370 0.945246
O O7 0.249474 0.576666 0.084446
O O8 0.118281 0.306988 0.056439
O O9 0.163005 0.322217 0.282777
O O10 0.337425 0.152307 0.277992
O O11 0.500000 0.979278 0.750000
#
# Coordination Sequence:
#
# PCOD8148712 Si02
#       5
#     8   8   8   8   8
#     4  11  24  44  68 102 147 190 236 301 361 423
#     4  11  23  43  69 101 140 186 239 300 358 422
#     4  12  25  44  73 107 142 191 248 294 360 440
#     4  12  27  48  73 106 150 194 239 301 364 424
#     4  10  23  42  68 101 140 189 243 290 358 438
#
# _framework density 28.368366000000002
#
# number of rings (size 3 to 8) (size 9 to 14) (size 15 to 20)
#    0.000    0.800    0.000    8.400    0.000    7.200 
#    0.000    5.000    0.000    0.000    0.000    0.000 
#    0.000    0.000    0.000    0.000    0.000    0.000 
#
# Total GULP energy -247974.228108 kJ/mol
# GULP energy per Si atom -12398.711405 kJ/mol
# Density = 2.830380 g / cm^3
# Si number density = 28.368366 Si / 1000 Ang^3
#
#
#
# Elastic Constant Matrix: (Units=GPa)
#
#
# Indices 1 2 3 4 5 6 
#
# 1 98.4279 -3.8939 14.4455 0.0000 12.4666 0.0000
# 2 -3.8939 61.8667 -8.1076 0.0000 3.9267 0.0000
# 3 14.4455 -8.1076 145.4894 0.0000 -3.6219 0.0000
# 4 0.0000 0.0000 0.0000 53.7634 0.0000 -5.5878
# 5 12.4666 3.9267 -3.6219 0.0000 31.9730 0.0000
# 6 0.0000 0.0000 0.0000 -5.5878 0.0000 32.2081
#
#
#
# Elastic Compliance Matrix: (Units=1/GPa)
#
#
# Indices 1 2 3 4 5 6 
#
# 1 0.010930 0.000822 -0.001151 0.000000 -0.004493 0.000000
# 2 0.000822 0.016461 0.000780 0.000000 -0.002254 0.000000
# 3 -0.001151 0.000780 0.007060 0.000000 0.001153 0.000000
# 4 0.000000 0.000000 0.000000 0.018942 0.000000 0.003286
# 5 -0.004493 -0.002254 0.001153 0.000000 0.033436 0.000000
# 6 0.000000 0.000000 0.000000 0.003286 0.000000 0.031618
#
#
# Mechanical properties :
#
#
# Convention : Reuss Voigt Hill
#
# Bulk Modulus (GPa) = 28.28704 34.51913 31.40308
# Shear Modulus (GPa) = 38.66102 43.81158 41.23630
#
# Velocity S-wave (km/s) = 3.69565 3.93413 3.81675
# Velocity P-wave (km/s) = 5.31069 5.72984 5.52424
#
# Compressibility (1/GPa) = 0.03535188
#
# Stress axis : x y z
#
# Youngs Moduli (GPa) = 91.48865 60.75061 141.64691
#
# Poissons Ratio (x) = -0.04995 0.16308
# Poissons Ratio (y) = -0.07523 -0.11042
# Poissons Ratio (z) = 0.10533 -0.04736
#
# Static dielectric constant tensor:
#      x y z
#    x 4.964870 0.000000 -0.207410 
#    y 0.000000 5.142770 0.000000 
#    z -0.207410 0.000000 5.476280 
# 
# 
# High freq. dielectric constant tensor:
#      x y z
#    x 2.134620 0.000000 0.002880 
#    y 0.000000 2.158720 0.000000 
#    z 0.002880 0.000000 2.177120 
# 
# From -- ./inp_files/150768.got.cif
#   From: 2010.06.25/outbox.cif.g09.slc.cpg/sg15_76_cif.got.tgz:150768.got - 2010.06.28 07:06:18.
