data_PCOD8148920
_publ_section_title
;
Structure prediction by ZEFSAII (Michael W. Deem and Ramdas Pophale) SiO2 
 PCOD8148920
Probable space group: C 2/C
;
_chemical_formula_sum "Si O2"
_cell_formula_units_Z 56
_cell_length_a 10.842591
_cell_length_b 9.485249
_cell_length_c 26.923722
_cell_angle_alpha 90.000000
_cell_angle_beta 113.693899
_cell_angle_gamma 90.000000
_cell_volume 2535.552921
_symmetry_space_group_name_H-M "C 2/C"
_symmetry_group_IT_number 15
_symmetry_cell_setting 'monoclinic'
loop_
_space_group_symop_operation_xyz
x,y,z
-x,y,1/2-z
-x,-y,-z
x,-y,1/2+z
1/2+x,1/2+y,z
1/2-x,1/2+y,1/2-z
1/2-x,1/2-y,-z
1/2+x,1/2-y,1/2+z
loop_
_atom_site_type_symbol
_atom_site_label
_atom_site_fract_x
_atom_site_fract_y
_atom_site_fract_z
Si Si1 0.516569 0.098623 0.549086
Si Si2 0.834238 0.574092 0.606816
Si Si3 0.989357 0.020200 0.344815
Si Si4 0.072232 0.914291 0.555105
Si Si5 0.572452 0.172802 0.704638
Si Si6 0.735925 0.295595 0.180657
Si Si7 0.733107 0.985581 0.160162
O O1 0.378114 0.117343 0.558508
O O2 0.563216 0.251485 0.539100
O O3 0.500000 0.000000 0.500000
O O4 0.623854 0.018728 0.599448
O O5 0.733379 0.441365 0.586501
O O6 0.748211 0.693970 0.622337
O O7 0.965014 0.557987 0.664533
O O8 0.003955 0.050761 0.405814
O O9 0.962496 0.166130 0.312680
O O10 0.124242 0.959675 0.342693
O O11 0.876519 0.901149 0.316403
O O12 0.000000 0.000000 0.500000
O O13 0.616895 0.161855 0.770432
O O14 0.710357 0.139204 0.696432
O O15 0.711392 0.131879 0.187188
#
# Coordination Sequence:
#
# PCOD8148920 Si02
#       7
#     8   8   8   8   8   8   8
#     4  11  26  44  67  98 136 178 228 282 340 401
#     4  10  23  43  67  95 137 171 223 281 328 406
#     4  11  24  45  66  99 140 172 228 283 330 411
#     4  11  25  44  69  99 133 181 227 277 347 401
#     4  11  22  44  68  97 134 179 223 278 341 405
#     4  11  23  40  72  97 129 183 225 270 352 401
#     4  11  24  44  67  98 138 173 226 284 332 405
#
# _framework density 22.085912
#
# number of rings (size 3 to 8) (size 9 to 14) (size 15 to 20)
#    0.000    1.143    4.286    1.286    6.000    5.143 
#    0.000    0.000    0.000    0.000    0.000    0.000 
#    0.000    0.000    0.000    0.000    0.000    0.000 
#
# Total GULP energy -346925.230231 kJ/mol
# GULP energy per Si atom -12390.186794 kJ/mol
# Density = 2.203564 g / cm^3
# Si number density = 22.085912 Si / 1000 Ang^3
#
#
#
# Elastic Constant Matrix: (Units=GPa)
#
#
# Indices 1 2 3 4 5 6 
#
# 1 108.9108 41.3170 24.9102 0.0000 3.6969 0.0000
# 2 41.3170 82.9500 39.4418 0.0000 15.0992 0.0000
# 3 24.9102 39.4418 123.9881 0.0000 -6.4188 0.0000
# 4 0.0000 0.0000 0.0000 37.9107 0.0000 3.0500
# 5 3.6969 15.0992 -6.4188 0.0000 32.6284 0.0000
# 6 0.0000 0.0000 0.0000 3.0500 0.0000 31.4772
#
#
#
# Elastic Compliance Matrix: (Units=1/GPa)
#
#
# Indices 1 2 3 4 5 6 
#
# 1 0.011400 -0.005718 -0.000406 0.000000 0.001274 0.000000
# 2 -0.005718 0.019179 -0.005434 0.000000 -0.009297 0.000000
# 3 -0.000406 -0.005434 0.010111 0.000000 0.004550 0.000000
# 4 0.000000 0.000000 0.000000 0.026585 0.000000 -0.002576
# 5 0.001274 -0.009297 0.004550 0.000000 0.035701 0.000000
# 6 0.000000 0.000000 0.000000 -0.002576 0.000000 0.032019
#
#
# Mechanical properties :
#
#
# Convention : Reuss Voigt Hill
#
# Bulk Modulus (GPa) = 56.89361 58.57633 57.73497
# Shear Modulus (GPa) = 30.49380 34.41525 32.45453
#
# Velocity S-wave (km/s) = 3.71980 3.95174 3.83752
# Velocity P-wave (km/s) = 6.65321 6.88486 6.77003
#
# Compressibility (1/GPa) = 0.01757666
#
# Stress axis : x y z
#
# Youngs Moduli (GPa) = 87.71616 52.13967 98.90392
#
# Poissons Ratio (x) = 0.29811 0.04012
# Poissons Ratio (y) = 0.50153 0.53741
# Poissons Ratio (z) = 0.03558 0.28331
#
# Static dielectric constant tensor:
#      x y z
#    x 4.537190 0.000000 -0.102620 
#    y 0.000000 3.858920 0.000000 
#    z -0.102620 0.000000 4.206720 
# 
# 
# High freq. dielectric constant tensor:
#      x y z
#    x 1.889920 0.000000 -0.008420 
#    y 0.000000 1.853350 0.000000 
#    z -0.008420 0.000000 1.875590 
# 
# From -- ./inp_files/310369.got.cif
#   From: 2010.06.25/outbox.cif.g09.slc.cpg/sg15_156_cif.got.tgz:310369.got - 2010.06.28 07:06:18.
