data_PCOD8148789
_publ_section_title
;
Structure prediction by ZEFSAII (Michael W. Deem and Ramdas Pophale) SiO2 
 PCOD8148789
Probable space group: C 2/C
;
_chemical_formula_sum "Si O2"
_cell_formula_units_Z 48
_cell_length_a 6.143947
_cell_length_b 28.845035
_cell_length_c 14.579326
_cell_angle_alpha 90.000000
_cell_angle_beta 53.294137
_cell_angle_gamma 90.000000
_cell_volume 2071.455981
_symmetry_space_group_name_H-M "C 2/C"
_symmetry_group_IT_number 15
_symmetry_cell_setting 'monoclinic'
loop_
_space_group_symop_operation_xyz
x,y,z
-x,y,1/2-z
-x,-y,-z
x,-y,1/2+z
1/2+x,1/2+y,z
1/2-x,1/2+y,1/2-z
1/2-x,1/2-y,-z
1/2+x,1/2-y,1/2+z
loop_
_atom_site_type_symbol
_atom_site_label
_atom_site_fract_x
_atom_site_fract_y
_atom_site_fract_z
Si Si1 0.461246 0.710562 0.928922
Si Si2 0.917665 0.578251 0.671771
Si Si3 0.501466 0.431401 0.551410
Si Si4 0.793843 0.978818 0.426570
Si Si5 0.000000 0.846844 0.250000
Si Si6 0.312090 0.335934 0.648933
Si Si7 0.500000 0.734003 0.250000
O O1 0.367534 0.684460 0.861482
O O2 0.756783 0.732008 0.838379
O O3 0.428441 0.673772 0.018577
O O4 0.250000 0.750000 0.000000
O O5 0.694210 0.546640 0.674884
O O6 0.755579 0.625816 0.729429
O O7 0.000000 0.556518 0.750000
O O8 0.189163 0.584661 0.544443
O O9 0.342187 0.441071 0.495780
O O10 0.492328 0.478926 0.614041
O O11 0.364398 0.391138 0.647704
O O12 0.500000 0.000000 0.500000
O O13 0.472453 0.300873 0.672497
O O14 0.000000 0.325514 0.750000
#
# Coordination Sequence:
#
# PCOD8148789 Si02
#       7
#     8   8   8   8   4   8   4
#     4  12  26  49  75 106 145 184 246 298 366 443
#     4  11  22  40  67 104 139 180 237 298 358 423
#     4  10  23  42  71  97 141 193 236 293 358 432
#     4   9  20  43  67  99 141 188 237 297 354 423
#     4  12  28  44  73 108 138 184 239 306 362 420
#     4  12  26  47  70 106 146 189 239 294 363 441
#     4  12  28  48  75 104 142 198 231 302 374 420
#
# _framework density 23.172105999999999
#
# number of rings (size 3 to 8) (size 9 to 14) (size 15 to 20)
#    0.000    1.000    1.667    4.500    5.833    2.667 
#    0.000   20.000    0.000    0.000    0.000    0.000 
#    0.000    0.000    0.000    0.000    0.000    0.000 
#
# Total GULP energy -297430.123511 kJ/mol
# GULP energy per Si atom -12392.921813 kJ/mol
# Density = 2.311937 g / cm^3
# Si number density = 23.172106 Si / 1000 Ang^3
#
#
#
# Elastic Constant Matrix: (Units=GPa)
#
#
# Indices 1 2 3 4 5 6 
#
# 1 119.5950 49.2706 51.2027 0.0000 13.6919 0.0000
# 2 49.2706 121.3309 51.2916 0.0000 9.6435 0.0000
# 3 51.2027 51.2916 121.2863 0.0000 7.0564 0.0000
# 4 0.0000 0.0000 0.0000 56.5551 0.0000 -14.3060
# 5 13.6919 9.6435 7.0564 0.0000 54.5063 0.0000
# 6 0.0000 0.0000 0.0000 -14.3060 0.0000 47.5423
#
#
#
# Elastic Compliance Matrix: (Units=1/GPa)
#
#
# Indices 1 2 3 4 5 6 
#
# 1 0.011254 -0.002995 -0.003376 0.000000 -0.001860 0.000000
# 2 -0.002995 0.010916 -0.003309 0.000000 -0.000751 0.000000
# 3 -0.003376 -0.003309 0.011069 0.000000 0.000000 0.000000
# 4 0.000000 0.000000 0.000000 0.019139 0.000000 0.005759
# 5 -0.001860 -0.000751 0.000000 0.000000 0.018947 0.000000
# 6 0.000000 0.000000 0.000000 0.005759 0.000000 0.022767
#
#
# Mechanical properties :
#
#
# Convention : Reuss Voigt Hill
#
# Bulk Modulus (GPa) = 72.04398 73.97131 73.00764
# Shear Modulus (GPa) = 42.34503 45.75055 44.04779
#
# Velocity S-wave (km/s) = 4.27946 4.44822 4.36466
# Velocity P-wave (km/s) = 7.45498 7.64029 7.54821
#
# Compressibility (1/GPa) = 0.01388041
#
# Stress axis : x y z
#
# Youngs Moduli (GPa) = 88.85890 91.60512 90.33923
#
# Poissons Ratio (x) = 0.27435 0.30500
# Poissons Ratio (y) = 0.26612 0.29889
# Poissons Ratio (z) = 0.30001 0.30308
#
# Static dielectric constant tensor:
#      x y z
#    x 4.484840 0.000000 0.363580 
#    y 0.000000 4.969440 0.000000 
#    z 0.363580 0.000000 4.018930 
# 
# 
# High freq. dielectric constant tensor:
#      x y z
#    x 1.925590 0.000000 -0.004440 
#    y 0.000000 1.929970 0.000000 
#    z -0.004440 0.000000 1.914990 
# 
# From -- ./inp_files/130643.got.cif
#   From: 2010.06.25/outbox.cif.g09.slc.cpg/sg15_66_cif.got.tgz:130643.got - 2010.06.28 07:06:18.
