data_PCOD8148866
_publ_section_title
;
Structure prediction by ZEFSAII (Michael W. Deem and Ramdas Pophale) SiO2 
 PCOD8148866
Probable space group: C 2/C
;
_chemical_formula_sum "Si O2"
_cell_formula_units_Z 48
_cell_length_a 27.448395
_cell_length_b 8.724396
_cell_length_c 9.758938
_cell_angle_alpha 90.000000
_cell_angle_beta 89.723800
_cell_angle_gamma 90.000000
_cell_volume 2336.952244
_symmetry_space_group_name_H-M "C 2/C"
_symmetry_group_IT_number 15
_symmetry_cell_setting 'monoclinic'
loop_
_space_group_symop_operation_xyz
x,y,z
-x,y,1/2-z
-x,-y,-z
x,-y,1/2+z
1/2+x,1/2+y,z
1/2-x,1/2+y,1/2-z
1/2-x,1/2-y,-z
1/2+x,1/2-y,1/2+z
loop_
_atom_site_type_symbol
_atom_site_label
_atom_site_fract_x
_atom_site_fract_y
_atom_site_fract_z
Si Si1 0.711665 0.598632 0.134854
Si Si2 0.297986 0.326188 0.170757
Si Si3 0.048915 0.318462 0.999644
Si Si4 0.404091 0.318051 0.246913
Si Si5 0.108284 0.828671 0.729043
Si Si6 0.563398 0.168344 0.980789
O O1 0.716761 0.431927 0.201171
O O2 0.761214 0.685919 0.165588
O O3 0.666035 0.686880 0.203587
O O4 0.703378 0.579442 0.971998
O O5 0.351508 0.257062 0.197438
O O6 0.081136 0.204876 0.088421
O O7 0.068685 0.490530 0.019959
O O8 0.054252 0.265458 0.842201
O O9 0.993244 0.297457 0.044638
O O10 0.406247 0.500469 0.225213
O O11 0.413274 0.274891 0.403660
O O12 0.092429 0.704894 0.841916
#
# Coordination Sequence:
#
# PCOD8148866 Si02
#       6
#     8   8   8   8   8   8
#     4  10  23  43  65  94 127 162 205 256 309 370
#     4  10  23  43  65  94 127 162 205 256 309 370
#     4  11  23  43  60  91 130 163 212 263 306 377
#     4  11  23  41  64  93 125 165 208 261 310 370
#     4  11  23  41  64  93 125 165 208 261 310 370
#     4  11  25  39  64  91 126 169 210 257 318 365
#
# _framework density 20.539572
#
# number of rings (size 3 to 8) (size 9 to 14) (size 15 to 20)
#    0.000    1.333    1.667    3.000    7.000   10.000 
#    0.000    0.000    0.000    0.000    0.000    0.000 
#    0.000    0.000    0.000    0.000    0.000    0.000 
#
# Total GULP energy -297736.478718 kJ/mol
# GULP energy per Si atom -12405.686613 kJ/mol
# Density = 2.049282 g / cm^3
# Si number density = 20.539572 Si / 1000 Ang^3
#
#
#
# Elastic Constant Matrix: (Units=GPa)
#
#
# Indices 1 2 3 4 5 6 
#
# 1 67.7704 33.6094 8.7932 0.0000 5.2450 0.0000
# 2 33.6094 43.4237 5.9833 0.0000 1.9422 0.0000
# 3 8.7932 5.9833 76.6642 0.0000 -0.5953 0.0000
# 4 0.0000 0.0000 0.0000 35.0202 0.0000 0.7140
# 5 5.2450 1.9422 -0.5953 0.0000 35.0886 0.0000
# 6 0.0000 0.0000 0.0000 0.7140 0.0000 26.0768
#
#
#
# Elastic Compliance Matrix: (Units=1/GPa)
#
#
# Indices 1 2 3 4 5 6 
#
# 1 0.024320 -0.018518 -0.001365 0.000000 -0.002634 0.000000
# 2 -0.018518 0.037440 -0.000793 0.000000 0.000682 0.000000
# 3 -0.001365 -0.000793 0.013266 0.000000 0.000473 0.000000
# 4 0.000000 0.000000 0.000000 0.028571 0.000000 -0.000782
# 5 -0.002634 0.000682 0.000473 0.000000 0.028863 0.000000
# 6 0.000000 0.000000 0.000000 -0.000782 0.000000 0.038370
#
#
# Mechanical properties :
#
#
# Convention : Reuss Voigt Hill
#
# Bulk Modulus (GPa) = 29.69486 31.62556 30.66021
# Shear Modulus (GPa) = 22.38089 28.53530 25.45810
#
# Velocity S-wave (km/s) = 3.30456 3.73135 3.52442
# Velocity P-wave (km/s) = 5.38971 5.83051 5.61443
#
# Compressibility (1/GPa) = 0.03367587
#
# Stress axis : x y z
#
# Youngs Moduli (GPa) = 41.11847 26.70947 75.38086
#
# Poissons Ratio (x) = 0.49459 0.10287
# Poissons Ratio (y) = 0.76141 0.05976
# Poissons Ratio (z) = 0.05611 0.02118
#
# Static dielectric constant tensor:
#      x y z
#    x 3.805070 0.000000 -0.020520 
#    y 0.000000 3.498540 0.000000 
#    z -0.020520 0.000000 3.779060 
# 
# 
# High freq. dielectric constant tensor:
#      x y z
#    x 1.812600 0.000000 0.000770 
#    y 0.000000 1.794210 0.000000 
#    z 0.000770 0.000000 1.817600 
# 
# From -- ./inp_files/26056.got.cif
#   From: 2010.06.25/outbox.cif.g09.slc.cpg/sg15_14_cif.got.tgz:26056.got - 2010.06.28 07:06:18.
