data_PCOD8148950
_publ_section_title
;
Structure prediction by ZEFSAII (Michael W. Deem and Ramdas Pophale) SiO2 
 PCOD8148950
Probable space group: C 2/C
;
_chemical_formula_sum "Si O2"
_cell_formula_units_Z 48
_cell_length_a 25.386386
_cell_length_b 11.050058
_cell_length_c 11.218257
_cell_angle_alpha 90.000000
_cell_angle_beta 45.807373
_cell_angle_gamma 90.000000
_cell_volume 2256.369229
_symmetry_space_group_name_H-M "C 2/C"
_symmetry_group_IT_number 15
_symmetry_cell_setting 'monoclinic'
loop_
_space_group_symop_operation_xyz
x,y,z
-x,y,1/2-z
-x,-y,-z
x,-y,1/2+z
1/2+x,1/2+y,z
1/2-x,1/2+y,1/2-z
1/2-x,1/2-y,-z
1/2+x,1/2-y,1/2+z
loop_
_atom_site_type_symbol
_atom_site_label
_atom_site_fract_x
_atom_site_fract_y
_atom_site_fract_z
Si Si1 0.310977 0.342776 0.357253
Si Si2 0.834018 0.685123 0.107084
Si Si3 0.516618 0.922740 0.091001
Si Si4 0.814266 0.079737 0.227997
Si Si5 0.597952 0.289425 0.727191
Si Si6 0.580612 0.454242 0.144804
O O1 0.250000 0.250000 0.500000
O O2 0.340186 0.297506 0.185249
O O3 0.284625 0.481159 0.372059
O O4 0.377153 0.350714 0.347014
O O5 0.754436 0.623146 0.242186
O O6 0.895964 0.591515 0.050654
O O7 0.846442 0.730273 0.953985
O O8 0.500000 0.979635 0.250000
O O9 0.473297 0.795583 0.145077
O O10 0.500000 0.000000 0.000000
O O11 0.853661 0.194398 0.229612
O O12 0.874684 0.020104 0.046369
O O13 0.569266 0.420911 0.733784
O O14 0.500000 0.399590 0.250000
#
# Coordination Sequence:
#
# PCOD8148950 Si02
#       6
#     8   8   8   8   8   8
#     4  11  24  41  63  96 129 164 216 273 330 387
#     4  11  22  43  65  91 135 170 214 273 328 398
#     4  10  24  46  69  98 131 182 221 274 337 403
#     4  11  24  40  68  98 127 177 220 269 338 395
#     4  10  23  43  68  94 132 172 221 273 338 393
#     4  11  23  41  65  99 129 169 219 273 332 393
#
# _framework density 21.273115000000001
#
# number of rings (size 3 to 8) (size 9 to 14) (size 15 to 20)
#    0.000    1.333    3.333    2.000    2.333    5.333 
#    3.000    0.000    0.000    0.000    0.000    0.000 
#    0.000    0.000    0.000    0.000    0.000    0.000 
#
# Total GULP energy -297508.441940 kJ/mol
# GULP energy per Si atom -12396.185081 kJ/mol
# Density = 2.122470 g / cm^3
# Si number density = 21.273115 Si / 1000 Ang^3
#
#
#
# Elastic Constant Matrix: (Units=GPa)
#
#
# Indices 1 2 3 4 5 6 
#
# 1 166.9733 62.3973 68.0206 0.0000 -10.4893 0.0000
# 2 62.3973 76.3769 44.9861 0.0000 1.3106 0.0000
# 3 68.0206 44.9861 100.4088 0.0000 -10.9445 0.0000
# 4 0.0000 0.0000 0.0000 33.9095 0.0000 9.9274
# 5 -10.4893 1.3106 -10.9445 0.0000 41.1234 0.0000
# 6 0.0000 0.0000 0.0000 9.9274 0.0000 34.7487
#
#
#
# Elastic Compliance Matrix: (Units=1/GPa)
#
#
# Indices 1 2 3 4 5 6 
#
# 1 0.009837 -0.005768 -0.003899 0.000000 0.001655 0.000000
# 2 -0.005768 0.021480 -0.006129 0.000000 -0.003787 0.000000
# 3 -0.003899 -0.006129 0.015715 0.000000 0.003383 0.000000
# 4 0.000000 0.000000 0.000000 0.032182 0.000000 -0.009194
# 5 0.001655 -0.003787 0.003383 0.000000 0.025760 0.000000
# 6 0.000000 0.000000 0.000000 -0.009194 0.000000 0.031405
#
#
# Mechanical properties :
#
#
# Convention : Reuss Voigt Hill
#
# Bulk Modulus (GPa) = 64.76686 77.17412 70.97049
# Shear Modulus (GPa) = 28.88178 33.17997 31.03088
#
# Velocity S-wave (km/s) = 3.68865 3.95361 3.82342
# Velocity P-wave (km/s) = 6.97517 7.56293 7.27499
#
# Compressibility (1/GPa) = 0.01544000
#
# Stress axis : x y z
#
# Youngs Moduli (GPa) = 101.65748 46.55395 63.63157
#
# Poissons Ratio (x) = 0.26854 0.24811
# Poissons Ratio (y) = 0.58639 0.39000
# Poissons Ratio (z) = 0.39638 0.28533
#
# Static dielectric constant tensor:
#      x y z
#    x 4.341110 0.000000 0.299360 
#    y 0.000000 3.609440 0.000000 
#    z 0.299360 0.000000 3.910380 
# 
# 
# High freq. dielectric constant tensor:
#      x y z
#    x 1.850280 0.000000 0.006410 
#    y 0.000000 1.814630 0.000000 
#    z 0.006410 0.000000 1.836240 
# 
# From -- ./inp_files/117426.got.cif
#   From: 2010.06.25/outbox.cif.g09.slc.cpg/sg15_59_cif.got.tgz:117426.got - 2010.06.28 07:06:18.
