data_PCOD8148575
_publ_section_title
;
Structure prediction by ZEFSAII (Michael W. Deem and Ramdas Pophale) SiO2 
 PCOD8148575
Probable space group: C 2/C
;
_chemical_formula_sum "Si O2"
_cell_formula_units_Z 40
_cell_length_a 8.971738
_cell_length_b 21.591005
_cell_length_c 9.012239
_cell_angle_alpha 90.000000
_cell_angle_beta 94.055961
_cell_angle_gamma 90.000000
_cell_volume 1741.378031
_symmetry_space_group_name_H-M "C 2/C"
_symmetry_group_IT_number 15
_symmetry_cell_setting 'monoclinic'
loop_
_space_group_symop_operation_xyz
x,y,z
-x,y,1/2-z
-x,-y,-z
x,-y,1/2+z
1/2+x,1/2+y,z
1/2-x,1/2+y,1/2-z
1/2-x,1/2-y,-z
1/2+x,1/2-y,1/2+z
loop_
_atom_site_type_symbol
_atom_site_label
_atom_site_fract_x
_atom_site_fract_y
_atom_site_fract_z
Si Si1 0.289973 0.748172 0.248024
Si Si2 0.672089 0.926042 0.942169
Si Si3 0.169058 0.548487 0.115503
Si Si4 0.281617 0.340223 0.478223
Si Si5 0.388859 0.688108 0.524086
O O1 0.242075 0.695361 0.128189
O O2 0.419983 0.722750 0.366093
O O3 0.155288 0.761490 0.355510
O O4 0.325235 0.811297 0.158467
O O5 0.494493 0.920254 0.907453
O O6 0.736295 0.946505 0.786122
O O7 0.759024 0.864344 0.000729
O O8 0.689734 0.977565 0.070744
O O9 0.262127 0.587418 0.002330
O O10 0.449024 0.337025 0.424964
#
# Coordination Sequence:
#
# PCOD8148575 Si02
#       5
#     8   8   8   8   8
#     4  10  24  40  60  94 132 162 200 260 318 372
#     4  10  23  42  63  90 126 165 208 258 313 371
#     4  10  23  42  63  90 126 165 208 258 313 371
#     4  11  23  42  66  94 126 165 213 259 310 373
#     4  11  23  42  66  94 126 165 213 259 310 373
#
# _framework density 22.970313999999998
#
# number of rings (size 3 to 8) (size 9 to 14) (size 15 to 20)
#    0.000    1.600    2.000    1.200    2.800   10.400 
#    0.000    0.000    0.000    0.000    0.000    0.000 
#    0.000    0.000    0.000    0.000    0.000    0.000 
#
# Total GULP energy -247767.419450 kJ/mol
# GULP energy per Si atom -12388.370973 kJ/mol
# Density = 2.291803 g / cm^3
# Si number density = 22.970314 Si / 1000 Ang^3
#
#
#
# Elastic Constant Matrix: (Units=GPa)
#
#
# Indices 1 2 3 4 5 6 
#
# 1 47.5606 22.3319 -3.9710 0.0000 3.3208 0.0000
# 2 22.3319 65.0394 10.3916 0.0000 4.4719 0.0000
# 3 -3.9710 10.3916 81.3732 0.0000 -6.4002 0.0000
# 4 0.0000 0.0000 0.0000 30.1833 0.0000 -10.7154
# 5 3.3208 4.4719 -6.4002 0.0000 22.8884 0.0000
# 6 0.0000 0.0000 0.0000 -10.7154 0.0000 33.8190
#
#
#
# Elastic Compliance Matrix: (Units=1/GPa)
#
#
# Indices 1 2 3 4 5 6 
#
# 1 0.025560 -0.009055 0.002302 0.000000 -0.001296 0.000000
# 2 -0.009055 0.019217 -0.003157 0.000000 -0.003324 0.000000
# 3 0.002302 -0.003157 0.013115 0.000000 0.003950 0.000000
# 4 0.000000 0.000000 0.000000 0.037330 0.000000 0.011828
# 5 -0.001296 -0.003324 0.003950 0.000000 0.045632 0.000000
# 6 0.000000 0.000000 0.000000 0.011828 0.000000 0.033317
#
#
# Mechanical properties :
#
#
# Convention : Reuss Voigt Hill
#
# Bulk Modulus (GPa) = 26.26631 27.94202 27.10416
# Shear Modulus (GPa) = 24.19155 28.39284 26.29220
#
# Velocity S-wave (km/s) = 3.24877 3.51959 3.38689
# Velocity P-wave (km/s) = 5.05296 5.35794 5.20768
#
# Compressibility (1/GPa) = 0.03807159
#
# Stress axis : x y z
#
# Youngs Moduli (GPa) = 39.12335 52.03608 76.24676
#
# Poissons Ratio (x) = 0.47119 -0.17550
# Poissons Ratio (y) = 0.35426 0.24074
# Poissons Ratio (z) = -0.09005 0.16430
#
# Static dielectric constant tensor:
#      x y z
#    x 3.761600 0.000000 -0.073360 
#    y 0.000000 3.967200 0.000000 
#    z -0.073360 0.000000 4.518650 
# 
# 
# High freq. dielectric constant tensor:
#      x y z
#    x 1.884840 0.000000 -0.014310 
#    y 0.000000 1.896420 0.000000 
#    z -0.014310 0.000000 1.932780 
# 
# From -- ./inp_files/23764.got.cif
#   From: 2010.06.25/outbox.cif.g09.slc.cpg/sg15_12_cif.got.tgz:23764.got - 2010.06.28 07:06:18.
