data_PCOD8148860
_publ_section_title
;
Structure prediction by ZEFSAII (Michael W. Deem and Ramdas Pophale) SiO2 
 PCOD8148860
Probable space group: C 2/C
;
_chemical_formula_sum "Si O2"
_cell_formula_units_Z 44
_cell_length_a 17.898988
_cell_length_b 9.083831
_cell_length_c 13.408732
_cell_angle_alpha 90.000000
_cell_angle_beta 102.012174
_cell_angle_gamma 90.000000
_cell_volume 2132.406526
_symmetry_space_group_name_H-M "C 2/C"
_symmetry_group_IT_number 15
_symmetry_cell_setting 'monoclinic'
loop_
_space_group_symop_operation_xyz
x,y,z
-x,y,1/2-z
-x,-y,-z
x,-y,1/2+z
1/2+x,1/2+y,z
1/2-x,1/2+y,1/2-z
1/2-x,1/2-y,-z
1/2+x,1/2-y,1/2+z
loop_
_atom_site_type_symbol
_atom_site_label
_atom_site_fract_x
_atom_site_fract_y
_atom_site_fract_z
Si Si1 0.871014 0.645246 0.198530
Si Si2 0.329836 0.219251 0.404678
Si Si3 0.021859 0.805687 0.936357
Si Si4 0.409004 0.391546 0.068676
Si Si5 0.247978 0.490017 0.472244
Si Si6 0.500000 0.912557 0.250000
O O1 0.831578 0.704308 0.286901
O O2 0.920620 0.775156 0.161079
O O3 0.805714 0.597029 0.104525
O O4 0.924885 0.509676 0.240979
O O5 0.414051 0.250739 0.469295
O O6 0.272941 0.353624 0.410480
O O7 0.297402 0.070057 0.444144
O O8 0.006501 0.684665 0.849804
O O9 0.048705 0.956440 0.890247
O O10 0.943955 0.830012 0.975431
O O11 0.319338 0.415925 0.029179
#
# Coordination Sequence:
#
# PCOD8148860 Si02
#       6
#     8   8   8   8   8   4
#     4  12  25  39  71 102 125 174 220 275 326 402
#     4  10  23  43  65  92 140 167 219 269 333 393
#     4  10  23  46  65  92 133 178 215 279 329 394
#     4  10  24  43  68  95 131 172 227 271 328 397
#     4  10  23  44  63  98 133 176 209 276 330 394
#     4  12  26  40  68  96 130 176 218 274 338 390
#
# _framework density 20.633963999999999
#
# number of rings (size 3 to 8) (size 9 to 14) (size 15 to 20)
#    0.000    1.455    1.818    1.636    5.091    8.000 
#    0.000    0.000    0.000    0.000    0.000    0.000 
#    0.000    0.000    0.000    0.000    0.000    0.000 
#
# Total GULP energy -272947.954326 kJ/mol
# GULP energy per Si atom -12406.725197 kJ/mol
# Density = 2.058700 g / cm^3
# Si number density = 20.633964 Si / 1000 Ang^3
#
#
#
# Elastic Constant Matrix: (Units=GPa)
#
#
# Indices 1 2 3 4 5 6 
#
# 1 63.6563 59.8222 37.9375 0.0000 -7.3336 0.0000
# 2 59.8222 95.3487 52.4556 0.0000 -14.2526 0.0000
# 3 37.9375 52.4556 96.2159 0.0000 -20.9324 0.0000
# 4 0.0000 0.0000 0.0000 7.7195 0.0000 -4.3814
# 5 -7.3336 -14.2526 -20.9324 0.0000 24.0021 0.0000
# 6 0.0000 0.0000 0.0000 -4.3814 0.0000 34.4151
#
#
#
# Elastic Compliance Matrix: (Units=1/GPa)
#
#
# Indices 1 2 3 4 5 6 
#
# 1 0.039366 -0.023306 -0.003961 0.000000 -0.005266 0.000000
# 2 -0.023306 0.028873 -0.005394 0.000000 0.005320 0.000000
# 3 -0.003961 -0.005394 0.017199 0.000000 0.010586 0.000000
# 4 0.000000 0.000000 0.000000 0.139632 0.000000 0.017777
# 5 -0.005266 0.005320 0.010586 0.000000 0.052445 0.000000
# 6 0.000000 0.000000 0.000000 0.017777 0.000000 0.031320
#
#
# Mechanical properties :
#
#
# Convention : Reuss Voigt Hill
#
# Bulk Modulus (GPa) = 49.71541 61.73904 55.72722
# Shear Modulus (GPa) = 13.12807 20.22772 16.67789
#
# Velocity S-wave (km/s) = 2.52511 3.13439 2.84610
# Velocity P-wave (km/s) = 5.71383 6.56393 6.15358
#
# Compressibility (1/GPa) = 0.02011449
#
# Stress axis : x y z
#
# Youngs Moduli (GPa) = 25.40266 34.63433 58.14234
#
# Poissons Ratio (x) = 0.80720 0.23032
# Poissons Ratio (y) = 0.59204 0.31364
# Poissons Ratio (z) = 0.10063 0.18683
#
# Static dielectric constant tensor:
#      x y z
#    x 3.861820 0.000000 -0.079560 
#    y 0.000000 3.962370 0.000000 
#    z -0.079560 0.000000 3.553070 
# 
# 
# High freq. dielectric constant tensor:
#      x y z
#    x 1.819390 0.000000 -0.005010 
#    y 0.000000 1.823240 0.000000 
#    z -0.005010 0.000000 1.798900 
# 
# From -- ./inp_files/109925.got.cif
#   From: 2010.06.25/outbox.cif.g09.slc.cpg/sg15_55_cif.got.tgz:109925.got - 2010.06.28 07:06:18.
