data_PCOD8148736
_publ_section_title
;
Structure prediction by ZEFSAII (Michael W. Deem and Ramdas Pophale) SiO2 
 PCOD8148736
Probable space group: C 2/C
;
_chemical_formula_sum "Si O2"
_cell_formula_units_Z 52
_cell_length_a 8.323429
_cell_length_b 19.623603
_cell_length_c 14.041293
_cell_angle_alpha 90.000000
_cell_angle_beta 83.650700
_cell_angle_gamma 90.000000
_cell_volume 2279.376345
_symmetry_space_group_name_H-M "C 2/C"
_symmetry_group_IT_number 15
_symmetry_cell_setting 'monoclinic'
loop_
_space_group_symop_operation_xyz
x,y,z
-x,y,1/2-z
-x,-y,-z
x,-y,1/2+z
1/2+x,1/2+y,z
1/2-x,1/2+y,1/2-z
1/2-x,1/2-y,-z
1/2+x,1/2-y,1/2+z
loop_
_atom_site_type_symbol
_atom_site_label
_atom_site_fract_x
_atom_site_fract_y
_atom_site_fract_z
Si Si1 0.255613 0.108111 0.675918
Si Si2 0.500000 0.718628 0.750000
Si Si3 0.193595 0.477813 0.716875
Si Si4 0.625868 0.941357 0.519619
Si Si5 0.906507 0.208959 0.400605
Si Si6 0.949782 0.700249 0.063006
Si Si7 0.000000 0.691688 0.750000
Si Si8 0.500000 0.394784 0.750000
O O1 0.247343 0.069913 0.574915
O O2 0.427419 0.145460 0.671031
O O3 0.129840 0.167756 0.697648
O O4 0.252989 0.054345 0.762154
O O5 0.547799 0.768814 0.831811
O O6 0.226141 0.468044 0.603138
O O7 0.326895 0.433636 0.766094
O O8 0.000000 0.462481 0.750000
O O9 0.547104 0.869528 0.552894
O O10 0.500000 0.000000 0.500000
O O11 0.009103 0.244086 0.479988
O O12 0.735812 0.182386 0.451425
O O13 0.870948 0.262176 0.315854
O O14 0.011123 0.148264 0.347519
#
# Coordination Sequence:
#
# PCOD8148736 Si02
#       8
#     8   4   8   8   8   8   4   4
#     4  12  25  48  70 107 146 191 250 298 382 434
#     4  12  29  44  74 109 150 186 244 322 364 451
#     4  12  26  48  76 105 154 199 249 316 370 454
#     4  12  26  45  79 109 143 201 255 302 378 463
#     4  10  23  42  69 101 146 182 243 306 367 447
#     4  11  25  43  71 107 141 192 243 305 382 436
#     4  11  18  44  68  94 134 193 224 298 365 438
#     4  11  27  46  70 113 142 199 250 302 379 443
#
# _framework density 22.813258000000001
#
# number of rings (size 3 to 8) (size 9 to 14) (size 15 to 20)
#    0.000    0.615    5.385    1.385    5.385    0.615 
#    0.000    1.538    0.000    0.000    0.000    0.000 
#    0.000    0.000    0.000    0.000    0.000    0.000 
#
# Total GULP energy -322113.908468 kJ/mol
# GULP energy per Si atom -12388.996480 kJ/mol
# Density = 2.276133 g / cm^3
# Si number density = 22.813258 Si / 1000 Ang^3
#
#
#
# Elastic Constant Matrix: (Units=GPa)
#
#
# Indices 1 2 3 4 5 6 
#
# 1 60.6464 35.4286 21.6244 0.0000 0.7213 0.0000
# 2 35.4286 110.6080 32.0891 0.0000 1.2762 0.0000
# 3 21.6244 32.0891 116.1826 0.0000 12.4882 0.0000
# 4 0.0000 0.0000 0.0000 41.5922 0.0000 -3.4992
# 5 0.7213 1.2762 12.4882 0.0000 28.0349 0.0000
# 6 0.0000 0.0000 0.0000 -3.4992 0.0000 30.5878
#
#
#
# Elastic Compliance Matrix: (Units=1/GPa)
#
#
# Indices 1 2 3 4 5 6 
#
# 1 0.020808 -0.006008 -0.002295 0.000000 0.000761 0.000000
# 2 -0.006008 0.011580 -0.002143 0.000000 0.000582 0.000000
# 3 -0.002295 -0.002143 0.010093 0.000000 -0.004339 0.000000
# 4 0.000000 0.000000 0.000000 0.024277 0.000000 0.002777
# 5 0.000761 0.000582 -0.004339 0.000000 0.037557 0.000000
# 6 0.000000 0.000000 0.000000 0.002777 0.000000 0.033010
#
#
# Mechanical properties :
#
#
# Convention : Reuss Voigt Hill
#
# Bulk Modulus (GPa) = 46.31969 51.74679 49.03324
# Shear Modulus (GPa) = 30.22741 33.26265 31.74503
#
# Velocity S-wave (km/s) = 3.64399 3.82257 3.73435
# Velocity P-wave (km/s) = 6.16870 6.49729 6.33512
#
# Compressibility (1/GPa) = 0.02158909
#
# Stress axis : x y z
#
# Youngs Moduli (GPa) = 48.05820 86.35405 99.08281
#
# Poissons Ratio (x) = 0.51880 0.22742
# Poissons Ratio (y) = 0.28873 0.21231
# Poissons Ratio (z) = 0.11031 0.18503
#
# Static dielectric constant tensor:
#      x y z
#    x 3.735960 0.000000 0.052720 
#    y 0.000000 4.285980 0.000000 
#    z 0.052720 0.000000 4.336920 
# 
# 
# High freq. dielectric constant tensor:
#      x y z
#    x 1.873250 0.000000 -0.000160 
#    y 0.000000 1.913580 0.000000 
#    z -0.000160 0.000000 1.914230 
# 
# From -- ./inp_files/136016.got.cif
#   From: 2010.06.25/outbox.cif.g09.slc.cpg/sg15_69_cif.got.tgz:136016.got - 2010.06.28 07:06:18.
