data_PCOD8148368
_publ_section_title
;
Structure prediction by ZEFSAII (Michael W. Deem and Ramdas Pophale) SiO2 
 PCOD8148368
Probable space group: C 2/C
;
_chemical_formula_sum "Si O2"
_cell_formula_units_Z 44
_cell_length_a 20.055584
_cell_length_b 20.036877
_cell_length_c 5.167270
_cell_angle_alpha 90.000000
_cell_angle_beta 76.926730
_cell_angle_gamma 90.000000
_cell_volume 2022.655127
_symmetry_space_group_name_H-M "C 2/C"
_symmetry_group_IT_number 15
_symmetry_cell_setting 'monoclinic'
loop_
_space_group_symop_operation_xyz
x,y,z
-x,y,1/2-z
-x,-y,-z
x,-y,1/2+z
1/2+x,1/2+y,z
1/2-x,1/2+y,1/2-z
1/2-x,1/2-y,-z
1/2+x,1/2-y,1/2+z
loop_
_atom_site_type_symbol
_atom_site_label
_atom_site_fract_x
_atom_site_fract_y
_atom_site_fract_z
Si Si1 0.182362 0.185657 0.740397
Si Si2 0.461514 0.783673 0.049064
Si Si3 0.000000 0.044277 0.250000
Si Si4 0.331289 0.831042 0.952938
Si Si5 0.079047 0.456016 0.701213
Si Si6 0.397201 0.652194 0.191010
O O1 0.258329 0.155225 0.646427
O O2 0.177014 0.266315 0.725563
O O3 0.137060 0.147297 0.563841
O O4 0.160376 0.171549 0.051482
O O5 0.500000 0.820714 0.250000
O O6 0.458908 0.704951 0.108826
O O7 0.500000 0.798782 0.750000
O O8 0.384600 0.810697 0.129131
O O9 0.069432 0.085665 0.226699
O O10 0.000000 0.000000 0.500000
O O11 0.366118 0.896406 0.793281
O O12 0.092857 0.491671 0.416285
O O13 0.000000 0.429276 0.750000
#
# Coordination Sequence:
#
# PCOD8148368 Si02
#       6
#     8   8   4   8   8   8
#     4  10  24  41  66  95 129 166 205 279 326 391
#     4  11  22  35  63  95 124 163 207 270 321 384
#     4  12  26  42  68  92 126 170 212 272 322 380
#     4  10  23  41  65  96 131 167 216 263 336 378
#     4  10  23  41  61  89 128 171 213 258 303 381
#     4  11  23  42  62  90 128 160 215 259 329 390
#
# _framework density 21.753585000000001
#
# number of rings (size 3 to 8) (size 9 to 14) (size 15 to 20)
#    0.000    1.455    0.909    3.818    1.273   16.000 
#    0.000    5.455    0.000    0.000    0.000    0.000 
#    0.000    0.000    0.000    0.000    0.000    0.000 
#
# Total GULP energy -272599.898481 kJ/mol
# GULP energy per Si atom -12390.904476 kJ/mol
# Density = 2.170407 g / cm^3
# Si number density = 21.753585 Si / 1000 Ang^3
#
#
#
# Elastic Constant Matrix: (Units=GPa)
#
#
# Indices 1 2 3 4 5 6 
#
# 1 121.7017 35.8713 33.7833 0.0000 -4.5844 0.0000
# 2 35.8713 105.5062 29.5797 0.0000 -10.7916 0.0000
# 3 33.7833 29.5797 120.6621 0.0000 7.9949 0.0000
# 4 0.0000 0.0000 0.0000 -91.6022 0.0000 -40.4231
# 5 -4.5844 -10.7916 7.9949 0.0000 32.4681 0.0000
# 6 0.0000 0.0000 0.0000 -40.4231 0.0000 21.4117
#
#
#
# Elastic Compliance Matrix: (Units=1/GPa)
#
#
# Indices 1 2 3 4 5 6 
#
# 1 0.009602 -0.002563 -0.002128 0.000000 0.001028 0.000000
# 2 -0.002563 0.011418 -0.002347 0.000000 0.004011 0.000000
# 3 -0.002128 -0.002347 0.009689 0.000000 -0.003466 0.000000
# 4 0.000000 0.000000 0.000000 -0.005955 0.000000 -0.011243
# 5 0.001028 0.004011 -0.003466 0.000000 0.033131 0.000000
# 6 0.000000 0.000000 0.000000 -0.011243 0.000000 0.025478
#
#
# Mechanical properties :
#
#
# Convention : Reuss Voigt Hill
#
# Bulk Modulus (GPa) = 60.12613 60.70427 60.41520
# Shear Modulus (GPa) = 48.55223 9.03123 28.79173
#
# Velocity S-wave (km/s) = 4.72944 2.03976 3.64200
# Velocity P-wave (km/s) = 7.58440 5.78908 6.74673
#
# Compressibility (1/GPa) = 0.01663170
#
# Stress axis : x y z
#
# Youngs Moduli (GPa) = 104.14882 87.58278 103.21453
#
# Poissons Ratio (x) = 0.22445 0.21966
# Poissons Ratio (y) = 0.26690 0.24227
# Poissons Ratio (z) = 0.22165 0.20558
#
# Static dielectric constant tensor:
#      x y z
#    x 4.181010 0.000000 0.005060 
#    y 0.000000 7.542130 0.000000 
#    z 0.005060 0.000000 3.847970 
# 
# 
# High freq. dielectric constant tensor:
#      x y z
#    x 1.863210 0.000000 0.004920 
#    y 0.000000 1.840460 0.000000 
#    z 0.004920 0.000000 1.857500 
# 
# From -- ./inp_files/12868.got.cif
#   From: 2010.06.25/outbox.cif.g09.slc.cpg/sg15_7_cif.got.tgz:12868.got - 2010.06.28 07:06:18.
