data_PCOD8148800
_publ_section_title
;
Structure prediction by ZEFSAII (Michael W. Deem and Ramdas Pophale) SiO2 
 PCOD8148800
Probable space group: C 2/C
;
_chemical_formula_sum "Si O2"
_cell_formula_units_Z 40
_cell_length_a 10.308584
_cell_length_b 19.559078
_cell_length_c 8.581908
_cell_angle_alpha 90.000000
_cell_angle_beta 100.332937
_cell_angle_gamma 90.000000
_cell_volume 1702.276716
_symmetry_space_group_name_H-M "C 2/C"
_symmetry_group_IT_number 15
_symmetry_cell_setting 'monoclinic'
loop_
_space_group_symop_operation_xyz
x,y,z
-x,y,1/2-z
-x,-y,-z
x,-y,1/2+z
1/2+x,1/2+y,z
1/2-x,1/2+y,1/2-z
1/2-x,1/2-y,-z
1/2+x,1/2-y,1/2+z
loop_
_atom_site_type_symbol
_atom_site_label
_atom_site_fract_x
_atom_site_fract_y
_atom_site_fract_z
Si Si1 0.818636 0.448716 0.466389
Si Si2 0.500000 0.005489 0.750000
Si Si3 0.589282 0.549407 0.414406
Si Si4 0.248410 0.194040 0.866721
Si Si5 0.361692 0.302042 0.464355
Si Si6 0.000000 0.731702 0.750000
O O1 0.937201 0.445927 0.367317
O O2 0.718424 0.507665 0.392588
O O3 0.738462 0.377821 0.453483
O O4 0.884621 0.458911 0.649879
O O5 0.500000 0.572135 0.250000
O O6 0.500000 0.500000 0.500000
O O7 0.651110 0.616487 0.509724
O O8 0.125510 0.206454 0.721377
O O9 0.371748 0.188368 0.770877
O O10 0.250000 0.250000 0.000000
O O11 0.250000 0.250000 0.500000
O O12 0.488113 0.277885 0.590034
#
# Coordination Sequence:
#
# PCOD8148800 Si02
#       6
#     8   4   8   8   8   4
#     4  11  24  44  67 104 136 182 241 286 366 419
#     4  10  23  42  72  92 139 180 230 304 343 430
#     4  12  25  42  72 105 148 188 235 303 367 442
#     4  11  25  41  67  99 134 179 235 292 342 431
#     4  10  23  44  67  96 138 186 235 285 359 431
#     4  10  23  44  66  90 137 182 224 282 363 408
#
# _framework density 23.497941000000001
#
# number of rings (size 3 to 8) (size 9 to 14) (size 15 to 20)
#    0.000    1.200    1.000    4.200    2.800   10.400 
#    0.000    0.000    0.000    0.000    0.000    0.000 
#    0.000    0.000    0.000    0.000    0.000    0.000 
#
# Total GULP energy -247774.922193 kJ/mol
# GULP energy per Si atom -12388.746110 kJ/mol
# Density = 2.344446 g / cm^3
# Si number density = 23.497941 Si / 1000 Ang^3
#
#
#
# Elastic Constant Matrix: (Units=GPa)
#
#
# Indices 1 2 3 4 5 6 
#
# 1 74.9383 20.7176 16.1242 0.0000 1.4634 0.0000
# 2 20.7176 161.6722 56.7683 0.0000 12.6343 0.0000
# 3 16.1242 56.7683 177.6431 0.0000 39.6450 0.0000
# 4 0.0000 0.0000 0.0000 33.2469 0.0000 3.5888
# 5 1.4634 12.6343 39.6450 0.0000 43.9645 0.0000
# 6 0.0000 0.0000 0.0000 3.5888 0.0000 27.1080
#
#
#
# Elastic Compliance Matrix: (Units=1/GPa)
#
#
# Indices 1 2 3 4 5 6 
#
# 1 0.013955 -0.001513 -0.000972 0.000000 0.000847 0.000000
# 2 -0.001513 0.007131 -0.002123 0.000000 -0.000085 0.000000
# 3 -0.000972 -0.002123 0.007828 0.000000 -0.006416 0.000000
# 4 0.000000 0.000000 0.000000 0.030514 0.000000 -0.004040
# 5 0.000847 -0.000085 -0.006416 0.000000 0.028528 0.000000
# 6 0.000000 0.000000 0.000000 -0.004040 0.000000 0.037424
#
#
# Mechanical properties :
#
#
# Convention : Reuss Voigt Hill
#
# Bulk Modulus (GPa) = 50.76534 66.83042 58.79788
# Shear Modulus (GPa) = 35.42021 42.24010 38.83016
#
# Velocity S-wave (km/s) = 3.88670 4.24442 4.06950
# Velocity P-wave (km/s) = 6.46475 7.24727 6.86716
#
# Compressibility (1/GPa) = 0.01969848
#
# Stress axis : x y z
#
# Youngs Moduli (GPa) = 71.65753 140.22890 127.75055
#
# Poissons Ratio (x) = 0.21219 0.12419
# Poissons Ratio (y) = 0.10843 0.27116
# Poissons Ratio (z) = 0.06966 0.29765
#
# Static dielectric constant tensor:
#      x y z
#    x 4.289900 0.000000 0.530830 
#    y 0.000000 4.084730 0.000000 
#    z 0.530830 0.000000 4.916860 
# 
# 
# High freq. dielectric constant tensor:
#      x y z
#    x 1.923430 0.000000 0.017430 
#    y 0.000000 1.926620 0.000000 
#    z 0.017430 0.000000 1.950130 
# 
# From -- ./inp_files/29371.got.cif
#   From: 2010.06.25/outbox.cif.g09.slc.cpg/sg15_15_cif.got.tgz:29371.got - 2010.06.28 07:06:18.
