data_PCOD8148935
_publ_section_title
;
Structure prediction by ZEFSAII (Michael W. Deem and Ramdas Pophale) SiO2 
 PCOD8148935
Probable space group: C 2/C
;
_chemical_formula_sum "Si O2"
_cell_formula_units_Z 40
_cell_length_a 10.920173
_cell_length_b 7.520591
_cell_length_c 22.287466
_cell_angle_alpha 90.000000
_cell_angle_beta 64.569482
_cell_angle_gamma 90.000000
_cell_volume 1653.031942
_symmetry_space_group_name_H-M "C 2/C"
_symmetry_group_IT_number 15
_symmetry_cell_setting 'monoclinic'
loop_
_space_group_symop_operation_xyz
x,y,z
-x,y,1/2-z
-x,-y,-z
x,-y,1/2+z
1/2+x,1/2+y,z
1/2-x,1/2+y,1/2-z
1/2-x,1/2-y,-z
1/2+x,1/2-y,1/2+z
loop_
_atom_site_type_symbol
_atom_site_label
_atom_site_fract_x
_atom_site_fract_y
_atom_site_fract_z
Si Si1 0.099730 0.459943 0.569564
Si Si2 0.412702 0.513442 0.213380
Si Si3 0.356594 0.340363 0.907855
Si Si4 0.829981 0.673648 0.164270
Si Si5 0.119277 0.881532 0.998989
O O1 0.126886 0.670026 0.550262
O O2 0.074414 0.324228 0.518284
O O3 0.241944 0.388274 0.570130
O O4 0.966958 0.445908 0.639072
O O5 0.500000 0.429590 0.250000
O O6 0.506114 0.658662 0.160687
O O7 0.275195 0.602225 0.265126
O O8 0.374246 0.370544 0.171902
O O9 0.228931 0.318926 0.890482
O O10 0.335841 0.524322 0.947669
O O11 0.000000 0.000000 0.000000
#
# Coordination Sequence:
#
# PCOD8148935 Si02
#       5
#     8   8   8   8   8
#     4  11  24  41  70  98 130 183 219 272 342 384
#     4  10  23  43  67  98 138 172 219 280 333 404
#     4  11  24  44  68  97 136 174 224 279 333 399
#     4  11  23  44  67 101 134 173 225 276 335 406
#     4  11  25  45  67 100 139 176 231 278 330 406
#
# _framework density 24.197962
#
# number of rings (size 3 to 8) (size 9 to 14) (size 15 to 20)
#    0.000    1.200    2.000    3.000    0.000    6.400 
#    0.000    0.000    0.000    0.000    0.000    0.000 
#    0.000    0.000    0.000    0.000    0.000    0.000 
#
# Total GULP energy -247772.256565 kJ/mol
# GULP energy per Si atom -12388.612828 kJ/mol
# Density = 2.414289 g / cm^3
# Si number density = 24.197962 Si / 1000 Ang^3
#
#
#
# Elastic Constant Matrix: (Units=GPa)
#
#
# Indices 1 2 3 4 5 6 
#
# 1 160.5550 43.0881 43.5188 0.0000 -22.2584 0.0000
# 2 43.0881 134.2221 25.1887 0.0000 8.5007 0.0000
# 3 43.5188 25.1887 46.7073 0.0000 -1.5468 0.0000
# 4 0.0000 0.0000 0.0000 42.8624 0.0000 2.9282
# 5 -22.2584 8.5007 -1.5468 0.0000 55.5922 0.0000
# 6 0.0000 0.0000 0.0000 2.9282 0.0000 38.9892
#
#
#
# Elastic Compliance Matrix: (Units=1/GPa)
#
#
# Indices 1 2 3 4 5 6 
#
# 1 0.009284 -0.001802 -0.007553 0.000000 0.003783 0.000000
# 2 -0.001802 0.008748 -0.003110 0.000000 -0.002146 0.000000
# 3 -0.007553 -0.003110 0.030067 0.000000 -0.001712 0.000000
# 4 0.000000 0.000000 0.000000 0.023451 0.000000 -0.001761
# 5 0.003783 -0.002146 -0.001712 0.000000 0.019783 0.000000
# 6 0.000000 0.000000 0.000000 -0.001761 0.000000 0.025780
#
#
# Mechanical properties :
#
#
# Convention : Reuss Voigt Hill
#
# Bulk Modulus (GPa) = 43.15921 62.78616 52.97269
# Shear Modulus (GPa) = 33.38542 42.80138 38.09340
#
# Velocity S-wave (km/s) = 3.71843 4.21027 3.97197
# Velocity P-wave (km/s) = 6.02580 7.04545 6.55548
#
# Compressibility (1/GPa) = 0.02317002
#
# Stress axis : x y z
#
# Youngs Moduli (GPa) = 107.71637 114.30627 33.25890
#
# Poissons Ratio (x) = 0.20603 0.25119
# Poissons Ratio (y) = 0.19415 0.10342
# Poissons Ratio (z) = 0.81353 0.35544
#
# Static dielectric constant tensor:
#      x y z
#    x 4.870570 0.000000 -0.501210 
#    y 0.000000 4.479510 0.000000 
#    z -0.501210 0.000000 4.366920 
# 
# 
# High freq. dielectric constant tensor:
#      x y z
#    x 1.984450 0.000000 -0.039540 
#    y 0.000000 1.962920 0.000000 
#    z -0.039540 0.000000 1.938180 
# 
# From -- ./inp_files/262428.got.cif
#   From: 2010.06.25/outbox.cif.g09.slc.cpg/sg15_132_cif.got.tgz:262428.got - 2010.06.28 07:06:18.
