data_PCOD8148893
_publ_section_title
;
Structure prediction by ZEFSAII (Michael W. Deem and Ramdas Pophale) SiO2 
 PCOD8148893
Probable space group: C 2/C
;
_chemical_formula_sum "Si O2"
_cell_formula_units_Z 64
_cell_length_a 8.743479
_cell_length_b 17.588849
_cell_length_c 19.973141
_cell_angle_alpha 90.000000
_cell_angle_beta 91.160106
_cell_angle_gamma 90.000000
_cell_volume 3070.994440
_symmetry_space_group_name_H-M "C 2/C"
_symmetry_group_IT_number 15
_symmetry_cell_setting 'monoclinic'
loop_
_space_group_symop_operation_xyz
x,y,z
-x,y,1/2-z
-x,-y,-z
x,-y,1/2+z
1/2+x,1/2+y,z
1/2-x,1/2+y,1/2-z
1/2-x,1/2-y,-z
1/2+x,1/2-y,1/2+z
loop_
_atom_site_type_symbol
_atom_site_label
_atom_site_fract_x
_atom_site_fract_y
_atom_site_fract_z
Si Si1 0.391758 0.277198 0.304982
Si Si2 0.423624 0.769074 0.579060
Si Si3 0.077910 0.724926 0.575496
Si Si4 0.913484 0.805352 0.687373
Si Si5 0.152714 0.972355 0.814353
Si Si6 0.847460 0.056865 0.816587
Si Si7 0.395894 0.925430 0.068851
Si Si8 0.414669 0.925605 0.920825
O O1 0.500000 0.240535 0.250000
O O2 0.473034 0.288565 0.377661
O O3 0.262154 0.215150 0.311336
O O4 0.340645 0.360585 0.281304
O O5 0.250710 0.746157 0.597440
O O6 0.450401 0.754769 0.501598
O O7 0.479923 0.853990 0.601472
O O8 0.972612 0.781072 0.615907
O O9 0.023185 0.638316 0.591258
O O10 0.938039 0.894486 0.695547
O O11 0.000000 0.763989 0.750000
O O12 0.288437 0.955701 0.867612
O O13 0.217854 0.000783 0.742415
O O14 0.021598 0.032078 0.838033
O O15 0.744614 0.066202 0.881556
O O16 0.468039 0.007422 0.068169
O O17 0.337014 0.906534 0.992628
#
# Coordination Sequence:
#
# PCOD8148893 Si02
#       8
#     8   8   8   8   8   8   8   8
#     4  12  24  42  66  96 129 173 225 277 338 408
#     4  10  23  43  67  97 134 175 222 282 342 404
#     4  10  23  43  67  97 134 175 222 282 342 404
#     4  12  24  42  66  96 129 173 225 277 338 408
#     4  11  24  44  64  93 135 173 217 277 340 402
#     4  11  24  44  64  93 135 173 217 277 340 402
#     4  10  23  43  66  96 131 174 225 271 334 411
#     4  10  23  43  66  96 131 174 225 271 334 411
#
# _framework density 20.840154999999999
#
# number of rings (size 3 to 8) (size 9 to 14) (size 15 to 20)
#    0.000    1.250    5.000    0.750    3.500    4.500 
#    0.000    0.000    0.000    0.000    0.000    0.000 
#    0.000    0.000    0.000    0.000    0.000    0.000 
#
# Total GULP energy -396470.090621 kJ/mol
# GULP energy per Si atom -12389.690332 kJ/mol
# Density = 2.079272 g / cm^3
# Si number density = 20.840155 Si / 1000 Ang^3
#
#
#
# Elastic Constant Matrix: (Units=GPa)
#
#
# Indices 1 2 3 4 5 6 
#
# 1 102.1577 15.3981 49.6324 0.0000 -9.9796 0.0000
# 2 15.3981 91.2621 19.8656 0.0000 -11.6512 0.0000
# 3 49.6324 19.8656 85.5898 0.0000 -5.7425 0.0000
# 4 0.0000 0.0000 0.0000 22.4714 0.0000 11.4736
# 5 -9.9796 -11.6512 -5.7425 0.0000 50.0001 0.0000
# 6 0.0000 0.0000 0.0000 11.4736 0.0000 9.3249
#
#
#
# Elastic Compliance Matrix: (Units=1/GPa)
#
#
# Indices 1 2 3 4 5 6 
#
# 1 0.013810 -0.000408 -0.007795 0.000000 0.001766 0.000000
# 2 -0.000408 0.011846 -0.002351 0.000000 0.002409 0.000000
# 3 -0.007795 -0.002351 0.016737 0.000000 -0.000181 0.000000
# 4 0.000000 0.000000 0.000000 0.119703 0.000000 -0.147286
# 5 0.001766 0.002409 -0.000181 0.000000 0.020893 0.000000
# 6 0.000000 0.000000 0.000000 -0.147286 0.000000 0.288465
#
#
# Mechanical properties :
#
#
# Convention : Reuss Voigt Hill
#
# Bulk Modulus (GPa) = 46.98214 49.86688 48.42451
# Shear Modulus (GPa) = 10.00686 29.30016 19.65351
#
# Velocity S-wave (km/s) = 2.19366 3.75366 3.07426
# Velocity P-wave (km/s) = 5.38602 6.53964 5.99066
#
# Compressibility (1/GPa) = 0.02128468
#
# Stress axis : x y z
#
# Youngs Moduli (GPa) = 72.41157 84.41947 59.74627
#
# Poissons Ratio (x) = 0.03443 0.46573
# Poissons Ratio (y) = 0.02953 0.14048
# Poissons Ratio (z) = 0.56445 0.19850
#
# Static dielectric constant tensor:
#      x y z
#    x 3.841530 0.000000 -0.048440 
#    y 0.000000 3.903210 0.000000 
#    z -0.048440 0.000000 4.181140 
# 
# 
# High freq. dielectric constant tensor:
#      x y z
#    x 1.808990 0.000000 -0.000850 
#    y 0.000000 1.825170 0.000000 
#    z -0.000850 0.000000 1.827180 
# 
# From -- ./inp_files/232712.got.cif
#   From: 2010.06.25/outbox.cif.g09.slc.cpg/sg15_117_cif.got.tgz:232712.got - 2010.06.28 07:06:18.
