data_PCOD8148956
_publ_section_title
;
Structure prediction by ZEFSAII (Michael W. Deem and Ramdas Pophale) SiO2 
 PCOD8148956
Probable space group: C 2/C
;
_chemical_formula_sum "Si O2"
_cell_formula_units_Z 44
_cell_length_a 27.540506
_cell_length_b 15.554585
_cell_length_c 13.603024
_cell_angle_alpha 90.000000
_cell_angle_beta 159.044240
_cell_angle_gamma 90.000000
_cell_volume 2084.108799
_symmetry_space_group_name_H-M "C 2/C"
_symmetry_group_IT_number 15
_symmetry_cell_setting 'monoclinic'
loop_
_space_group_symop_operation_xyz
x,y,z
-x,y,1/2-z
-x,-y,-z
x,-y,1/2+z
1/2+x,1/2+y,z
1/2-x,1/2+y,1/2-z
1/2-x,1/2-y,-z
1/2+x,1/2-y,1/2+z
loop_
_atom_site_type_symbol
_atom_site_label
_atom_site_fract_x
_atom_site_fract_y
_atom_site_fract_z
Si Si1 0.687458 0.934473 0.335204
Si Si2 0.654025 0.586252 0.564049
Si Si3 0.744285 0.757178 0.141945
Si Si4 0.108645 0.369826 0.717698
Si Si5 0.601103 0.454694 0.615935
Si Si6 0.500000 0.655078 0.750000
O O1 0.747213 0.931435 0.339326
O O2 0.793875 0.899326 0.618460
O O3 0.664026 0.034056 0.316447
O O4 0.554706 0.874756 0.088467
O O5 0.662817 0.684989 0.612474
O O6 0.691947 0.522379 0.725349
O O7 0.500000 0.562770 0.250000
O O8 0.843822 0.686004 0.285201
O O9 0.665308 0.819786 0.918585
O O10 0.634491 0.711314 0.002045
O O11 0.500000 0.500000 0.500000
O O12 0.509343 0.397826 0.369285
#
# Coordination Sequence:
#
# PCOD8148956 Si02
#       6
#     8   8   8   8   8   4
#     4  11  23  43  69  99 128 179 225 270 321 409
#     4  12  24  41  67  99 132 170 226 269 329 389
#     4  11  24  43  65  99 138 174 211 285 336 389
#     4  10  23  43  68  96 138 175 218 271 342 388
#     4  12  22  42  69  97 128 178 221 274 319 401
#     4  12  26  42  70  98 130 172 228 264 340 396
#
# _framework density 21.112141000000001
#
# number of rings (size 3 to 8) (size 9 to 14) (size 15 to 20)
#    0.000    0.727    4.545    3.273    2.545    1.455 
#    0.000    4.545    0.000    0.000    0.000    0.000 
#    0.000    0.000    0.000    0.000    0.000    0.000 
#
# Total GULP energy -272787.248015 kJ/mol
# GULP energy per Si atom -12399.420364 kJ/mol
# Density = 2.106409 g / cm^3
# Si number density = 21.112141 Si / 1000 Ang^3
#
#
#
# Elastic Constant Matrix: (Units=GPa)
#
#
# Indices 1 2 3 4 5 6 
#
# 1 127.3839 20.7535 41.4021 0.0000 11.8964 0.0000
# 2 20.7535 70.7121 16.3586 0.0000 5.8757 0.0000
# 3 41.4021 16.3586 96.9933 0.0000 14.0014 0.0000
# 4 0.0000 0.0000 0.0000 64.9856 0.0000 -26.1155
# 5 11.8964 5.8757 14.0014 0.0000 37.7841 0.0000
# 6 0.0000 0.0000 0.0000 -26.1155 0.0000 65.3326
#
#
#
# Elastic Compliance Matrix: (Units=1/GPa)
#
#
# Indices 1 2 3 4 5 6 
#
# 1 0.009420 -0.001838 -0.003512 0.000000 -0.001379 0.000000
# 2 -0.001838 0.015150 -0.001600 0.000000 -0.001185 0.000000
# 3 -0.003512 -0.001600 0.012555 0.000000 -0.003298 0.000000
# 4 0.000000 0.000000 0.000000 0.018333 0.000000 0.007328
# 5 -0.001379 -0.001185 -0.003298 0.000000 0.028307 0.000000
# 6 0.000000 0.000000 0.000000 0.007328 0.000000 0.018236
#
#
# Mechanical properties :
#
#
# Convention : Reuss Voigt Hill
#
# Bulk Modulus (GPa) = 43.05543 50.23531 46.64537
# Shear Modulus (GPa) = 40.43987 48.05879 44.24933
#
# Velocity S-wave (km/s) = 4.38137 4.77630 4.58309
# Velocity P-wave (km/s) = 6.78477 7.36638 7.08155
#
# Compressibility (1/GPa) = 0.02322588
#
# Stress axis : x y z
#
# Youngs Moduli (GPa) = 106.15836 66.00795 79.64974
#
# Poissons Ratio (x) = 0.12130 0.27973
# Poissons Ratio (y) = 0.19508 0.12742
# Poissons Ratio (z) = 0.37283 0.10559
#
# Static dielectric constant tensor:
#      x y z
#    x 3.996250 0.000000 -0.048060 
#    y 0.000000 3.940560 0.000000 
#    z -0.048060 0.000000 3.991330 
# 
# 
# High freq. dielectric constant tensor:
#      x y z
#    x 1.842190 0.000000 0.001040 
#    y 0.000000 1.826750 0.000000 
#    z 0.001040 0.000000 1.829440 
# 
# From -- ./inp_files/134967.got.cif
#   From: 2010.06.25/outbox.cif.g09.slc.cpg/sg15_68_cif.got.tgz:134967.got - 2010.06.28 07:06:18.
