data_PCOD8148565
_publ_section_title
;
Structure prediction by ZEFSAII (Michael W. Deem and Ramdas Pophale) SiO2 
 PCOD8148565
Probable space group: C 2/C
;
_chemical_formula_sum "Si O2"
_cell_formula_units_Z 48
_cell_length_a 7.859466
_cell_length_b 33.616914
_cell_length_c 13.589570
_cell_angle_alpha 90.000000
_cell_angle_beta 142.559465
_cell_angle_gamma 90.000000
_cell_volume 2182.808730
_symmetry_space_group_name_H-M "C 2/C"
_symmetry_group_IT_number 15
_symmetry_cell_setting 'monoclinic'
loop_
_space_group_symop_operation_xyz
x,y,z
-x,y,1/2-z
-x,-y,-z
x,-y,1/2+z
1/2+x,1/2+y,z
1/2-x,1/2+y,1/2-z
1/2-x,1/2-y,-z
1/2+x,1/2-y,1/2+z
loop_
_atom_site_type_symbol
_atom_site_label
_atom_site_fract_x
_atom_site_fract_y
_atom_site_fract_z
Si Si1 0.500000 0.844870 0.250000
Si Si2 0.058466 0.800837 0.480798
Si Si3 0.500000 0.465234 0.250000
Si Si4 0.246763 0.588742 0.200644
Si Si5 0.500000 0.259592 0.250000
Si Si6 0.945724 0.415536 0.371340
Si Si7 0.000000 0.358925 0.750000
Si Si8 0.587499 0.523358 0.444234
O O1 0.430584 0.872811 0.311862
O O2 0.770641 0.817156 0.397713
O O3 0.208807 0.765674 0.612771
O O4 0.296113 0.834489 0.584533
O O5 0.978976 0.787128 0.335422
O O6 0.655551 0.439263 0.237303
O O7 0.697495 0.493123 0.410125
O O8 0.500000 0.605688 0.250000
O O9 0.312539 0.544881 0.272900
O O10 0.203138 0.616206 0.274249
O O11 0.984350 0.588747 0.007083
O O12 0.183603 0.442428 0.427877
O O13 0.500000 0.500000 0.500000
#
# Coordination Sequence:
#
# PCOD8148565 Si02
#       8
#     4   8   4   8   4   8   4   8
#     4  12  26  42  69 102 138 174 228 278 342 398
#     4  10  23  44  72 104 138 176 217 265 334 409
#     4  12  24  39  60  83 127 174 222 280 351 387
#     4  10  23  42  62  92 134 171 236 286 336 416
#     4   9  22  47  72 104 139 172 218 260 325 424
#     4  11  25  42  58  95 129 168 230 286 334 413
#     4  11  24  40  73 101 134 192 222 280 352 397
#     4  11  23  41  62  85 122 176 228 290 350 399
#
# _framework density 21.990017000000002
#
# number of rings (size 3 to 8) (size 9 to 14) (size 15 to 20)
#    0.000    1.333    2.500    3.500    7.000    0.667 
#    0.000    0.000    3.667    0.000    0.000    0.000 
#    0.000    0.000    0.000    0.000    0.000    0.000 
#
# Total GULP energy -297430.360472 kJ/mol
# GULP energy per Si atom -12392.931686 kJ/mol
# Density = 2.193997 g / cm^3
# Si number density = 21.990017 Si / 1000 Ang^3
#
#
#
# Elastic Constant Matrix: (Units=GPa)
#
#
# Indices 1 2 3 4 5 6 
#
# 1 114.9643 67.5213 41.3004 0.0000 -11.5309 0.0000
# 2 67.5213 113.8635 50.9424 0.0000 -6.6339 0.0000
# 3 41.3004 50.9424 106.3643 0.0000 -4.4323 0.0000
# 4 0.0000 0.0000 0.0000 30.0453 0.0000 -1.7034
# 5 -11.5309 -6.6339 -4.4323 0.0000 37.3448 0.0000
# 6 0.0000 0.0000 0.0000 -1.7034 0.0000 35.9526
#
#
#
# Elastic Compliance Matrix: (Units=1/GPa)
#
#
# Indices 1 2 3 4 5 6 
#
# 1 0.013895 -0.007274 -0.001795 0.000000 0.002785 0.000000
# 2 -0.007274 0.015055 -0.004390 0.000000 -0.000093 0.000000
# 3 -0.001795 -0.004390 0.012206 0.000000 0.000115 0.000000
# 4 0.000000 0.000000 0.000000 0.033373 0.000000 0.001581
# 5 0.002785 -0.000093 0.000115 0.000000 0.027635 0.000000
# 6 0.000000 0.000000 0.000000 0.001581 0.000000 0.027889
#
#
# Mechanical properties :
#
#
# Convention : Reuss Voigt Hill
#
# Bulk Modulus (GPa) = 70.23893 72.74670 71.49282
# Shear Modulus (GPa) = 30.91833 32.36372 31.64102
#
# Velocity S-wave (km/s) = 3.75376 3.84050 3.79737
# Velocity P-wave (km/s) = 7.12729 7.26770 7.19783
#
# Compressibility (1/GPa) = 0.01423712
#
# Stress axis : x y z
#
# Youngs Moduli (GPa) = 71.96819 66.42469 81.92759
#
# Poissons Ratio (x) = 0.48319 0.14708
# Poissons Ratio (y) = 0.52352 0.35963
# Poissons Ratio (z) = 0.12920 0.29158
#
# Static dielectric constant tensor:
#      x y z
#    x 3.663120 0.000000 0.020900 
#    y 0.000000 4.057500 0.000000 
#    z 0.020900 0.000000 4.032600 
# 
# 
# High freq. dielectric constant tensor:
#      x y z
#    x 1.850600 0.000000 -0.006410 
#    y 0.000000 1.862340 0.000000 
#    z -0.006410 0.000000 1.876080 
# 
# From -- ./inp_files/139128.got.cif
#   From: 2010.06.25/outbox.cif.g09.slc.cpg/sg15_70_cif.got.tgz:139128.got - 2010.06.28 07:06:18.
