data_PCOD8148682
_publ_section_title
;
Structure prediction by ZEFSAII (Michael W. Deem and Ramdas Pophale) SiO2 
 PCOD8148682
Probable space group: C 2/C
;
_chemical_formula_sum "Si O2"
_cell_formula_units_Z 48
_cell_length_a 19.951272
_cell_length_b 13.068501
_cell_length_c 13.828640
_cell_angle_alpha 90.000000
_cell_angle_beta 142.591819
_cell_angle_gamma 90.000000
_cell_volume 2190.354671
_symmetry_space_group_name_H-M "C 2/C"
_symmetry_group_IT_number 15
_symmetry_cell_setting 'monoclinic'
loop_
_space_group_symop_operation_xyz
x,y,z
-x,y,1/2-z
-x,-y,-z
x,-y,1/2+z
1/2+x,1/2+y,z
1/2-x,1/2+y,1/2-z
1/2-x,1/2-y,-z
1/2+x,1/2-y,1/2+z
loop_
_atom_site_type_symbol
_atom_site_label
_atom_site_fract_x
_atom_site_fract_y
_atom_site_fract_z
Si Si1 0.668770 0.267817 0.996726
Si Si2 0.500000 0.104695 0.750000
Si Si3 0.061909 0.069684 0.646483
Si Si4 0.494235 0.213854 0.129131
Si Si5 0.276473 0.125096 0.786239
Si Si6 0.093126 0.479901 0.683655
Si Si7 0.000000 0.062004 0.250000
O O1 0.585253 0.172863 0.909975
O O2 0.595676 0.370008 0.906433
O O3 0.750000 0.250000 0.000000
O O4 0.737773 0.279121 0.175053
O O5 0.569354 0.036084 0.757065
O O6 0.187480 0.089044 0.761439
O O7 0.000063 0.178020 0.582528
O O8 0.063213 0.010543 0.748226
O O9 0.000000 0.000000 0.500000
O O10 0.500000 0.230071 0.250000
O O11 0.597029 0.141678 0.211998
O O12 0.381770 0.158209 0.969135
O O13 0.296908 0.027965 0.737462
O O14 0.000000 0.500000 0.500000
#
# Coordination Sequence:
#
# PCOD8148682 Si02
#       7
#     8   4   8   8   8   8   4
#     4  11  24  41  70 103 141 180 245 285 354 424
#     4  11  22  41  68 100 140 183 228 303 338 424
#     4  12  27  49  71 101 149 185 243 303 355 437
#     4  11  26  49  71 103 143 187 242 300 359 436
#     4  11  26  44  72 109 138 198 235 294 367 420
#     4  10  23  42  67 104 141 180 238 288 357 419
#     4  11  26  47  70 102 140 193 236 299 358 416
#
# _framework density 21.914259999999999
#
# number of rings (size 3 to 8) (size 9 to 14) (size 15 to 20)
#    0.000    1.000    5.000    0.000    7.000    6.000 
#    0.000    0.000    0.000    0.000    0.000    0.000 
#    0.000    0.000    0.000    0.000    0.000    0.000 
#
# Total GULP energy -297598.371477 kJ/mol
# GULP energy per Si atom -12399.932145 kJ/mol
# Density = 2.186438 g / cm^3
# Si number density = 21.914260 Si / 1000 Ang^3
#
#
#
# Elastic Constant Matrix: (Units=GPa)
#
#
# Indices 1 2 3 4 5 6 
#
# 1 143.7958 50.1858 32.6326 0.0000 -1.1712 0.0000
# 2 50.1858 148.9609 33.9689 0.0000 -5.1614 0.0000
# 3 32.6326 33.9689 87.7155 0.0000 -5.9606 0.0000
# 4 0.0000 0.0000 0.0000 22.2278 0.0000 -7.4200
# 5 -1.1712 -5.1614 -5.9606 0.0000 36.0442 0.0000
# 6 0.0000 0.0000 0.0000 -7.4200 0.0000 38.7611
#
#
#
# Elastic Compliance Matrix: (Units=1/GPa)
#
#
# Indices 1 2 3 4 5 6 
#
# 1 0.008252 -0.002291 -0.002212 0.000000 -0.000426 0.000000
# 2 -0.002291 0.008012 -0.002202 0.000000 0.000709 0.000000
# 3 -0.002212 -0.002202 0.013198 0.000000 0.001795 0.000000
# 4 0.000000 0.000000 0.000000 0.048060 0.000000 0.009200
# 5 -0.000426 0.000709 0.001795 0.000000 0.028128 0.000000
# 6 0.000000 0.000000 0.000000 0.009200 0.000000 0.027560
#
#
# Mechanical properties :
#
#
# Convention : Reuss Voigt Hill
#
# Bulk Modulus (GPa) = 62.29544 68.22742 65.26143
# Shear Modulus (GPa) = 32.90103 36.98562 34.94332
#
# Velocity S-wave (km/s) = 3.87893 4.11267 3.99751
# Velocity P-wave (km/s) = 6.96779 7.33168 7.15205
#
# Compressibility (1/GPa) = 0.01605254
#
# Stress axis : x y z
#
# Youngs Moduli (GPa) = 121.17935 124.81848 75.76754
#
# Poissons Ratio (x) = 0.28590 0.16759
# Poissons Ratio (y) = 0.27757 0.16686
# Poissons Ratio (z) = 0.26804 0.27489
#
# Static dielectric constant tensor:
#      x y z
#    x 3.958890 0.000000 0.184370 
#    y 0.000000 4.491210 0.000000 
#    z 0.184370 0.000000 3.832470 
# 
# 
# High freq. dielectric constant tensor:
#      x y z
#    x 1.872830 0.000000 -0.008080 
#    y 0.000000 1.872200 0.000000 
#    z -0.008080 0.000000 1.854660 
# 
# From -- ./inp_files/167953.got.cif
#   From: 2010.06.25/outbox.cif.g09.slc.cpg/sg15_84_cif.got.tgz:167953.got - 2010.06.28 07:06:18.
