data_PCOD8148088
_publ_section_title
;
Structure prediction by ZEFSAII (Michael W. Deem and Ramdas Pophale) SiO2 
 PCOD8148088
Probable space group: C 2/C
;
_chemical_formula_sum "Si O2"
_cell_formula_units_Z 56
_cell_length_a 8.281336
_cell_length_b 21.531578
_cell_length_c 27.281070
_cell_angle_alpha 90.000000
_cell_angle_beta 147.741908
_cell_angle_gamma 90.000000
_cell_volume 2596.345577
_symmetry_space_group_name_H-M "C 2/C"
_symmetry_group_IT_number 15
_symmetry_cell_setting 'monoclinic'
loop_
_space_group_symop_operation_xyz
x,y,z
-x,y,1/2-z
-x,-y,-z
x,-y,1/2+z
1/2+x,1/2+y,z
1/2-x,1/2+y,1/2-z
1/2-x,1/2-y,-z
1/2+x,1/2-y,1/2+z
loop_
_atom_site_type_symbol
_atom_site_label
_atom_site_fract_x
_atom_site_fract_y
_atom_site_fract_z
Si Si1 0.865391 0.923822 0.921784
Si Si2 0.283726 0.128070 0.794343
Si Si3 0.208614 0.346680 0.023234
Si Si4 0.817227 0.676410 0.516489
Si Si5 0.671205 0.558459 0.603564
Si Si6 0.816029 0.224524 0.809497
Si Si7 0.167687 0.360844 0.670992
O O1 0.518312 0.910166 0.845891
O O2 0.852652 0.986263 0.885436
O O3 0.006312 0.863210 0.931760
O O4 0.059711 0.936780 0.019595
O O5 0.518849 0.161049 0.890843
O O6 0.476017 0.081737 0.807931
O O7 0.118039 0.182331 0.720861
O O8 0.000000 0.094751 0.750000
O O9 0.450602 0.403564 0.083219
O O10 0.419842 0.285362 0.081917
O O11 0.010056 0.349204 0.020902
O O12 0.989383 0.345277 0.920904
O O13 0.750000 0.750000 0.500000
O O14 0.500000 0.202002 0.750000
O O15 0.805090 0.296600 0.791851
O O16 0.500000 0.389944 0.750000
#
# Coordination Sequence:
#
# PCOD8148088 Si02
#       7
#     8   8   8   8   8   8   8
#     4   9  20  41  60  89 121 162 205 256 306 357
#     4  11  22  38  60  95 122 161 200 256 309 362
#     4  11  21  39  62  88 125 164 209 251 311 369
#     4  11  24  37  62  94 129 160 200 256 321 369
#     4   9  20  39  65  84 121 164 210 249 298 371
#     4  11  21  36  62  92 126 157 208 253 303 377
#     4  10  23  38  63  89 121 167 204 252 314 373
#
# _framework density 21.568777999999998
#
# number of rings (size 3 to 8) (size 9 to 14) (size 15 to 20)
#    0.000    1.714    2.857    1.286    4.000    1.143 
#    0.000    0.714    6.286    0.000    0.000    0.000 
#    0.000    0.000    0.000    0.000    0.000    0.000 
#
# Total GULP energy -346993.465177 kJ/mol
# GULP energy per Si atom -12392.623756 kJ/mol
# Density = 2.151969 g / cm^3
# Si number density = 21.568778 Si / 1000 Ang^3
#
#
#
# Elastic Constant Matrix: (Units=GPa)
#
#
# Indices 1 2 3 4 5 6 
#
# 1 92.2560 46.5352 26.6649 0.0127 19.5962 0.0067
# 2 46.5352 133.0824 19.3215 0.0021 20.7575 -0.0065
# 3 26.6649 19.3215 91.6964 0.0097 31.8491 -0.0195
# 4 0.0127 0.0021 0.0097 14.7570 0.0134 2.1199
# 5 19.5962 20.7575 31.8491 0.0134 28.2558 0.0022
# 6 0.0067 -0.0065 -0.0195 2.1199 0.0022 21.1849
#
#
#
# Elastic Compliance Matrix: (Units=1/GPa)
#
#
# Indices 1 2 3 4 5 6 
#
# 1 0.014426 -0.003986 -0.001474 -0.000005 -0.005415 -0.000006
# 2 -0.003986 0.009609 0.001029 0.000006 -0.005455 0.000005
# 3 -0.001474 0.001029 0.018118 0.000005 -0.020156 0.000019
# 4 -0.000005 0.000006 0.000005 0.068753 -0.000038 -0.006880
# 5 -0.005415 -0.005455 -0.020156 -0.000038 0.065872 -0.000022
# 6 -0.000006 0.000005 0.000019 -0.006880 -0.000022 0.047892
#
#
# Mechanical properties :
#
#
# Convention : Reuss Voigt Hill
#
# Bulk Modulus (GPa) = 30.03821 55.78642 42.91232
# Shear Modulus (GPa) = 20.43899 27.80708 24.12304
#
# Velocity S-wave (km/s) = 3.08168 3.59448 3.34791
# Velocity P-wave (km/s) = 5.15939 6.56868 5.90622
#
# Compressibility (1/GPa) = 0.03329093
#
# Stress axis : x y z
#
# Youngs Moduli (GPa) = 69.31812 104.06606 55.19315
#
# Poissons Ratio (x) = 0.41479 0.08138
# Poissons Ratio (y) = 0.27629 -0.05679
# Poissons Ratio (z) = 0.10221 -0.10707
#
# Static dielectric constant tensor:
#      x y z
#    x 3.827620 -0.000020 0.282290 
#    y -0.000020 3.982700 -0.000020 
#    z 0.282290 -0.000020 4.009720 
# 
# 
# High freq. dielectric constant tensor:
#      x y z
#    x 1.837670 0.000000 0.021910 
#    y 0.000000 1.834830 0.000000 
#    z 0.021910 0.000000 1.850930 
# 
# From -- ./inp_files/309014.got.cif
#   From: 2010.06.25/outbox.cif.g09.slc.cpg/sg15_155_cif.got.tgz:309014.got - 2010.06.28 07:06:18.
