data_PCOD8148858
_publ_section_title
;
Structure prediction by ZEFSAII (Michael W. Deem and Ramdas Pophale) SiO2 
 PCOD8148858
Probable space group: C 2/C
;
_chemical_formula_sum "Si O2"
_cell_formula_units_Z 56
_cell_length_a 29.915296
_cell_length_b 8.250615
_cell_length_c 11.314366
_cell_angle_alpha 90.000000
_cell_angle_beta 65.395272
_cell_angle_gamma 90.000000
_cell_volume 2539.043345
_symmetry_space_group_name_H-M "C 2/C"
_symmetry_group_IT_number 15
_symmetry_cell_setting 'monoclinic'
loop_
_space_group_symop_operation_xyz
x,y,z
-x,y,1/2-z
-x,-y,-z
x,-y,1/2+z
1/2+x,1/2+y,z
1/2-x,1/2+y,1/2-z
1/2-x,1/2-y,-z
1/2+x,1/2-y,1/2+z
loop_
_atom_site_type_symbol
_atom_site_label
_atom_site_fract_x
_atom_site_fract_y
_atom_site_fract_z
Si Si1 0.203609 0.536838 0.314050
Si Si2 0.878650 0.352451 0.973861
Si Si3 0.216839 0.225409 0.148189
Si Si4 0.509105 0.397327 0.868271
Si Si5 0.954791 0.581653 0.985784
Si Si6 0.873070 0.745597 0.217312
Si Si7 0.615977 0.385648 0.814189
O O1 0.168053 0.472066 0.457901
O O2 0.212600 0.399142 0.210134
O O3 0.256804 0.591919 0.299728
O O4 0.179311 0.690831 0.275879
O O5 0.929354 0.456633 0.921822
O O6 0.878549 0.211485 0.070765
O O7 0.873314 0.258019 0.857980
O O8 0.162151 0.158757 0.178527
O O9 0.250000 0.250000 0.000000
O O10 0.500000 0.489530 0.750000
O O11 0.565328 0.336202 0.806714
O O12 0.500000 0.500000 0.000000
O O13 0.472789 0.244158 0.901342
O O14 0.914345 0.620424 0.129182
O O15 0.000000 0.500000 0.000000
O O16 0.885067 0.923884 0.156651
#
# Coordination Sequence:
#
# PCOD8148858 Si02
#       7
#     8   8   8   8   8   8   8
#     4  10  23  43  65 105 133 172 233 279 348 423
#     4  10  24  43  70  99 142 176 237 288 349 415
#     4  11  24  44  71  95 137 177 224 289 348 416
#     4  12  28  47  72 106 147 188 240 291 354 427
#     4  11  24  42  67 102 137 185 235 287 346 419
#     4  11  24  42  70  99 141 184 226 289 352 421
#     4  11  25  44  66 102 134 181 235 285 351 419
#
# _framework density 22.055551000000001
#
# number of rings (size 3 to 8) (size 9 to 14) (size 15 to 20)
#    0.000    1.143    2.857    1.714    4.000    5.714 
#    0.000    5.000    0.000    0.000    0.000    0.000 
#    0.000    0.000    0.000    0.000    0.000    0.000 
#
# Total GULP energy -347191.065526 kJ/mol
# GULP energy per Si atom -12399.680912 kJ/mol
# Density = 2.200535 g / cm^3
# Si number density = 22.055551 Si / 1000 Ang^3
#
#
#
# Elastic Constant Matrix: (Units=GPa)
#
#
# Indices 1 2 3 4 5 6 
#
# 1 108.2973 16.7655 55.3324 0.0000 -19.1413 0.0000
# 2 16.7655 98.1337 20.2998 0.0000 1.4019 0.0000
# 3 55.3324 20.2998 96.4208 0.0000 3.2441 0.0000
# 4 0.0000 0.0000 0.0000 27.2103 0.0000 -6.8777
# 5 -19.1413 1.4019 3.2441 0.0000 35.4292 0.0000
# 6 0.0000 0.0000 0.0000 -6.8777 0.0000 36.8295
#
#
#
# Elastic Compliance Matrix: (Units=1/GPa)
#
#
# Indices 1 2 3 4 5 6 
#
# 1 0.015692 -0.000927 -0.009124 0.000000 0.009350 0.000000
# 2 -0.000927 0.010711 -0.001697 0.000000 -0.000769 0.000000
# 3 -0.009124 -0.001697 0.016178 0.000000 -0.006344 0.000000
# 4 0.000000 0.000000 0.000000 0.038571 0.000000 0.007203
# 5 0.009350 -0.000769 -0.006344 0.000000 0.033888 0.000000
# 6 0.000000 0.000000 0.000000 0.007203 0.000000 0.028497
#
#
# Mechanical properties :
#
#
# Convention : Reuss Voigt Hill
#
# Bulk Modulus (GPa) = 52.40099 54.18302 53.29201
# Shear Modulus (GPa) = 28.83577 33.92407 31.37992
#
# Velocity S-wave (km/s) = 3.61974 3.92614 3.77605
# Velocity P-wave (km/s) = 6.42497 6.72107 6.57469
#
# Compressibility (1/GPa) = 0.01908361
#
# Stress axis : x y z
#
# Youngs Moduli (GPa) = 63.72709 93.36548 61.81177
#
# Poissons Ratio (x) = 0.08655 0.56400
# Poissons Ratio (y) = 0.05907 0.10490
# Poissons Ratio (z) = 0.58147 0.15845
#
# Static dielectric constant tensor:
#      x y z
#    x 4.760910 0.000000 -0.384460 
#    y 0.000000 4.016480 0.000000 
#    z -0.384460 0.000000 3.990340 
# 
# 
# High freq. dielectric constant tensor:
#      x y z
#    x 1.880590 0.000000 -0.014870 
#    y 0.000000 1.874400 0.000000 
#    z -0.014870 0.000000 1.861210 
# 
# From -- ./inp_files/121851.got.cif
#   From: 2010.06.25/outbox.cif.g09.slc.cpg/sg15_61_cif.got.tgz:121851.got - 2010.06.28 07:06:18.
