data_PCOD8148837
_publ_section_title
;
Structure prediction by ZEFSAII (Michael W. Deem and Ramdas Pophale) SiO2 
 PCOD8148837
Probable space group: C 2/C
;
_chemical_formula_sum "Si O2"
_cell_formula_units_Z 60
_cell_length_a 11.369719
_cell_length_b 22.525854
_cell_length_c 22.576774
_cell_angle_alpha 90.000000
_cell_angle_beta 150.022428
_cell_angle_gamma 90.000000
_cell_volume 2889.138104
_symmetry_space_group_name_H-M "C 2/C"
_symmetry_group_IT_number 15
_symmetry_cell_setting 'monoclinic'
loop_
_space_group_symop_operation_xyz
x,y,z
-x,y,1/2-z
-x,-y,-z
x,-y,1/2+z
1/2+x,1/2+y,z
1/2-x,1/2+y,1/2-z
1/2-x,1/2-y,-z
1/2+x,1/2-y,1/2+z
loop_
_atom_site_type_symbol
_atom_site_label
_atom_site_fract_x
_atom_site_fract_y
_atom_site_fract_z
Si Si1 0.438881 0.434531 0.490592
Si Si2 0.000000 0.625754 0.750000
Si Si3 0.798202 0.130237 0.490807
Si Si4 0.472935 0.046143 0.409707
Si Si5 0.943857 0.103144 0.333965
Si Si6 0.539392 0.912362 0.466886
Si Si7 0.739058 0.666720 0.748811
Si Si8 0.094629 0.703984 0.224265
O O1 0.500000 0.500000 0.500000
O O2 0.169571 0.418722 0.359324
O O3 0.587234 0.382923 0.522784
O O4 0.492848 0.436630 0.582758
O O5 0.882894 0.667665 0.749338
O O6 0.641477 0.072459 0.433553
O O7 0.632603 0.188547 0.415359
O O8 0.987475 0.137181 0.625612
O O9 0.203614 0.062701 0.276109
O O10 0.544480 0.077503 0.502565
O O11 0.521449 0.976374 0.428052
O O12 0.808483 0.160986 0.298646
O O13 0.199296 0.116999 0.416534
O O14 0.366382 0.868362 0.356914
O O15 0.696396 0.732003 0.754559
O O16 0.000000 0.697762 0.250000
#
# Coordination Sequence:
#
# PCOD8148837 Si02
#       8
#     8   4   8   8   8   8   8   8
#     4  11  22  37  69  97 133 166 207 270 336 397
#     4  10  24  44  58 102 128 162 222 270 322 392
#     4  10  23  43  64 100 127 173 217 272 331 395
#     4  10  25  41  66  95 140 171 218 271 331 400
#     4  11  23  44  65  97 133 176 216 272 336 394
#     4  11  24  44  64 101 129 178 222 270 326 400
#     4  11  25  43  70  93 129 174 225 274 328 388
#     4  11  24  45  67  95 132 173 221 276 324 394
#
# _framework density 20.767439
#
# number of rings (size 3 to 8) (size 9 to 14) (size 15 to 20)
#    0.000    1.333    2.667    1.600    7.467    1.600 
#    4.800    0.000    0.000    0.000    0.000    0.000 
#    0.000    0.000    0.000    0.000    0.000    0.000 
#
# Total GULP energy -371856.426945 kJ/mol
# GULP energy per Si atom -12395.214231 kJ/mol
# Density = 2.072017 g / cm^3
# Si number density = 20.767439 Si / 1000 Ang^3
#
#
#
# Elastic Constant Matrix: (Units=GPa)
#
#
# Indices 1 2 3 4 5 6 
#
# 1 57.0034 33.0990 29.2009 -0.0060 4.5135 -0.0049
# 2 33.0990 106.9528 49.4988 -0.0063 9.9492 -0.0003
# 3 29.2009 49.4988 147.2255 -0.0244 5.1577 0.0160
# 4 -0.0060 -0.0063 -0.0244 28.5101 -0.0071 3.3404
# 5 4.5135 9.9492 5.1577 -0.0071 35.3243 -0.0031
# 6 -0.0049 -0.0003 0.0160 3.3404 -0.0031 18.0835
#
#
#
# Elastic Compliance Matrix: (Units=1/GPa)
#
#
# Indices 1 2 3 4 5 6 
#
# 1 0.022146 -0.005629 -0.002469 0.000000 -0.000884 0.000008
# 2 -0.005629 0.012744 -0.003084 -0.000002 -0.002420 0.000001
# 3 -0.002469 -0.003084 0.008320 0.000007 -0.000031 -0.000009
# 4 0.000000 -0.000002 0.000007 0.035851 0.000006 -0.006623
# 5 -0.000884 -0.002420 -0.000031 0.000006 0.029108 0.000004
# 6 0.000008 0.000001 -0.000009 -0.006623 0.000004 0.056522
#
#
# Mechanical properties :
#
#
# Convention : Reuss Voigt Hill
#
# Bulk Modulus (GPa) = 47.96787 59.41992 53.69389
# Shear Modulus (GPa) = 25.77279 29.67578 27.72428
#
# Velocity S-wave (km/s) = 3.52663 3.78426 3.65771
# Velocity P-wave (km/s) = 6.30322 6.91146 6.61434
#
# Compressibility (1/GPa) = 0.02084729
#
# Stress axis : x y z
#
# Youngs Moduli (GPa) = 45.15510 78.46817 120.19503
#
# Poissons Ratio (x) = 0.44167 0.29677
# Poissons Ratio (y) = 0.25416 0.37062
# Poissons Ratio (z) = 0.11149 0.24196
#
# Static dielectric constant tensor:
#      x y z
#    x 3.933320 0.000000 0.052370 
#    y 0.000000 3.533410 -0.000020 
#    z 0.052370 -0.000020 4.046480 
# 
# 
# High freq. dielectric constant tensor:
#      x y z
#    x 1.822520 0.000000 0.001540 
#    y 0.000000 1.798420 0.000000 
#    z 0.001540 0.000000 1.829820 
# 
# From -- ./inp_files/271040.got.cif
#   From: 2010.06.25/outbox.cif.g09.slc.cpg/sg15_136_cif.got.tgz:271040.got - 2010.06.28 07:06:18.
