data_PCOD8148863
_publ_section_title
;
Structure prediction by ZEFSAII (Michael W. Deem and Ramdas Pophale) SiO2 
 PCOD8148863
Probable space group: C 2/C
;
_chemical_formula_sum "Si O2"
_cell_formula_units_Z 60
_cell_length_a 11.968520
_cell_length_b 13.684943
_cell_length_c 20.648074
_cell_angle_alpha 90.000000
_cell_angle_beta 120.896342
_cell_angle_gamma 90.000000
_cell_volume 2902.015474
_symmetry_space_group_name_H-M "C 2/C"
_symmetry_group_IT_number 15
_symmetry_cell_setting 'monoclinic'
loop_
_space_group_symop_operation_xyz
x,y,z
-x,y,1/2-z
-x,-y,-z
x,-y,1/2+z
1/2+x,1/2+y,z
1/2-x,1/2+y,1/2-z
1/2-x,1/2-y,-z
1/2+x,1/2-y,1/2+z
loop_
_atom_site_type_symbol
_atom_site_label
_atom_site_fract_x
_atom_site_fract_y
_atom_site_fract_z
Si Si1 0.622851 0.880600 0.987482
Si Si2 0.207989 0.276835 0.888045
Si Si3 0.664517 0.938522 0.584678
Si Si4 0.828803 0.768561 0.587535
Si Si5 0.649637 0.859675 0.288801
Si Si6 0.122521 0.190165 0.181285
Si Si7 0.801135 0.011060 0.746703
Si Si8 0.500000 0.661650 0.750000
O O1 0.670373 0.861342 0.928197
O O2 0.466282 0.873982 0.946579
O O3 0.691017 0.801179 0.053092
O O4 0.659676 0.989659 0.021242
O O5 0.279689 0.325771 0.848948
O O6 0.074336 0.226859 0.825225
O O7 0.784632 0.867054 0.609429
O O8 0.692846 0.000280 0.658033
O O9 0.750000 0.750000 0.500000
O O10 0.802695 0.677026 0.627006
O O11 0.979646 0.781068 0.614383
O O12 0.500000 0.888593 0.250000
O O13 0.675008 0.774221 0.244053
O O14 0.727508 0.955899 0.290322
O O15 0.119624 0.088435 0.219059
O O16 0.901149 0.095567 0.759932
#
# Coordination Sequence:
#
# PCOD8148863 Si02
#       8
#     8   8   8   8   8   8   8   4
#     4  10  24  42  68  93 137 171 217 265 338 393
#     4  11  24  43  65  98 132 171 219 278 323 390
#     4  11  22  43  68  97 129 179 217 267 333 397
#     4  11  24  42  70  93 134 174 219 266 341 396
#     4  10  23  43  65  93 133 171 218 274 328 390
#     4  11  23  44  65  98 131 171 223 274 322 393
#     4  12  24  40  69  99 128 172 227 270 323 392
#     4  12  24  40  68  96 132 172 222 268 336 380
#
# _framework density 20.675286
#
# number of rings (size 3 to 8) (size 9 to 14) (size 15 to 20)
#    0.000    1.067    4.000    1.600    4.667    5.333 
#    0.000    1.333    0.000    0.000    0.000    0.000 
#    0.000    0.000    0.000    0.000    0.000    0.000 
#
# Total GULP energy -372097.088471 kJ/mol
# GULP energy per Si atom -12403.236282 kJ/mol
# Density = 2.062823 g / cm^3
# Si number density = 20.675286 Si / 1000 Ang^3
#
#
#
# Elastic Constant Matrix: (Units=GPa)
#
#
# Indices 1 2 3 4 5 6 
#
# 1 106.4314 39.2659 52.5768 0.0000 -4.6048 0.0000
# 2 39.2659 63.7896 30.7059 0.0000 5.8416 0.0000
# 3 52.5768 30.7059 136.0356 0.0000 7.3291 0.0000
# 4 0.0000 0.0000 0.0000 27.1699 0.0000 -0.3449
# 5 -4.6048 5.8416 7.3291 0.0000 28.2076 0.0000
# 6 0.0000 0.0000 0.0000 -0.3449 0.0000 30.6002
#
#
#
# Elastic Compliance Matrix: (Units=1/GPa)
#
#
# Indices 1 2 3 4 5 6 
#
# 1 0.014356 -0.007281 -0.004171 0.000000 0.004935 0.000000
# 2 -0.007281 0.021477 -0.001755 0.000000 -0.005181 0.000000
# 3 -0.004171 -0.001755 0.009509 0.000000 -0.002788 0.000000
# 4 0.000000 0.000000 0.000000 0.036811 0.000000 0.000415
# 5 0.004935 -0.005181 -0.002788 0.000000 0.038054 0.000000
# 6 0.000000 0.000000 0.000000 0.000415 0.000000 0.032684
#
#
# Mechanical properties :
#
#
# Convention : Reuss Voigt Hill
#
# Bulk Modulus (GPa) = 52.82774 61.26153 57.04464
# Shear Modulus (GPa) = 26.93749 29.44274 28.19012
#
# Velocity S-wave (km/s) = 3.61346 3.77776 3.69652
# Velocity P-wave (km/s) = 6.55867 6.98020 6.77272
#
# Compressibility (1/GPa) = 0.01892945
#
# Stress axis : x y z
#
# Youngs Moduli (GPa) = 69.65818 46.56039 105.16010
#
# Poissons Ratio (x) = 0.33901 0.43861
# Poissons Ratio (y) = 0.50718 0.18453
# Poissons Ratio (z) = 0.29053 0.08170
#
# Static dielectric constant tensor:
#      x y z
#    x 3.993980 0.000000 -0.039470 
#    y 0.000000 3.698500 0.000000 
#    z -0.039470 0.000000 3.837220 
# 
# 
# High freq. dielectric constant tensor:
#      x y z
#    x 1.816110 0.000000 0.001100 
#    y 0.000000 1.805910 0.000000 
#    z 0.001100 0.000000 1.815330 
# 
# From -- ./inp_files/238794.got.cif
#   From: 2010.06.25/outbox.cif.g09.slc.cpg/sg15_120_cif.got.tgz:238794.got - 2010.06.28 07:06:18.
