data_PCOD8148338
_publ_section_title
;
Structure prediction by ZEFSAII (Michael W. Deem and Ramdas Pophale) SiO2 
 PCOD8148338
Probable space group: C 2/C
;
_chemical_formula_sum "Si O2"
_cell_formula_units_Z 32
_cell_length_a 10.679806
_cell_length_b 28.735102
_cell_length_c 5.410480
_cell_angle_alpha 90.000000
_cell_angle_beta 124.745542
_cell_angle_gamma 90.000000
_cell_volume 1364.333628
_symmetry_space_group_name_H-M "C 2/C"
_symmetry_group_IT_number 15
_symmetry_cell_setting 'monoclinic'
loop_
_space_group_symop_operation_xyz
x,y,z
-x,y,1/2-z
-x,-y,-z
x,-y,1/2+z
1/2+x,1/2+y,z
1/2-x,1/2+y,1/2-z
1/2-x,1/2-y,-z
1/2+x,1/2-y,1/2+z
loop_
_atom_site_type_symbol
_atom_site_label
_atom_site_fract_x
_atom_site_fract_y
_atom_site_fract_z
Si Si1 0.728992 0.871695 0.667446
Si Si2 0.768504 0.207317 0.837521
Si Si3 0.319555 0.975826 0.025804
Si Si4 0.500000 0.826311 0.750000
Si Si5 0.000000 0.826727 0.250000
O O1 0.748644 0.841573 0.446928
O O2 0.739805 0.924293 0.591675
O O3 0.565963 0.860229 0.610823
O O4 0.864969 0.860202 0.009034
O O5 0.633336 0.209075 0.484327
O O6 0.934288 0.207014 0.892500
O O7 0.750000 0.250000 0.000000
O O8 0.500000 0.977291 0.250000
O O9 0.257667 0.993625 0.222865
#
# Coordination Sequence:
#
# PCOD8148338 Si02
#       5
#     8   8   8   4   4
#     4  11  24  43  69 101 140 181 234 293 354 421
#     4  11  25  45  70 100 137 183 232 286 353 424
#     4  10  23  40  70 105 142 187 242 301 360 422
#     4  10  24  41  70 100 132 180 238 284 351 420
#     4  10  26  45  70  96 142 182 228 288 361 420
#
# _framework density 23.454674000000001
#
# number of rings (size 3 to 8) (size 9 to 14) (size 15 to 20)
#    0.000    1.500    0.000    3.000   12.250   10.000 
#    0.000    5.000    0.000    0.000    0.000    0.000 
#    0.000    0.000    0.000    0.000    0.000    0.000 
#
# Total GULP energy -198424.471390 kJ/mol
# GULP energy per Si atom -12401.529462 kJ/mol
# Density = 2.340129 g / cm^3
# Si number density = 23.454674 Si / 1000 Ang^3
#
#
#
# Elastic Constant Matrix: (Units=GPa)
#
#
# Indices 1 2 3 4 5 6 
#
# 1 152.8477 59.1517 39.3224 0.0000 -24.4237 0.0000
# 2 59.1517 161.7443 47.9335 0.0000 -19.4361 0.0000
# 3 39.3224 47.9335 91.3541 0.0000 -24.9949 0.0000
# 4 0.0000 0.0000 0.0000 43.0762 0.0000 -9.0016
# 5 -24.4237 -19.4361 -24.9949 0.0000 38.2055 0.0000
# 6 0.0000 0.0000 0.0000 -9.0016 0.0000 26.9771
#
#
#
# Elastic Compliance Matrix: (Units=1/GPa)
#
#
# Indices 1 2 3 4 5 6 
#
# 1 0.008298 -0.002193 -0.001553 0.000000 0.003173 0.000000
# 2 -0.002193 0.007970 -0.003060 0.000000 0.000651 0.000000
# 3 -0.001553 -0.003060 0.015253 0.000000 0.007430 0.000000
# 4 0.000000 0.000000 0.000000 0.024955 0.000000 0.008327
# 5 0.003173 0.000651 0.007430 0.000000 0.033394 0.000000
# 6 0.000000 0.000000 0.000000 0.008327 0.000000 0.039847
#
#
# Mechanical properties :
#
#
# Convention : Reuss Voigt Hill
#
# Bulk Modulus (GPa) = 55.83727 77.64016 66.73871
# Shear Modulus (GPa) = 33.49035 38.95433 36.22234
#
# Velocity S-wave (km/s) = 3.78282 4.07975 3.93409
# Velocity P-wave (km/s) = 6.55269 7.44087 7.01086
#
# Compressibility (1/GPa) = 0.01790919
#
# Stress axis : x y z
#
# Youngs Moduli (GPa) = 120.51572 125.47754 65.56098
#
# Poissons Ratio (x) = 0.27518 0.10180
# Poissons Ratio (y) = 0.26430 0.20059
# Poissons Ratio (z) = 0.18714 0.38391
#
# Static dielectric constant tensor:
#      x y z
#    x 4.571740 0.000000 -0.293680 
#    y 0.000000 4.022270 0.000000 
#    z -0.293680 0.000000 4.723560 
# 
# 
# High freq. dielectric constant tensor:
#      x y z
#    x 1.923650 0.000000 -0.011280 
#    y 0.000000 1.918970 0.000000 
#    z -0.011280 0.000000 1.949030 
# 
# From -- ./inp_files/4786.got.cif
#   From: 2010.06.25/outbox.cif.g09.slc.cpg/sg15_3_cif.got.tgz:4786.got - 2010.06.28 07:06:18.
