data_PCOD8148747
_publ_section_title
;
Structure prediction by ZEFSAII (Michael W. Deem and Ramdas Pophale) SiO2 
 PCOD8148747
Probable space group: C 2/C
;
_chemical_formula_sum "Si O2"
_cell_formula_units_Z 40
_cell_length_a 14.371750
_cell_length_b 8.726221
_cell_length_c 26.542694
_cell_angle_alpha 90.000000
_cell_angle_beta 148.708411
_cell_angle_gamma 90.000000
_cell_volume 1728.930422
_symmetry_space_group_name_H-M "C 2/C"
_symmetry_group_IT_number 15
_symmetry_cell_setting 'monoclinic'
loop_
_space_group_symop_operation_xyz
x,y,z
-x,y,1/2-z
-x,-y,-z
x,-y,1/2+z
1/2+x,1/2+y,z
1/2-x,1/2+y,1/2-z
1/2-x,1/2-y,-z
1/2+x,1/2-y,1/2+z
loop_
_atom_site_type_symbol
_atom_site_label
_atom_site_fract_x
_atom_site_fract_y
_atom_site_fract_z
Si Si1 0.498690 0.916536 0.553258
Si Si2 0.707472 0.201074 0.770372
Si Si3 0.702271 0.140198 0.285688
Si Si4 0.142910 0.617815 0.924429
Si Si5 0.277056 0.836200 0.591287
O O1 0.685503 0.821617 0.645190
O O2 0.329495 0.802713 0.483749
O O3 0.500000 0.000000 0.500000
O O4 0.480717 0.034278 0.590675
O O5 0.713795 0.243028 0.714477
O O6 0.491334 0.192302 0.680073
O O7 0.779120 0.029739 0.811442
O O8 0.771337 0.182258 0.372787
O O9 0.489721 0.164662 0.181090
O O10 0.279722 0.500652 0.959398
O O11 0.250000 0.750000 0.000000
#
# Coordination Sequence:
#
# PCOD8148747 Si02
#       5
#     8   8   8   8   8
#     4  12  26  45  68 103 137 179 232 283 345 410
#     4  11  23  44  68  96 137 173 230 277 344 405
#     4  10  23  42  69  96 133 182 225 276 346 402
#     4  11  26  45  68 102 136 178 229 280 347 410
#     4  10  23  44  67  96 139 176 224 281 341 405
#
# _framework density 23.13569
#
# number of rings (size 3 to 8) (size 9 to 14) (size 15 to 20)
#    0.000    1.200    4.000    1.800    5.600    0.800 
#    3.600    0.000    0.000    0.000    0.000    0.000 
#    0.000    0.000    0.000    0.000    0.000    0.000 
#
# Total GULP energy -247832.810625 kJ/mol
# GULP energy per Si atom -12391.640531 kJ/mol
# Density = 2.308303 g / cm^3
# Si number density = 23.135690 Si / 1000 Ang^3
#
#
#
# Elastic Constant Matrix: (Units=GPa)
#
#
# Indices 1 2 3 4 5 6 
#
# 1 50.5312 19.4864 18.9143 0.0000 -10.7943 0.0000
# 2 19.4864 123.6060 75.7319 0.0000 9.4017 0.0000
# 3 18.9143 75.7319 112.4992 -0.0004 -10.3868 0.0001
# 4 0.0000 0.0000 -0.0004 52.9801 0.0000 -4.4572
# 5 -10.7943 9.4017 -10.3868 0.0000 23.6643 0.0000
# 6 0.0000 0.0000 0.0001 -4.4572 0.0000 45.3991
#
#
#
# Elastic Compliance Matrix: (Units=1/GPa)
#
#
# Indices 1 2 3 4 5 6 
#
# 1 0.024485 -0.005352 0.000744 0.000000 0.013621 0.000000
# 2 -0.005352 0.017620 -0.012333 0.000000 -0.014855 0.000000
# 3 0.000744 -0.012333 0.018291 0.000000 0.013268 0.000000
# 4 0.000000 0.000000 0.000000 0.019032 0.000000 0.001869
# 5 0.013621 -0.014855 0.013268 0.000000 0.060196 0.000000
# 6 0.000000 0.000000 0.000000 0.001869 0.000000 0.022210
#
#
# Mechanical properties :
#
#
# Convention : Reuss Voigt Hill
#
# Bulk Modulus (GPa) = 37.71616 57.21130 47.46373
# Shear Modulus (GPa) = 24.44322 35.90898 30.17610
#
# Velocity S-wave (km/s) = 3.25393 3.94395 3.61544
# Velocity P-wave (km/s) = 5.51860 6.74699 6.16348
#
# Compressibility (1/GPa) = 0.02651384
#
# Stress axis : x y z
#
# Youngs Moduli (GPa) = 40.84152 56.75283 54.67055
#
# Poissons Ratio (x) = 0.30372 -0.04066
# Poissons Ratio (y) = 0.21857 0.67427
# Poissons Ratio (z) = -0.03037 0.69995
#
# Static dielectric constant tensor:
#      x y z
#    x 4.091960 0.000000 -0.295540 
#    y 0.000000 4.402800 0.000000 
#    z -0.295540 0.000000 4.484460 
# 
# 
# High freq. dielectric constant tensor:
#      x y z
#    x 1.900620 0.000000 -0.019690 
#    y 0.000000 1.924770 0.000000 
#    z -0.019690 0.000000 1.924650 
# 
# From -- ./inp_files/150762.got.cif
#   From: 2010.06.25/outbox.cif.g09.slc.cpg/sg15_76_cif.got.tgz:150762.got - 2010.06.28 07:06:18.
