data_PCOD8148598
_publ_section_title
;
Structure prediction by ZEFSAII (Michael W. Deem and Ramdas Pophale) SiO2 
 PCOD8148598
Probable space group: C 2/C
;
_chemical_formula_sum "Si O2"
_cell_formula_units_Z 40
_cell_length_a 17.410542
_cell_length_b 15.499266
_cell_length_c 13.017117
_cell_angle_alpha 90.000000
_cell_angle_beta 32.285441
_cell_angle_gamma 90.000000
_cell_volume 1876.252745
_symmetry_space_group_name_H-M "C 2/C"
_symmetry_group_IT_number 15
_symmetry_cell_setting 'monoclinic'
loop_
_space_group_symop_operation_xyz
x,y,z
-x,y,1/2-z
-x,-y,-z
x,-y,1/2+z
1/2+x,1/2+y,z
1/2-x,1/2+y,1/2-z
1/2-x,1/2-y,-z
1/2+x,1/2-y,1/2+z
loop_
_atom_site_type_symbol
_atom_site_label
_atom_site_fract_x
_atom_site_fract_y
_atom_site_fract_z
Si Si1 0.358484 0.216641 0.461627
Si Si2 0.106706 0.385619 0.269704
Si Si3 0.298492 0.083756 0.065394
Si Si4 0.192902 0.081971 0.778362
Si Si5 0.419624 0.700979 0.097556
O O1 0.500000 0.177969 0.250000
O O2 0.250000 0.250000 0.500000
O O3 0.284709 0.140296 0.601740
O O4 0.408626 0.288497 0.486961
O O5 0.216514 0.434040 0.220708
O O6 0.060473 0.289712 0.360977
O O7 0.956574 0.437839 0.431618
O O8 0.189014 0.390203 0.068021
O O9 0.234664 0.167849 0.191620
O O10 0.184464 0.007203 0.223315
O O11 0.043970 0.129494 0.976222
#
# Coordination Sequence:
#
# PCOD8148598 Si02
#       5
#     8   8   8   8   8
#     4  11  23  41  65  93 126 169 214 259 318 386
#     4  10  23  42  64  93 125 173 211 260 322 389
#     4  11  24  41  65  95 128 165 214 270 323 377
#     4  11  24  41  64  96 127 165 214 271 320 378
#     4  11  23  43  64  93 129 169 216 256 322 390
#
# _framework density 21.319089000000002
#
# number of rings (size 3 to 8) (size 9 to 14) (size 15 to 20)
#    0.000    1.200    2.000    4.200    5.600    4.000 
#    0.000    0.000    0.000    0.000    0.000    0.000 
#    0.000    0.000    0.000    0.000    0.000    0.000 
#
# Total GULP energy -247820.650612 kJ/mol
# GULP energy per Si atom -12391.032531 kJ/mol
# Density = 2.127057 g / cm^3
# Si number density = 21.319089 Si / 1000 Ang^3
#
#
#
# Elastic Constant Matrix: (Units=GPa)
#
#
# Indices 1 2 3 4 5 6 
#
# 1 134.7233 23.4700 37.1810 0.0001 15.6839 0.0001
# 2 23.4700 47.0776 28.1331 0.0000 -8.3220 0.0000
# 3 37.1810 28.1331 116.2733 0.0002 10.8851 0.0000
# 4 0.0001 0.0000 0.0002 -8.5319 -0.0002 -15.8002
# 5 15.6839 -8.3220 10.8851 -0.0002 21.5998 0.0000
# 6 0.0001 0.0000 0.0000 -15.8002 0.0000 19.4755
#
#
#
# Elastic Compliance Matrix: (Units=1/GPa)
#
#
# Indices 1 2 3 4 5 6 
#
# 1 0.009725 -0.005922 -0.000842 0.000000 -0.008918 0.000000
# 2 -0.005922 0.032643 -0.007960 0.000000 0.020888 0.000000
# 3 -0.000842 -0.007960 0.011571 0.000000 -0.008287 0.000000
# 4 0.000000 0.000000 0.000000 -0.046838 -0.000001 -0.037999
# 5 -0.008918 0.020888 -0.008287 -0.000001 0.064997 -0.000001
# 6 0.000000 0.000000 0.000000 -0.037999 -0.000001 0.020519
#
#
# Mechanical properties :
#
#
# Convention : Reuss Voigt Hill
#
# Bulk Modulus (GPa) = 40.82989 52.84915 46.83952
# Shear Modulus (GPa) = 38.39414 20.46135 29.42775
#
# Velocity S-wave (km/s) = 4.24834 3.10137 3.71933
# Velocity P-wave (km/s) = 6.57707 6.13743 6.36105
#
# Compressibility (1/GPa) = 0.02449186
#
# Stress axis : x y z
#
# Youngs Moduli (GPa) = 102.82941 30.63453 86.41941
#
# Poissons Ratio (x) = 0.18140 0.07277
# Poissons Ratio (y) = 0.60891 0.68791
# Poissons Ratio (z) = 0.08659 0.24385
#
# Static dielectric constant tensor:
#      x y z
#    x 4.415050 0.000000 0.273800 
#    y 0.000000 3.896300 0.000000 
#    z 0.273800 0.000000 4.011630 
# 
# 
# High freq. dielectric constant tensor:
#      x y z
#    x 1.839100 0.000000 0.002000 
#    y 0.000000 1.824200 0.000000 
#    z 0.002000 0.000000 1.860400 
# 
# From -- ./inp_files/96007.got.cif
#   From: 2010.06.25/outbox.cif.g09.slc.cpg/sg15_49_cif.got.tgz:96007.got - 2010.06.28 07:06:18.
