data_PCOD8148689
_publ_section_title
;
Structure prediction by ZEFSAII (Michael W. Deem and Ramdas Pophale) SiO2 
 PCOD8148689
Probable space group: C 2/C
;
_chemical_formula_sum "Si O2"
_cell_formula_units_Z 48
_cell_length_a 16.742867
_cell_length_b 19.355918
_cell_length_c 12.732726
_cell_angle_alpha 90.000000
_cell_angle_beta 148.110985
_cell_angle_gamma 90.000000
_cell_volume 2179.844482
_symmetry_space_group_name_H-M "C 2/C"
_symmetry_group_IT_number 15
_symmetry_cell_setting 'monoclinic'
loop_
_space_group_symop_operation_xyz
x,y,z
-x,y,1/2-z
-x,-y,-z
x,-y,1/2+z
1/2+x,1/2+y,z
1/2-x,1/2+y,1/2-z
1/2-x,1/2-y,-z
1/2+x,1/2-y,1/2+z
loop_
_atom_site_type_symbol
_atom_site_label
_atom_site_fract_x
_atom_site_fract_y
_atom_site_fract_z
Si Si1 0.109708 0.285416 0.121113
Si Si2 0.079491 0.190040 0.449184
Si Si3 0.337106 0.299750 0.019266
Si Si4 0.887590 0.036248 0.955561
Si Si5 0.215377 0.555362 0.405683
Si Si6 0.392424 0.069256 0.983915
O O1 0.239483 0.301758 0.352718
O O2 0.064556 0.353673 0.006133
O O3 0.973015 0.249690 0.029905
O O4 0.164059 0.231571 0.096604
O O5 0.044014 0.112346 0.449448
O O6 0.000000 0.202371 0.250000
O O7 0.500000 0.315311 0.250000
O O8 0.250000 0.250000 0.000000
O O9 0.249633 0.369830 0.898463
O O10 0.716746 0.033585 0.720962
O O11 0.854738 0.995815 0.028922
O O12 0.000000 0.000000 0.000000
O O13 0.206648 0.566025 0.520639
O O14 0.051503 0.529716 0.178148
#
# Coordination Sequence:
#
# PCOD8148689 Si02
#       6
#     8   8   8   8   8   8
#     4  11  22  42  64  97 129 166 221 276 337 390
#     4  11  25  43  67  92 130 174 222 275 330 400
#     4  12  23  36  65 101 134 174 222 282 348 403
#     4  11  26  41  66  97 135 180 225 275 337 405
#     4  11  23  41  65  94 137 175 224 273 341 410
#     4  10  23  42  67  93 130 177 218 283 332 409
#
# _framework density 22.019919999999999
#
# number of rings (size 3 to 8) (size 9 to 14) (size 15 to 20)
#    0.000    1.000    1.667    5.000    7.000    0.000 
#    0.000    0.000   14.667    0.000    0.000    0.000 
#    0.000    0.000    0.000    0.000    0.000    0.000 
#
# Total GULP energy -297446.864929 kJ/mol
# GULP energy per Si atom -12393.619372 kJ/mol
# Density = 2.196980 g / cm^3
# Si number density = 22.019920 Si / 1000 Ang^3
#
#
#
# Elastic Constant Matrix: (Units=GPa)
#
#
# Indices 1 2 3 4 5 6 
#
# 1 117.9837 48.1671 17.5911 0.0000 4.8255 0.0000
# 2 48.1671 90.7896 3.6587 0.0000 10.0260 0.0000
# 3 17.5911 3.6587 87.1925 0.0000 -3.9608 0.0000
# 4 0.0000 0.0000 0.0000 23.7702 0.0000 4.4583
# 5 4.8255 10.0260 -3.9608 0.0000 31.9754 0.0000
# 6 0.0000 0.0000 0.0000 4.4583 0.0000 48.2694
#
#
#
# Elastic Compliance Matrix: (Units=1/GPa)
#
#
# Indices 1 2 3 4 5 6 
#
# 1 0.011159 -0.005828 -0.002012 0.000000 -0.000106 0.000000
# 2 -0.005828 0.014489 0.000404 0.000000 -0.003614 0.000000
# 3 -0.002012 0.000404 0.011933 0.000000 0.001655 0.000000
# 4 0.000000 0.000000 0.000000 0.042811 0.000000 -0.003954
# 5 -0.000106 -0.003614 0.001655 0.000000 0.032628 0.000000
# 6 0.000000 0.000000 0.000000 -0.003954 0.000000 0.021082
#
#
# Mechanical properties :
#
#
# Convention : Reuss Voigt Hill
#
# Bulk Modulus (GPa) = 44.03369 48.31108 46.17239
# Shear Modulus (GPa) = 31.93993 35.90625 33.92309
#
# Velocity S-wave (km/s) = 3.81268 4.04248 3.92926
# Velocity P-wave (km/s) = 6.27874 6.61636 6.44976
#
# Compressibility (1/GPa) = 0.02270988
#
# Stress axis : x y z
#
# Youngs Moduli (GPa) = 89.61280 69.01793 83.80143
#
# Poissons Ratio (x) = 0.40220 0.16858
# Poissons Ratio (y) = 0.52222 -0.03382
# Poissons Ratio (z) = 0.18027 -0.02785
#
# Static dielectric constant tensor:
#      x y z
#    x 4.022860 0.000000 0.075640 
#    y 0.000000 3.971200 0.000000 
#    z 0.075640 0.000000 3.976500 
# 
# 
# High freq. dielectric constant tensor:
#      x y z
#    x 1.865790 0.000000 0.003100 
#    y 0.000000 1.861260 0.000000 
#    z 0.003100 0.000000 1.880670 
# 
# From -- ./inp_files/100048.got.cif
#   From: 2010.06.25/outbox.cif.g09.slc.cpg/sg15_51_cif.got.tgz:100048.got - 2010.06.28 07:06:18.
