data_PCOD8148015
_publ_section_title
;
Structure prediction by ZEFSAII (Michael W. Deem and Ramdas Pophale) SiO2 
 PCOD8148015
Probable space group: C 2/C
;
_chemical_formula_sum "Si O2"
_cell_formula_units_Z 44
_cell_length_a 15.212294
_cell_length_b 9.207059
_cell_length_c 14.384663
_cell_angle_alpha 90.000000
_cell_angle_beta 81.628889
_cell_angle_gamma 90.000000
_cell_volume 1993.257792
_symmetry_space_group_name_H-M "C 2/C"
_symmetry_group_IT_number 15
_symmetry_cell_setting 'monoclinic'
loop_
_space_group_symop_operation_xyz
x,y,z
-x,y,1/2-z
-x,-y,-z
x,-y,1/2+z
1/2+x,1/2+y,z
1/2-x,1/2+y,1/2-z
1/2-x,1/2-y,-z
1/2+x,1/2-y,1/2+z
loop_
_atom_site_type_symbol
_atom_site_label
_atom_site_fract_x
_atom_site_fract_y
_atom_site_fract_z
Si Si1 0.000000 0.576361 0.250000
Si Si2 0.309297 0.336093 0.921763
Si Si3 0.461831 0.681873 0.895519
Si Si4 0.234135 0.152482 0.592692
Si Si5 0.489366 0.630794 0.095213
Si Si6 0.873468 0.320086 0.233036
O O1 0.005896 0.675252 0.342665
O O2 0.910481 0.477493 0.259428
O O3 0.253672 0.483358 0.927772
O O4 0.407413 0.355795 0.947424
O O5 0.318644 0.256071 0.822451
O O6 0.250000 0.250000 0.000000
O O7 0.367584 0.671222 0.856549
O O8 0.525039 0.538795 0.873280
O O9 0.440508 0.689928 0.009597
O O10 0.250000 0.250000 0.500000
O O11 0.303821 0.188579 0.661085
O O12 0.459855 0.728445 0.186376
#
# Coordination Sequence:
#
# PCOD8148015 Si02
#       6
#     4   8   8   8   8   8
#     4  12  28  42  72 108 142 184 242 294 348 428
#     4  11  27  44  69 102 145 184 230 290 361 415
#     4  10  25  44  73 101 135 187 236 293 353 419
#     4  11  26  45  70 103 138 185 235 294 349 419
#     4  10  22  49  73  96 138 188 238 285 353 425
#     4  12  26  46  71 105 143 185 235 295 350 424
#
# _framework density 22.074414999999998
#
# number of rings (size 3 to 8) (size 9 to 14) (size 15 to 20)
#    0.000    1.091    3.636    0.000   12.727    0.727 
#    0.000    0.000    0.000    0.000    0.000    0.000 
#    0.000    0.000    0.000    0.000    0.000    0.000 
#
# Total GULP energy -272620.791505 kJ/mol
# GULP energy per Si atom -12391.854159 kJ/mol
# Density = 2.202417 g / cm^3
# Si number density = 22.074415 Si / 1000 Ang^3
#
#
#
# Elastic Constant Matrix: (Units=GPa)
#
#
# Indices 1 2 3 4 5 6 
#
# 1 58.0602 32.2410 46.3698 0.0000 6.8368 0.0000
# 2 32.2410 176.9092 95.5992 0.0000 -11.6147 0.0000
# 3 46.3698 95.5992 141.5993 0.0000 -3.7974 0.0000
# 4 0.0000 0.0000 0.0000 49.9311 0.0000 -5.4070
# 5 6.8368 -11.6147 -3.7974 0.0000 44.5062 0.0000
# 6 0.0000 0.0000 0.0000 -5.4070 0.0000 31.4465
#
#
#
# Elastic Compliance Matrix: (Units=1/GPa)
#
#
# Indices 1 2 3 4 5 6 
#
# 1 0.024187 -0.000565 -0.007660 0.000000 -0.004516 0.000000
# 2 -0.000565 0.009061 -0.005880 0.000000 0.001950 0.000000
# 3 -0.007660 -0.005880 0.013562 0.000000 0.000799 0.000000
# 4 0.000000 0.000000 0.000000 0.020408 0.000000 0.003509
# 5 -0.004516 0.001950 0.000799 0.000000 0.023740 0.000000
# 6 0.000000 0.000000 0.000000 0.003509 0.000000 0.032403
#
#
# Mechanical properties :
#
#
# Convention : Reuss Voigt Hill
#
# Bulk Modulus (GPa) = 53.76556 80.55430 67.15993
# Shear Modulus (GPa) = 31.69143 38.66736 35.17940
#
# Velocity S-wave (km/s) = 3.79313 4.18985 3.99641
# Velocity P-wave (km/s) = 6.60251 7.74454 7.19621
#
# Compressibility (1/GPa) = 0.01859927
#
# Stress axis : x y z
#
# Youngs Moduli (GPa) = 41.34473 110.36061 73.73494
#
# Poissons Ratio (x) = 0.06236 0.56482
# Poissons Ratio (y) = 0.02336 0.43358
# Poissons Ratio (z) = 0.31671 0.64895
#
# Static dielectric constant tensor:
#      x y z
#    x 3.915780 0.000000 0.259770 
#    y 0.000000 4.440780 0.000000 
#    z 0.259770 0.000000 4.053180 
# 
# 
# High freq. dielectric constant tensor:
#      x y z
#    x 1.870440 0.000000 0.012490 
#    y 0.000000 1.877880 0.000000 
#    z 0.012490 0.000000 1.871480 
# 
# From -- ./inp_files/159359.got.cif
#   From: 2010.06.25/outbox.cif.g09.slc.cpg/sg15_80_cif.got.tgz:159359.got - 2010.06.28 07:06:18.
