data_PCOD8148390
_publ_section_title
;
Structure prediction by ZEFSAII (Michael W. Deem and Ramdas Pophale) SiO2 
 PCOD8148390
Probable space group: C 2/C
;
_chemical_formula_sum "Si O2"
_cell_formula_units_Z 44
_cell_length_a 26.294060
_cell_length_b 8.777533
_cell_length_c 25.159894
_cell_angle_alpha 90.000000
_cell_angle_beta 20.173974
_cell_angle_gamma 90.000000
_cell_volume 2002.611430
_symmetry_space_group_name_H-M "C 2/C"
_symmetry_group_IT_number 15
_symmetry_cell_setting 'monoclinic'
loop_
_space_group_symop_operation_xyz
x,y,z
-x,y,1/2-z
-x,-y,-z
x,-y,1/2+z
1/2+x,1/2+y,z
1/2-x,1/2+y,1/2-z
1/2-x,1/2-y,-z
1/2+x,1/2-y,1/2+z
loop_
_atom_site_type_symbol
_atom_site_label
_atom_site_fract_x
_atom_site_fract_y
_atom_site_fract_z
Si Si1 0.811074 0.945904 0.230143
Si Si2 0.140355 0.853446 0.914317
Si Si3 0.190176 0.946476 0.462607
Si Si4 0.737093 0.546763 0.536845
Si Si5 0.000000 0.273894 0.750000
Si Si6 0.863891 0.160465 0.275339
O O1 0.684891 0.821350 0.362712
O O2 0.780674 0.034122 0.205094
O O3 0.804349 0.070052 0.283191
O O4 0.965689 0.857918 0.076706
O O5 0.183522 0.906920 0.931082
O O6 0.320951 0.837385 0.313538
O O7 0.039016 0.851069 0.608918
O O8 0.222151 0.005393 0.489890
O O9 0.898361 0.621540 0.388019
O O10 0.608561 0.667776 0.678980
O O11 0.718919 0.399835 0.590727
#
# Coordination Sequence:
#
# PCOD8148390 Si02
#       6
#     8   8   8   8   4   8
#     4  10  23  41  63  90 121 156 200 247 297 355
#     4  10  23  41  63  90 121 156 200 247 297 355
#     4  11  24  40  61  89 124 159 202 248 296 358
#     4  11  23  40  61  90 123 159 200 247 299 360
#     4  10  24  38  62  88 128 150 204 250 300 346
#     4  11  24  40  61  89 124 159 202 248 296 358
#
# _framework density 21.971311
#
# number of rings (size 3 to 8) (size 9 to 14) (size 15 to 20)
#    0.000    1.455    1.818    1.636    7.636    2.182 
#    0.000    0.000    0.000    0.000    0.000    0.000 
#    0.000    0.000    0.000    0.000    0.000    0.000 
#
# Total GULP energy -272890.157725 kJ/mol
# GULP energy per Si atom -12404.098078 kJ/mol
# Density = 2.192130 g / cm^3
# Si number density = 21.971311 Si / 1000 Ang^3
#
#
#
# Elastic Constant Matrix: (Units=GPa)
#
#
# Indices 1 2 3 4 5 6 
#
# 1 101.4722 16.3748 21.5079 0.0169 18.3313 -0.0010
# 2 16.3748 56.1957 20.1371 -0.0111 -1.6721 0.0034
# 3 21.5079 20.1371 77.9406 -0.0216 -1.9823 0.0031
# 4 0.0169 -0.0111 -0.0216 49.9896 0.0170 7.3760
# 5 18.3313 -1.6721 -1.9823 0.0170 24.3905 -0.0058
# 6 -0.0010 0.0034 0.0031 7.3760 -0.0058 17.5379
#
#
#
# Elastic Compliance Matrix: (Units=1/GPa)
#
#
# Indices 1 2 3 4 5 6 
#
# 1 0.012788 -0.002942 -0.003025 -0.000003 -0.010058 0.000000
# 2 -0.002942 0.020309 -0.004353 0.000003 0.003249 -0.000003
# 3 -0.003025 -0.004353 0.014870 0.000006 0.003183 -0.000003
# 4 -0.000003 0.000003 0.000006 0.021328 -0.000014 -0.008970
# 5 -0.010058 0.003249 0.003183 -0.000014 0.049041 0.000020
# 6 0.000000 -0.000003 -0.000003 -0.008970 0.000020 0.060792
#
#
# Mechanical properties :
#
#
# Convention : Reuss Voigt Hill
#
# Bulk Modulus (GPa) = 36.59118 39.07201 37.83160
# Shear Modulus (GPa) = 23.93779 30.22285 27.08032
#
# Velocity S-wave (km/s) = 3.30434 3.71288 3.51455
# Velocity P-wave (km/s) = 5.59003 6.01684 5.80736
#
# Compressibility (1/GPa) = 0.02732899
#
# Stress axis : x y z
#
# Youngs Moduli (GPa) = 78.19944 49.24039 67.24739
#
# Poissons Ratio (x) = 0.14485 0.20340
# Poissons Ratio (y) = 0.23004 0.29270
# Poissons Ratio (z) = 0.23652 0.21432
#
# Static dielectric constant tensor:
#      x y z
#    x 3.849660 0.000000 0.063280 
#    y 0.000000 3.876270 0.000080 
#    z 0.063280 0.000080 4.070600 
# 
# 
# High freq. dielectric constant tensor:
#      x y z
#    x 1.857570 0.000000 0.004240 
#    y 0.000000 1.866610 0.000000 
#    z 0.004240 0.000000 1.867850 
# 
# From -- ./inp_files/303156.got.cif
#   From: 2010.06.25/outbox.cif.g09.slc.cpg/sg15_152_cif.got.tgz:303156.got - 2010.06.28 07:06:18.
