data_PCOD8148209
_publ_section_title
;
Structure prediction by ZEFSAII (Michael W. Deem and Ramdas Pophale) SiO2 
 PCOD8148209
Probable space group: C 2/C
;
_chemical_formula_sum "Si O2"
_cell_formula_units_Z 48
_cell_length_a 24.857932
_cell_length_b 15.336194
_cell_length_c 13.848255
_cell_angle_alpha 90.000000
_cell_angle_beta 27.202459
_cell_angle_gamma 90.000000
_cell_volume 2413.365825
_symmetry_space_group_name_H-M "C 2/C"
_symmetry_group_IT_number 15
_symmetry_cell_setting 'monoclinic'
loop_
_space_group_symop_operation_xyz
x,y,z
-x,y,1/2-z
-x,-y,-z
x,-y,1/2+z
1/2+x,1/2+y,z
1/2-x,1/2+y,1/2-z
1/2-x,1/2-y,-z
1/2+x,1/2-y,1/2+z
loop_
_atom_site_type_symbol
_atom_site_label
_atom_site_fract_x
_atom_site_fract_y
_atom_site_fract_z
Si Si1 0.318112 0.363495 0.389416
Si Si2 0.707109 0.565655 0.054578
Si Si3 0.862380 0.718785 0.457106
Si Si4 0.501440 0.684356 0.057772
Si Si5 0.903723 0.667833 0.827138
Si Si6 0.699753 0.320875 0.389997
O O1 0.329604 0.465709 0.384852
O O2 0.194226 0.344532 0.533856
O O3 0.328150 0.317168 0.478053
O O4 0.427251 0.323009 0.155162
O O5 0.607284 0.618675 0.270815
O O6 0.830571 0.583162 0.911924
O O7 0.723973 0.594621 0.916783
O O8 0.808637 0.699996 0.647400
O O9 0.000000 0.702575 0.250000
O O10 0.461482 0.784781 0.140738
O O11 0.582605 0.656702 0.018077
O O12 0.000000 0.634783 0.750000
O O13 0.817101 0.738437 0.013434
#
# Coordination Sequence:
#
# PCOD8148209 Si02
#       6
#     8   8   8   8   8   8
#     4  10  23  40  57  90 119 151 200 249 289 356
#     4  11  20  34  62  93 118 145 197 252 305 336
#     4  10  23  41  61  75 119 167 200 229 301 364
#     4   9  18  36  61  85 122 151 191 246 299 359
#     4   9  19  34  59  88 120 158 200 235 293 362
#     4   9  19  37  57  86 115 154 197 243 289 361
#
# _framework density 19.889234999999999
#
# number of rings (size 3 to 8) (size 9 to 14) (size 15 to 20)
#    0.000    2.333    0.000    4.000    4.667    2.000 
#    6.000    0.833    0.000    0.000    0.000    0.000 
#    0.000    0.000    0.000    0.000    0.000    0.000 
#
# Total GULP energy -297570.082376 kJ/mol
# GULP energy per Si atom -12398.753432 kJ/mol
# Density = 1.984397 g / cm^3
# Si number density = 19.889235 Si / 1000 Ang^3
#
#
#
# Elastic Constant Matrix: (Units=GPa)
#
#
# Indices 1 2 3 4 5 6 
#
# 1 62.0607 13.9272 44.4443 0.0000 -4.3403 0.0000
# 2 13.9272 59.3283 29.5142 0.0000 -0.7925 0.0000
# 3 44.4443 29.5142 112.7083 0.0000 -7.2786 0.0000
# 4 0.0000 0.0000 0.0000 17.7862 0.0000 -2.3711
# 5 -4.3403 -0.7925 -7.2786 0.0000 34.9554 0.0000
# 6 0.0000 0.0000 0.0000 -2.3711 0.0000 17.8617
#
#
#
# Elastic Compliance Matrix: (Units=1/GPa)
#
#
# Indices 1 2 3 4 5 6 
#
# 1 0.022540 -0.001021 -0.008556 0.000000 0.000994 0.000000
# 2 -0.001021 0.019440 -0.004731 0.000000 -0.000671 0.000000
# 3 -0.008556 -0.004731 0.013593 0.000000 0.001661 0.000000
# 4 0.000000 0.000000 0.000000 0.057236 0.000000 0.007598
# 5 0.000994 -0.000671 0.001661 0.000000 0.029062 0.000000
# 6 0.000000 0.000000 0.000000 0.007598 0.000000 0.056994
#
#
# Mechanical properties :
#
#
# Convention : Reuss Voigt Hill
#
# Bulk Modulus (GPa) = 37.09987 45.54096 41.32041
# Shear Modulus (GPa) = 21.14459 23.86810 22.50634
#
# Velocity S-wave (km/s) = 3.26409 3.46793 3.36755
# Velocity P-wave (km/s) = 5.73580 6.24359 5.99507
#
# Compressibility (1/GPa) = 0.02695427
#
# Stress axis : x y z
#
# Youngs Moduli (GPa) = 44.36645 51.44087 73.56898
#
# Poissons Ratio (x) = 0.05253 0.62949
# Poissons Ratio (y) = 0.04531 0.34807
# Poissons Ratio (z) = 0.37962 0.24338
#
# Static dielectric constant tensor:
#      x y z
#    x 3.709930 0.000000 0.028110 
#    y 0.000000 3.296620 0.000000 
#    z 0.028110 0.000000 3.807400 
# 
# 
# High freq. dielectric constant tensor:
#      x y z
#    x 1.785520 0.000000 -0.007180 
#    y 0.000000 1.743030 0.000000 
#    z -0.007180 0.000000 1.780370 
# 
# From -- ./inp_files/178133.got.cif
#   From: 2010.06.25/outbox.cif.g09.slc.cpg/sg15_90_cif.got.tgz:178133.got - 2010.06.28 07:06:18.
