data_PCOD8148103
_publ_section_title
;
Structure prediction by ZEFSAII (Michael W. Deem and Ramdas Pophale) SiO2 
 PCOD8148103
Probable space group: C 2/C
;
_chemical_formula_sum "Si O2"
_cell_formula_units_Z 64
_cell_length_a 14.515445
_cell_length_b 11.789196
_cell_length_c 29.399535
_cell_angle_alpha 90.000000
_cell_angle_beta 37.173070
_cell_angle_gamma 90.000000
_cell_volume 3039.859098
_symmetry_space_group_name_H-M "C 2/C"
_symmetry_group_IT_number 15
_symmetry_cell_setting 'monoclinic'
loop_
_space_group_symop_operation_xyz
x,y,z
-x,y,1/2-z
-x,-y,-z
x,-y,1/2+z
1/2+x,1/2+y,z
1/2-x,1/2+y,1/2-z
1/2-x,1/2-y,-z
1/2+x,1/2-y,1/2+z
loop_
_atom_site_type_symbol
_atom_site_label
_atom_site_fract_x
_atom_site_fract_y
_atom_site_fract_z
Si Si1 0.738245 0.582346 0.555517
Si Si2 0.175815 0.191699 0.896498
Si Si3 0.069023 0.823276 0.341395
Si Si4 0.970270 0.570703 0.396498
Si Si5 0.387950 0.004072 0.335997
Si Si6 0.155732 0.210199 0.434023
Si Si7 0.714334 0.951092 0.874743
Si Si8 0.157677 0.162356 0.709428
O O1 0.555366 0.582751 0.625133
O O2 0.795224 0.710525 0.543393
O O3 0.807187 0.495156 0.565308
O O4 0.797778 0.550498 0.482003
O O5 0.148459 0.138138 0.856896
O O6 0.311037 0.118705 0.864535
O O7 0.246101 0.317428 0.863919
O O8 0.025084 0.186452 0.987914
O O9 0.995399 0.702555 0.378755
O O10 0.180559 0.814691 0.254041
O O11 0.071460 0.524121 0.398064
O O12 0.992769 0.504920 0.340202
O O13 0.500000 0.029928 0.250000
O O14 0.252365 0.095058 0.394561
O O15 0.195306 0.279397 0.372236
O O16 0.847333 0.027264 0.799690
O O17 0.000000 0.213999 0.750000
#
# Coordination Sequence:
#
# PCOD8148103 Si02
#       8
#     8   8   8   8   8   8   8   8
#     4  11  19  37  71  99 121 155 220 273 313 370
#     4  11  26  43  64  93 132 174 210 257 323 395
#     4  11  20  38  64  98 119 163 220 264 310 370
#     4  11  21  38  67  90 124 167 212 261 314 381
#     4  12  26  43  62  91 135 172 210 261 326 381
#     4  11  20  40  68  94 122 161 218 275 312 360
#     4  10  23  38  65  92 128 160 209 260 324 377
#     4  11  21  36  65  98 127 158 217 275 316 366
#
# _framework density 21.053608000000001
#
# number of rings (size 3 to 8) (size 9 to 14) (size 15 to 20)
#    0.000    1.000    6.250    3.000    3.500    0.500 
#    0.000    0.625    5.500    0.000    0.000    0.000 
#    0.000    0.000    0.000    0.000    0.000    0.000 
#
# Total GULP energy -396535.533241 kJ/mol
# GULP energy per Si atom -12391.735414 kJ/mol
# Density = 2.100569 g / cm^3
# Si number density = 21.053608 Si / 1000 Ang^3
#
#
#
# Elastic Constant Matrix: (Units=GPa)
#
#
# Indices 1 2 3 4 5 6 
#
# 1 74.0994 33.3012 27.7903 -0.0001 20.9026 0.0001
# 2 33.3012 80.1252 7.6970 0.0001 7.8826 -0.0001
# 3 27.7903 7.6970 106.4618 0.0008 39.1441 -0.0003
# 4 -0.0001 0.0001 0.0008 20.0010 0.0000 0.1454
# 5 20.9026 7.8826 39.1441 0.0000 30.9959 0.0000
# 6 0.0001 -0.0001 -0.0003 0.1454 0.0000 21.3177
#
#
#
# Elastic Compliance Matrix: (Units=1/GPa)
#
#
# Indices 1 2 3 4 5 6 
#
# 1 0.020043 -0.007202 -0.000775 0.000000 -0.010706 0.000000
# 2 -0.007202 0.015404 0.000786 0.000000 -0.000053 0.000000
# 3 -0.000775 0.000786 0.017585 -0.000001 -0.021886 0.000000
# 4 0.000000 0.000000 -0.000001 0.050000 0.000001 -0.000341
# 5 -0.010706 -0.000053 -0.021886 0.000001 0.067135 0.000000
# 6 0.000000 0.000000 0.000000 -0.000341 0.000000 0.046912
#
#
# Mechanical properties :
#
#
# Convention : Reuss Voigt Hill
#
# Bulk Modulus (GPa) = 25.87373 44.25150 35.06261
# Shear Modulus (GPa) = 20.46294 27.25611 23.85952
#
# Velocity S-wave (km/s) = 3.12098 3.60197 3.37007
# Velocity P-wave (km/s) = 5.03026 6.19379 5.64210
#
# Compressibility (1/GPa) = 0.03864924
#
# Stress axis : x y z
#
# Youngs Moduli (GPa) = 49.89290 64.91993 56.86524
#
# Poissons Ratio (x) = 0.46758 0.04405
# Poissons Ratio (y) = 0.35935 -0.04468
# Poissons Ratio (z) = 0.03865 -0.05101
#
# Static dielectric constant tensor:
#      x y z
#    x 3.909190 0.000000 0.205160 
#    y 0.000000 3.675120 0.000000 
#    z 0.205160 0.000000 3.958780 
# 
# 
# High freq. dielectric constant tensor:
#      x y z
#    x 1.809000 0.000000 0.020690 
#    y 0.000000 1.807390 0.000000 
#    z 0.020690 0.000000 1.834250 
# 
# From -- ./inp_files/313592.got.cif
#   From: 2010.06.25/outbox.cif.g09.slc.cpg/sg15_157_cif.got.tgz:313592.got - 2010.06.28 07:06:18.
