data_PCOD8148890
_publ_section_title
;
Structure prediction by ZEFSAII (Michael W. Deem and Ramdas Pophale) SiO2 
 PCOD8148890
Probable space group: C 2/C
;
_chemical_formula_sum "Si O2"
_cell_formula_units_Z 56
_cell_length_a 24.337339
_cell_length_b 10.024275
_cell_length_c 12.306313
_cell_angle_alpha 90.000000
_cell_angle_beta 113.231509
_cell_angle_gamma 90.000000
_cell_volume 2758.868768
_symmetry_space_group_name_H-M "C 2/C"
_symmetry_group_IT_number 15
_symmetry_cell_setting 'monoclinic'
loop_
_space_group_symop_operation_xyz
x,y,z
-x,y,1/2-z
-x,-y,-z
x,-y,1/2+z
1/2+x,1/2+y,z
1/2-x,1/2+y,1/2-z
1/2-x,1/2-y,-z
1/2+x,1/2-y,1/2+z
loop_
_atom_site_type_symbol
_atom_site_label
_atom_site_fract_x
_atom_site_fract_y
_atom_site_fract_z
Si Si1 0.820181 0.739898 0.557215
Si Si2 0.852213 0.651774 0.814195
Si Si3 0.638320 0.532698 0.869018
Si Si4 0.555143 0.374832 0.132757
Si Si5 0.144886 0.354291 0.649464
Si Si6 0.736288 0.712395 0.865215
Si Si7 0.923084 0.870276 0.984716
O O1 0.750000 0.750000 0.500000
O O2 0.837716 0.654900 0.675835
O O3 0.841154 0.665583 0.465929
O O4 0.850986 0.883005 0.586518
O O5 0.878054 0.505385 0.856796
O O6 0.794244 0.672107 0.843487
O O7 0.902248 0.764371 0.877810
O O8 0.575472 0.546062 0.756515
O O9 0.692707 0.583345 0.835776
O O10 0.630463 0.626462 0.968804
O O11 0.591872 0.239995 0.146463
O O12 0.486483 0.327060 0.085225
O O13 0.568040 0.477744 0.046116
O O14 0.202928 0.329868 0.772103
O O15 0.750000 0.750000 0.000000
#
# Coordination Sequence:
#
# PCOD8148890 Si02
#       7
#     8   8   8   8   8   8   8
#     4  12  24  41  64  94 137 174 215 267 330 403
#     4  12  26  41  65 100 135 177 218 269 347 396
#     4  11  22  40  67  95 128 174 225 266 327 393
#     4  10  23  43  66  96 125 171 225 281 318 385
#     4  11  26  42  64  98 138 171 218 274 336 404
#     4  11  24  39  64  95 136 173 218 267 327 403
#     4  11  22  42  69  92 129 170 226 276 324 384
#
# _framework density 20.298175000000001
#
# number of rings (size 3 to 8) (size 9 to 14) (size 15 to 20)
#    0.000    0.857    5.714    1.286    4.000    0.571 
#    0.000    0.714    0.000    0.000    0.000    0.000 
#    0.000    0.000    0.000    0.000    0.000    0.000 
#
# Total GULP energy -347188.803657 kJ/mol
# GULP energy per Si atom -12399.600131 kJ/mol
# Density = 2.025198 g / cm^3
# Si number density = 20.298175 Si / 1000 Ang^3
#
#
#
# Elastic Constant Matrix: (Units=GPa)
#
#
# Indices 1 2 3 4 5 6 
#
# 1 77.5917 52.0480 39.0614 0.0000 4.0000 0.0000
# 2 52.0480 119.2019 43.0235 0.0000 8.1686 0.0000
# 3 39.0614 43.0235 144.1240 0.0000 -3.7519 0.0000
# 4 0.0000 0.0000 0.0000 30.0912 0.0000 -1.4350
# 5 4.0000 8.1686 -3.7519 0.0000 33.0008 0.0000
# 6 0.0000 0.0000 0.0000 -1.4350 0.0000 19.7671
#
#
#
# Elastic Compliance Matrix: (Units=1/GPa)
#
#
# Indices 1 2 3 4 5 6 
#
# 1 0.019380 -0.007281 -0.003103 0.000000 -0.000900 0.000000
# 2 -0.007281 0.012375 -0.001783 0.000000 -0.002383 0.000000
# 3 -0.003103 -0.001783 0.008358 0.000000 0.001768 0.000000
# 4 0.000000 0.000000 0.000000 0.033348 0.000000 0.002421
# 5 -0.000900 -0.002383 0.001768 0.000000 0.031202 0.000000
# 6 0.000000 0.000000 0.000000 0.002421 0.000000 0.050765
#
#
# Mechanical properties :
#
#
# Convention : Reuss Voigt Hill
#
# Bulk Modulus (GPa) = 63.36971 67.68705 65.52838
# Shear Modulus (GPa) = 27.02413 30.35745 28.69079
#
# Velocity S-wave (km/s) = 3.65274 3.87146 3.76369
# Velocity P-wave (km/s) = 7.00551 7.30774 7.15822
#
# Compressibility (1/GPa) = 0.01578041
#
# Stress axis : x y z
#
# Youngs Moduli (GPa) = 51.59951 80.80835 119.65170
#
# Poissons Ratio (x) = 0.58833 0.37122
# Poissons Ratio (y) = 0.37568 0.21333
# Poissons Ratio (z) = 0.16009 0.14408
#
# Static dielectric constant tensor:
#      x y z
#    x 3.581960 0.000000 0.068480 
#    y 0.000000 3.605710 0.000000 
#    z 0.068480 0.000000 3.817290 
# 
# 
# High freq. dielectric constant tensor:
#      x y z
#    x 1.786750 0.000000 -0.001380 
#    y 0.000000 1.786490 0.000000 
#    z -0.001380 0.000000 1.811460 
# 
# From -- ./inp_files/121991.got.cif
#   From: 2010.06.25/outbox.cif.g09.slc.cpg/sg15_61_cif.got.tgz:121991.got - 2010.06.28 07:06:18.
