data_PCOD8148921
_publ_section_title
;
Structure prediction by ZEFSAII (Michael W. Deem and Ramdas Pophale) SiO2 
 PCOD8148921
Probable space group: C 2/C
;
_chemical_formula_sum "Si O2"
_cell_formula_units_Z 64
_cell_length_a 12.240020
_cell_length_b 27.078757
_cell_length_c 15.244439
_cell_angle_alpha 90.000000
_cell_angle_beta 38.497058
_cell_angle_gamma 90.000000
_cell_volume 3145.167867
_symmetry_space_group_name_H-M "C 2/C"
_symmetry_group_IT_number 15
_symmetry_cell_setting 'monoclinic'
loop_
_space_group_symop_operation_xyz
x,y,z
-x,y,1/2-z
-x,-y,-z
x,-y,1/2+z
1/2+x,1/2+y,z
1/2-x,1/2+y,1/2-z
1/2-x,1/2-y,-z
1/2+x,1/2-y,1/2+z
loop_
_atom_site_type_symbol
_atom_site_label
_atom_site_fract_x
_atom_site_fract_y
_atom_site_fract_z
Si Si1 0.445068 0.029190 0.376410
Si Si2 0.469577 0.701474 0.906049
Si Si3 0.300089 0.201619 0.578490
Si Si4 0.053796 0.422861 0.312832
Si Si5 0.932882 0.895591 0.068422
Si Si6 0.548383 0.476129 0.127257
Si Si7 0.564047 0.416165 0.804516
Si Si8 0.446355 0.109366 0.057983
O O1 0.500000 0.055822 0.250000
O O2 0.249913 0.006390 0.498038
O O3 0.453544 0.066882 0.451286
O O4 0.574284 0.982201 0.305088
O O5 0.664549 0.708743 0.743740
O O6 0.318471 0.689475 0.930963
O O7 0.472662 0.655411 0.968986
O O8 0.414343 0.749127 0.995933
O O9 0.445769 0.159533 0.499273
O O10 0.921657 0.404766 0.471172
O O11 0.000000 0.404830 0.250000
O O12 0.234425 0.396680 0.226733
O O13 0.030493 0.940301 0.055834
O O14 0.929024 0.901858 0.966012
O O15 0.500000 0.448531 0.250000
O O16 0.421655 0.524103 0.203175
O O17 0.500000 0.396824 0.750000
O O18 0.746236 0.389463 0.717602
#
# Coordination Sequence:
#
# PCOD8148921 Si02
#       8
#     8   8   8   8   8   8   8   8
#     4  11  22  37  57  91 129 162 205 254 303 365
#     4  10  23  43  67  97 124 152 191 250 324 375
#     4  10  23  43  67  96 126 151 190 253 317 383
#     4  11  22  38  59  85 122 166 214 254 290 350
#     4  12  22  38  65  89 120 170 210 249 305 371
#     4  11  22  37  59  90 130 165 203 257 307 364
#     4  11  24  40  56  88 131 173 212 254 296 345
#     4  12  22  39  63  92 121 167 209 249 304 369
#
# _framework density 20.348675
#
# number of rings (size 3 to 8) (size 9 to 14) (size 15 to 20)
#    0.000    1.000    1.250    7.500    3.500    0.000 
#    2.250    0.000    0.000    4.500    0.000    0.000 
#    0.000    0.000    0.000    0.000    0.000    0.000 
#
# Total GULP energy -396766.616868 kJ/mol
# GULP energy per Si atom -12398.956777 kJ/mol
# Density = 2.030236 g / cm^3
# Si number density = 20.348675 Si / 1000 Ang^3
#
#
#
# Elastic Constant Matrix: (Units=GPa)
#
#
# Indices 1 2 3 4 5 6 
#
# 1 76.3225 51.2964 35.2827 0.0001 5.7032 -0.0001
# 2 51.2964 105.1132 33.7666 0.0000 -1.9295 0.0000
# 3 35.2827 33.7666 100.7045 0.0003 4.8053 -0.0002
# 4 0.0001 0.0000 0.0003 18.3430 -0.0002 -2.5906
# 5 5.7032 -1.9295 4.8053 -0.0002 48.3985 0.0001
# 6 -0.0001 0.0000 -0.0002 -2.5906 0.0001 24.9289
#
#
#
# Elastic Compliance Matrix: (Units=1/GPa)
#
#
# Indices 1 2 3 4 5 6 
#
# 1 0.021403 -0.009099 -0.004331 0.000000 -0.002455 0.000000
# 2 -0.009099 0.014560 -0.001781 0.000000 0.001830 0.000000
# 3 -0.004331 -0.001781 0.012081 0.000000 -0.000760 0.000000
# 4 0.000000 0.000000 0.000000 0.055329 0.000000 0.005750
# 5 -0.002455 0.001830 -0.000760 0.000000 0.021099 0.000000
# 6 0.000000 0.000000 0.000000 0.005750 0.000000 0.040712
#
#
# Mechanical properties :
#
#
# Convention : Reuss Voigt Hill
#
# Bulk Modulus (GPa) = 56.74771 58.09241 57.42006
# Shear Modulus (GPa) = 24.81642 29.12036 26.96839
#
# Velocity S-wave (km/s) = 3.49601 3.78705 3.64444
# Velocity P-wave (km/s) = 6.65164 6.90889 6.78149
#
# Compressibility (1/GPa) = 0.01762186
#
# Stress axis : x y z
#
# Youngs Moduli (GPa) = 46.72221 68.68272 82.77500
#
# Poissons Ratio (x) = 0.62493 0.35848
# Poissons Ratio (y) = 0.42512 0.14745
# Poissons Ratio (z) = 0.20234 0.12235
#
# Static dielectric constant tensor:
#      x y z
#    x 3.678120 0.000000 0.076320 
#    y 0.000000 3.360110 0.000000 
#    z 0.076320 0.000000 3.841020 
# 
# 
# High freq. dielectric constant tensor:
#      x y z
#    x 1.793090 0.000000 0.002700 
#    y 0.000000 1.762620 0.000000 
#    z 0.002700 0.000000 1.819030 
# 
# From -- ./inp_files/148753.got.cif
#   From: 2010.06.25/outbox.cif.g09.slc.cpg/sg15_75_cif.got.tgz:148753.got - 2010.06.28 07:06:18.
