data_PCOD8148529
_publ_section_title
;
Structure prediction by ZEFSAII (Michael W. Deem and Ramdas Pophale) SiO2 
 PCOD8148529
Probable space group: C 2/C
;
_chemical_formula_sum "Si O2"
_cell_formula_units_Z 48
_cell_length_a 25.077420
_cell_length_b 11.488933
_cell_length_c 8.535284
_cell_angle_alpha 90.000000
_cell_angle_beta 115.156631
_cell_angle_gamma 90.000000
_cell_volume 2225.874328
_symmetry_space_group_name_H-M "C 2/C"
_symmetry_group_IT_number 15
_symmetry_cell_setting 'monoclinic'
loop_
_space_group_symop_operation_xyz
x,y,z
-x,y,1/2-z
-x,-y,-z
x,-y,1/2+z
1/2+x,1/2+y,z
1/2-x,1/2+y,1/2-z
1/2-x,1/2-y,-z
1/2+x,1/2-y,1/2+z
loop_
_atom_site_type_symbol
_atom_site_label
_atom_site_fract_x
_atom_site_fract_y
_atom_site_fract_z
Si Si1 0.388409 0.051836 0.593036
Si Si2 0.362108 0.379526 0.315672
Si Si3 0.779992 0.697968 0.383907
Si Si4 0.469888 0.238409 0.550635
Si Si5 0.335663 0.628224 0.417777
Si Si6 0.584956 0.838434 0.053339
O O1 0.320932 0.087249 0.475016
O O2 0.432211 0.123521 0.536877
O O3 0.402419 0.073554 0.790144
O O4 0.400394 0.913950 0.583159
O O5 0.317262 0.301458 0.356574
O O6 0.429159 0.339771 0.429453
O O7 0.357237 0.510567 0.366210
O O8 0.346739 0.372318 0.115133
O O9 0.750000 0.750000 0.500000
O O10 0.732987 0.650127 0.200803
O O11 0.500000 0.282879 0.750000
O O12 0.517986 0.207147 0.478001
O O13 0.372085 0.729504 0.379235
#
# Coordination Sequence:
#
# PCOD8148529 Si02
#       6
#     8   8   8   8   8   8
#     4  10  23  41  70  99 139 178 228 291 347 416
#     4  11  27  47  69 102 143 185 240 292 350 416
#     4  11  23  46  72  99 141 187 230 289 352 418
#     4   9  22  46  71  97 138 185 235 291 353 413
#     4  12  27  44  71 103 142 187 237 284 350 425
#     4  11  24  43  70 105 139 182 234 285 358 414
#
# _framework density 21.56456
#
# number of rings (size 3 to 8) (size 9 to 14) (size 15 to 20)
#    0.000    1.333    1.667    2.000   11.667    2.667 
#    0.000    0.000    0.000    0.000    0.000    0.000 
#    0.000    0.000    0.000    0.000    0.000    0.000 
#
# Total GULP energy -297725.733480 kJ/mol
# GULP energy per Si atom -12405.238895 kJ/mol
# Density = 2.151548 g / cm^3
# Si number density = 21.564560 Si / 1000 Ang^3
#
#
#
# Elastic Constant Matrix: (Units=GPa)
#
#
# Indices 1 2 3 4 5 6 
#
# 1 136.3500 56.2980 59.8221 0.0000 16.7191 0.0000
# 2 56.2980 133.4768 46.3339 0.0000 9.3712 0.0000
# 3 59.8221 46.3339 128.7596 0.0000 15.6657 0.0000
# 4 0.0000 0.0000 0.0000 34.1701 0.0000 -0.2553
# 5 16.7191 9.3712 15.6657 0.0000 40.9756 0.0000
# 6 0.0000 0.0000 0.0000 -0.2553 0.0000 -3.6323
#
#
#
# Elastic Compliance Matrix: (Units=1/GPa)
#
#
# Indices 1 2 3 4 5 6 
#
# 1 0.010371 -0.003016 -0.003463 0.000000 -0.002218 0.000000
# 2 -0.003016 0.009465 -0.001983 0.000000 -0.000176 0.000000
# 3 -0.003463 -0.001983 0.010343 0.000000 -0.002088 0.000000
# 4 0.000000 0.000000 0.000000 0.029250 0.000000 -0.002056
# 5 -0.002218 -0.000176 -0.002088 0.000000 0.026148 0.000000
# 6 0.000000 0.000000 0.000000 -0.002056 0.000000 -0.275166
#
#
# Mechanical properties :
#
#
# Convention : Reuss Voigt Hill
#
# Bulk Modulus (GPa) = 75.45120 80.38825 77.91972
# Shear Modulus (GPa) = -29.71833 30.04486 0.16327
#
# Velocity S-wave (km/s) = -3.71632 3.73668 0.27545
# Velocity P-wave (km/s) = 4.08042 7.48170 6.02601
#
# Compressibility (1/GPa) = 0.01325360
#
# Stress axis : x y z
#
# Youngs Moduli (GPa) = 96.42437 105.65319 96.68380
#
# Poissons Ratio (x) = 0.31869 0.33482
# Poissons Ratio (y) = 0.29085 0.19174
# Poissons Ratio (z) = 0.33392 0.20952
#
# Static dielectric constant tensor:
#      x y z
#    x 4.149260 0.000000 0.114870 
#    y 0.000000 3.797280 0.000000 
#    z 0.114870 0.000000 4.046820 
# 
# 
# High freq. dielectric constant tensor:
#      x y z
#    x 1.858400 0.000000 0.005270 
#    y 0.000000 1.845950 0.000000 
#    z 0.005270 0.000000 1.857490 
# 
# From -- ./inp_files/65242.got.cif
#   From: 2010.06.25/outbox.cif.g09.slc.cpg/sg15_33_cif.got.tgz:65242.got - 2010.06.28 07:06:18.
