data_PCOD8148605
_publ_section_title
;
Structure prediction by ZEFSAII (Michael W. Deem and Ramdas Pophale) SiO2 
 PCOD8148605
Probable space group: C 2/C
;
_chemical_formula_sum "Si O2"
_cell_formula_units_Z 44
_cell_length_a 11.689248
_cell_length_b 8.744141
_cell_length_c 19.626360
_cell_angle_alpha 90.000000
_cell_angle_beta 113.474391
_cell_angle_gamma 90.000000
_cell_volume 1840.033046
_symmetry_space_group_name_H-M "C 2/C"
_symmetry_group_IT_number 15
_symmetry_cell_setting 'monoclinic'
loop_
_space_group_symop_operation_xyz
x,y,z
-x,y,1/2-z
-x,-y,-z
x,-y,1/2+z
1/2+x,1/2+y,z
1/2-x,1/2+y,1/2-z
1/2-x,1/2-y,-z
1/2+x,1/2-y,1/2+z
loop_
_atom_site_type_symbol
_atom_site_label
_atom_site_fract_x
_atom_site_fract_y
_atom_site_fract_z
Si Si1 0.069155 0.717415 0.123317
Si Si2 0.121353 0.281936 0.039438
Si Si3 0.205635 0.006699 0.355188
Si Si4 0.000000 0.182748 0.750000
Si Si5 0.196321 0.937092 0.064447
Si Si6 0.412488 0.749481 0.084094
O O1 0.182415 0.597859 0.152954
O O2 0.005612 0.717547 0.182505
O O3 0.126604 0.886003 0.117993
O O4 0.964949 0.664307 0.043672
O O5 0.239271 0.395581 0.072270
O O6 0.054556 0.291870 0.098383
O O7 0.168776 0.109867 0.038087
O O8 0.128659 0.913256 0.280763
O O9 0.101326 0.115129 0.364382
O O10 0.344758 0.902355 0.097630
O O11 0.141968 0.810130 0.000245
#
# Coordination Sequence:
#
# PCOD8148605 Si02
#       6
#     8   8   8   4   8   8
#     4  10  23  42  64  95 128 163 212 258 311 382
#     4  11  21  39  69  98 122 158 212 270 318 366
#     4  11  25  42  64  92 123 164 213 262 317 377
#     4  12  26  42  60  86 132 174 204 252 314 382
#     4   9  18  35  63  95 125 159 200 252 315 368
#     4   9  19  37  59  90 128 157 196 258 311 361
#
# _framework density 23.912614999999999
#
# number of rings (size 3 to 8) (size 9 to 14) (size 15 to 20)
#    0.000    1.818    0.000    6.000    0.000    7.273 
#    0.000    3.636    0.000    5.455    0.000    0.000 
#    0.000    0.000    0.000    0.000    0.000    0.000 
#
# Total GULP energy -272685.169108 kJ/mol
# GULP energy per Si atom -12394.780414 kJ/mol
# Density = 2.385819 g / cm^3
# Si number density = 23.912615 Si / 1000 Ang^3
#
#
#
# Elastic Constant Matrix: (Units=GPa)
#
#
# Indices 1 2 3 4 5 6 
#
# 1 87.1104 29.5602 30.9777 0.0000 -6.7135 0.0000
# 2 29.5602 58.8600 18.9895 0.0000 8.1310 0.0000
# 3 30.9777 18.9895 88.0757 0.0000 -0.5041 0.0000
# 4 0.0000 0.0000 0.0000 16.7042 0.0000 9.2463
# 5 -6.7135 8.1310 -0.5041 0.0000 44.6862 0.0000
# 6 0.0000 0.0000 0.0000 9.2463 0.0000 26.0096
#
#
#
# Elastic Compliance Matrix: (Units=1/GPa)
#
#
# Indices 1 2 3 4 5 6 
#
# 1 0.015537 -0.007028 -0.003929 0.000000 0.003569 0.000000
# 2 -0.007028 0.021960 -0.002292 0.000000 -0.005078 0.000000
# 3 -0.003929 -0.002292 0.013230 0.000000 -0.000024 0.000000
# 4 0.000000 0.000000 0.000000 0.074531 0.000000 -0.026496
# 5 0.003569 -0.005078 -0.000024 0.000000 0.023838 0.000000
# 6 0.000000 0.000000 0.000000 -0.026496 0.000000 0.047866
#
#
# Mechanical properties :
#
#
# Convention : Reuss Voigt Hill
#
# Bulk Modulus (GPa) = 41.27322 43.67787 42.47555
# Shear Modulus (GPa) = 21.59490 27.78124 24.68807
#
# Velocity S-wave (km/s) = 3.00838 3.41219 3.21663
# Velocity P-wave (km/s) = 5.41891 5.81630 5.62112
#
# Compressibility (1/GPa) = 0.02422878
#
# Stress axis : x y z
#
# Youngs Moduli (GPa) = 64.36321 45.53753 75.58768
#
# Poissons Ratio (x) = 0.32005 0.29697
# Poissons Ratio (y) = 0.45236 0.17323
# Poissons Ratio (z) = 0.25287 0.10436
#
# Static dielectric constant tensor:
#      x y z
#    x 5.000670 0.000000 -0.112640 
#    y 0.000000 4.105700 0.000000 
#    z -0.112640 0.000000 3.816540 
# 
# 
# High freq. dielectric constant tensor:
#      x y z
#    x 1.971140 0.000000 -0.011210 
#    y 0.000000 1.944390 0.000000 
#    z -0.011210 0.000000 1.898090 
# 
# From -- ./inp_files/236063.got.cif
#   From: 2010.06.25/outbox.cif.g09.slc.cpg/sg15_119_cif.got.tgz:236063.got - 2010.06.28 07:06:18.
