data_PCOD8148639
_publ_section_title
;
Structure prediction by ZEFSAII (Michael W. Deem and Ramdas Pophale) SiO2 
 PCOD8148639
Probable space group: C 2/C
;
_chemical_formula_sum "Si O2"
_cell_formula_units_Z 24
_cell_length_a 10.242342
_cell_length_b 16.490304
_cell_length_c 4.746958
_cell_angle_alpha 90.000000
_cell_angle_beta 90.000164
_cell_angle_gamma 90.000000
_cell_volume 801.758041
_symmetry_space_group_name_H-M "C 2/C"
_symmetry_group_IT_number 15
_symmetry_cell_setting 'monoclinic'
loop_
_space_group_symop_operation_xyz
x,y,z
-x,y,1/2-z
-x,-y,-z
x,-y,1/2+z
1/2+x,1/2+y,z
1/2-x,1/2+y,1/2-z
1/2-x,1/2-y,-z
1/2+x,1/2-y,1/2+z
loop_
_atom_site_type_symbol
_atom_site_label
_atom_site_fract_x
_atom_site_fract_y
_atom_site_fract_z
Si Si1 0.394251 0.159225 0.450905
Si Si2 0.749999 0.057163 0.655111
Si Si3 0.105749 0.159225 0.450905
O O1 0.500000 0.114823 0.250000
O O2 0.378044 0.110028 0.749313
O O3 0.250000 0.163183 0.299849
O O4 0.445614 0.250000 0.500000
O O5 0.749999 0.029061 0.330586
O O6 0.878043 0.110028 0.750687
O O7 0.000000 0.114823 0.250000
#
# Coordination Sequence:
#
# PCOD8148639 Si02
#       3
#     8   8   8
#     4   9  21  41  62  96 124 172 217 266 316 382
#     4  10  23  42  65  96 134 168 212 266 327 388
#     4   9  21  41  62  96 124 172 217 266 316 382
#
# _framework density 29.934218000000001
#
# number of rings (size 3 to 8) (size 9 to 14) (size 15 to 20)
#    2.000    0.667    0.000    0.000    0.000    9.333 
#    0.000    0.000    0.000    0.000    0.000    0.000 
#    0.000    0.000    0.000    0.000    0.000    0.000 
#
# Total GULP energy -148658.454701 kJ/mol
# GULP energy per Si atom -12388.204558 kJ/mol
# Density = 2.986609 g / cm^3
# Si number density = 29.934218 Si / 1000 Ang^3
#
#
#
# Elastic Constant Matrix: (Units=GPa)
#
#
# Indices 1 2 3 4 5 6 
#
# 1 97.0789 -52.5981 30.8411 0.0000 0.0009 0.0000
# 2 -52.5981 142.7271 -19.4978 0.0000 0.0001 0.0000
# 3 30.8411 -19.4978 74.4159 0.0000 0.0005 0.0000
# 4 0.0000 0.0000 0.0000 41.2837 0.0000 -0.0002
# 5 0.0009 0.0001 0.0005 0.0000 17.6182 0.0000
# 6 0.0000 0.0000 0.0000 -0.0002 0.0000 -17.6259
#
#
#
# Elastic Compliance Matrix: (Units=1/GPa)
#
#
# Indices 1 2 3 4 5 6 
#
# 1 0.014307 0.004628 -0.004717 0.000000 -0.000001 0.000000
# 2 0.004628 0.008764 0.000378 0.000000 0.000000 0.000000
# 3 -0.004717 0.000378 0.015492 0.000000 0.000000 0.000000
# 4 0.000000 0.000000 0.000000 0.024223 0.000000 0.000000
# 5 -0.000001 0.000000 0.000000 0.000000 0.056760 0.000000
# 6 0.000000 0.000000 0.000000 0.000000 0.000000 -0.056735
#
#
# Mechanical properties :
#
#
# Convention : Reuss Voigt Hill
#
# Bulk Modulus (GPa) = 25.54863 25.74584 25.64723
# Shear Modulus (GPa) = 66.42051 31.95366 49.18708
#
# Velocity S-wave (km/s) = 4.71561 3.27075 4.05800
# Velocity P-wave (km/s) = 6.18084 4.78364 5.52657
#
# Compressibility (1/GPa) = 0.03914104
#
# Stress axis : x y z
#
# Youngs Moduli (GPa) = 69.89640 114.10883 64.54995
#
# Poissons Ratio (x) = -0.52810 0.30447
# Poissons Ratio (y) = -0.32348 -0.02441
# Poissons Ratio (z) = 0.32969 -0.04314
#
# Static dielectric constant tensor:
#      x y z
#    x 5.313850 0.000000 -0.000010 
#    y 0.000000 5.420560 0.000000 
#    z -0.000010 0.000000 5.100010 
# 
# 
# High freq. dielectric constant tensor:
#      x y z
#    x 2.233760 0.000000 0.000000 
#    y 0.000000 2.226790 0.000000 
#    z 0.000000 0.000000 2.204110 
# 
# From -- ./inp_files/3251.got.cif
#   From: 2010.06.25/outbox.cif.g09.slc.cpg/sg15_2_cif.got.tgz:3251.got - 2010.06.28 07:06:18.
