data_PCOD8148169
_publ_section_title
;
Structure prediction by ZEFSAII (Michael W. Deem and Ramdas Pophale) SiO2 
 PCOD8148169
Probable space group: C 2/C
;
_chemical_formula_sum "Si O2"
_cell_formula_units_Z 20
_cell_length_a 10.805006
_cell_length_b 19.101352
_cell_length_c 5.419967
_cell_angle_alpha 90.000000
_cell_angle_beta 54.156332
_cell_angle_gamma 90.000000
_cell_volume 906.779881
_symmetry_space_group_name_H-M "C 2/C"
_symmetry_group_IT_number 15
_symmetry_cell_setting 'monoclinic'
loop_
_space_group_symop_operation_xyz
x,y,z
-x,y,1/2-z
-x,-y,-z
x,-y,1/2+z
1/2+x,1/2+y,z
1/2-x,1/2+y,1/2-z
1/2-x,1/2-y,-z
1/2+x,1/2-y,1/2+z
loop_
_atom_site_type_symbol
_atom_site_label
_atom_site_fract_x
_atom_site_fract_y
_atom_site_fract_z
Si Si1 0.500000 0.254227 0.750000
Si Si2 0.320291 0.965205 0.966267
Si Si3 0.222825 0.689679 0.840069
O O1 0.637195 0.305946 0.515222
O O2 0.560137 0.202089 0.894805
O O3 0.500000 0.976805 0.750000
O O4 0.251450 0.997462 0.792837
O O5 0.276159 0.883977 0.023669
O O6 0.250000 0.750000 0.000000
#
# Coordination Sequence:
#
# PCOD8148169 Si02
#       3
#     4   8   8
#     4  10  24  38  68  94 126 166 226 260 330 378
#     4  10  23  39  64  95 130 171 215 267 326 386
#     4  11  23  42  66  95 128 170 217 272 318 389
#
# _framework density 22.056069999999998
#
# number of rings (size 3 to 8) (size 9 to 14) (size 15 to 20)
#    0.000    1.600    0.000    3.600   19.600    0.000 
#    0.000    2.000    0.000    0.000    0.000    0.000 
#    0.000    0.000    0.000    0.000    0.000    0.000 
#
# Total GULP energy -124011.610616 kJ/mol
# GULP energy per Si atom -12401.161062 kJ/mol
# Density = 2.200587 g / cm^3
# Si number density = 22.056070 Si / 1000 Ang^3
#
#
#
# Elastic Constant Matrix: (Units=GPa)
#
#
# Indices 1 2 3 4 5 6 
#
# 1 110.4075 57.4300 43.7376 0.0000 21.7060 0.0000
# 2 57.4300 173.5735 48.0766 0.0000 43.6232 0.0000
# 3 43.7376 48.0766 76.5367 0.0000 40.1976 0.0000
# 4 0.0000 0.0000 0.0000 38.9488 0.0000 10.0567
# 5 21.7060 43.6232 40.1976 0.0000 42.0732 0.0000
# 6 0.0000 0.0000 0.0000 10.0567 0.0000 30.5858
#
#
#
# Elastic Compliance Matrix: (Units=1/GPa)
#
#
# Indices 1 2 3 4 5 6 
#
# 1 0.012861 -0.003139 -0.007231 0.000000 0.003528 0.000000
# 2 -0.003139 0.008624 0.000446 0.000000 -0.007748 0.000000
# 3 -0.007231 0.000446 0.030512 0.000000 -0.025884 0.000000
# 4 0.000000 0.000000 0.000000 0.028057 0.000000 -0.009225
# 5 0.003528 -0.007748 -0.025884 0.000000 0.054712 0.000000
# 6 0.000000 0.000000 0.000000 -0.009225 0.000000 0.035728
#
#
# Mechanical properties :
#
#
# Convention : Reuss Voigt Hill
#
# Bulk Modulus (GPa) = 31.10458 73.22290 52.16374
# Shear Modulus (GPa) = 24.86869 36.40645 30.63757
#
# Velocity S-wave (km/s) = 3.36150 4.06720 3.73108
# Velocity P-wave (km/s) = 5.40364 7.43820 6.50101
#
# Compressibility (1/GPa) = 0.03214960
#
# Stress axis : x y z
#
# Youngs Moduli (GPa) = 77.75411 115.96094 32.77444
#
# Poissons Ratio (x) = 0.36403 0.23698
# Poissons Ratio (y) = 0.24409 -0.01463
# Poissons Ratio (z) = 0.56221 -0.05178
#
# Static dielectric constant tensor:
#      x y z
#    x 4.210330 0.000000 0.004940 
#    y 0.000000 3.816700 0.000000 
#    z 0.004940 0.000000 4.710290 
# 
# 
# High freq. dielectric constant tensor:
#      x y z
#    x 1.850250 0.000000 0.019040 
#    y 0.000000 1.860210 0.000000 
#    z 0.019040 0.000000 1.882580 
# 
# From -- ./inp_files/1065.got.cif
#   From: 2010.06.25/outbox.cif.g09.slc.cpg/sg15_1_cif.got.tgz:1065.got - 2010.06.28 07:06:18.
