data_PCOD8148041
_publ_section_title
;
Structure prediction by ZEFSAII (Michael W. Deem and Ramdas Pophale) SiO2 
 PCOD8148041
Probable space group: C 2/C
;
_chemical_formula_sum "Si O2"
_cell_formula_units_Z 64
_cell_length_a 9.174155
_cell_length_b 19.085930
_cell_length_c 24.001481
_cell_angle_alpha 90.000000
_cell_angle_beta 134.345246
_cell_angle_gamma 90.000000
_cell_volume 3005.447213
_symmetry_space_group_name_H-M "C 2/C"
_symmetry_group_IT_number 15
_symmetry_cell_setting 'monoclinic'
loop_
_space_group_symop_operation_xyz
x,y,z
-x,y,1/2-z
-x,-y,-z
x,-y,1/2+z
1/2+x,1/2+y,z
1/2-x,1/2+y,1/2-z
1/2-x,1/2-y,-z
1/2+x,1/2-y,1/2+z
loop_
_atom_site_type_symbol
_atom_site_label
_atom_site_fract_x
_atom_site_fract_y
_atom_site_fract_z
Si Si1 0.417624 0.063636 0.440814
Si Si2 0.947964 0.751804 0.673522
Si Si3 0.483649 0.299549 0.442063
Si Si4 0.778994 0.985092 0.717949
Si Si5 0.052774 0.617773 0.634727
Si Si6 0.307384 0.818510 0.444205
Si Si7 0.402858 0.573165 0.991959
Si Si8 0.471952 0.606169 0.357685
O O1 0.571383 0.128360 0.483361
O O2 0.195127 0.080245 0.402968
O O3 0.500000 0.000000 0.500000
O O4 0.393783 0.045914 0.369134
O O5 0.704995 0.753561 0.608549
O O6 0.000000 0.768119 0.750000
O O7 0.022357 0.677036 0.672342
O O8 0.049062 0.812182 0.663076
O O9 0.624554 0.261528 0.525945
O O10 0.574869 0.314420 0.404577
O O11 0.428360 0.376550 0.446814
O O12 0.706897 0.065089 0.707411
O O13 0.000000 0.983910 0.750000
O O14 0.796942 0.940519 0.780104
O O15 0.163220 0.654220 0.610890
O O16 0.842121 0.578162 0.559381
O O17 0.545361 0.598516 0.080795
O O18 0.500000 0.500000 0.000000
#
# Coordination Sequence:
#
# PCOD8148041 Si02
#       8
#     8   8   8   8   8   8   8   8
#     4  11  19  35  66  93 121 161 213 263 312 377
#     4  11  23  43  64  91 132 175 213 261 336 396
#     4  10  24  38  62  99 125 163 219 270 317 383
#     4  10  23  36  62  98 122 161 214 268 318 387
#     4  11  23  42  67  92 128 172 216 266 323 394
#     4  11  21  39  67  93 127 159 217 276 309 377
#     4  11  24  41  65  94 128 170 214 269 327 385
#     4  11  22  41  66  90 127 170 214 261 325 403
#
# _framework density 21.294668000000001
#
# number of rings (size 3 to 8) (size 9 to 14) (size 15 to 20)
#    0.000    1.250    3.750    1.875    3.500    5.000 
#    0.000    0.000    0.000    1.500    0.000    0.000 
#    0.000    0.000    0.000    0.000    0.000    0.000 
#
# Total GULP energy -396463.370511 kJ/mol
# GULP energy per Si atom -12389.480328 kJ/mol
# Density = 2.124620 g / cm^3
# Si number density = 21.294668 Si / 1000 Ang^3
#
#
#
# Elastic Constant Matrix: (Units=GPa)
#
#
# Indices 1 2 3 4 5 6 
#
# 1 74.4496 21.5718 9.1308 0.0001 -9.9198 -0.0003
# 2 21.5718 113.6637 28.4555 0.0000 0.2248 0.0000
# 3 9.1308 28.4555 80.1228 0.0002 -10.4335 -0.0008
# 4 0.0001 0.0000 0.0002 53.7422 0.0002 -53.7000
# 5 -9.9198 0.2248 -10.4335 0.0002 18.3339 -0.0005
# 6 -0.0003 0.0000 -0.0008 -53.7000 -0.0005 296.7079
#
#
#
# Elastic Compliance Matrix: (Units=1/GPa)
#
#
# Indices 1 2 3 4 5 6 
#
# 1 0.015412 -0.003056 0.000453 0.000000 0.008634 0.000000
# 2 -0.003056 0.010348 -0.003843 0.000000 -0.003967 0.000000
# 3 0.000453 -0.003843 0.014939 0.000000 0.008794 0.000000
# 4 0.000000 0.000000 0.000000 0.022715 0.000000 0.004111
# 5 0.008634 -0.003967 0.008794 0.000000 0.064269 0.000000
# 6 0.000000 0.000000 0.000000 0.004111 0.000000 0.004114
#
#
# Mechanical properties :
#
#
# Convention : Reuss Voigt Hill
#
# Bulk Modulus (GPa) = 35.96132 42.95025 39.45578
# Shear Modulus (GPa) = 32.47628 87.69533 60.08581
#
# Velocity S-wave (km/s) = 3.90948 6.42427 5.31767
# Velocity P-wave (km/s) = 6.10760 8.67419 7.50148
#
# Compressibility (1/GPa) = 0.02780766
#
# Stress axis : x y z
#
# Youngs Moduli (GPa) = 64.88401 96.63874 66.93739
#
# Poissons Ratio (x) = 0.29528 -0.03033
# Poissons Ratio (y) = 0.19825 0.25727
# Poissons Ratio (z) = -0.02940 0.37142
#
# Static dielectric constant tensor:
#      x y z
#    x 3.816260 0.000000 -0.024800 
#    y 0.000000 3.994460 0.000000 
#    z -0.024800 0.000000 3.958010 
# 
# 
# High freq. dielectric constant tensor:
#      x y z
#    x 1.821220 0.000000 -0.001840 
#    y 0.000000 1.851650 0.000000 
#    z -0.001840 0.000000 1.825890 
# 
# From -- ./inp_files/266143.got.cif
#   From: 2010.06.25/outbox.cif.g09.slc.cpg/sg15_134_cif.got.tgz:266143.got - 2010.06.28 07:06:18.
