data_PCOD8148798
_publ_section_title
;
Structure prediction by ZEFSAII (Michael W. Deem and Ramdas Pophale) SiO2 
 PCOD8148798
Probable space group: C 2/C
;
_chemical_formula_sum "Si O2"
_cell_formula_units_Z 48
_cell_length_a 19.504658
_cell_length_b 14.396132
_cell_length_c 12.159998
_cell_angle_alpha 90.000000
_cell_angle_beta 142.145819
_cell_angle_gamma 90.000000
_cell_volume 2095.275901
_symmetry_space_group_name_H-M "C 2/C"
_symmetry_group_IT_number 15
_symmetry_cell_setting 'monoclinic'
loop_
_space_group_symop_operation_xyz
x,y,z
-x,y,1/2-z
-x,-y,-z
x,-y,1/2+z
1/2+x,1/2+y,z
1/2-x,1/2+y,1/2-z
1/2-x,1/2-y,-z
1/2+x,1/2-y,1/2+z
loop_
_atom_site_type_symbol
_atom_site_label
_atom_site_fract_x
_atom_site_fract_y
_atom_site_fract_z
Si Si1 0.000000 0.928535 0.750000
Si Si2 0.159839 0.920512 0.362710
Si Si3 0.500000 0.274420 0.250000
Si Si4 0.103163 0.475655 0.798171
Si Si5 0.132268 0.157461 0.601439
Si Si6 0.813955 0.327913 0.156265
Si Si7 0.524708 0.177387 0.060901
O O1 0.970413 0.862999 0.610253
O O2 0.890191 0.986676 0.644943
O O3 0.109735 0.835762 0.368952
O O4 0.294112 0.909874 0.535663
O O5 0.124719 0.917644 0.190134
O O6 0.475201 0.209738 0.114744
O O7 0.161440 0.576276 0.875341
O O8 0.061864 0.430927 0.627619
O O9 0.000000 0.476549 0.750000
O O10 0.246317 0.149101 0.680006
O O11 0.128012 0.260243 0.649960
O O12 0.935900 0.300225 0.353024
O O13 0.750000 0.250000 0.000000
#
# Coordination Sequence:
#
# PCOD8148798 Si02
#       7
#     4   8   4   8   8   8   8
#     4  11  20  46  66 109 146 192 259 310 382 443
#     4  10  23  42  72 105 146 195 248 316 370 452
#     4   9  22  44  72 109 142 194 255 308 372 445
#     4  12  26  48  74 106 153 193 247 308 381 456
#     4  11  24  43  72 101 144 192 248 311 378 452
#     4  12  28  49  70 106 145 200 246 313 383 454
#     4  11  25  44  74 108 148 192 249 309 378 455
#
# _framework density 22.908677999999998
#
# number of rings (size 3 to 8) (size 9 to 14) (size 15 to 20)
#    0.000    1.000    2.500    3.000    4.667    1.333 
#    0.000    0.000    0.000    0.000    0.000    0.000 
#    0.000    0.000    0.000    0.000    0.000    0.000 
#
# Total GULP energy -297350.054863 kJ/mol
# GULP energy per Si atom -12389.585619 kJ/mol
# Density = 2.285654 g / cm^3
# Si number density = 22.908678 Si / 1000 Ang^3
#
#
#
# Elastic Constant Matrix: (Units=GPa)
#
#
# Indices 1 2 3 4 5 6 
#
# 1 129.9659 38.3265 33.4077 0.0000 11.3564 0.0000
# 2 38.3265 125.3423 45.1900 0.0000 -3.4595 0.0000
# 3 33.4077 45.1900 126.1190 0.0000 0.1300 0.0000
# 4 0.0000 0.0000 0.0000 33.7368 0.0000 -0.4228
# 5 11.3564 -3.4595 0.1300 0.0000 42.7479 0.0000
# 6 0.0000 0.0000 0.0000 -0.4228 0.0000 -17.9851
#
#
#
# Elastic Compliance Matrix: (Units=1/GPa)
#
#
# Indices 1 2 3 4 5 6 
#
# 1 0.008986 -0.002252 -0.001571 0.000000 -0.002565 0.000000
# 2 -0.002252 0.009750 -0.002899 0.000000 0.001396 0.000000
# 3 -0.001571 -0.002899 0.009384 0.000000 0.000154 0.000000
# 4 0.000000 0.000000 0.000000 0.029633 0.000000 -0.000697
# 5 -0.002565 0.001396 0.000154 0.000000 0.024187 0.000000
# 6 0.000000 0.000000 0.000000 -0.000697 0.000000 -0.055585
#
#
# Mechanical properties :
#
#
# Convention : Reuss Voigt Hill
#
# Bulk Modulus (GPa) = 68.13291 68.36395 68.24843
# Shear Modulus (GPa) = 111.88169 29.33343 70.60756
#
# Velocity S-wave (km/s) = 6.99601 3.58222 5.55772
# Velocity P-wave (km/s) = 9.75010 6.85686 8.42855
#
# Compressibility (1/GPa) = 0.01467719
#
# Stress axis : x y z
#
# Youngs Moduli (GPa) = 111.27938 102.55992 106.56991
#
# Poissons Ratio (x) = 0.23100 0.16739
# Poissons Ratio (y) = 0.25063 0.30889
# Poissons Ratio (z) = 0.17479 0.29727
#
# Static dielectric constant tensor:
#      x y z
#    x 4.130000 0.000000 0.014650 
#    y 0.000000 4.277730 0.000000 
#    z 0.014650 0.000000 4.189900 
# 
# 
# High freq. dielectric constant tensor:
#      x y z
#    x 1.912440 0.000000 0.004600 
#    y 0.000000 1.907080 0.000000 
#    z 0.004600 0.000000 1.904160 
# 
# From -- ./inp_files/113006.got.cif
#   From: 2010.06.25/outbox.cif.g09.slc.cpg/sg15_57_cif.got.tgz:113006.got - 2010.06.28 07:06:18.
