data_PCOD8148596
_publ_section_title
;
Structure prediction by ZEFSAII (Michael W. Deem and Ramdas Pophale) SiO2 
 PCOD8148596
Probable space group: C 2/C
;
_chemical_formula_sum "Si O2"
_cell_formula_units_Z 64
_cell_length_a 21.766672
_cell_length_b 17.450707
_cell_length_c 20.189146
_cell_angle_alpha 90.000000
_cell_angle_beta 156.867336
_cell_angle_gamma 90.000000
_cell_volume 3012.745248
_symmetry_space_group_name_H-M "C 2/C"
_symmetry_group_IT_number 15
_symmetry_cell_setting 'monoclinic'
loop_
_space_group_symop_operation_xyz
x,y,z
-x,y,1/2-z
-x,-y,-z
x,-y,1/2+z
1/2+x,1/2+y,z
1/2-x,1/2+y,1/2-z
1/2-x,1/2-y,-z
1/2+x,1/2-y,1/2+z
loop_
_atom_site_type_symbol
_atom_site_label
_atom_site_fract_x
_atom_site_fract_y
_atom_site_fract_z
Si Si1 0.180556 0.088252 0.942747
Si Si2 0.648403 0.175430 0.762358
Si Si3 0.192120 0.086586 0.696623
Si Si4 0.314893 0.820981 0.697226
Si Si5 0.668955 0.587524 0.166493
Si Si6 0.819783 0.424840 0.079956
Si Si7 0.716595 0.158007 0.091092
Si Si8 0.321277 0.155564 0.951792
O O1 0.281751 0.120095 0.983122
O O2 0.000000 0.100648 0.750000
O O3 0.217975 0.134556 0.045897
O O4 0.216238 0.999398 0.989245
O O5 0.731559 0.144458 0.779437
O O6 0.707010 0.128463 0.883503
O O7 0.463601 0.169892 0.569666
O O8 0.690938 0.263038 0.815643
O O9 0.279564 0.094659 0.853457
O O10 0.010802 0.106837 0.526700
O O11 0.210765 0.999829 0.689190
O O12 0.275235 0.855613 0.729368
O O13 0.275112 0.731975 0.657535
O O14 0.496936 0.827856 0.865441
O O15 0.705618 0.600033 0.279868
O O16 0.000000 0.449080 0.250000
O O17 0.758569 0.378848 0.955966
#
# Coordination Sequence:
#
# PCOD8148596 Si02
#       8
#     8   8   8   8   8   8   8   8
#     4  12  25  42  65  94 127 162 203 252 307 366
#     4  11  23  40  63  91 125 164 207 255 307 365
#     4  11  24  42  64  92 125 162 206 255 308 366
#     4  12  25  43  66  92 125 163 206 254 306 365
#     4  11  24  42  64  92 125 162 206 255 308 366
#     4  10  23  42  64  92 125 164 208 254 307 364
#     4  11  23  40  63  91 125 164 207 255 307 365
#     4  12  25  43  66  92 125 163 206 254 306 365
#
# _framework density 21.243082999999999
#
# number of rings (size 3 to 8) (size 9 to 14) (size 15 to 20)
#    0.000    0.750    0.000    7.875    0.000    8.000 
#    0.000    0.000    0.000    0.000    0.000    0.000 
#    0.000    0.000    0.000    0.000    0.000    0.000 
#
# Total GULP energy -397107.683694 kJ/mol
# GULP energy per Si atom -12409.615115 kJ/mol
# Density = 2.119473 g / cm^3
# Si number density = 21.243083 Si / 1000 Ang^3
#
#
#
# Elastic Constant Matrix: (Units=GPa)
#
#
# Indices 1 2 3 4 5 6 
#
# 1 74.5458 6.2577 11.1639 0.1018 -12.9778 0.0635
# 2 6.2577 110.6560 27.3753 -0.1566 16.7983 -0.0825
# 3 11.1639 27.3753 115.0583 -0.0051 4.5588 0.0121
# 4 0.1018 -0.1566 -0.0051 -117.1645 0.0120 -102.9251
# 5 -12.9778 16.7983 4.5588 0.0120 50.1862 -0.0130
# 6 0.0635 -0.0825 0.0121 -102.9251 -0.0130 -25.0131
#
#
#
# Elastic Compliance Matrix: (Units=1/GPa)
#
#
# Indices 1 2 3 4 5 6 
#
# 1 0.014442 -0.001138 -0.001298 0.000007 0.004233 0.000009
# 2 -0.001138 0.010170 -0.002171 -0.000006 -0.003501 -0.000010
# 3 -0.001298 -0.002171 0.009352 0.000002 -0.000459 -0.000001
# 4 0.000007 -0.000006 0.000002 0.003264 -0.000001 -0.013432
# 5 0.004233 -0.003501 -0.000459 -0.000001 0.022234 0.000013
# 6 0.000009 -0.000010 -0.000001 -0.013432 0.000013 0.015290
#
#
# Mechanical properties :
#
#
# Convention : Reuss Voigt Hill
#
# Bulk Modulus (GPa) = 40.40491 43.31709 41.86100
# Shear Modulus (GPa) = 54.22131 -1.36739 26.42696
#
# Velocity S-wave (km/s) = 5.05763 -0.80317 3.53090
# Velocity P-wave (km/s) = 7.29162 4.42440 6.03088
#
# Compressibility (1/GPa) = 0.02474947
#
# Stress axis : x y z
#
# Youngs Moduli (GPa) = 69.24487 98.33009 106.93133
#
# Poissons Ratio (x) = 0.11192 0.13882
# Poissons Ratio (y) = 0.07881 0.23209
# Poissons Ratio (z) = 0.08989 0.21343
#
# Static dielectric constant tensor:
#      x y z
#    x 3.891200 -0.000040 -0.068070 
#    y -0.000040 3.895290 -0.000090 
#    z -0.068070 -0.000090 4.001910 
# 
# 
# High freq. dielectric constant tensor:
#      x y z
#    x 1.845130 0.000000 -0.004500 
#    y 0.000000 1.847090 -0.000010 
#    z -0.004500 -0.000010 1.850080 
# 
# From -- ./inp_files/256021.got.cif
#   From: 2010.06.25/outbox.cif.g09.slc.cpg/sg15_129_cif.got.tgz:256021.got - 2010.06.28 07:06:18.
