data_PCOD8148161
_publ_section_title
;
Structure prediction by ZEFSAII (Michael W. Deem and Ramdas Pophale) SiO2 
 PCOD8148161
Probable space group: C 2/C
;
_chemical_formula_sum "Si O2"
_cell_formula_units_Z 60
_cell_length_a 19.336143
_cell_length_b 8.647632
_cell_length_c 16.635188
_cell_angle_alpha 90.000000
_cell_angle_beta 107.414542
_cell_angle_gamma 90.000000
_cell_volume 2654.104212
_symmetry_space_group_name_H-M "C 2/C"
_symmetry_group_IT_number 15
_symmetry_cell_setting 'monoclinic'
loop_
_space_group_symop_operation_xyz
x,y,z
-x,y,1/2-z
-x,-y,-z
x,-y,1/2+z
1/2+x,1/2+y,z
1/2-x,1/2+y,1/2-z
1/2-x,1/2-y,-z
1/2+x,1/2-y,1/2+z
loop_
_atom_site_type_symbol
_atom_site_label
_atom_site_fract_x
_atom_site_fract_y
_atom_site_fract_z
Si Si1 0.212435 0.582356 0.578345
Si Si2 0.223739 0.891612 0.673692
Si Si3 0.227844 0.396972 0.436762
Si Si4 0.580496 0.236157 0.881445
Si Si5 0.857562 0.981786 0.706382
Si Si6 0.930679 0.394765 0.956575
Si Si7 0.615173 0.812805 0.727933
Si Si8 0.000000 0.470945 0.250000
O O1 0.209611 0.759872 0.602993
O O2 0.224100 0.555945 0.487184
O O3 0.277405 0.492041 0.643185
O O4 0.136739 0.508006 0.575201
O O5 0.300392 0.863872 0.746510
O O6 0.223700 0.056926 0.624571
O O7 0.156890 0.893900 0.713483
O O8 0.250000 0.250000 0.500000
O O9 0.149667 0.359334 0.373760
O O10 0.587526 0.400587 0.838121
O O11 0.508737 0.143075 0.829725
O O12 0.579965 0.238810 0.978636
O O13 0.893214 0.146430 0.734483
O O14 0.930024 0.306378 0.871556
O O15 0.000000 0.500000 0.000000
O O16 0.572670 0.930324 0.770053
#
# Coordination Sequence:
#
# PCOD8148161 Si02
#       8
#     8   8   8   8   8   8   8   4
#     4  10  23  39  63  99 138 172 229 285 346 404
#     4  11  24  40  67  99 138 179 231 290 346 410
#     4  11  22  39  65  99 135 171 225 282 351 405
#     4  11  25  41  69 100 135 181 228 284 351 414
#     4  11  25  40  66 103 138 177 227 299 345 401
#     4  11  23  44  72 103 135 187 238 280 346 430
#     4  11  25  43  67 101 139 184 236 285 342 417
#     4  12  24  46  72  92 136 180 238 282 346 428
#
# _framework density 22.606497000000001
#
# number of rings (size 3 to 8) (size 9 to 14) (size 15 to 20)
#    0.000    1.067    5.333    0.400    9.333    0.533 
#    0.000    0.000    2.933    2.400    0.000    0.000 
#    0.000    0.000    0.000    0.000    0.000    0.000 
#
# Total GULP energy -371670.181471 kJ/mol
# GULP energy per Si atom -12389.006049 kJ/mol
# Density = 2.255504 g / cm^3
# Si number density = 22.606497 Si / 1000 Ang^3
#
#
#
# Elastic Constant Matrix: (Units=GPa)
#
#
# Indices 1 2 3 4 5 6 
#
# 1 56.9873 34.7427 13.0752 0.0000 6.0602 0.0000
# 2 34.7427 117.0265 60.7889 0.0000 1.3363 0.0000
# 3 13.0752 60.7889 95.9772 0.0000 3.4597 0.0000
# 4 0.0000 0.0000 0.0000 41.6381 0.0000 1.2272
# 5 6.0602 1.3363 3.4597 0.0000 36.5364 0.0000
# 6 0.0000 0.0000 0.0000 1.2272 0.0000 28.8002
#
#
#
# Elastic Compliance Matrix: (Units=1/GPa)
#
#
# Indices 1 2 3 4 5 6 
#
# 1 0.022055 -0.007471 0.001856 0.000000 -0.003561 0.000000
# 2 -0.007471 0.015269 -0.008707 0.000000 0.001505 0.000000
# 3 0.001856 -0.008707 0.015735 0.000000 -0.001479 0.000000
# 4 0.000000 0.000000 0.000000 0.024047 0.000000 -0.001025
# 5 -0.003561 0.001505 -0.001479 0.000000 0.028046 0.000000
# 6 0.000000 0.000000 0.000000 -0.001025 0.000000 0.034766
#
#
# Mechanical properties :
#
#
# Convention : Reuss Voigt Hill
#
# Bulk Modulus (GPa) = 40.96098 54.13385 47.54741
# Shear Modulus (GPa) = 28.29657 32.15389 30.22523
#
# Velocity S-wave (km/s) = 3.54178 3.77547 3.66049
# Velocity P-wave (km/s) = 5.90627 6.55772 6.24050
#
# Compressibility (1/GPa) = 0.02441348
#
# Stress axis : x y z
#
# Youngs Moduli (GPa) = 45.34030 65.49300 63.55436
#
# Poissons Ratio (x) = 0.48930 -0.11793
# Poissons Ratio (y) = 0.33874 0.55338
# Poissons Ratio (z) = -0.08413 0.57026
#
# Static dielectric constant tensor:
#      x y z
#    x 3.939640 0.000000 0.022110 
#    y 0.000000 4.039450 0.000000 
#    z 0.022110 0.000000 4.412440 
# 
# 
# High freq. dielectric constant tensor:
#      x y z
#    x 1.870600 0.000000 0.000520 
#    y 0.000000 1.880560 0.000000 
#    z 0.000520 0.000000 1.908770 
# 
# From -- ./inp_files/213974.got.cif
#   From: 2010.06.25/outbox.cif.g09.slc.cpg/sg15_107_cif.got.tgz:213974.got - 2010.06.28 07:06:18.
