data_PCOD8148579
_publ_section_title
;
Structure prediction by ZEFSAII (Michael W. Deem and Ramdas Pophale) SiO2 
 PCOD8148579
Probable space group: C 2/C
;
_chemical_formula_sum "Si O2"
_cell_formula_units_Z 32
_cell_length_a 20.442691
_cell_length_b 9.044380
_cell_length_c 8.969743
_cell_angle_alpha 90.000000
_cell_angle_beta 52.535717
_cell_angle_gamma 90.000000
_cell_volume 1316.349231
_symmetry_space_group_name_H-M "C 2/C"
_symmetry_group_IT_number 15
_symmetry_cell_setting 'monoclinic'
loop_
_space_group_symop_operation_xyz
x,y,z
-x,y,1/2-z
-x,-y,-z
x,-y,1/2+z
1/2+x,1/2+y,z
1/2-x,1/2+y,1/2-z
1/2-x,1/2-y,-z
1/2+x,1/2-y,1/2+z
loop_
_atom_site_type_symbol
_atom_site_label
_atom_site_fract_x
_atom_site_fract_y
_atom_site_fract_z
Si Si1 0.500000 0.927509 0.250000
Si Si2 0.266728 0.682943 0.267051
Si Si3 0.000000 0.084538 0.750000
Si Si4 0.323749 0.438332 0.991854
Si Si5 0.935116 0.676948 0.546049
O O1 0.555671 0.829387 0.285604
O O2 0.448955 0.024678 0.438639
O O3 0.264481 0.569793 0.133447
O O4 0.285375 0.583932 0.384466
O O5 0.185270 0.785974 0.397734
O O6 0.341076 0.795609 0.138803
O O7 0.006515 0.189922 0.595132
O O8 0.080409 0.981724 0.650016
#
# Coordination Sequence:
#
# PCOD8148579 Si02
#       5
#     4   8   4   8   8
#     4   9  18  35  60  92 132 164 202 254 306 366
#     4  10  23  42  63  91 125 164 206 253 310 366
#     4   9  20  41  64  90 120 162 210 254 302 364
#     4  10  23  42  64  91 125 160 206 253 307 368
#     4   9  19  35  61  94 126 164 206 251 307 364
#
# _framework density 24.309659
#
# number of rings (size 3 to 8) (size 9 to 14) (size 15 to 20)
#    0.000    2.500    0.000    0.000    0.000   12.000 
#    0.000    7.500    0.000    6.000    0.000    0.000 
#    0.000    0.000    0.000    0.000    0.000    0.000 
#
# Total GULP energy -198299.730379 kJ/mol
# GULP energy per Si atom -12393.733149 kJ/mol
# Density = 2.425433 g / cm^3
# Si number density = 24.309659 Si / 1000 Ang^3
#
#
#
# Elastic Constant Matrix: (Units=GPa)
#
#
# Indices 1 2 3 4 5 6 
#
# 1 66.7515 54.5975 42.6936 0.0000 -1.9707 0.0000
# 2 54.5975 110.8551 51.2968 0.0000 -11.7573 0.0000
# 3 42.6936 51.2968 122.7393 0.0000 -2.4645 0.0000
# 4 0.0000 0.0000 0.0000 40.5711 0.0000 -1.1213
# 5 -1.9707 -11.7573 -2.4645 0.0000 36.0977 0.0000
# 6 0.0000 0.0000 0.0000 -1.1213 0.0000 41.8223
#
#
#
# Elastic Compliance Matrix: (Units=1/GPa)
#
#
# Indices 1 2 3 4 5 6 
#
# 1 0.027412 -0.011579 -0.004748 0.000000 -0.002599 0.000000
# 2 -0.011579 0.016489 -0.002772 0.000000 0.004549 0.000000
# 3 -0.004748 -0.002772 0.010949 0.000000 -0.000415 0.000000
# 4 0.000000 0.000000 0.000000 0.024666 0.000000 0.000661
# 5 -0.002599 0.004549 -0.000415 0.000000 0.029014 0.000000
# 6 0.000000 0.000000 0.000000 0.000661 0.000000 0.023928
#
#
# Mechanical properties :
#
#
# Convention : Reuss Voigt Hill
#
# Bulk Modulus (GPa) = 60.05519 66.39129 63.22324
# Shear Modulus (GPa) = 28.37561 33.81544 31.09552
#
# Velocity S-wave (km/s) = 3.42022 3.73370 3.58039
# Velocity P-wave (km/s) = 6.35257 6.77918 6.56934
#
# Compressibility (1/GPa) = 0.01665135
#
# Stress axis : x y z
#
# Youngs Moduli (GPa) = 36.48069 60.64632 91.33201
#
# Poissons Ratio (x) = 0.70224 0.43362
# Poissons Ratio (y) = 0.42242 0.25319
# Poissons Ratio (z) = 0.17320 0.16812
#
# Static dielectric constant tensor:
#      x y z
#    x 3.910430 0.000000 -0.096590 
#    y 0.000000 4.616660 0.000000 
#    z -0.096590 0.000000 4.877700 
# 
# 
# High freq. dielectric constant tensor:
#      x y z
#    x 1.922940 0.000000 -0.006500 
#    y 0.000000 1.984990 0.000000 
#    z -0.006500 0.000000 1.989760 
# 
# From -- ./inp_files/53508.got.cif
#   From: 2010.06.25/outbox.cif.g09.slc.cpg/sg15_27_cif.got.tgz:53508.got - 2010.06.28 07:06:18.
