data_PCOD8148225
_publ_section_title
;
Structure prediction by ZEFSAII (Michael W. Deem and Ramdas Pophale) SiO2 
 PCOD8148225
Probable space group: C 2/C
;
_chemical_formula_sum "Si O2"
_cell_formula_units_Z 64
_cell_length_a 10.602507
_cell_length_b 9.078312
_cell_length_c 31.757007
_cell_angle_alpha 90.000000
_cell_angle_beta 93.984327
_cell_angle_gamma 90.000000
_cell_volume 3049.315194
_symmetry_space_group_name_H-M "C 2/C"
_symmetry_group_IT_number 15
_symmetry_cell_setting 'monoclinic'
loop_
_space_group_symop_operation_xyz
x,y,z
-x,y,1/2-z
-x,-y,-z
x,-y,1/2+z
1/2+x,1/2+y,z
1/2-x,1/2+y,1/2-z
1/2-x,1/2-y,-z
1/2+x,1/2-y,1/2+z
loop_
_atom_site_type_symbol
_atom_site_label
_atom_site_fract_x
_atom_site_fract_y
_atom_site_fract_z
Si Si1 0.984070 0.481623 0.570194
Si Si2 0.606739 0.327515 0.088713
Si Si3 0.735945 0.128108 0.557534
Si Si4 0.279800 0.448776 0.967844
Si Si5 0.627265 0.818323 0.364803
Si Si6 0.136961 0.679522 0.769204
Si Si7 0.411673 0.489926 0.134198
Si Si8 0.633160 0.525337 0.771965
O O1 0.863216 0.509629 0.537850
O O2 0.955343 0.554048 0.615201
O O3 0.017099 0.309290 0.575367
O O4 0.096931 0.563200 0.549708
O O5 0.620761 0.432370 0.047879
O O6 0.743489 0.280857 0.107835
O O7 0.543011 0.413975 0.125621
O O8 0.720077 0.303454 0.561642
O O9 0.814657 0.087588 0.516958
O O10 0.804175 0.055787 0.598643
O O11 0.652615 0.869915 0.317923
O O12 0.554550 0.663125 0.364273
O O13 0.248574 0.607204 0.745422
O O14 0.000000 0.624404 0.750000
O O15 0.149763 0.853403 0.763502
O O16 0.364196 0.437544 0.178524
O O17 0.500000 0.582261 0.750000
#
# Coordination Sequence:
#
# PCOD8148225 Si02
#       8
#     8   8   8   8   8   8   8   8
#     4  11  22  40  62  88 120 160 202 247 300 360
#     4  11  22  40  61  90 119 158 206 248 301 363
#     4  11  22  41  62  88 120 160 202 251 304 361
#     4  10  24  42  59  87 124 158 201 253 306 354
#     4  10  23  40  61  88 124 159 199 252 302 362
#     4  10  23  40  63  93 122 161 204 252 309 368
#     4  11  22  40  64  90 120 162 205 246 303 367
#     4  10  23  43  63  91 128 161 202 255 308 366
#
# _framework density 20.988318
#
# number of rings (size 3 to 8) (size 9 to 14) (size 15 to 20)
#    0.000    1.500    2.500    1.875    1.750    2.500 
#    4.500    0.000    0.000    0.000    0.000    0.000 
#    0.000    0.000    0.000    0.000    0.000    0.000 
#
# Total GULP energy -396868.152886 kJ/mol
# GULP energy per Si atom -12402.129778 kJ/mol
# Density = 2.094055 g / cm^3
# Si number density = 20.988318 Si / 1000 Ang^3
#
#
#
# Elastic Constant Matrix: (Units=GPa)
#
#
# Indices 1 2 3 4 5 6 
#
# 1 96.2765 47.8513 36.3879 0.0000 -18.1022 0.0000
# 2 47.8513 78.5344 36.7698 0.0000 -13.8451 0.0000
# 3 36.3879 36.7698 121.1534 0.0000 -7.1774 0.0000
# 4 0.0000 0.0000 0.0000 31.6783 0.0000 -8.1726
# 5 -18.1022 -13.8451 -7.1774 0.0000 31.4225 0.0000
# 6 0.0000 0.0000 0.0000 -8.1726 0.0000 35.7970
#
#
#
# Elastic Compliance Matrix: (Units=1/GPa)
#
#
# Indices 1 2 3 4 5 6 
#
# 1 0.016109 -0.007879 -0.002132 0.000000 0.005322 0.000000
# 2 -0.007879 0.019731 -0.003422 0.000000 0.003373 0.000000
# 3 -0.002132 -0.003422 0.009905 0.000000 -0.000473 0.000000
# 4 0.000000 0.000000 0.000000 0.033543 0.000000 0.007658
# 5 0.005322 0.003373 -0.000473 0.000000 0.036268 0.000000
# 6 0.000000 0.000000 0.000000 0.007658 0.000000 0.029684
#
#
# Mechanical properties :
#
#
# Convention : Reuss Voigt Hill
#
# Bulk Modulus (GPa) = 52.96861 59.77581 56.37221
# Shear Modulus (GPa) = 28.02717 31.44323 29.73520
#
# Velocity S-wave (km/s) = 3.65824 3.87477 3.76806
# Velocity P-wave (km/s) = 6.56777 6.96856 6.77113
#
# Compressibility (1/GPa) = 0.01887910
#
# Stress axis : x y z
#
# Youngs Moduli (GPa) = 62.07668 50.68220 100.96133
#
# Poissons Ratio (x) = 0.39933 0.21522
# Poissons Ratio (y) = 0.48910 0.34549
# Poissons Ratio (z) = 0.13233 0.17343
#
# Static dielectric constant tensor:
#      x y z
#    x 3.788900 0.000000 -0.049820 
#    y 0.000000 3.787280 0.000000 
#    z -0.049820 0.000000 3.807440 
# 
# 
# High freq. dielectric constant tensor:
#      x y z
#    x 1.829270 0.000000 -0.004660 
#    y 0.000000 1.823020 0.000000 
#    z -0.004660 0.000000 1.824660 
# 
# From -- ./inp_files/310320.got.cif
#   From: 2010.06.25/outbox.cif.g09.slc.cpg/sg15_156_cif.got.tgz:310320.got - 2010.06.28 07:06:18.
