data_PCOD8148089
_publ_section_title
;
Structure prediction by ZEFSAII (Michael W. Deem and Ramdas Pophale) SiO2 
 PCOD8148089
Probable space group: C 2/C
;
_chemical_formula_sum "Si O2"
_cell_formula_units_Z 48
_cell_length_a 17.320434
_cell_length_b 16.042369
_cell_length_c 10.063375
_cell_angle_alpha 90.000000
_cell_angle_beta 131.599027
_cell_angle_gamma 90.000000
_cell_volume 2091.037531
_symmetry_space_group_name_H-M "C 2/C"
_symmetry_group_IT_number 15
_symmetry_cell_setting 'monoclinic'
loop_
_space_group_symop_operation_xyz
x,y,z
-x,y,1/2-z
-x,-y,-z
x,-y,1/2+z
1/2+x,1/2+y,z
1/2-x,1/2+y,1/2-z
1/2-x,1/2-y,-z
1/2+x,1/2-y,1/2+z
loop_
_atom_site_type_symbol
_atom_site_label
_atom_site_fract_x
_atom_site_fract_y
_atom_site_fract_z
Si Si1 0.000000 0.908409 0.750000
Si Si2 0.132908 0.954597 0.301235
Si Si3 0.500000 0.320132 0.250000
Si Si4 0.142943 0.450865 0.885713
Si Si5 0.179695 0.158360 0.614591
Si Si6 0.900909 0.409617 0.361623
Si Si7 0.578532 0.197952 0.139278
O O1 0.906433 0.849105 0.597966
O O2 0.949100 0.969826 0.802482
O O3 0.099295 0.880607 0.363437
O O4 0.241152 0.986574 0.483360
O O5 0.150611 0.918180 0.176414
O O6 0.500672 0.263340 0.119946
O O7 0.081548 0.514669 0.721032
O O8 0.136302 0.358637 0.814624
O O9 0.099866 0.443510 0.986572
O O10 0.298959 0.145239 0.709028
O O11 0.167112 0.250905 0.662049
O O12 0.003910 0.354677 0.457617
#
# Coordination Sequence:
#
# PCOD8148089 Si02
#       7
#     4   8   4   8   8   8   8
#     4  11  18  42  56  87 128 160 214 259 324 376
#     4   9  20  34  63  89 120 163 209 261 312 376
#     4   9  18  34  58  91 114 162 204 263 302 360
#     4  11  22  41  66  95 128 167 215 263 320 384
#     4  10  23  38  63  91 128 165 216 264 321 380
#     4  11  23  43  66  97 128 171 216 264 319 388
#     4  11  22  39  62  93 129 168 211 265 314 381
#
# _framework density 22.955113000000001
#
# number of rings (size 3 to 8) (size 9 to 14) (size 15 to 20)
#    0.000    1.667    3.333    1.000    2.333    2.000 
#    3.000    0.833    0.000    0.000    0.000    0.000 
#    0.000    0.000    0.000    0.000    0.000    0.000 
#
# Total GULP energy -297419.402828 kJ/mol
# GULP energy per Si atom -12392.475118 kJ/mol
# Density = 2.290287 g / cm^3
# Si number density = 22.955113 Si / 1000 Ang^3
#
#
#
# Elastic Constant Matrix: (Units=GPa)
#
#
# Indices 1 2 3 4 5 6 
#
# 1 33.9087 8.3063 14.2478 0.0000 15.2872 0.0000
# 2 8.3063 73.5009 32.6599 0.0000 -0.1238 0.0000
# 3 14.2478 32.6599 94.3119 0.0000 -0.5228 0.0000
# 4 0.0000 0.0000 0.0000 33.3930 0.0000 4.4086
# 5 15.2872 -0.1238 -0.5228 0.0000 30.6063 0.0000
# 6 0.0000 0.0000 0.0000 4.4086 0.0000 22.4560
#
#
#
# Elastic Compliance Matrix: (Units=1/GPa)
#
#
# Indices 1 2 3 4 5 6 
#
# 1 0.041909 -0.002253 -0.005668 0.000000 -0.021039 0.000000
# 2 -0.002253 0.016201 -0.005264 0.000000 0.001101 0.000000
# 3 -0.005668 -0.005264 0.013299 0.000000 0.003037 0.000000
# 4 0.000000 0.000000 0.000000 0.030743 0.000000 -0.006036
# 5 -0.021039 0.001101 0.003037 0.000000 0.043238 0.000000
# 6 0.000000 0.000000 0.000000 -0.006036 0.000000 0.045717
#
#
# Mechanical properties :
#
#
# Convention : Reuss Voigt Hill
#
# Bulk Modulus (GPa) = 22.20256 34.68329 28.44292
# Shear Modulus (GPa) = 21.50639 27.05822 24.28230
#
# Velocity S-wave (km/s) = 3.06418 3.43701 3.25594
# Velocity P-wave (km/s) = 4.71297 5.55812 5.15290
#
# Compressibility (1/GPa) = 0.04503986
#
# Stress axis : x y z
#
# Youngs Moduli (GPa) = 23.86103 61.72571 75.19376
#
# Poissons Ratio (x) = 0.13908 0.42617
# Poissons Ratio (y) = 0.05376 0.39580
# Poissons Ratio (z) = 0.13524 0.32491
#
# Static dielectric constant tensor:
#      x y z
#    x 4.010440 0.000000 0.249380 
#    y 0.000000 4.129490 0.000000 
#    z 0.249380 0.000000 4.100020 
# 
# 
# High freq. dielectric constant tensor:
#      x y z
#    x 1.892210 0.000000 0.021700 
#    y 0.000000 1.906120 0.000000 
#    z 0.021700 0.000000 1.899590 
# 
# From -- ./inp_files/96896.got.cif
#   From: 2010.06.25/outbox.cif.g09.slc.cpg/sg15_49_cif.got.tgz:96896.got - 2010.06.28 07:06:18.
