data_PCOD8148020
_publ_section_title
;
Structure prediction by ZEFSAII (Michael W. Deem and Ramdas Pophale) SiO2 
 PCOD8148020
Probable space group: C 2/C
;
_chemical_formula_sum "Si O2"
_cell_formula_units_Z 36
_cell_length_a 8.286341
_cell_length_b 12.142903
_cell_length_c 15.338716
_cell_angle_alpha 90.000000
_cell_angle_beta 101.317719
_cell_angle_gamma 90.000000
_cell_volume 1513.372562
_symmetry_space_group_name_H-M "C 2/C"
_symmetry_group_IT_number 15
_symmetry_cell_setting 'monoclinic'
loop_
_space_group_symop_operation_xyz
x,y,z
-x,y,1/2-z
-x,-y,-z
x,-y,1/2+z
1/2+x,1/2+y,z
1/2-x,1/2+y,1/2-z
1/2-x,1/2-y,-z
1/2+x,1/2-y,1/2+z
loop_
_atom_site_type_symbol
_atom_site_label
_atom_site_fract_x
_atom_site_fract_y
_atom_site_fract_z
Si Si1 0.824501 0.106522 0.257951
Si Si2 0.500000 0.960332 0.250000
Si Si3 0.370446 0.779817 0.899741
Si Si4 0.673774 0.088125 0.933866
Si Si5 0.784235 0.663771 0.079341
O O1 0.785910 0.190372 0.175892
O O2 0.842006 0.171181 0.352528
O O3 0.000000 0.050684 0.250000
O O4 0.672757 0.023341 0.252866
O O5 0.464328 0.894253 0.156999
O O6 0.342502 0.653491 0.926427
O O7 0.537192 0.800336 0.863069
O O8 0.395761 0.859371 0.985567
O O9 0.717190 0.961180 0.956924
O O10 0.750000 0.750000 0.000000
#
# Coordination Sequence:
#
# PCOD8148020 Si02
#       5
#     8   4   8   8   8
#     4  11  24  46  73 105 147 197 251 307 377 451
#     4  10  22  50  70 106 152 196 254 306 382 440
#     4  11  23  45  72 106 149 192 251 306 380 448
#     4  10  24  43  75 104 142 200 239 310 376 447
#     4  11  25  47  70 106 149 194 248 313 375 446
#
# _framework density 23.787931
#
# number of rings (size 3 to 8) (size 9 to 14) (size 15 to 20)
#    0.000    1.333    4.444    0.667    7.778    0.889 
#    8.000    0.000    0.000    0.000    0.000    0.000 
#    0.000    0.000    0.000    0.000    0.000    0.000 
#
# Total GULP energy -222987.365229 kJ/mol
# GULP energy per Si atom -12388.186957 kJ/mol
# Density = 2.373379 g / cm^3
# Si number density = 23.787931 Si / 1000 Ang^3
#
#
#
# Elastic Constant Matrix: (Units=GPa)
#
#
# Indices 1 2 3 4 5 6 
#
# 1 164.3120 42.7744 30.3383 0.0000 -18.6674 0.0000
# 2 42.7744 134.2329 47.9735 0.0000 7.4955 0.0000
# 3 30.3383 47.9735 173.2385 0.0000 1.9810 0.0000
# 4 0.0000 0.0000 0.0000 20.3732 0.0000 7.6070
# 5 -18.6674 7.4955 1.9810 0.0000 27.9502 0.0000
# 6 0.0000 0.0000 0.0000 7.6070 0.0000 13.1587
#
#
#
# Elastic Compliance Matrix: (Units=1/GPa)
#
#
# Indices 1 2 3 4 5 6 
#
# 1 0.007506 -0.002462 -0.000698 0.000000 0.005723 0.000000
# 2 -0.002462 0.009195 -0.002070 0.000000 -0.003963 0.000000
# 3 -0.000698 -0.002070 0.006472 0.000000 -0.000370 0.000000
# 4 0.000000 0.000000 0.000000 0.062596 0.000000 -0.036186
# 5 0.005723 -0.003963 -0.000370 0.000000 0.040689 0.000000
# 6 0.000000 0.000000 0.000000 -0.036186 0.000000 0.096914
#
#
# Mechanical properties :
#
#
# Convention : Reuss Voigt Hill
#
# Bulk Modulus (GPa) = 78.65702 79.32843 78.99272
# Shear Modulus (GPa) = 21.00222 35.67623 28.33923
#
# Velocity S-wave (km/s) = 2.97458 3.87688 3.45531
# Velocity P-wave (km/s) = 6.70337 7.31169 7.01413
#
# Compressibility (1/GPa) = 0.01271342
#
# Stress axis : x y z
#
# Youngs Moduli (GPa) = 133.22800 108.75094 154.50947
#
# Poissons Ratio (x) = 0.26773 0.10787
# Poissons Ratio (y) = 0.32799 0.31982
# Poissons Ratio (z) = 0.09302 0.22511
#
# Static dielectric constant tensor:
#      x y z
#    x 4.341510 0.000000 -0.024380 
#    y 0.000000 4.086290 0.000000 
#    z -0.024380 0.000000 4.827940 
# 
# 
# High freq. dielectric constant tensor:
#      x y z
#    x 1.941310 0.000000 -0.006270 
#    y 0.000000 1.925180 0.000000 
#    z -0.006270 0.000000 1.960310 
# 
# From -- ./inp_files/132848.got.cif
#   From: 2010.06.25/outbox.cif.g09.slc.cpg/sg15_67_cif.got.tgz:132848.got - 2010.06.28 07:06:18.
