data_PCOD8148085
_publ_section_title
;
Structure prediction by ZEFSAII (Michael W. Deem and Ramdas Pophale) SiO2 
 PCOD8148085
Probable space group: C 2/C
;
_chemical_formula_sum "Si O2"
_cell_formula_units_Z 64
_cell_length_a 14.867428
_cell_length_b 8.719900
_cell_length_c 22.884222
_cell_angle_alpha 90.000000
_cell_angle_beta 84.308627
_cell_angle_gamma 90.000000
_cell_volume 2952.142776
_symmetry_space_group_name_H-M "C 2/C"
_symmetry_group_IT_number 15
_symmetry_cell_setting 'monoclinic'
loop_
_space_group_symop_operation_xyz
x,y,z
-x,y,1/2-z
-x,-y,-z
x,-y,1/2+z
1/2+x,1/2+y,z
1/2-x,1/2+y,1/2-z
1/2-x,1/2-y,-z
1/2+x,1/2-y,1/2+z
loop_
_atom_site_type_symbol
_atom_site_label
_atom_site_fract_x
_atom_site_fract_y
_atom_site_fract_z
Si Si1 0.202014 0.093602 0.824661
Si Si2 0.688219 0.159306 0.921327
Si Si3 0.883294 0.117348 0.469456
Si Si4 0.840504 0.363950 0.870509
Si Si5 0.595808 0.975147 0.023133
Si Si6 0.579667 0.447524 0.920228
Si Si7 0.280416 0.590946 0.362784
Si Si8 0.901808 0.893067 0.283874
O O1 0.242320 0.250116 0.845086
O O2 0.177537 0.120174 0.759107
O O3 0.277012 0.963449 0.831428
O O4 0.108177 0.046590 0.862166
O O5 0.780276 0.259371 0.917800
O O6 0.604378 0.268880 0.911183
O O7 0.701675 0.039304 0.866143
O O8 0.670452 0.072103 0.983198
O O9 0.886658 0.295728 0.483885
O O10 0.801966 0.094032 0.430377
O O11 0.973090 0.044002 0.435027
O O12 0.864532 0.021536 0.529389
O O13 0.902016 0.470852 0.908817
O O14 0.903071 0.258351 0.824820
O O15 0.500000 0.000000 0.000000
O O16 0.371341 0.543948 0.321977
O O17 0.000000 0.919019 0.250000
#
# Coordination Sequence:
#
# PCOD8148085 Si02
#       8
#     8   8   8   8   8   8   8   8
#     4  11  22  44  66  94 126 167 221 267 319 376
#     4  10  23  38  62  94 130 173 206 255 318 384
#     4  11  23  39  60  96 132 170 209 260 322 383
#     4  10  24  42  66  92 128 171 220 264 320 387
#     4  12  23  39  63  97 137 170 210 262 323 393
#     4  10  23  39  62  93 133 168 207 260 319 388
#     4  11  24  40  68  94 127 165 219 264 322 381
#     4  11  25  45  68  91 125 171 217 274 328 383
#
# _framework density 21.679169999999999
#
# number of rings (size 3 to 8) (size 9 to 14) (size 15 to 20)
#    0.000    1.250    2.500    2.625    7.000    3.000 
#    0.000    0.625    0.000    0.000    0.000    0.000 
#    0.000    0.000    0.000    0.000    0.000    0.000 
#
# Total GULP energy -396708.060157 kJ/mol
# GULP energy per Si atom -12397.126880 kJ/mol
# Density = 2.162983 g / cm^3
# Si number density = 21.679170 Si / 1000 Ang^3
#
#
#
# Elastic Constant Matrix: (Units=GPa)
#
#
# Indices 1 2 3 4 5 6 
#
# 1 56.6034 28.8352 30.5984 0.0000 2.7204 0.0000
# 2 28.8352 134.3015 33.2040 0.0000 -10.2962 0.0000
# 3 30.5984 33.2040 88.3537 0.0000 5.3838 0.0000
# 4 0.0000 0.0000 0.0000 32.0608 0.0000 -0.7316
# 5 2.7204 -10.2962 5.3838 0.0000 38.0456 0.0000
# 6 0.0000 0.0000 0.0000 -0.7316 0.0000 22.9890
#
#
#
# Elastic Compliance Matrix: (Units=1/GPa)
#
#
# Indices 1 2 3 4 5 6 
#
# 1 0.023066 -0.003449 -0.006591 0.000000 -0.001650 0.000000
# 2 -0.003449 0.009005 -0.002373 0.000000 0.003019 0.000000
# 3 -0.006591 -0.002373 0.014629 0.000000 -0.002241 0.000000
# 4 0.000000 0.000000 0.000000 0.031213 0.000000 0.000993
# 5 -0.001650 0.003019 -0.002241 0.000000 0.027537 0.000000
# 6 0.000000 0.000000 0.000000 0.000993 0.000000 0.043531
#
#
# Mechanical properties :
#
#
# Convention : Reuss Voigt Hill
#
# Bulk Modulus (GPa) = 45.72041 51.61487 48.66764
# Shear Modulus (GPa) = 27.60894 31.06048 29.33471
#
# Velocity S-wave (km/s) = 3.57252 3.78925 3.68248
# Velocity P-wave (km/s) = 6.17677 6.55780 6.37014
#
# Compressibility (1/GPa) = 0.02187207
#
# Stress axis : x y z
#
# Youngs Moduli (GPa) = 43.35292 111.05164 68.35534
#
# Poissons Ratio (x) = 0.38306 0.45056
# Poissons Ratio (y) = 0.14954 0.16224
# Poissons Ratio (z) = 0.28576 0.26358
#
# Static dielectric constant tensor:
#      x y z
#    x 4.288150 0.000000 -0.138460 
#    y 0.000000 3.810120 0.000000 
#    z -0.138460 0.000000 4.082170 
# 
# 
# High freq. dielectric constant tensor:
#      x y z
#    x 1.842190 0.000000 -0.007370 
#    y 0.000000 1.868080 0.000000 
#    z -0.007370 0.000000 1.847020 
# 
# From -- ./inp_files/273159.got.cif
#   From: 2010.06.25/outbox.cif.g09.slc.cpg/sg15_137_cif.got.tgz:273159.got - 2010.06.28 07:06:18.
