data_PCOD8148536
_publ_section_title
;
Structure prediction by ZEFSAII (Michael W. Deem and Ramdas Pophale) SiO2 
 PCOD8148536
Probable space group: C 2/C
;
_chemical_formula_sum "Si O2"
_cell_formula_units_Z 44
_cell_length_a 27.706417
_cell_length_b 9.655005
_cell_length_c 9.749727
_cell_angle_alpha 90.000000
_cell_angle_beta 42.166177
_cell_angle_gamma 90.000000
_cell_volume 1750.777982
_symmetry_space_group_name_H-M "C 2/C"
_symmetry_group_IT_number 15
_symmetry_cell_setting 'monoclinic'
loop_
_space_group_symop_operation_xyz
x,y,z
-x,y,1/2-z
-x,-y,-z
x,-y,1/2+z
1/2+x,1/2+y,z
1/2-x,1/2+y,1/2-z
1/2-x,1/2-y,-z
1/2+x,1/2-y,1/2+z
loop_
_atom_site_type_symbol
_atom_site_label
_atom_site_fract_x
_atom_site_fract_y
_atom_site_fract_z
Si Si1 0.000000 0.764691 0.750000
Si Si2 0.539975 0.062947 0.288430
Si Si3 0.200570 0.913057 0.925585
Si Si4 0.676212 0.128026 0.856919
Si Si5 0.610726 0.541237 0.872521
Si Si6 0.937063 0.249535 0.107001
O O1 0.048592 0.851867 0.542017
O O2 0.053181 0.691609 0.753497
O O3 0.500000 0.980183 0.250000
O O4 0.507834 0.221009 0.364098
O O5 0.500000 0.000000 0.500000
O O6 0.625189 0.073503 0.089248
O O7 0.271832 0.004131 0.795058
O O8 0.147968 0.993524 0.933988
O O9 0.219363 0.762544 0.821521
O O10 0.166495 0.890044 0.148058
O O11 0.630105 0.166767 0.818825
O O12 0.576568 0.412909 0.862552
#
# Coordination Sequence:
#
# PCOD8148536 Si02
#       6
#     4   8   8   8   8   8
#     4  12  22  40  76 106 142 186 246 314 372 448
#     4  10  23  43  71 107 145 192 242 306 372 437
#     4  11  25  46  72 107 153 196 246 296 374 448
#     4  10  25  47  73 107 156 194 246 306 365 448
#     4  11  24  42  70 111 139 189 242 308 373 444
#     4  10  23  41  72 104 145 185 244 305 375 428
#
# _framework density 25.131682999999999
#
# number of rings (size 3 to 8) (size 9 to 14) (size 15 to 20)
#    0.000    1.455    1.818    1.636    7.636    8.000 
#    0.000    0.000    0.000    0.000    0.000    0.000 
#    0.000    0.000    0.000    0.000    0.000    0.000 
#
# Total GULP energy -272556.501237 kJ/mol
# GULP energy per Si atom -12388.931874 kJ/mol
# Density = 2.507448 g / cm^3
# Si number density = 25.131683 Si / 1000 Ang^3
#
#
#
# Elastic Constant Matrix: (Units=GPa)
#
#
# Indices 1 2 3 4 5 6 
#
# 1 117.7188 45.2731 72.8541 0.0000 17.6680 0.0000
# 2 45.2731 81.4969 64.7749 0.0000 -3.2702 0.0000
# 3 72.8541 64.7749 170.4217 0.0000 1.8703 0.0000
# 4 0.0000 0.0000 0.0000 43.9432 0.0000 -6.4590
# 5 17.6680 -3.2702 1.8703 0.0000 50.1708 0.0000
# 6 0.0000 0.0000 0.0000 -6.4590 0.0000 44.4734
#
#
#
# Elastic Compliance Matrix: (Units=1/GPa)
#
#
# Indices 1 2 3 4 5 6 
#
# 1 0.013410 -0.004486 -0.003974 0.000000 -0.004867 0.000000
# 2 -0.004486 0.019181 -0.005406 0.000000 0.003032 0.000000
# 3 -0.003974 -0.005406 0.009614 0.000000 0.000689 0.000000
# 4 0.000000 0.000000 0.000000 0.023253 0.000000 0.003377
# 5 -0.004867 0.003032 0.000689 0.000000 0.021818 0.000000
# 6 0.000000 0.000000 0.000000 0.003377 0.000000 0.022976
#
#
# Mechanical properties :
#
#
# Convention : Reuss Voigt Hill
#
# Bulk Modulus (GPa) = 69.09671 81.71575 75.40623
# Shear Modulus (GPa) = 35.01205 40.16647 37.58926
#
# Velocity S-wave (km/s) = 3.73653 4.00214 3.87161
# Velocity P-wave (km/s) = 6.79479 7.34450 7.07499
#
# Compressibility (1/GPa) = 0.01447247
#
# Stress axis : x y z
#
# Youngs Moduli (GPa) = 74.57052 52.13534 104.01630
#
# Poissons Ratio (x) = 0.23389 0.41338
# Poissons Ratio (y) = 0.33453 0.56230
# Poissons Ratio (z) = 0.29636 0.28184
#
# Static dielectric constant tensor:
#      x y z
#    x 4.492220 0.000000 0.565500 
#    y 0.000000 6.174270 0.000000 
#    z 0.565500 0.000000 4.670860 
# 
# 
# High freq. dielectric constant tensor:
#      x y z
#    x 2.011990 0.000000 0.022550 
#    y 0.000000 2.023290 0.000000 
#    z 0.022550 0.000000 1.998950 
# 
# From -- ./inp_files/65328.got.cif
#   From: 2010.06.25/outbox.cif.g09.slc.cpg/sg15_33_cif.got.tgz:65328.got - 2010.06.28 07:06:18.
