data_PCOD8148110
_publ_section_title
;
Structure prediction by ZEFSAII (Michael W. Deem and Ramdas Pophale) SiO2 
 PCOD8148110
Probable space group: C 2/C
;
_chemical_formula_sum "Si O2"
_cell_formula_units_Z 44
_cell_length_a 21.901480
_cell_length_b 13.013611
_cell_length_c 12.760733
_cell_angle_alpha 90.000000
_cell_angle_beta 34.830754
_cell_angle_gamma 90.000000
_cell_volume 2077.305229
_symmetry_space_group_name_H-M "C 2/C"
_symmetry_group_IT_number 15
_symmetry_cell_setting 'monoclinic'
loop_
_space_group_symop_operation_xyz
x,y,z
-x,y,1/2-z
-x,-y,-z
x,-y,1/2+z
1/2+x,1/2+y,z
1/2-x,1/2+y,1/2-z
1/2-x,1/2-y,-z
1/2+x,1/2-y,1/2+z
loop_
_atom_site_type_symbol
_atom_site_label
_atom_site_fract_x
_atom_site_fract_y
_atom_site_fract_z
Si Si1 0.966539 0.230593 0.416238
Si Si2 0.590812 0.324888 0.933518
Si Si3 0.304893 0.890091 0.705485
Si Si4 0.500000 0.210063 0.250000
Si Si5 0.159991 0.957944 0.314641
Si Si6 0.290291 0.136768 0.460893
O O1 0.912439 0.342793 0.504813
O O2 0.884035 0.140745 0.563014
O O3 0.000000 0.214147 0.250000
O O4 0.067880 0.227979 0.352987
O O5 0.711091 0.306853 0.807094
O O6 0.573615 0.448385 0.940705
O O7 0.507802 0.282447 0.136194
O O8 0.318082 0.910760 0.809725
O O9 0.272348 0.001482 0.706275
O O10 0.396681 0.137535 0.382753
O O11 0.193610 0.927510 0.149278
O O12 0.250000 0.250000 0.500000
#
# Coordination Sequence:
#
# PCOD8148110 Si02
#       6
#     8   8   8   4   8   8
#     4  12  24  41  66  96 132 170 215 265 329 391
#     4  10  23  38  67 101 127 163 220 271 323 373
#     4  10  24  42  64  95 135 165 211 276 328 377
#     4  12  20  38  74  96 124 174 226 262 318 388
#     4  10  24  40  63  98 128 170 212 276 320 376
#     4  12  20  42  69  95 131 169 223 272 318 385
#
# _framework density 21.181287999999999
#
# number of rings (size 3 to 8) (size 9 to 14) (size 15 to 20)
#    1.091    0.000    5.455    0.545    3.818    0.727 
#    1.636    2.727    0.000    0.000    0.000    0.000 
#    0.000    0.000    0.000    0.000    0.000    0.000 
#
# Total GULP energy -272606.477481 kJ/mol
# GULP energy per Si atom -12391.203522 kJ/mol
# Density = 2.113308 g / cm^3
# Si number density = 21.181288 Si / 1000 Ang^3
#
#
#
# Elastic Constant Matrix: (Units=GPa)
#
#
# Indices 1 2 3 4 5 6 
#
# 1 114.5736 6.8940 37.9254 0.0000 20.7527 0.0000
# 2 6.8940 30.7678 15.9943 0.0000 10.0153 0.0000
# 3 37.9254 15.9943 101.0491 0.0000 31.9039 0.0000
# 4 0.0000 0.0000 0.0000 36.2238 0.0000 -2.6692
# 5 20.7527 10.0153 31.9039 0.0000 40.1154 0.0000
# 6 0.0000 0.0000 0.0000 -2.6692 0.0000 28.5298
#
#
#
# Elastic Compliance Matrix: (Units=1/GPa)
#
#
# Indices 1 2 3 4 5 6 
#
# 1 0.010229 0.000209 -0.002918 0.000000 -0.003023 0.000000
# 2 0.000209 0.036480 -0.003930 0.000000 -0.006091 0.000000
# 3 -0.002918 -0.003930 0.014457 0.000000 -0.009007 0.000000
# 4 0.000000 0.000000 0.000000 0.027798 0.000000 0.002601
# 5 -0.003023 -0.006091 -0.009007 0.000000 0.035176 0.000000
# 6 0.000000 0.000000 0.000000 0.002601 0.000000 0.035294
#
#
# Mechanical properties :
#
#
# Convention : Reuss Voigt Hill
#
# Bulk Modulus (GPa) = 20.88145 40.89087 30.88616
# Shear Modulus (GPa) = 26.50075 33.34559 29.92317
#
# Velocity S-wave (km/s) = 3.54098 3.97204 3.76269
# Velocity P-wave (km/s) = 5.15732 6.35478 5.78711
#
# Compressibility (1/GPa) = 0.04788940
#
# Stress axis : x y z
#
# Youngs Moduli (GPa) = 97.76295 27.41231 69.17064
#
# Poissons Ratio (x) = -0.00573 0.20181
# Poissons Ratio (y) = -0.02042 0.27181
# Poissons Ratio (z) = 0.28523 0.10772
#
# Static dielectric constant tensor:
#      x y z
#    x 5.730690 0.000000 0.889530 
#    y 0.000000 3.576220 0.000000 
#    z 0.889530 0.000000 4.280150 
# 
# 
# High freq. dielectric constant tensor:
#      x y z
#    x 1.842190 0.000000 0.001410 
#    y 0.000000 1.810080 0.000000 
#    z 0.001410 0.000000 1.819650 
# 
# From -- ./inp_files/112603.got.cif
#   From: 2010.06.25/outbox.cif.g09.slc.cpg/sg15_57_cif.got.tgz:112603.got - 2010.06.28 07:06:18.
