data_PCOD8148028
_publ_section_title
;
Structure prediction by ZEFSAII (Michael W. Deem and Ramdas Pophale) SiO2 
 PCOD8148028
Probable space group: C 2/C
;
_chemical_formula_sum "Si O2"
_cell_formula_units_Z 40
_cell_length_a 12.471857
_cell_length_b 14.571710
_cell_length_c 12.195418
_cell_angle_alpha 90.000000
_cell_angle_beta 94.775304
_cell_angle_gamma 90.000000
_cell_volume 2208.656623
_symmetry_space_group_name_H-M "C 2/C"
_symmetry_group_IT_number 15
_symmetry_cell_setting 'monoclinic'
loop_
_space_group_symop_operation_xyz
x,y,z
-x,y,1/2-z
-x,-y,-z
x,-y,1/2+z
1/2+x,1/2+y,z
1/2-x,1/2+y,1/2-z
1/2-x,1/2-y,-z
1/2+x,1/2-y,1/2+z
loop_
_atom_site_type_symbol
_atom_site_label
_atom_site_fract_x
_atom_site_fract_y
_atom_site_fract_z
Si Si1 0.809685 0.522259 0.368146
Si Si2 0.618169 0.165446 0.301997
Si Si3 0.441887 0.127973 0.961766
Si Si4 0.688149 0.839626 0.458128
Si Si5 0.270094 0.164081 0.790726
O O1 0.823840 0.588081 0.265313
O O2 0.926689 0.477507 0.414539
O O3 0.759894 0.577260 0.467109
O O4 0.730989 0.436614 0.331972
O O5 0.500000 0.185117 0.250000
O O6 0.618137 0.133541 0.426963
O O7 0.678277 0.261828 0.294768
O O8 0.562784 0.164180 0.981870
O O9 0.376065 0.193467 0.870212
O O10 0.750000 0.750000 0.500000
O O11 0.696381 0.854121 0.330906
#
# Coordination Sequence:
#
# PCOD8148028 Si02
#       5
#     8   8   8   8   8
#     4  10  23  35  63  85 119 147 198 241 288 336
#     4  12  21  40  60  86 117 155 195 238 291 341
#     4  10  23  35  60  86 117 149 195 238 288 342
#     4  12  20  38  59  91 117 150 193 242 290 339
#     4  10  24  36  60  85 122 149 193 240 290 345
#
# _framework density 18.110555999999999
#
# number of rings (size 3 to 8) (size 9 to 14) (size 15 to 20)
#    1.200    0.000    4.000    3.000    2.800    0.000 
#    0.000    0.000    4.400    2.400    0.000    0.000 
#    0.000    0.000    0.000    0.000    0.000    0.000 
#
# Total GULP energy -247798.840960 kJ/mol
# GULP energy per Si atom -12389.942048 kJ/mol
# Density = 1.806934 g / cm^3
# Si number density = 18.110556 Si / 1000 Ang^3
#
#
#
# Elastic Constant Matrix: (Units=GPa)
#
#
# Indices 1 2 3 4 5 6 
#
# 1 34.5473 46.9378 21.3707 0.0000 -1.6146 0.0000
# 2 46.9378 137.0160 47.7444 0.0000 4.3409 0.0000
# 3 21.3707 47.7444 149.9116 0.0000 -15.0575 0.0000
# 4 0.0000 0.0000 0.0000 36.5512 0.0000 5.1140
# 5 -1.6146 4.3409 -15.0575 0.0000 23.5825 0.0000
# 6 0.0000 0.0000 0.0000 5.1140 0.0000 20.3494
#
#
#
# Elastic Compliance Matrix: (Units=1/GPa)
#
#
# Indices 1 2 3 4 5 6 
#
# 1 0.055581 -0.018795 -0.001291 0.000000 0.006441 0.000000
# 2 -0.018795 0.014828 -0.002614 0.000000 -0.005686 0.000000
# 3 -0.001291 -0.002614 0.008256 0.000000 0.005664 0.000000
# 4 0.000000 0.000000 0.000000 0.028356 0.000000 -0.007126
# 5 0.006441 -0.005686 0.005664 0.000000 0.047509 0.000000
# 6 0.000000 0.000000 0.000000 -0.007126 0.000000 0.050932
#
#
# Mechanical properties :
#
#
# Convention : Reuss Voigt Hill
#
# Bulk Modulus (GPa) = 30.06092 61.50896 45.78494
# Shear Modulus (GPa) = 19.08765 29.79143 24.43954
#
# Velocity S-wave (km/s) = 3.24998 4.06023 3.67749
# Velocity P-wave (km/s) = 5.54236 7.48448 6.58541
#
# Compressibility (1/GPa) = 0.03326579
#
# Stress axis : x y z
#
# Youngs Moduli (GPa) = 17.99184 67.43973 121.12221
#
# Poissons Ratio (x) = 1.26751 0.15632
# Poissons Ratio (y) = 0.33815 0.31665
# Poissons Ratio (z) = 0.02322 0.17631
#
# Static dielectric constant tensor:
#      x y z
#    x 2.953660 0.000000 0.013760 
#    y 0.000000 3.384750 0.000000 
#    z 0.013760 0.000000 3.873800 
# 
# 
# High freq. dielectric constant tensor:
#      x y z
#    x 1.654390 0.000000 0.001570 
#    y 0.000000 1.702690 0.000000 
#    z 0.001570 0.000000 1.738440 
# 
# From -- ./inp_files/142621.got.cif
#   From: 2010.06.25/outbox.cif.g09.slc.cpg/sg15_72_cif.got.tgz:142621.got - 2010.06.28 07:06:18.
