data_PCOD8148702
_publ_section_title
;
Structure prediction by ZEFSAII (Michael W. Deem and Ramdas Pophale) SiO2 
 PCOD8148702
Probable space group: C 2/C
;
_chemical_formula_sum "Si O2"
_cell_formula_units_Z 48
_cell_length_a 8.459772
_cell_length_b 20.263399
_cell_length_c 15.594828
_cell_angle_alpha 90.000000
_cell_angle_beta 56.954312
_cell_angle_gamma 90.000000
_cell_volume 2240.876148
_symmetry_space_group_name_H-M "C 2/C"
_symmetry_group_IT_number 15
_symmetry_cell_setting 'monoclinic'
loop_
_space_group_symop_operation_xyz
x,y,z
-x,y,1/2-z
-x,-y,-z
x,-y,1/2+z
1/2+x,1/2+y,z
1/2-x,1/2+y,1/2-z
1/2-x,1/2-y,-z
1/2+x,1/2-y,1/2+z
loop_
_atom_site_type_symbol
_atom_site_label
_atom_site_fract_x
_atom_site_fract_y
_atom_site_fract_z
Si Si1 0.075288 0.081861 0.323891
Si Si2 0.948186 0.345221 0.127324
Si Si3 0.630372 0.365113 0.461089
Si Si4 0.646548 0.562118 0.783861
Si Si5 0.189078 0.783565 0.751226
Si Si6 0.542281 0.234396 0.029265
O O1 0.208471 0.146264 0.295525
O O2 0.000000 0.080662 0.250000
O O3 0.910662 0.087292 0.445351
O O4 0.183991 0.012749 0.305184
O O5 0.841476 0.410875 0.187733
O O6 0.828695 0.279842 0.183901
O O7 0.149116 0.348760 0.113939
O O8 0.969162 0.335476 0.018673
O O9 0.568603 0.397042 0.388639
O O10 0.521350 0.296620 0.510558
O O11 0.500000 0.566387 0.750000
O O12 0.389011 0.772701 0.648159
O O13 0.000000 0.787368 0.750000
O O14 0.750000 0.250000 0.000000
#
# Coordination Sequence:
#
# PCOD8148702 Si02
#       6
#     8   8   8   8   8   8
#     4  10  23  42  67  97 135 172 222 279 337 398
#     4  12  22  40  71  97 130 177 232 273 328 415
#     4  12  22  44  71  99 130 180 231 276 335 412
#     4  11  24  43  65  97 137 177 217 278 342 398
#     4  11  20  40  67  96 132 170 226 276 330 400
#     4  12  25  39  63 105 136 171 220 287 344 390
#
# _framework density 21.420193000000001
#
# number of rings (size 3 to 8) (size 9 to 14) (size 15 to 20)
#    0.000    0.667    5.000    4.500    0.000    0.000 
#    0.000   12.500    0.000    0.000    0.000    0.000 
#    0.000    0.000    0.000    0.000    0.000    0.000 
#
# Total GULP energy -297443.168919 kJ/mol
# GULP energy per Si atom -12393.465372 kJ/mol
# Density = 2.137144 g / cm^3
# Si number density = 21.420193 Si / 1000 Ang^3
#
#
#
# Elastic Constant Matrix: (Units=GPa)
#
#
# Indices 1 2 3 4 5 6 
#
# 1 86.1432 25.7196 46.6169 0.0000 -16.6425 0.0000
# 2 25.7196 148.9499 60.1400 0.0000 -15.2525 0.0000
# 3 46.6169 60.1400 128.0124 0.0000 -9.5800 0.0000
# 4 0.0000 0.0000 0.0000 28.4374 0.0000 -6.4315
# 5 -16.6425 -15.2525 -9.5800 0.0000 42.4118 0.0000
# 6 0.0000 0.0000 0.0000 -6.4315 0.0000 20.9950
#
#
#
# Elastic Compliance Matrix: (Units=1/GPa)
#
#
# Indices 1 2 3 4 5 6 
#
# 1 0.015381 -0.000056 -0.005213 0.000000 0.004838 0.000000
# 2 -0.000056 0.008480 -0.003801 0.000000 0.002169 0.000000
# 3 -0.005213 -0.003801 0.011434 0.000000 -0.000830 0.000000
# 4 0.000000 0.000000 0.000000 0.037783 0.000000 0.011574
# 5 0.004838 0.002169 -0.000830 0.000000 0.026069 0.000000
# 6 0.000000 0.000000 0.000000 0.011574 0.000000 0.051176
#
#
# Mechanical properties :
#
#
# Convention : Reuss Voigt Hill
#
# Bulk Modulus (GPa) = 58.29185 69.78427 64.03806
# Shear Modulus (GPa) = 28.70573 33.74410 31.22492
#
# Velocity S-wave (km/s) = 3.66474 3.97336 3.82217
# Velocity P-wave (km/s) = 6.72158 7.32800 7.03133
#
# Compressibility (1/GPa) = 0.01715506
#
# Stress axis : x y z
#
# Youngs Moduli (GPa) = 65.01583 117.92090 87.45974
#
# Poissons Ratio (x) = 0.00657 0.45592
# Poissons Ratio (y) = 0.00362 0.33247
# Poissons Ratio (z) = 0.33892 0.44826
#
# Static dielectric constant tensor:
#      x y z
#    x 3.505430 0.000000 0.089040 
#    y 0.000000 4.544690 0.000000 
#    z 0.089040 0.000000 4.038660 
# 
# 
# High freq. dielectric constant tensor:
#      x y z
#    x 1.809340 0.000000 0.008800 
#    y 0.000000 1.846510 0.000000 
#    z 0.008800 0.000000 1.862080 
# 
# From -- ./inp_files/191935.got.cif
#   From: 2010.06.25/outbox.cif.g09.slc.cpg/sg15_96_cif.got.tgz:191935.got - 2010.06.28 07:06:18.
