data_PCOD8148301
_publ_section_title
;
Structure prediction by ZEFSAII (Michael W. Deem and Ramdas Pophale) SiO2 
 PCOD8148301
Probable space group: C 2/C
;
_chemical_formula_sum "Si O2"
_cell_formula_units_Z 56
_cell_length_a 8.519967
_cell_length_b 14.077185
_cell_length_c 20.426954
_cell_angle_alpha 90.000000
_cell_angle_beta 93.976691
_cell_angle_gamma 90.000000
_cell_volume 2444.052046
_symmetry_space_group_name_H-M "C 2/C"
_symmetry_group_IT_number 15
_symmetry_cell_setting 'monoclinic'
loop_
_space_group_symop_operation_xyz
x,y,z
-x,y,1/2-z
-x,-y,-z
x,-y,1/2+z
1/2+x,1/2+y,z
1/2-x,1/2+y,1/2-z
1/2-x,1/2-y,-z
1/2+x,1/2-y,1/2+z
loop_
_atom_site_type_symbol
_atom_site_label
_atom_site_fract_x
_atom_site_fract_y
_atom_site_fract_z
Si Si1 0.560402 0.250689 0.386483
Si Si2 0.599190 0.567198 0.957353
Si Si3 0.247016 0.042345 0.230702
Si Si4 0.000000 0.617029 0.750000
Si Si5 0.500000 0.192863 0.250000
Si Si6 0.433839 0.227766 0.879908
Si Si7 0.946740 0.927122 0.648724
Si Si8 0.563114 0.893972 0.996199
O O1 0.504252 0.341400 0.427558
O O2 0.463103 0.254390 0.314342
O O3 0.746357 0.260571 0.377901
O O4 0.512475 0.156838 0.426850
O O5 0.650437 0.500652 0.898485
O O6 0.748381 0.604811 0.001215
O O7 0.500000 0.500000 0.000000
O O8 0.362555 0.127952 0.215749
O O9 0.160698 0.083675 0.291513
O O10 0.118198 0.028043 0.170391
O O11 0.341718 0.945490 0.243056
O O12 0.985913 0.681619 0.813226
O O13 0.524741 0.327786 0.887412
O O14 0.495500 0.164482 0.942163
O O15 0.500000 0.000000 0.000000
#
# Coordination Sequence:
#
# PCOD8148301 Si02
#       8
#     8   8   8   4   4   8   8   8
#     4  11  24  45  72 101 138 183 236 289 354 416
#     4  11  24  43  70  98 137 183 230 284 353 415
#     4  10  23  40  66  96 139 178 223 289 344 410
#     4  11  24  40  69 106 138 186 233 280 353 420
#     4  11  24  40  73  98 134 172 239 288 345 404
#     4  11  23  43  70  97 139 184 225 280 352 417
#     4  11  22  44  65  98 138 183 227 282 349 411
#     4  11  26  46  70  98 137 183 234 288 351 421
#
# _framework density 22.912769000000001
#
# number of rings (size 3 to 8) (size 9 to 14) (size 15 to 20)
#    0.000    1.143    1.429    6.000    6.000    2.286 
#    2.571    1.429    0.000    0.000    0.000    0.000 
#    0.000    0.000    0.000    0.000    0.000    0.000 
#
# Total GULP energy -347133.576424 kJ/mol
# GULP energy per Si atom -12397.627729 kJ/mol
# Density = 2.286062 g / cm^3
# Si number density = 22.912769 Si / 1000 Ang^3
#
#
#
# Elastic Constant Matrix: (Units=GPa)
#
#
# Indices 1 2 3 4 5 6 
#
# 1 43.0565 13.6343 11.9638 0.0000 -9.1906 0.0000
# 2 13.6343 144.8710 57.6125 0.0000 -1.1163 0.0000
# 3 11.9638 57.6125 151.1555 0.0000 1.7242 0.0000
# 4 0.0000 0.0000 0.0000 50.5305 0.0000 -7.2042
# 5 -9.1906 -1.1163 1.7242 0.0000 28.6774 0.0000
# 6 0.0000 0.0000 0.0000 -7.2042 0.0000 35.7741
#
#
#
# Elastic Compliance Matrix: (Units=1/GPa)
#
#
# Indices 1 2 3 4 5 6 
#
# 1 0.025983 -0.001798 -0.001467 0.000000 0.008345 0.000000
# 2 -0.001798 0.008268 -0.003008 0.000000 -0.000074 0.000000
# 3 -0.001467 -0.003008 0.007890 0.000000 -0.001061 0.000000
# 4 0.000000 0.000000 0.000000 0.020375 0.000000 0.004103
# 5 0.008345 -0.000074 -0.001061 0.000000 0.037606 0.000000
# 6 0.000000 0.000000 0.000000 0.004103 0.000000 0.028779
#
#
# Mechanical properties :
#
#
# Convention : Reuss Voigt Hill
#
# Bulk Modulus (GPa) = 33.78769 56.16715 44.97742
# Shear Modulus (GPa) = 33.04422 40.05455 36.54938
#
# Velocity S-wave (km/s) = 3.80172 4.18560 3.99827
# Velocity P-wave (km/s) = 5.83515 6.92284 6.40214
#
# Compressibility (1/GPa) = 0.02959657
#
# Stress axis : x y z
#
# Youngs Moduli (GPa) = 38.48603 120.95454 126.73655
#
# Poissons Ratio (x) = 0.21746 0.18586
# Poissons Ratio (y) = 0.06919 0.38123
# Poissons Ratio (z) = 0.05644 0.36383
#
# Static dielectric constant tensor:
#      x y z
#    x 4.424680 0.000000 0.953640 
#    y 0.000000 4.555470 0.000000 
#    z 0.953640 0.000000 6.226060 
# 
# 
# High freq. dielectric constant tensor:
#      x y z
#    x 1.879710 0.000000 -0.005230 
#    y 0.000000 1.919340 0.000000 
#    z -0.005230 0.000000 1.921190 
# 
# From -- ./inp_files/231644.got.cif
#   From: 2010.06.25/outbox.cif.g09.slc.cpg/sg15_116_cif.got.tgz:231644.got - 2010.06.28 07:06:18.
