data_PCOD8148452
_publ_section_title
;
Structure prediction by ZEFSAII (Michael W. Deem and Ramdas Pophale) SiO2 
 PCOD8148452
Probable space group: C 2/C
;
_chemical_formula_sum "Si O2"
_cell_formula_units_Z 52
_cell_length_a 20.152058
_cell_length_b 19.252152
_cell_length_c 7.800786
_cell_angle_alpha 90.000000
_cell_angle_beta 51.647864
_cell_angle_gamma 90.000000
_cell_volume 2373.398037
_symmetry_space_group_name_H-M "C 2/C"
_symmetry_group_IT_number 15
_symmetry_cell_setting 'monoclinic'
loop_
_space_group_symop_operation_xyz
x,y,z
-x,y,1/2-z
-x,-y,-z
x,-y,1/2+z
1/2+x,1/2+y,z
1/2-x,1/2+y,1/2-z
1/2-x,1/2-y,-z
1/2+x,1/2-y,1/2+z
loop_
_atom_site_type_symbol
_atom_site_label
_atom_site_fract_x
_atom_site_fract_y
_atom_site_fract_z
Si Si1 0.622504 0.720929 0.151251
Si Si2 0.283488 0.865905 0.905828
Si Si3 0.720745 0.756945 0.299487
Si Si4 0.500000 0.829620 0.250000
Si Si5 0.468285 0.924613 0.608126
Si Si6 0.114593 0.055921 0.679312
Si Si7 0.441715 0.584920 0.109748
O O1 0.637608 0.750542 0.317688
O O2 0.580122 0.779289 0.099889
O O3 0.565667 0.653934 0.268057
O O4 0.709484 0.700643 0.919765
O O5 0.253519 0.821740 0.788377
O O6 0.366389 0.914746 0.749962
O O7 0.306501 0.804312 0.999318
O O8 0.206864 0.916355 0.089786
O O9 0.512327 0.873312 0.402961
O O10 0.500000 0.908713 0.750000
O O11 0.500000 0.000000 0.500000
O O12 0.098222 0.085641 0.515982
O O13 0.106828 0.972448 0.696095
O O14 0.043075 0.078062 0.931240
#
# Coordination Sequence:
#
# PCOD8148452 Si02
#       7
#     8   8   8   4   8   8   8
#     4  11  23  43  69 101 143 177 235 286 353 428
#     4  11  23  45  69 100 135 184 230 297 357 419
#     4  10  23  42  68 102 137 176 236 292 353 420
#     4  12  26  46  76 108 138 196 228 298 366 418
#     4  12  27  51  73 104 143 188 246 299 352 427
#     4  10  23  42  65  97 137 177 227 278 352 422
#     4  10  23  41  65  99 137 178 222 281 344 426
#
# _framework density 21.909514000000001
#
# number of rings (size 3 to 8) (size 9 to 14) (size 15 to 20)
#    0.000    1.231    3.846    0.923    4.308    2.462 
#    8.308    0.000    0.000    0.000    0.000    0.000 
#    0.000    0.000    0.000    0.000    0.000    0.000 
#
# Total GULP energy -322221.304637 kJ/mol
# GULP energy per Si atom -12393.127101 kJ/mol
# Density = 2.185965 g / cm^3
# Si number density = 21.909514 Si / 1000 Ang^3
#
#
#
# Elastic Constant Matrix: (Units=GPa)
#
#
# Indices 1 2 3 4 5 6 
#
# 1 74.4086 35.5414 19.7349 0.0000 -3.1872 0.0000
# 2 35.5414 139.4407 52.1943 0.0000 -8.3190 0.0000
# 3 19.7349 52.1943 73.2606 0.0000 -7.2870 0.0000
# 4 0.0000 0.0000 0.0000 33.6899 0.0000 -0.0812
# 5 -3.1872 -8.3190 -7.2870 0.0000 47.1134 0.0000
# 6 0.0000 0.0000 0.0000 -0.0812 0.0000 29.6942
#
#
#
# Elastic Compliance Matrix: (Units=1/GPa)
#
#
# Indices 1 2 3 4 5 6 
#
# 1 0.015486 -0.003248 -0.001839 0.000000 0.000190 0.000000
# 2 -0.003248 0.010481 -0.006530 0.000000 0.000621 0.000000
# 3 -0.001839 -0.006530 0.018963 0.000000 0.001655 0.000000
# 4 0.000000 0.000000 0.000000 0.029683 0.000000 0.000081
# 5 0.000190 0.000621 0.001655 0.000000 0.021604 0.000000
# 6 0.000000 0.000000 0.000000 0.000081 0.000000 0.033677
#
#
# Mechanical properties :
#
#
# Convention : Reuss Voigt Hill
#
# Bulk Modulus (GPa) = 46.09243 55.78346 50.93794
# Shear Modulus (GPa) = 31.18006 34.07547 32.62777
#
# Velocity S-wave (km/s) = 3.77653 3.94798 3.86321
# Velocity P-wave (km/s) = 6.33242 6.80428 6.57259
#
# Compressibility (1/GPa) = 0.02169554
#
# Stress axis : x y z
#
# Youngs Moduli (GPa) = 64.57276 95.41362 52.73559
#
# Poissons Ratio (x) = 0.30986 0.09699
# Poissons Ratio (y) = 0.20970 0.34438
# Poissons Ratio (z) = 0.11876 0.62309
#
# Static dielectric constant tensor:
#      x y z
#    x 4.038870 0.000000 0.070910 
#    y 0.000000 3.916970 0.000000 
#    z 0.070910 0.000000 3.850900 
# 
# 
# High freq. dielectric constant tensor:
#      x y z
#    x 1.866120 0.000000 0.006110 
#    y 0.000000 1.859460 0.000000 
#    z 0.006110 0.000000 1.859620 
# 
# From -- ./inp_files/56970.got.cif
#   From: 2010.06.25/outbox.cif.g09.slc.cpg/sg15_29_cif.got.tgz:56970.got - 2010.06.28 07:06:18.
