data_PCOD8148137
_publ_section_title
;
Structure prediction by ZEFSAII (Michael W. Deem and Ramdas Pophale) SiO2 
 PCOD8148137
Probable space group: C 2/C
;
_chemical_formula_sum "Si O2"
_cell_formula_units_Z 56
_cell_length_a 12.111999
_cell_length_b 8.537354
_cell_length_c 26.226782
_cell_angle_alpha 90.000000
_cell_angle_beta 71.165376
_cell_angle_gamma 90.000000
_cell_volume 2566.751296
_symmetry_space_group_name_H-M "C 2/C"
_symmetry_group_IT_number 15
_symmetry_cell_setting 'monoclinic'
loop_
_space_group_symop_operation_xyz
x,y,z
-x,y,1/2-z
-x,-y,-z
x,-y,1/2+z
1/2+x,1/2+y,z
1/2-x,1/2+y,1/2-z
1/2-x,1/2-y,-z
1/2+x,1/2-y,1/2+z
loop_
_atom_site_type_symbol
_atom_site_label
_atom_site_fract_x
_atom_site_fract_y
_atom_site_fract_z
Si Si1 0.465055 0.079225 0.932261
Si Si2 0.629484 0.308117 0.867654
Si Si3 0.931268 0.891238 0.183648
Si Si4 0.145852 0.197649 0.980701
Si Si5 0.269659 0.616998 0.039529
Si Si6 0.176833 0.906322 0.193013
Si Si7 0.840834 0.348222 0.622537
O O1 0.512092 0.201133 0.882129
O O2 0.347517 0.987339 0.934717
O O3 0.568288 0.954970 0.922217
O O4 0.459753 0.189517 0.984534
O O5 0.590655 0.478269 0.855747
O O6 0.689067 0.303272 0.914675
O O7 0.729055 0.233306 0.816885
O O8 0.859820 0.944343 0.243894
O O9 0.890935 0.726477 0.166618
O O10 0.065584 0.859584 0.176155
O O11 0.186240 0.217165 0.915844
O O12 0.129334 0.009175 0.992391
O O13 0.250000 0.250000 0.000000
O O14 0.250000 0.750000 0.000000
O O15 0.227403 0.058023 0.156943
#
# Coordination Sequence:
#
# PCOD8148137 Si02
#       7
#     8   8   8   8   8   8   8
#     4  10  25  40  61  93 130 170 211 262 322 379
#     4  11  24  42  67  93 130 172 214 262 329 390
#     4  11  23  44  68  97 125 170 223 267 337 380
#     4  10  23  39  61  93 133 168 213 263 314 392
#     4  11  25  41  61  94 130 172 217 266 313 389
#     4  10  25  42  67  97 130 164 218 284 319 387
#     4  11  22  43  66  91 132 174 212 270 328 389
#
# _framework density 21.817463
#
# number of rings (size 3 to 8) (size 9 to 14) (size 15 to 20)
#    0.000    1.429    1.429    2.143   14.000    1.714 
#    0.000    0.000    0.000    6.857    0.000    0.000 
#    0.000    0.000    0.000    0.000    0.000    0.000 
#
# Total GULP energy -346926.368543 kJ/mol
# GULP energy per Si atom -12390.227448 kJ/mol
# Density = 2.176781 g / cm^3
# Si number density = 21.817463 Si / 1000 Ang^3
#
#
#
# Elastic Constant Matrix: (Units=GPa)
#
#
# Indices 1 2 3 4 5 6 
#
# 1 74.1716 24.7718 47.0818 0.0000 -10.0671 0.0000
# 2 24.7718 110.9440 36.0108 0.0000 -5.5499 0.0000
# 3 47.0818 36.0108 94.2230 0.0000 -2.5199 0.0000
# 4 0.0000 0.0000 0.0000 32.0900 0.0000 5.2095
# 5 -10.0671 -5.5499 -2.5199 0.0000 37.7370 0.0000
# 6 0.0000 0.0000 0.0000 5.2095 0.0000 26.5227
#
#
#
# Elastic Compliance Matrix: (Units=1/GPa)
#
#
# Indices 1 2 3 4 5 6 
#
# 1 0.020726 -0.001224 -0.009763 0.000000 0.004697 0.000000
# 2 -0.001224 0.010422 -0.003345 0.000000 0.000983 0.000000
# 3 -0.009763 -0.003345 0.016717 0.000000 -0.001980 0.000000
# 4 0.000000 0.000000 0.000000 0.032189 0.000000 -0.006322
# 5 0.004697 0.000983 -0.001980 0.000000 0.027765 0.000000
# 6 0.000000 0.000000 0.000000 -0.006322 0.000000 0.038945
#
#
# Mechanical properties :
#
#
# Convention : Reuss Voigt Hill
#
# Bulk Modulus (GPa) = 52.08198 55.00749 53.54473
# Shear Modulus (GPa) = 27.49857 30.70155 29.10006
#
# Velocity S-wave (km/s) = 3.55405 3.75534 3.65608
# Velocity P-wave (km/s) = 6.38477 6.63858 6.51291
#
# Compressibility (1/GPa) = 0.01920050
#
# Stress axis : x y z
#
# Youngs Moduli (GPa) = 48.24915 95.95265 59.81890
#
# Poissons Ratio (x) = 0.11743 0.58401
# Poissons Ratio (y) = 0.05905 0.20011
# Poissons Ratio (z) = 0.47106 0.32099
#
# Static dielectric constant tensor:
#      x y z
#    x 3.929130 0.000000 -0.312360 
#    y 0.000000 4.434690 0.000000 
#    z -0.312360 0.000000 4.007930 
# 
# 
# High freq. dielectric constant tensor:
#      x y z
#    x 1.856210 0.000000 -0.007880 
#    y 0.000000 1.873680 0.000000 
#    z -0.007880 0.000000 1.851070 
# 
# From -- ./inp_files/291497.got.cif
#   From: 2010.06.25/outbox.cif.g09.slc.cpg/sg15_146_cif.got.tgz:291497.got - 2010.06.28 07:06:18.
