data_PCOD8148083
_publ_section_title
;
Structure prediction by ZEFSAII (Michael W. Deem and Ramdas Pophale) SiO2 
 PCOD8148083
Probable space group: C 2/C
;
_chemical_formula_sum "Si O2"
_cell_formula_units_Z 32
_cell_length_a 11.235314
_cell_length_b 27.121862
_cell_length_c 5.215741
_cell_angle_alpha 90.000000
_cell_angle_beta 92.264306
_cell_angle_gamma 90.000000
_cell_volume 1588.113381
_symmetry_space_group_name_H-M "C 2/C"
_symmetry_group_IT_number 15
_symmetry_cell_setting 'monoclinic'
loop_
_space_group_symop_operation_xyz
x,y,z
-x,y,1/2-z
-x,-y,-z
x,-y,1/2+z
1/2+x,1/2+y,z
1/2-x,1/2+y,1/2-z
1/2-x,1/2-y,-z
1/2+x,1/2-y,1/2+z
loop_
_atom_site_type_symbol
_atom_site_label
_atom_site_fract_x
_atom_site_fract_y
_atom_site_fract_z
Si Si1 0.163956 0.379329 0.370979
Si Si2 0.612161 0.656203 0.385515
Si Si3 0.000000 0.766090 0.250000
Si Si4 0.159167 0.322653 0.861628
Si Si5 0.500000 0.966812 0.250000
O O1 0.308425 0.379944 0.426128
O O2 0.102677 0.355793 0.621913
O O3 0.118009 0.433605 0.296385
O O4 0.127949 0.345378 0.131667
O O5 0.500000 0.626696 0.250000
O O6 0.554292 0.701475 0.529561
O O7 0.697624 0.678785 0.170264
O O8 0.108021 0.732188 0.358548
O O9 0.500000 0.000000 0.500000
#
# Coordination Sequence:
#
# PCOD8148083 Si02
#       5
#     8   8   4   8   4
#     4  10  23  44  59  94 127 164 198 263 330 362
#     4  10  24  37  61  88 131 180 217 254 297 366
#     4  12  22  37  58  96 126 182 232 253 290 342
#     4  10  23  38  62  87 139 172 211 262 295 360
#     4  12  24  43  78 100 118 148 204 269 328 402
#
# _framework density 20.149695000000001
#
# number of rings (size 3 to 8) (size 9 to 14) (size 15 to 20)
#    1.500    0.000    0.000    5.250    3.500    2.000 
#    0.000    0.000    0.000    1.500    0.000    0.000 
#    0.000    0.000    0.000    0.000    0.000    0.000 
#
# Total GULP energy -198225.700558 kJ/mol
# GULP energy per Si atom -12389.106285 kJ/mol
# Density = 2.010383 g / cm^3
# Si number density = 20.149695 Si / 1000 Ang^3
#
#
#
# Elastic Constant Matrix: (Units=GPa)
#
#
# Indices 1 2 3 4 5 6 
#
# 1 133.5526 56.2542 41.8470 0.0000 32.3614 0.0000
# 2 56.2542 100.7420 49.5344 0.0000 11.2411 0.0000
# 3 41.8470 49.5344 144.2897 0.0000 10.5747 0.0000
# 4 0.0000 0.0000 0.0000 24.3414 0.0000 -1.9655
# 5 32.3614 11.2411 10.5747 0.0000 41.2376 0.0000
# 6 0.0000 0.0000 0.0000 -1.9655 0.0000 11.2052
#
#
#
# Elastic Compliance Matrix: (Units=1/GPa)
#
#
# Indices 1 2 3 4 5 6 
#
# 1 0.011887 -0.005254 -0.001085 0.000000 -0.007618 0.000000
# 2 -0.005254 0.014472 -0.003524 0.000000 0.001082 0.000000
# 3 -0.001085 -0.003524 0.008482 0.000000 -0.000363 0.000000
# 4 0.000000 0.000000 0.000000 0.041673 0.000000 0.007310
# 5 -0.007618 0.001082 -0.000363 0.000000 0.030026 0.000000
# 6 0.000000 0.000000 0.000000 0.007310 0.000000 0.090527
#
#
# Mechanical properties :
#
#
# Convention : Reuss Voigt Hill
#
# Bulk Modulus (GPa) = 66.16309 74.87283 70.51796
# Shear Modulus (GPa) = 22.53986 30.75342 26.64664
#
# Velocity S-wave (km/s) = 3.34821 3.91096 3.64047
# Velocity P-wave (km/s) = 6.91769 7.59165 7.26249
#
# Compressibility (1/GPa) = 0.01511417
#
# Stress axis : x y z
#
# Youngs Moduli (GPa) = 84.12850 69.09915 117.90245
#
# Poissons Ratio (x) = 0.36303 0.12798
# Poissons Ratio (y) = 0.44199 0.41546
# Poissons Ratio (z) = 0.09132 0.24349
#
# Static dielectric constant tensor:
#      x y z
#    x 4.048910 0.000000 0.130780 
#    y 0.000000 3.317760 0.000000 
#    z 0.130780 0.000000 3.778930 
# 
# 
# High freq. dielectric constant tensor:
#      x y z
#    x 1.804050 0.000000 0.008830 
#    y 0.000000 1.733670 0.000000 
#    z 0.008830 0.000000 1.808480 
# 
# From -- ./inp_files/4599.got.cif
#   From: 2010.06.25/outbox.cif.g09.slc.cpg/sg15_3_cif.got.tgz:4599.got - 2010.06.28 07:06:18.
