data_PCOD8148467
_publ_section_title
;
Structure prediction by ZEFSAII (Michael W. Deem and Ramdas Pophale) SiO2 
 PCOD8148467
Probable space group: C 2/C
;
_chemical_formula_sum "Si O2"
_cell_formula_units_Z 48
_cell_length_a 11.379729
_cell_length_b 12.899910
_cell_length_c 21.655880
_cell_angle_alpha 90.000000
_cell_angle_beta 46.488748
_cell_angle_gamma 90.000000
_cell_volume 2305.556086
_symmetry_space_group_name_H-M "C 2/C"
_symmetry_group_IT_number 15
_symmetry_cell_setting 'monoclinic'
loop_
_space_group_symop_operation_xyz
x,y,z
-x,y,1/2-z
-x,-y,-z
x,-y,1/2+z
1/2+x,1/2+y,z
1/2-x,1/2+y,1/2-z
1/2-x,1/2-y,-z
1/2+x,1/2-y,1/2+z
loop_
_atom_site_type_symbol
_atom_site_label
_atom_site_fract_x
_atom_site_fract_y
_atom_site_fract_z
Si Si1 0.837488 0.980173 0.372541
Si Si2 0.720848 0.247261 0.084185
Si Si3 0.686321 0.905383 0.031737
Si Si4 0.157945 0.935660 0.762584
Si Si5 0.512514 0.942454 0.676522
Si Si6 0.519258 0.711161 0.410205
O O1 0.697457 0.029465 0.464726
O O2 0.845651 0.056963 0.310520
O O3 0.018157 0.985604 0.338064
O O4 0.803341 0.859226 0.375247
O O5 0.560332 0.178556 0.152874
O O6 0.869148 0.197524 0.069294
O O7 0.750000 0.250000 0.000000
O O8 0.532169 0.829624 0.082767
O O9 0.653759 0.988599 0.096393
O O10 0.854891 0.849803 0.985403
O O11 0.339263 0.968427 0.710912
O O12 0.112393 0.827145 0.813925
O O13 0.500000 0.979103 0.750000
#
# Coordination Sequence:
#
# PCOD8148467 Si02
#       6
#     8   8   8   8   8   8
#     4  10  23  44  70  95 126 180 220 270 328 394
#     4  12  25  41  68  99 133 173 221 272 332 394
#     4  10  23  45  68  94 131 176 223 267 327 396
#     4  10  23  41  66  94 131 170 225 272 322 388
#     4  12  25  41  63  99 136 170 216 273 333 388
#     4  10  23  45  66  96 134 173 222 270 325 397
#
# _framework density 20.819274
#
# number of rings (size 3 to 8) (size 9 to 14) (size 15 to 20)
#    0.000    1.333    3.333    1.000    4.667    4.667 
#    9.000    0.000    0.000    0.000    0.000    0.000 
#    0.000    0.000    0.000    0.000    0.000    0.000 
#
# Total GULP energy -297352.900991 kJ/mol
# GULP energy per Si atom -12389.704208 kJ/mol
# Density = 2.077189 g / cm^3
# Si number density = 20.819274 Si / 1000 Ang^3
#
#
#
# Elastic Constant Matrix: (Units=GPa)
#
#
# Indices 1 2 3 4 5 6 
#
# 1 118.9995 36.2889 44.5195 0.0000 1.2076 0.0000
# 2 36.2889 109.3778 58.9400 0.0000 7.4340 0.0000
# 3 44.5195 58.9400 147.9859 0.0000 21.6225 0.0000
# 4 0.0000 0.0000 0.0000 39.0109 0.0000 -1.3904
# 5 1.2076 7.4340 21.6225 0.0000 35.2549 0.0000
# 6 0.0000 0.0000 0.0000 -1.3904 0.0000 19.8505
#
#
#
# Elastic Compliance Matrix: (Units=1/GPa)
#
#
# Indices 1 2 3 4 5 6 
#
# 1 0.009920 -0.002122 -0.002367 0.000000 0.001559 0.000000
# 2 -0.002122 0.012101 -0.004195 0.000000 0.000094 0.000000
# 3 -0.002367 -0.004195 0.009885 0.000000 -0.005097 0.000000
# 4 0.000000 0.000000 0.000000 0.025698 0.000000 0.001800
# 5 0.001559 0.000094 -0.005097 0.000000 0.031418 0.000000
# 6 0.000000 0.000000 0.000000 0.001800 0.000000 0.050503
#
#
# Mechanical properties :
#
#
# Convention : Reuss Voigt Hill
#
# Bulk Modulus (GPa) = 68.78361 72.87332 70.82847
# Shear Modulus (GPa) = 30.91425 34.59761 32.75593
#
# Velocity S-wave (km/s) = 3.85760 4.08095 3.97085
# Velocity P-wave (km/s) = 7.27679 7.56864 7.42415
#
# Compressibility (1/GPa) = 0.01453835
#
# Stress axis : x y z
#
# Youngs Moduli (GPa) = 100.80475 82.64020 101.16324
#
# Poissons Ratio (x) = 0.17534 0.23947
# Poissons Ratio (y) = 0.21387 0.42437
# Poissons Ratio (z) = 0.23862 0.34667
#
# Static dielectric constant tensor:
#      x y z
#    x 3.289580 0.000000 -0.110000 
#    y 0.000000 3.795900 0.000000 
#    z -0.110000 0.000000 3.985580 
# 
# 
# High freq. dielectric constant tensor:
#      x y z
#    x 1.818550 0.000000 -0.011710 
#    y 0.000000 1.807540 0.000000 
#    z -0.011710 0.000000 1.829130 
# 
# From -- ./inp_files/237430.got.cif
#   From: 2010.06.25/outbox.cif.g09.slc.cpg/sg15_119_cif.got.tgz:237430.got - 2010.06.28 07:06:18.
