data_PCOD8148278
_publ_section_title
;
Structure prediction by ZEFSAII (Michael W. Deem and Ramdas Pophale) SiO2 
 PCOD8148278
Probable space group: C 2/C
;
_chemical_formula_sum "Si O2"
_cell_formula_units_Z 48
_cell_length_a 14.762126
_cell_length_b 14.209242
_cell_length_c 11.905435
_cell_angle_alpha 90.000000
_cell_angle_beta 114.653824
_cell_angle_gamma 90.000000
_cell_volume 2269.628324
_symmetry_space_group_name_H-M "C 2/C"
_symmetry_group_IT_number 15
_symmetry_cell_setting 'monoclinic'
loop_
_space_group_symop_operation_xyz
x,y,z
-x,y,1/2-z
-x,-y,-z
x,-y,1/2+z
1/2+x,1/2+y,z
1/2-x,1/2+y,1/2-z
1/2-x,1/2-y,-z
1/2+x,1/2-y,1/2+z
loop_
_atom_site_type_symbol
_atom_site_label
_atom_site_fract_x
_atom_site_fract_y
_atom_site_fract_z
Si Si1 0.427546 0.012981 0.304634
Si Si2 0.276512 0.425065 0.297217
Si Si3 0.016587 0.349104 0.488555
Si Si4 0.403762 0.337370 0.559612
Si Si5 0.125044 0.888642 0.708370
Si Si6 0.305451 0.769245 0.411852
O O1 0.500000 0.057907 0.250000
O O2 0.320941 0.978478 0.205858
O O3 0.484855 0.921954 0.378120
O O4 0.413431 0.096295 0.387246
O O5 0.330174 0.383959 0.433158
O O6 0.344786 0.502560 0.272235
O O7 0.253941 0.346474 0.191945
O O8 0.084724 0.271968 0.464259
O O9 0.917646 0.305078 0.495135
O O10 0.510067 0.388511 0.611583
O O11 0.358013 0.343089 0.660390
O O12 0.190707 0.828337 0.654863
O O13 0.250000 0.750000 0.500000
#
# Coordination Sequence:
#
# PCOD8148278 Si02
#       6
#     8   8   8   8   8   8
#     4  10  23  40  65  94 135 167 217 267 327 389
#     4  11  25  40  68 103 128 178 220 273 337 393
#     4   9  22  42  63  94 129 178 212 268 326 389
#     4  10  23  44  69  94 133 171 227 267 332 398
#     4  10  24  44  67  95 135 174 217 279 330 392
#     4  10  24  43  65  99 135 172 224 273 328 398
#
# _framework density 21.148838000000001
#
# number of rings (size 3 to 8) (size 9 to 14) (size 15 to 20)
#    0.000    2.000    0.000    0.500   14.000    3.333 
#    3.000    0.000    0.000    0.000    0.000    0.000 
#    0.000    0.000    0.000    0.000    0.000    0.000 
#
# Total GULP energy -297617.871657 kJ/mol
# GULP energy per Si atom -12400.744652 kJ/mol
# Density = 2.110070 g / cm^3
# Si number density = 21.148838 Si / 1000 Ang^3
#
#
#
# Elastic Constant Matrix: (Units=GPa)
#
#
# Indices 1 2 3 4 5 6 
#
# 1 74.1958 21.1898 63.5934 0.0000 -19.0657 0.0000
# 2 21.1898 89.6359 61.6962 0.0000 3.1608 0.0000
# 3 63.5934 61.6962 148.3581 0.0000 0.5325 0.0000
# 4 0.0000 0.0000 0.0000 -209.6790 0.0000 51.9967
# 5 -19.0657 3.1608 0.5325 0.0000 31.8925 0.0000
# 6 0.0000 0.0000 0.0000 51.9967 0.0000 21.6057
#
#
#
# Elastic Compliance Matrix: (Units=1/GPa)
#
#
# Indices 1 2 3 4 5 6 
#
# 1 0.028511 0.001556 -0.012930 0.000000 0.017106 0.000000
# 2 0.001556 0.015782 -0.007228 0.000000 -0.000513 0.000000
# 3 -0.012930 -0.007228 0.015315 0.000000 -0.007269 0.000000
# 4 0.000000 0.000000 0.000000 -0.002987 0.000000 0.007188
# 5 0.017106 -0.000513 -0.007269 0.000000 0.041754 0.000000
# 6 0.000000 0.000000 0.000000 0.007188 0.000000 0.028986
#
#
# Mechanical properties :
#
#
# Convention : Reuss Voigt Hill
#
# Bulk Modulus (GPa) = 44.63454 67.23872 55.93663
# Shear Modulus (GPa) = 29.06439 -20.18880 4.43780
#
# Velocity S-wave (km/s) = 3.71115 -3.09302 1.45014
# Velocity P-wave (km/s) = 6.28604 4.37109 5.41390
#
# Compressibility (1/GPa) = 0.02240418
#
# Stress axis : x y z
#
# Youngs Moduli (GPa) = 35.07387 63.36507 65.29609
#
# Poissons Ratio (x) = -0.09862 0.84427
# Poissons Ratio (y) = -0.05459 0.47198
# Poissons Ratio (z) = 0.45350 0.45802
#
# Static dielectric constant tensor:
#      x y z
#    x 3.779380 0.000000 0.127810 
#    y 0.000000 3.939550 0.000000 
#    z 0.127810 0.000000 3.785900 
# 
# 
# High freq. dielectric constant tensor:
#      x y z
#    x 1.827320 0.000000 0.005660 
#    y 0.000000 1.840880 0.000000 
#    z 0.005660 0.000000 1.829540 
# 
# From -- ./inp_files/96556.got.cif
#   From: 2010.06.25/outbox.cif.g09.slc.cpg/sg15_49_cif.got.tgz:96556.got - 2010.06.28 07:06:18.
