data_PCOD8148248
_publ_section_title
;
Structure prediction by ZEFSAII (Michael W. Deem and Ramdas Pophale) SiO2 
 PCOD8148248
Probable space group: C 2/C
;
_chemical_formula_sum "Si O2"
_cell_formula_units_Z 60
_cell_length_a 9.177878
_cell_length_b 16.941955
_cell_length_c 20.048564
_cell_angle_alpha 90.000000
_cell_angle_beta 111.157608
_cell_angle_gamma 90.000000
_cell_volume 2907.236378
_symmetry_space_group_name_H-M "C 2/C"
_symmetry_group_IT_number 15
_symmetry_cell_setting 'monoclinic'
loop_
_space_group_symop_operation_xyz
x,y,z
-x,y,1/2-z
-x,-y,-z
x,-y,1/2+z
1/2+x,1/2+y,z
1/2-x,1/2+y,1/2-z
1/2-x,1/2-y,-z
1/2+x,1/2-y,1/2+z
loop_
_atom_site_type_symbol
_atom_site_label
_atom_site_fract_x
_atom_site_fract_y
_atom_site_fract_z
Si Si1 0.386189 0.225191 0.138770
Si Si2 0.360322 0.943151 0.576805
Si Si3 0.369409 0.960708 0.330615
Si Si4 0.130924 0.063469 0.221872
Si Si5 0.577878 0.513711 0.583181
Si Si6 0.228844 0.731661 0.233764
Si Si7 0.308859 0.385693 0.080040
Si Si8 0.500000 0.847907 0.250000
O O1 0.329771 0.136982 0.113533
O O2 0.574123 0.226084 0.162956
O O3 0.326268 0.252029 0.201039
O O4 0.310873 0.290315 0.076499
O O5 0.308754 0.923889 0.492982
O O6 0.537564 0.973864 0.609794
O O7 0.261209 0.014875 0.594347
O O8 0.248569 0.915332 0.357785
O O9 0.488324 0.900047 0.315104
O O10 0.278924 0.005262 0.255779
O O11 0.175987 0.151087 0.249382
O O12 0.000000 0.032597 0.250000
O O13 0.062718 0.056931 0.135323
O O14 0.500000 0.500000 0.500000
O O15 0.491943 0.589809 0.600210
O O16 0.341849 0.796564 0.219688
#
# Coordination Sequence:
#
# PCOD8148248 Si02
#       8
#     8   8   8   8   8   8   8   4
#     4  11  23  41  64  93 124 170 221 260 323 387
#     4  11  23  43  66  91 132 170 218 260 329 396
#     4  12  25  40  65  98 123 167 217 274 327 379
#     4  12  22  40  70  94 131 170 217 264 329 390
#     4  10  23  40  63  96 131 167 208 263 325 385
#     4  11  24  40  63  94 129 168 212 274 322 386
#     4  11  24  42  64  95 130 170 212 273 322 385
#     4  12  26  40  62  94 134 162 208 280 332 370
#
# _framework density 20.638158000000001
#
# number of rings (size 3 to 8) (size 9 to 14) (size 15 to 20)
#    0.000    0.800    6.000    1.600    3.733    0.000 
#    0.000    0.000    0.000    0.800    0.000    0.000 
#    0.000    0.000    0.000    0.000    0.000    0.000 
#
# Total GULP energy -371722.899928 kJ/mol
# GULP energy per Si atom -12390.763331 kJ/mol
# Density = 2.059118 g / cm^3
# Si number density = 20.638158 Si / 1000 Ang^3
#
#
#
# Elastic Constant Matrix: (Units=GPa)
#
#
# Indices 1 2 3 4 5 6 
#
# 1 96.5159 39.1539 34.4210 0.0000 0.1579 0.0000
# 2 39.1539 105.2075 36.9195 0.0000 7.0593 0.0000
# 3 34.4210 36.9195 102.2091 0.0000 -0.0866 0.0000
# 4 0.0000 0.0000 0.0000 31.0905 0.0000 -2.4019
# 5 0.1579 7.0593 -0.0866 0.0000 27.4402 0.0000
# 6 0.0000 0.0000 0.0000 -2.4019 0.0000 35.4644
#
#
#
# Elastic Compliance Matrix: (Units=1/GPa)
#
#
# Indices 1 2 3 4 5 6 
#
# 1 0.012983 -0.003846 -0.002982 0.000000 0.000905 0.000000
# 2 -0.003846 0.012246 -0.003131 0.000000 -0.003138 0.000000
# 3 -0.002982 -0.003131 0.011920 0.000000 0.000860 0.000000
# 4 0.000000 0.000000 0.000000 0.032333 0.000000 0.002190
# 5 0.000905 -0.003138 0.000860 0.000000 0.037248 0.000000
# 6 0.000000 0.000000 0.000000 0.002190 0.000000 0.028346
#
#
# Mechanical properties :
#
#
# Convention : Reuss Voigt Hill
#
# Bulk Modulus (GPa) = 58.03672 58.32459 58.18066
# Shear Modulus (GPa) = 31.10668 31.69489 31.40078
#
# Velocity S-wave (km/s) = 3.88653 3.92311 3.90486
# Velocity P-wave (km/s) = 6.95142 6.98877 6.97012
#
# Compressibility (1/GPa) = 0.01723047
#
# Stress axis : x y z
#
# Youngs Moduli (GPa) = 77.02161 81.66233 83.89378
#
# Poissons Ratio (x) = 0.31408 0.25020
# Poissons Ratio (y) = 0.29623 0.26265
# Poissons Ratio (z) = 0.22971 0.25566
#
# Static dielectric constant tensor:
#      x y z
#    x 4.046630 0.000000 0.036780 
#    y 0.000000 3.710610 0.000000 
#    z 0.036780 0.000000 3.670960 
# 
# 
# High freq. dielectric constant tensor:
#      x y z
#    x 1.816810 0.000000 -0.000920 
#    y 0.000000 1.802360 0.000000 
#    z -0.000920 0.000000 1.801130 
# 
# From -- ./inp_files/232765.got.cif
#   From: 2010.06.25/outbox.cif.g09.slc.cpg/sg15_117_cif.got.tgz:232765.got - 2010.06.28 07:06:18.
