data_PCOD8148660
_publ_section_title
;
Structure prediction by ZEFSAII (Michael W. Deem and Ramdas Pophale) SiO2 
 PCOD8148660
Probable space group: C 2/C
;
_chemical_formula_sum "Si O2"
_cell_formula_units_Z 48
_cell_length_a 13.916923
_cell_length_b 16.006846
_cell_length_c 29.822788
_cell_angle_alpha 90.000000
_cell_angle_beta 19.682397
_cell_angle_gamma 90.000000
_cell_volume 2237.572132
_symmetry_space_group_name_H-M "C 2/C"
_symmetry_group_IT_number 15
_symmetry_cell_setting 'monoclinic'
loop_
_space_group_symop_operation_xyz
x,y,z
-x,y,1/2-z
-x,-y,-z
x,-y,1/2+z
1/2+x,1/2+y,z
1/2-x,1/2+y,1/2-z
1/2-x,1/2-y,-z
1/2+x,1/2-y,1/2+z
loop_
_atom_site_type_symbol
_atom_site_label
_atom_site_fract_x
_atom_site_fract_y
_atom_site_fract_z
Si Si1 0.599128 0.080222 0.905734
Si Si2 0.125650 0.039005 0.624694
Si Si3 0.839006 0.585849 0.273045
Si Si4 0.019327 0.823324 0.099824
Si Si5 0.092929 0.963693 0.006887
Si Si6 0.084794 0.740376 0.856183
O O1 0.681414 0.081183 0.921537
O O2 0.641366 0.174042 0.870276
O O3 0.810548 0.021194 0.783065
O O4 0.274196 0.047502 0.043490
O O5 0.136365 0.101957 0.578851
O O6 0.553177 0.529587 0.395051
O O7 0.754348 0.677288 0.295044
O O8 0.000000 0.590400 0.250000
O O9 0.063169 0.541136 0.140676
O O10 0.981613 0.868384 0.067336
O O11 0.713562 0.790769 0.252005
O O12 0.250000 0.750000 0.000000
O O13 0.000000 0.000000 0.000000
O O14 0.750000 0.750000 0.000000
#
# Coordination Sequence:
#
# PCOD8148660 Si02
#       6
#     8   8   8   8   8   8
#     4   9  20  39  60  88 122 161 207 260 329 393
#     4   9  20  36  63  86 118 159 207 256 320 397
#     4  10  23  42  68  90 130 178 227 284 349 416
#     4  11  23  40  65  92 129 174 222 273 340 403
#     4  10  23  42  66  94 128 174 229 281 345 408
#     4  11  25  39  62  98 133 170 225 281 343 408
#
# _framework density 21.451823000000001
#
# number of rings (size 3 to 8) (size 9 to 14) (size 15 to 20)
#    0.000    2.000    1.667    0.000    9.333    2.667 
#    0.000    0.000    0.000    0.000    0.000    0.000 
#    0.000    0.000    0.000    0.000    0.000    0.000 
#
# Total GULP energy -297389.902218 kJ/mol
# GULP energy per Si atom -12391.245926 kJ/mol
# Density = 2.140300 g / cm^3
# Si number density = 21.451823 Si / 1000 Ang^3
#
#
#
# Elastic Constant Matrix: (Units=GPa)
#
#
# Indices 1 2 3 4 5 6 
#
# 1 47.0409 34.0569 34.0880 -0.3022 0.4144 -0.4462
# 2 34.0569 135.7621 73.0450 -1.0110 2.4560 -0.1996
# 3 34.0880 73.0450 166.8796 -2.0444 1.6079 0.4722
# 4 -0.3022 -1.0110 -2.0444 45.4609 0.8092 0.3410
# 5 0.4144 2.4560 1.6079 0.8092 20.4439 -0.0607
# 6 -0.4462 -0.1996 0.4722 0.3410 -0.0607 37.1111
#
#
#
# Elastic Compliance Matrix: (Units=1/GPa)
#
#
# Indices 1 2 3 4 5 6 
#
# 1 0.027367 -0.005050 -0.003385 -0.000091 0.000323 0.000346
# 2 -0.005050 0.010581 -0.003591 0.000056 -0.000888 0.000040
# 3 -0.003385 -0.003591 0.008261 0.000273 -0.000161 -0.000168
# 4 -0.000091 0.000056 0.000273 0.022027 -0.000899 -0.000208
# 5 0.000323 -0.000888 -0.000161 -0.000899 0.049063 0.000090
# 6 0.000346 0.000040 -0.000168 -0.000208 0.000090 0.026955
#
#
# Mechanical properties :
#
#
# Convention : Reuss Voigt Hill
#
# Bulk Modulus (GPa) = 45.13135 70.22913 57.68024
# Shear Modulus (GPa) = 28.45896 34.50268 31.48082
#
# Velocity S-wave (km/s) = 3.64627 4.01481 3.83497
# Velocity P-wave (km/s) = 6.22986 7.36891 6.82319
#
# Compressibility (1/GPa) = 0.02215755
#
# Stress axis : x y z
#
# Youngs Moduli (GPa) = 36.54042 94.50735 121.05229
#
# Poissons Ratio (x) = 0.47726 0.40975
# Poissons Ratio (y) = 0.18453 0.43468
# Poissons Ratio (z) = 0.12369 0.33936
#
# Static dielectric constant tensor:
#      x y z
#    x 4.026230 -0.019370 0.390030 
#    y -0.019370 4.130820 -0.014650 
#    z 0.390030 -0.014650 4.769740 
# 
# 
# High freq. dielectric constant tensor:
#      x y z
#    x 1.823820 0.000070 0.013130 
#    y 0.000070 1.837360 -0.000060 
#    z 0.013130 -0.000060 1.866620 
# 
# From -- ./inp_files/314048.got.cif
#   From: 2010.06.25/outbox.cif.g09.slc.cpg/sg15_158_cif.got.tgz:314048.got - 2010.06.28 07:06:18.
