data_PCOD8148654
_publ_section_title
;
Structure prediction by ZEFSAII (Michael W. Deem and Ramdas Pophale) SiO2 
 PCOD8148654
Probable space group: C 2/C
;
_chemical_formula_sum "Si O2"
_cell_formula_units_Z 48
_cell_length_a 9.106356
_cell_length_b 20.184397
_cell_length_c 20.716654
_cell_angle_alpha 90.000000
_cell_angle_beta 140.489757
_cell_angle_gamma 90.000000
_cell_volume 2422.616721
_symmetry_space_group_name_H-M "C 2/C"
_symmetry_group_IT_number 15
_symmetry_cell_setting 'monoclinic'
loop_
_space_group_symop_operation_xyz
x,y,z
-x,y,1/2-z
-x,-y,-z
x,-y,1/2+z
1/2+x,1/2+y,z
1/2-x,1/2+y,1/2-z
1/2-x,1/2-y,-z
1/2+x,1/2-y,1/2+z
loop_
_atom_site_type_symbol
_atom_site_label
_atom_site_fract_x
_atom_site_fract_y
_atom_site_fract_z
Si Si1 0.074327 0.417206 0.630116
Si Si2 0.649157 0.461246 0.236060
Si Si3 0.324408 0.118165 0.480096
Si Si4 0.247723 0.676166 0.693823
Si Si5 0.648423 0.493422 0.486642
Si Si6 0.899335 0.807747 0.786470
O O1 0.152370 0.485917 0.687428
O O2 0.148668 0.414189 0.581029
O O3 0.177022 0.356229 0.705831
O O4 0.798507 0.425412 0.542801
O O5 0.500000 0.458325 0.250000
O O6 0.748151 0.387633 0.257629
O O7 0.511427 0.485681 0.128579
O O8 0.550280 0.162733 0.572499
O O9 0.092845 0.162751 0.400167
O O10 0.298926 0.060037 0.524577
O O11 0.500000 0.689611 0.750000
O O12 0.183458 0.738541 0.714633
O O13 0.500000 0.500000 0.500000
O O14 0.000000 0.795940 0.750000
#
# Coordination Sequence:
#
# PCOD8148654 Si02
#       6
#     8   8   8   8   8   8
#     4  11  20  42  70  89 126 175 223 254 316 401
#     4  11  20  40  67  92 125 168 220 258 313 394
#     4  11  21  43  69  92 124 174 224 261 311 402
#     4  11  24  39  63  96 129 166 211 266 323 378
#     4  12  25  37  61 106 130 157 210 284 331 358
#     4  10  23  42  66  91 125 177 218 259 319 386
#
# _framework density 19.813288
#
# number of rings (size 3 to 8) (size 9 to 14) (size 15 to 20)
#    0.000    1.000    5.000    3.500    0.000    3.333 
#    0.000    7.500    0.000    0.000    0.000    0.000 
#    0.000    0.000    0.000    0.000    0.000    0.000 
#
# Total GULP energy -297519.423588 kJ/mol
# GULP energy per Si atom -12396.642649 kJ/mol
# Density = 1.976819 g / cm^3
# Si number density = 19.813288 Si / 1000 Ang^3
#
#
#
# Elastic Constant Matrix: (Units=GPa)
#
#
# Indices 1 2 3 4 5 6 
#
# 1 78.9043 47.2319 43.9125 0.0004 -3.4251 0.0008
# 2 47.2319 132.7301 23.5501 0.0009 -7.4059 0.0006
# 3 43.9125 23.5501 50.9224 0.0049 -12.6359 0.0025
# 4 0.0004 0.0009 0.0049 76.0334 0.0024 0.1133
# 5 -3.4251 -7.4059 -12.6359 0.0024 14.2333 0.0015
# 6 0.0008 0.0006 0.0025 0.1133 0.0015 34.7214
#
#
#
# Elastic Compliance Matrix: (Units=1/GPa)
#
#
# Indices 1 2 3 4 5 6 
#
# 1 0.033816 -0.007779 -0.031484 0.000003 -0.023861 0.000003
# 2 -0.007779 0.010012 0.003727 -0.000001 0.006646 -0.000001
# 3 -0.031484 0.003727 0.056003 -0.000005 0.044080 -0.000005
# 4 0.000003 -0.000001 -0.000005 0.013152 -0.000006 -0.000043
# 5 -0.023861 0.006646 0.044080 -0.000006 0.107107 -0.000007
# 6 0.000003 -0.000001 -0.000005 -0.000043 -0.000007 0.028801
#
#
# Mechanical properties :
#
#
# Convention : Reuss Voigt Hill
#
# Bulk Modulus (GPa) = 34.77305 54.66062 44.71683
# Shear Modulus (GPa) = 15.17226 34.85510 25.01368
#
# Velocity S-wave (km/s) = 2.77024 4.19881 3.55698
# Velocity P-wave (km/s) = 5.27454 7.15223 6.28391
#
# Compressibility (1/GPa) = 0.02875791
#
# Stress axis : x y z
#
# Youngs Moduli (GPa) = 29.57180 99.88365 17.85633
#
# Poissons Ratio (x) = 0.77695 0.56220
# Poissons Ratio (y) = 0.23002 -0.06655
# Poissons Ratio (z) = 0.93105 -0.37224
#
# Static dielectric constant tensor:
#      x y z
#    x 3.292960 0.000000 0.184560 
#    y 0.000000 3.800100 0.000000 
#    z 0.184560 0.000000 3.992400 
# 
# 
# High freq. dielectric constant tensor:
#      x y z
#    x 1.745240 0.000000 0.010670 
#    y 0.000000 1.776710 0.000000 
#    z 0.010670 0.000000 1.795660 
# 
# From -- ./inp_files/191934.got.cif
#   From: 2010.06.25/outbox.cif.g09.slc.cpg/sg15_96_cif.got.tgz:191934.got - 2010.06.28 07:06:18.
