data_PCOD8148810
_publ_section_title
;
Structure prediction by ZEFSAII (Michael W. Deem and Ramdas Pophale) SiO2 
 PCOD8148810
Probable space group: C 2/C
;
_chemical_formula_sum "Si O2"
_cell_formula_units_Z 44
_cell_length_a 15.095598
_cell_length_b 9.731365
_cell_length_c 10.979936
_cell_angle_alpha 90.000000
_cell_angle_beta 93.210237
_cell_angle_gamma 90.000000
_cell_volume 1610.429998
_symmetry_space_group_name_H-M "C 2/C"
_symmetry_group_IT_number 15
_symmetry_cell_setting 'monoclinic'
loop_
_space_group_symop_operation_xyz
x,y,z
-x,y,1/2-z
-x,-y,-z
x,-y,1/2+z
1/2+x,1/2+y,z
1/2-x,1/2+y,1/2-z
1/2-x,1/2-y,-z
1/2+x,1/2-y,1/2+z
loop_
_atom_site_type_symbol
_atom_site_label
_atom_site_fract_x
_atom_site_fract_y
_atom_site_fract_z
Si Si1 0.614019 0.278651 0.444019
Si Si2 0.445169 0.161796 0.531394
Si Si3 0.049715 0.952296 0.880417
Si Si4 0.679360 0.935151 0.669555
Si Si5 0.714640 0.251630 0.673142
Si Si6 0.500000 0.030049 0.250000
O O1 0.518376 0.199029 0.428492
O O2 0.621336 0.425181 0.374354
O O3 0.626988 0.301798 0.593210
O O4 0.700936 0.200417 0.403514
O O5 0.411473 0.300058 0.595760
O O6 0.356474 0.089556 0.470730
O O7 0.496925 0.063951 0.628022
O O8 0.000000 0.953725 0.750000
O O9 0.000000 0.000000 0.000000
O O10 0.765904 0.839564 0.702529
O O11 0.704220 0.091437 0.702197
O O12 0.593728 0.887848 0.747082
#
# Coordination Sequence:
#
# PCOD8148810 Si02
#       6
#     8   8   8   8   8   4
#     4  10  24  45  71 102 151 192 249 303 386 447
#     4  11  24  46  74 107 142 198 256 310 368 462
#     4  10  23  42  74 111 148 194 251 316 375 451
#     4  12  28  45  76 105 149 199 248 313 384 451
#     4  11  27  46  70 106 151 193 245 316 386 451
#     4  12  24  46  76 104 142 192 266 304 368 462
#
# _framework density 27.321895999999999
#
# number of rings (size 3 to 8) (size 9 to 14) (size 15 to 20)
#    0.000    1.091    2.727    1.636   12.727    2.909 
#    0.000    1.818    0.000    0.000    0.000    0.000 
#    0.000    0.000    0.000    0.000    0.000    0.000 
#
# Total GULP energy -272553.060401 kJ/mol
# GULP energy per Si atom -12388.775473 kJ/mol
# Density = 2.725971 g / cm^3
# Si number density = 27.321896 Si / 1000 Ang^3
#
#
#
# Elastic Constant Matrix: (Units=GPa)
#
#
# Indices 1 2 3 4 5 6 
#
# 1 35.5312 7.5696 2.8796 0.0000 1.6150 0.0000
# 2 7.5696 151.5885 22.3793 0.0000 43.1793 0.0000
# 3 2.8796 22.3793 101.2379 0.0000 21.5899 0.0000
# 4 0.0000 0.0000 0.0000 42.8213 0.0000 24.0719
# 5 1.6150 43.1793 21.5899 0.0000 41.8631 0.0000
# 6 0.0000 0.0000 0.0000 24.0719 0.0000 23.1471
#
#
#
# Elastic Compliance Matrix: (Units=1/GPa)
#
#
# Indices 1 2 3 4 5 6 
#
# 1 0.028492 -0.001571 -0.000645 0.000000 0.000854 0.000000
# 2 -0.001571 0.009428 0.000024 0.000000 -0.009676 0.000000
# 3 -0.000645 0.000024 0.011113 0.000000 -0.005731 0.000000
# 4 0.000000 0.000000 0.000000 0.056219 0.000000 -0.058465
# 5 0.000854 -0.009676 -0.005731 0.000000 0.036791 0.000000
# 6 0.000000 0.000000 0.000000 -0.058465 0.000000 0.104003
#
#
# Mechanical properties :
#
#
# Convention : Reuss Voigt Hill
#
# Bulk Modulus (GPa) = 22.39662 39.33496 30.86579
# Shear Modulus (GPa) = 18.84571 38.60157 28.72364
#
# Velocity S-wave (km/s) = 2.62919 3.76286 3.24590
# Velocity P-wave (km/s) = 4.17516 5.77122 5.03681
#
# Compressibility (1/GPa) = 0.04464959
#
# Stress axis : x y z
#
# Youngs Moduli (GPa) = 35.09705 106.06828 89.98478
#
# Poissons Ratio (x) = 0.16660 0.05807
# Poissons Ratio (y) = 0.05513 -0.00217
# Poissons Ratio (z) = 0.02265 -0.00256
#
# Static dielectric constant tensor:
#      x y z
#    x 5.068550 0.000000 0.251430 
#    y 0.000000 5.488800 0.000000 
#    z 0.251430 0.000000 5.352120 
# 
# 
# High freq. dielectric constant tensor:
#      x y z
#    x 2.097650 0.000000 0.008760 
#    y 0.000000 2.104390 0.000000 
#    z 0.008760 0.000000 2.117910 
# 
# From -- ./inp_files/103874.got.cif
#   From: 2010.06.25/outbox.cif.g09.slc.cpg/sg15_52_cif.got.tgz:103874.got - 2010.06.28 07:06:18.
