data_PCOD8148269
_publ_section_title
;
Structure prediction by ZEFSAII (Michael W. Deem and Ramdas Pophale) SiO2 
 PCOD8148269
Probable space group: C 2/C
;
_chemical_formula_sum "Si O2"
_cell_formula_units_Z 56
_cell_length_a 26.896585
_cell_length_b 12.472498
_cell_length_c 9.143941
_cell_angle_alpha 90.000000
_cell_angle_beta 56.839972
_cell_angle_gamma 90.000000
_cell_volume 2567.942326
_symmetry_space_group_name_H-M "C 2/C"
_symmetry_group_IT_number 15
_symmetry_cell_setting 'monoclinic'
loop_
_space_group_symop_operation_xyz
x,y,z
-x,y,1/2-z
-x,-y,-z
x,-y,1/2+z
1/2+x,1/2+y,z
1/2-x,1/2+y,1/2-z
1/2-x,1/2-y,-z
1/2+x,1/2-y,1/2+z
loop_
_atom_site_type_symbol
_atom_site_label
_atom_site_fract_x
_atom_site_fract_y
_atom_site_fract_z
Si Si1 0.769049 0.308968 0.196100
Si Si2 0.540976 0.849613 0.936594
Si Si3 0.182094 0.871829 0.731270
Si Si4 0.000000 0.002191 0.750000
Si Si5 0.738588 0.487455 0.890186
Si Si6 0.326820 0.798494 0.819203
Si Si7 0.952154 0.853227 0.579261
Si Si8 0.500000 0.997196 0.750000
O O1 0.774733 0.231864 0.328178
O O2 0.776029 0.430914 0.230699
O O3 0.704450 0.295218 0.223716
O O4 0.822001 0.273954 0.999684
O O5 0.605598 0.797408 0.840324
O O6 0.538906 0.920237 0.791795
O O7 0.491315 0.755942 0.019086
O O8 0.538155 0.926104 0.083022
O O9 0.204427 0.951760 0.572282
O O10 0.116970 0.824540 0.805374
O O11 0.186940 0.931794 0.879306
O O12 0.961785 0.925135 0.707538
O O13 0.038246 0.079389 0.584291
O O14 0.789571 0.407819 0.861938
#
# Coordination Sequence:
#
# PCOD8148269 Si02
#       8
#     8   8   8   4   8   8   8   4
#     4  10  23  40  65 100 129 169 221 262 340 388
#     4  11  25  43  70  92 140 173 225 278 330 397
#     4  11  24  39  69  95 134 170 218 272 333 398
#     4  10  24  42  62  94 130 174 232 256 338 394
#     4  11  22  44  64 101 131 171 216 277 328 402
#     4  10  24  42  67  97 132 173 213 278 332 390
#     4  11  24  43  65  98 132 180 219 278 328 401
#     4  10  26  44  62 106 120 180 230 264 340 392
#
# _framework density 21.807342999999999
#
# number of rings (size 3 to 8) (size 9 to 14) (size 15 to 20)
#    0.000    1.429    1.429    2.143    6.000    5.714 
#    0.000    0.000    0.000    0.000    0.000    0.000 
#    0.000    0.000    0.000    0.000    0.000    0.000 
#
# Total GULP energy -347028.851841 kJ/mol
# GULP energy per Si atom -12393.887566 kJ/mol
# Density = 2.175771 g / cm^3
# Si number density = 21.807343 Si / 1000 Ang^3
#
#
#
# Elastic Constant Matrix: (Units=GPa)
#
#
# Indices 1 2 3 4 5 6 
#
# 1 75.0779 19.8903 41.5592 0.0000 -1.1406 0.0000
# 2 19.8903 103.6481 21.1699 0.0000 7.0411 0.0000
# 3 41.5592 21.1699 84.0007 0.0000 10.1881 0.0000
# 4 0.0000 0.0000 0.0000 31.9259 0.0000 0.9436
# 5 -1.1406 7.0411 10.1881 0.0000 33.6137 0.0000
# 6 0.0000 0.0000 0.0000 0.9436 0.0000 25.0790
#
#
#
# Elastic Compliance Matrix: (Units=1/GPa)
#
#
# Indices 1 2 3 4 5 6 
#
# 1 0.019136 -0.002012 -0.009437 0.000000 0.003931 0.000000
# 2 -0.002012 0.010447 -0.001416 0.000000 -0.001828 0.000000
# 3 -0.009437 -0.001416 0.017580 0.000000 -0.005352 0.000000
# 4 0.000000 0.000000 0.000000 0.031357 0.000000 -0.001180
# 5 0.003931 -0.001828 -0.005352 0.000000 0.031888 0.000000
# 6 0.000000 0.000000 0.000000 -0.001180 0.000000 0.039918
#
#
# Mechanical properties :
#
#
# Convention : Reuss Voigt Hill
#
# Bulk Modulus (GPa) = 46.65676 47.55173 47.10424
# Shear Modulus (GPa) = 27.29225 30.13087 28.71156
#
# Velocity S-wave (km/s) = 3.54152 3.72113 3.63244
# Velocity P-wave (km/s) = 6.17775 6.34942 6.26417
#
# Compressibility (1/GPa) = 0.02143312
#
# Stress axis : x y z
#
# Youngs Moduli (GPa) = 52.25673 95.71705 56.88342
#
# Poissons Ratio (x) = 0.19256 0.53683
# Poissons Ratio (y) = 0.10513 0.08055
# Poissons Ratio (z) = 0.49317 0.13554
#
# Static dielectric constant tensor:
#      x y z
#    x 3.876470 0.000000 0.369690 
#    y 0.000000 4.202330 0.000000 
#    z 0.369690 0.000000 3.969960 
# 
# 
# High freq. dielectric constant tensor:
#      x y z
#    x 1.850780 0.000000 0.024600 
#    y 0.000000 1.875840 0.000000 
#    z 0.024600 0.000000 1.859170 
# 
# From -- ./inp_files/61858.got.cif
#   From: 2010.06.25/outbox.cif.g09.slc.cpg/sg15_31_cif.got.tgz:61858.got - 2010.06.28 07:06:18.
