data_PCOD8148699
_publ_section_title
;
Structure prediction by ZEFSAII (Michael W. Deem and Ramdas Pophale) SiO2 
 PCOD8148699
Probable space group: C 2/C
;
_chemical_formula_sum "Si O2"
_cell_formula_units_Z 64
_cell_length_a 17.142008
_cell_length_b 11.822359
_cell_length_c 30.394006
_cell_angle_alpha 90.000000
_cell_angle_beta 153.259099
_cell_angle_gamma 90.000000
_cell_volume 2771.560930
_symmetry_space_group_name_H-M "C 2/C"
_symmetry_group_IT_number 15
_symmetry_cell_setting 'monoclinic'
loop_
_space_group_symop_operation_xyz
x,y,z
-x,y,1/2-z
-x,-y,-z
x,-y,1/2+z
1/2+x,1/2+y,z
1/2-x,1/2+y,1/2-z
1/2-x,1/2-y,-z
1/2+x,1/2-y,1/2+z
loop_
_atom_site_type_symbol
_atom_site_label
_atom_site_fract_x
_atom_site_fract_y
_atom_site_fract_z
Si Si1 0.919373 0.219163 0.815498
Si Si2 0.361267 0.119814 0.599293
Si Si3 0.985664 0.987564 0.612865
Si Si4 0.998927 0.902635 0.033683
Si Si5 0.899050 0.386117 0.655941
Si Si6 0.799579 0.285195 0.915391
Si Si7 0.567891 0.116962 0.617485
Si Si8 0.724297 0.123386 0.187079
O O1 0.744182 0.188005 0.700655
O O2 0.872800 0.265313 0.841494
O O3 0.022075 0.319394 0.844884
O O4 0.042834 0.106884 0.875696
O O5 0.335551 0.228038 0.618583
O O6 0.492798 0.153323 0.627203
O O7 0.186197 0.078775 0.487000
O O8 0.434460 0.018985 0.666038
O O9 0.101306 0.898748 0.697427
O O10 0.084568 0.037303 0.619658
O O11 0.804419 0.858205 0.944738
O O12 0.113241 0.805950 0.071498
O O13 0.000000 0.000000 0.000000
O O14 0.000000 0.346723 0.750000
O O15 0.719087 0.364555 0.836169
O O16 0.939172 0.353910 0.013345
O O17 0.597397 0.983151 0.629398
#
# Coordination Sequence:
#
# PCOD8148699 Si02
#       8
#     8   8   8   8   8   8   8   8
#     4  11  23  42  68  99 135 185 237 289 357 418
#     4  11  24  44  70 102 140 181 237 290 355 431
#     4  10  23  42  67  96 140 180 232 286 356 415
#     4  11  22  40  70 103 137 177 224 291 348 416
#     4  11  24  39  68 103 136 177 234 296 344 423
#     4  12  23  42  69 104 139 187 230 293 358 426
#     4  11  25  44  68  98 144 188 236 289 360 422
#     4  11  24  41  68  99 139 189 234 288 355 428
#
# _framework density 23.091681000000001
#
# number of rings (size 3 to 8) (size 9 to 14) (size 15 to 20)
#    0.000    1.000    5.000    2.250    1.750    4.000 
#    0.000    4.375    0.000    1.500    0.000    0.000 
#    0.000    0.000    0.000    0.000    0.000    0.000 
#
# Total GULP energy -396618.696724 kJ/mol
# GULP energy per Si atom -12394.334273 kJ/mol
# Density = 2.303912 g / cm^3
# Si number density = 23.091681 Si / 1000 Ang^3
#
#
#
# Elastic Constant Matrix: (Units=GPa)
#
#
# Indices 1 2 3 4 5 6 
#
# 1 113.1649 32.2175 44.6400 0.0001 -11.3496 -0.0001
# 2 32.2175 70.9707 20.7984 -0.0005 -0.5135 -0.0004
# 3 44.6400 20.7984 63.7101 -0.0021 -18.1501 -0.0032
# 4 0.0001 -0.0005 -0.0021 32.0603 -0.0006 -4.5187
# 5 -11.3496 -0.5135 -18.1501 -0.0006 32.9716 -0.0003
# 6 -0.0001 -0.0004 -0.0032 -4.5187 -0.0003 42.6140
#
#
#
# Elastic Compliance Matrix: (Units=1/GPa)
#
#
# Indices 1 2 3 4 5 6 
#
# 1 0.012981 -0.003574 -0.007913 -0.000001 0.000057 -0.000001
# 2 -0.003574 0.016825 -0.003872 0.000000 -0.003099 0.000000
# 3 -0.007913 -0.003872 0.025749 0.000002 0.011390 0.000002
# 4 -0.000001 0.000000 0.000002 0.031664 0.000002 0.003358
# 5 0.000057 -0.003099 0.011390 0.000002 0.036571 0.000001
# 6 -0.000001 0.000000 0.000002 0.003358 0.000001 0.023823
#
#
# Mechanical properties :
#
#
# Convention : Reuss Voigt Hill
#
# Bulk Modulus (GPa) = 40.25863 49.23973 44.74918
# Shear Modulus (GPa) = 26.79420 31.54183 29.16801
#
# Velocity S-wave (km/s) = 3.41007 3.69987 3.55792
# Velocity P-wave (km/s) = 5.74255 6.29460 6.02490
#
# Compressibility (1/GPa) = 0.02483939
#
# Stress axis : x y z
#
# Youngs Moduli (GPa) = 77.03543 59.43644 38.83637
#
# Poissons Ratio (x) = 0.21240 0.30730
# Poissons Ratio (y) = 0.27529 0.15036
# Poissons Ratio (z) = 0.60955 0.23011
#
# Static dielectric constant tensor:
#      x y z
#    x 4.318560 0.000000 -0.251800 
#    y 0.000000 4.172010 0.000000 
#    z -0.251800 0.000000 4.043870 
# 
# 
# High freq. dielectric constant tensor:
#      x y z
#    x 1.908600 0.000000 -0.017270 
#    y 0.000000 1.924650 0.000000 
#    z -0.017270 0.000000 1.912710 
# 
# From -- ./inp_files/316229.got.cif
#   From: 2010.06.25/outbox.cif.g09.slc.cpg/sg15_159_cif.got.tgz:316229.got - 2010.06.28 07:06:18.
