data_PCOD8148223
_publ_section_title
;
Structure prediction by ZEFSAII (Michael W. Deem and Ramdas Pophale) SiO2 
 PCOD8148223
Probable space group: C 2/C
;
_chemical_formula_sum "Si O2"
_cell_formula_units_Z 64
_cell_length_a 9.048857
_cell_length_b 28.756276
_cell_length_c 11.552661
_cell_angle_alpha 90.000000
_cell_angle_beta 85.682859
_cell_angle_gamma 90.000000
_cell_volume 2997.605000
_symmetry_space_group_name_H-M "C 2/C"
_symmetry_group_IT_number 15
_symmetry_cell_setting 'monoclinic'
loop_
_space_group_symop_operation_xyz
x,y,z
-x,y,1/2-z
-x,-y,-z
x,-y,1/2+z
1/2+x,1/2+y,z
1/2-x,1/2+y,1/2-z
1/2-x,1/2-y,-z
1/2+x,1/2-y,1/2+z
loop_
_atom_site_type_symbol
_atom_site_label
_atom_site_fract_x
_atom_site_fract_y
_atom_site_fract_z
Si Si1 0.849855 0.060292 0.999071
Si Si2 0.293468 0.710405 0.694793
Si Si3 0.606551 0.531010 0.138111
Si Si4 0.718568 0.346370 0.086472
Si Si5 0.998292 0.205722 0.035860
Si Si6 0.262050 0.815402 0.670842
Si Si7 0.326772 0.089114 0.271090
Si Si8 0.530365 0.190091 0.559425
O O1 0.722775 0.069483 0.101803
O O2 0.010350 0.060285 0.051282
O O3 0.841013 0.101046 0.904329
O O4 0.821685 0.012880 0.931210
O O5 0.348534 0.682004 0.801968
O O6 0.402051 0.702292 0.583341
O O7 0.287525 0.765114 0.728433
O O8 0.133303 0.689904 0.667230
O O9 0.500000 0.514815 0.250000
O O10 0.741031 0.562752 0.173179
O O11 0.652575 0.323238 0.972665
O O12 0.897129 0.346680 0.075196
O O13 0.092039 0.183654 0.135951
O O14 0.955564 0.259062 0.059865
O O15 0.290026 0.855910 0.762492
O O16 0.375527 0.822302 0.558945
O O17 0.500000 0.079209 0.250000
#
# Coordination Sequence:
#
# PCOD8148223 Si02
#       8
#     8   8   8   8   8   8   8   8
#     4  10  23  40  61  87 114 148 190 237 293 355
#     4   9  20  35  51  75 117 160 188 222 279 339
#     4   9  21  45  66  83 113 149 188 241 296 350
#     4  12  20  31  54  86 111 138 189 239 280 330
#     4   9  19  34  52  75 108 154 200 232 264 325
#     4   9  19  38  56  75 112 157 190 224 279 337
#     4  11  22  38  63  91 115 146 191 242 295 344
#     4   9  19  35  50  74 115 155 187 229 279 329
#
# _framework density 21.350379
#
# number of rings (size 3 to 8) (size 9 to 14) (size 15 to 20)
#    0.000    2.250    0.000    4.125    0.000    5.500 
#    0.000    8.750    0.000    0.000    0.000    0.000 
#    0.000    0.000    0.000    0.000    0.000    0.000 
#
# Total GULP energy -396768.029147 kJ/mol
# GULP energy per Si atom -12399.000911 kJ/mol
# Density = 2.130178 g / cm^3
# Si number density = 21.350379 Si / 1000 Ang^3
#
#
#
# Elastic Constant Matrix: (Units=GPa)
#
#
# Indices 1 2 3 4 5 6 
#
# 1 98.5239 54.5227 29.2777 0.0000 15.4903 0.0000
# 2 54.5227 131.9974 55.0353 0.0000 4.8348 0.0000
# 3 29.2777 55.0353 64.3721 0.0000 -5.1214 0.0000
# 4 0.0000 0.0000 0.0000 37.6792 0.0000 7.7894
# 5 15.4903 4.8348 -5.1214 0.0000 20.4775 0.0000
# 6 0.0000 0.0000 0.0000 7.7894 0.0000 26.6849
#
#
#
# Elastic Compliance Matrix: (Units=1/GPa)
#
#
# Indices 1 2 3 4 5 6 
#
# 1 0.015684 -0.004141 -0.004550 0.000000 -0.012024 0.000000
# 2 -0.004141 0.013483 -0.009844 0.000000 -0.002513 0.000000
# 3 -0.004550 -0.009844 0.027016 0.000000 0.012522 0.000000
# 4 0.000000 0.000000 0.000000 0.028244 0.000000 -0.008245
# 5 -0.012024 -0.002513 0.012522 0.000000 0.061655 0.000000
# 6 0.000000 0.000000 0.000000 -0.008245 0.000000 0.039881
#
#
# Mechanical properties :
#
#
# Convention : Reuss Voigt Hill
#
# Bulk Modulus (GPa) = 52.31714 63.61833 57.96773
# Shear Modulus (GPa) = 21.79575 27.37218 24.58397
#
# Velocity S-wave (km/s) = 3.19856 3.58445 3.39699
# Velocity P-wave (km/s) = 6.18048 6.85515 6.52654
#
# Compressibility (1/GPa) = 0.01911419
#
# Stress axis : x y z
#
# Youngs Moduli (GPa) = 63.75941 74.16960 37.01513
#
# Poissons Ratio (x) = 0.30714 0.16840
# Poissons Ratio (y) = 0.26403 0.36436
# Poissons Ratio (z) = 0.29008 0.73009
#
# Static dielectric constant tensor:
#      x y z
#    x 3.958370 0.000000 0.258390 
#    y 0.000000 3.722560 0.000000 
#    z 0.258390 0.000000 3.875130 
# 
# 
# High freq. dielectric constant tensor:
#      x y z
#    x 1.843600 0.000000 0.006210 
#    y 0.000000 1.813670 0.000000 
#    z 0.006210 0.000000 1.841450 
# 
# From -- ./inp_files/82608.got.cif
#   From: 2010.06.25/outbox.cif.g09.slc.cpg/sg15_42_cif.got.tgz:82608.got - 2010.06.28 07:06:18.
