data_PCOD8148996
_publ_section_title
;
Structure prediction by ZEFSAII (Michael W. Deem and Ramdas Pophale) SiO2 
 PCOD8148996
Probable space group: C 2/C
;
_chemical_formula_sum "Si O2"
_cell_formula_units_Z 60
_cell_length_a 25.665812
_cell_length_b 10.566062
_cell_length_c 10.869242
_cell_angle_alpha 90.000000
_cell_angle_beta 82.782976
_cell_angle_gamma 90.000000
_cell_volume 2924.239815
_symmetry_space_group_name_H-M "C 2/C"
_symmetry_group_IT_number 15
_symmetry_cell_setting 'monoclinic'
loop_
_space_group_symop_operation_xyz
x,y,z
-x,y,1/2-z
-x,-y,-z
x,-y,1/2+z
1/2+x,1/2+y,z
1/2-x,1/2+y,1/2-z
1/2-x,1/2-y,-z
1/2+x,1/2-y,1/2+z
loop_
_atom_site_type_symbol
_atom_site_label
_atom_site_fract_x
_atom_site_fract_y
_atom_site_fract_z
Si Si1 0.602487 0.241995 0.384837
Si Si2 0.695995 0.902639 0.954813
Si Si3 0.508212 0.851820 0.501000
Si Si4 0.200126 0.210410 0.174758
Si Si5 0.199884 0.696478 0.948394
Si Si6 0.099266 0.204822 0.604713
Si Si7 0.000000 0.223886 0.250000
Si Si8 0.400299 0.415150 0.889781
O O1 0.642534 0.127435 0.397733
O O2 0.543098 0.203920 0.422585
O O3 0.611543 0.282620 0.243841
O O4 0.613844 0.358062 0.472869
O O5 0.746868 0.869480 0.858733
O O6 0.695048 0.049976 0.984451
O O7 0.695939 0.825222 0.080880
O O8 0.555359 0.804120 0.573261
O O9 0.518600 0.809564 0.358077
O O10 0.500000 0.000000 0.500000
O O11 0.202705 0.280697 0.303055
O O12 0.151008 0.112648 0.179301
O O13 0.250000 0.750000 0.000000
O O14 0.150837 0.772707 0.012262
O O15 0.083925 0.059336 0.589180
O O16 0.950752 0.141682 0.306992
#
# Coordination Sequence:
#
# PCOD8148996 Si02
#       8
#     8   8   8   8   8   8   4   8
#     4  10  24  42  67  96 130 172 215 270 330 390
#     4  10  23  46  66  96 131 175 214 273 336 393
#     4  11  25  44  66  99 130 174 220 269 333 394
#     4  10  23  43  70  92 135 173 217 277 330 397
#     4  12  26  41  68 101 128 173 224 271 334 396
#     4  12  26  41  70  98 132 171 220 277 327 398
#     4  10  24  42  70  92 136 172 214 280 330 386
#     4  10  24  44  66  99 130 175 221 269 339 390
#
# _framework density 20.518153999999999
#
# number of rings (size 3 to 8) (size 9 to 14) (size 15 to 20)
#    0.000    1.333    0.000    3.600   11.200    1.067 
#    0.000    0.000    0.000    0.000    0.000    0.000 
#    0.000    0.000    0.000    0.000    0.000    0.000 
#
# Total GULP energy -372067.462448 kJ/mol
# GULP energy per Si atom -12402.248748 kJ/mol
# Density = 2.047145 g / cm^3
# Si number density = 20.518154 Si / 1000 Ang^3
#
#
#
# Elastic Constant Matrix: (Units=GPa)
#
#
# Indices 1 2 3 4 5 6 
#
# 1 130.5029 30.6135 41.1069 0.0000 4.5935 0.0000
# 2 30.6135 140.6490 36.0185 0.0000 4.0398 0.0000
# 3 41.1069 36.0185 114.7782 0.0000 -6.5904 0.0000
# 4 0.0000 0.0000 0.0000 22.4571 0.0000 1.4592
# 5 4.5935 4.0398 -6.5904 0.0000 30.7272 0.0000
# 6 0.0000 0.0000 0.0000 1.4592 0.0000 29.7460
#
#
#
# Elastic Compliance Matrix: (Units=1/GPa)
#
#
# Indices 1 2 3 4 5 6 
#
# 1 0.008920 -0.001136 -0.002942 0.000000 -0.001815 0.000000
# 2 -0.001136 0.007950 -0.002165 0.000000 -0.001340 0.000000
# 3 -0.002942 -0.002165 0.010618 0.000000 0.003002 0.000000
# 4 0.000000 0.000000 0.000000 0.044672 0.000000 -0.002191
# 5 -0.001815 -0.001340 0.003002 0.000000 0.033636 0.000000
# 6 0.000000 0.000000 0.000000 -0.002191 0.000000 0.033725
#
#
# Mechanical properties :
#
#
# Convention : Reuss Voigt Hill
#
# Bulk Modulus (GPa) = 66.65967 66.82309 66.74138
# Shear Modulus (GPa) = 31.84562 35.13214 33.48888
#
# Velocity S-wave (km/s) = 3.94391 4.14242 4.04438
# Velocity P-wave (km/s) = 7.30054 7.45104 7.37617
#
# Compressibility (1/GPa) = 0.01500157
#
# Stress axis : x y z
#
# Youngs Moduli (GPa) = 112.11002 125.78595 94.17995
#
# Poissons Ratio (x) = 0.14287 0.27711
# Poissons Ratio (y) = 0.12734 0.20389
# Poissons Ratio (z) = 0.32987 0.27232
#
# Static dielectric constant tensor:
#      x y z
#    x 3.839330 0.000000 -0.042820 
#    y 0.000000 3.635220 0.000000 
#    z -0.042820 0.000000 3.860350 
# 
# 
# High freq. dielectric constant tensor:
#      x y z
#    x 1.821560 0.000000 -0.003880 
#    y 0.000000 1.805550 0.000000 
#    z -0.003880 0.000000 1.815160 
# 
# From -- ./inp_files/121960.got.cif
#   From: 2010.06.25/outbox.cif.g09.slc.cpg/sg15_61_cif.got.tgz:121960.got - 2010.06.28 07:06:18.
