data_PCOD8148744
_publ_section_title
;
Structure prediction by ZEFSAII (Michael W. Deem and Ramdas Pophale) SiO2 
 PCOD8148744
Probable space group: C 2/C
;
_chemical_formula_sum "Si O2"
_cell_formula_units_Z 56
_cell_length_a 23.451297
_cell_length_b 13.737503
_cell_length_c 14.139884
_cell_angle_alpha 90.000000
_cell_angle_beta 33.250939
_cell_angle_gamma 90.000000
_cell_volume 2497.722883
_symmetry_space_group_name_H-M "C 2/C"
_symmetry_group_IT_number 15
_symmetry_cell_setting 'monoclinic'
loop_
_space_group_symop_operation_xyz
x,y,z
-x,y,1/2-z
-x,-y,-z
x,-y,1/2+z
1/2+x,1/2+y,z
1/2-x,1/2+y,1/2-z
1/2-x,1/2-y,-z
1/2+x,1/2-y,1/2+z
loop_
_atom_site_type_symbol
_atom_site_label
_atom_site_fract_x
_atom_site_fract_y
_atom_site_fract_z
Si Si1 0.213414 0.170197 0.127927
Si Si2 0.495780 0.306957 0.019632
Si Si3 0.487691 0.126336 0.155465
Si Si4 0.709392 0.928319 0.300820
Si Si5 0.820805 0.262470 0.642472
Si Si6 0.162033 0.954243 0.192184
Si Si7 0.223791 0.404088 0.638927
O O1 0.310194 0.160825 0.069499
O O2 0.116006 0.198900 0.328358
O O3 0.174605 0.066759 0.139667
O O4 0.250000 0.250000 0.000000
O O5 0.478806 0.237105 0.132310
O O6 0.438345 0.269794 0.002950
O O7 0.450076 0.414427 0.113665
O O8 0.500000 0.126234 0.250000
O O9 0.384760 0.070174 0.263003
O O10 0.584638 0.070014 0.974498
O O11 0.751574 0.826950 0.201483
O O12 0.752552 0.938956 0.346326
O O13 0.752013 0.011546 0.173496
O O14 0.776605 0.303502 0.802852
O O15 0.187914 0.891807 0.062973
#
# Coordination Sequence:
#
# PCOD8148744 Si02
#       7
#     8   8   8   8   8   8   8
#     4  12  24  46  70  98 140 185 231 291 361 425
#     4  10  25  42  69 100 136 180 235 292 347 429
#     4  11  22  38  67  99 133 176 232 294 353 416
#     4  11  21  41  64  96 139 177 236 291 349 426
#     4  10  23  42  69  94 136 179 228 289 346 426
#     4  11  24  41  68 100 138 185 234 290 351 428
#     4  11  23  41  64 101 135 183 229 292 357 414
#
# _framework density 22.420421000000001
#
# number of rings (size 3 to 8) (size 9 to 14) (size 15 to 20)
#    0.000    1.143    4.286    1.714    2.000    2.286 
#    0.000    1.429    3.143    0.000    0.000    0.000 
#    0.000    0.000    0.000    0.000    0.000    0.000 
#
# Total GULP energy -346935.533340 kJ/mol
# GULP energy per Si atom -12390.554762 kJ/mol
# Density = 2.236939 g / cm^3
# Si number density = 22.420421 Si / 1000 Ang^3
#
#
#
# Elastic Constant Matrix: (Units=GPa)
#
#
# Indices 1 2 3 4 5 6 
#
# 1 84.1883 5.6066 11.3444 0.0000 11.5190 0.0000
# 2 5.6066 76.2197 14.4221 0.0000 2.9965 0.0000
# 3 11.3444 14.4221 67.8299 0.0000 4.9886 0.0000
# 4 0.0000 0.0000 0.0000 31.2919 0.0000 5.4379
# 5 11.5190 2.9965 4.9886 0.0000 27.8211 0.0000
# 6 0.0000 0.0000 0.0000 5.4379 0.0000 31.1124
#
#
#
# Elastic Compliance Matrix: (Units=1/GPa)
#
#
# Indices 1 2 3 4 5 6 
#
# 1 0.012812 -0.000428 -0.001687 0.000000 -0.004956 0.000000
# 2 -0.000428 0.013710 -0.002785 0.000000 -0.000800 0.000000
# 3 -0.001687 -0.002785 0.015751 0.000000 -0.001826 0.000000
# 4 0.000000 0.000000 0.000000 0.032958 0.000000 -0.005761
# 5 -0.004956 -0.000800 -0.001826 0.000000 0.038409 0.000000
# 6 0.000000 0.000000 0.000000 -0.005761 0.000000 0.033148
#
#
# Mechanical properties :
#
#
# Convention : Reuss Voigt Hill
#
# Bulk Modulus (GPa) = 30.79483 32.33160 31.56322
# Shear Modulus (GPa) = 29.86611 31.16940 30.51776
#
# Velocity S-wave (km/s) = 3.65375 3.73262 3.69339
# Velocity P-wave (km/s) = 5.61826 5.74704 5.68301
#
# Compressibility (1/GPa) = 0.03247298
#
# Stress axis : x y z
#
# Youngs Moduli (GPa) = 78.05111 72.94049 63.48692
#
# Poissons Ratio (x) = 0.03124 0.10712
# Poissons Ratio (y) = 0.03343 0.17678
# Poissons Ratio (z) = 0.13169 0.20310
#
# Static dielectric constant tensor:
#      x y z
#    x 4.113130 0.000000 -0.091030 
#    y 0.000000 4.253050 0.000000 
#    z -0.091030 0.000000 3.793520 
# 
# 
# High freq. dielectric constant tensor:
#      x y z
#    x 1.895300 0.000000 0.001500 
#    y 0.000000 1.883940 0.000000 
#    z 0.001500 0.000000 1.863120 
# 
# From -- ./inp_files/173806.got.cif
#   From: 2010.06.25/outbox.cif.g09.slc.cpg/sg15_87_cif.got.tgz:173806.got - 2010.06.28 07:06:18.
