data_PCOD8148032
_publ_section_title
;
Structure prediction by ZEFSAII (Michael W. Deem and Ramdas Pophale) SiO2 
 PCOD8148032
Probable space group: C 2/C
;
_chemical_formula_sum "Si O2"
_cell_formula_units_Z 56
_cell_length_a 22.185022
_cell_length_b 15.035030
_cell_length_c 8.730931
_cell_angle_alpha 90.000000
_cell_angle_beta 101.004137
_cell_angle_gamma 90.000000
_cell_volume 2858.677732
_symmetry_space_group_name_H-M "C 2/C"
_symmetry_group_IT_number 15
_symmetry_cell_setting 'monoclinic'
loop_
_space_group_symop_operation_xyz
x,y,z
-x,y,1/2-z
-x,-y,-z
x,-y,1/2+z
1/2+x,1/2+y,z
1/2-x,1/2+y,1/2-z
1/2-x,1/2-y,-z
1/2+x,1/2-y,1/2+z
loop_
_atom_site_type_symbol
_atom_site_label
_atom_site_fract_x
_atom_site_fract_y
_atom_site_fract_z
Si Si1 0.571458 0.234340 0.310949
Si Si2 0.847309 0.424682 0.578071
Si Si3 0.298196 0.918627 0.895960
Si Si4 0.654412 0.425531 0.859399
Si Si5 0.335464 0.271667 0.407222
Si Si6 0.126013 0.096836 0.001628
Si Si7 0.740072 0.662561 0.900450
O O1 0.500000 0.226815 0.250000
O O2 0.592353 0.138313 0.392985
O O3 0.605256 0.248125 0.166174
O O4 0.585000 0.319599 0.425468
O O5 0.814296 0.420997 0.725046
O O6 0.850266 0.526686 0.520181
O O7 0.804647 0.386588 0.420227
O O8 0.227408 0.950578 0.884025
O O9 0.304266 0.817413 0.958171
O O10 0.611281 0.500831 0.918134
O O11 0.622641 0.409761 0.681446
O O12 0.644520 0.333972 0.944920
O O13 0.285432 0.323743 0.281478
O O14 0.195509 0.106234 0.984039
O O15 0.750000 0.750000 0.000000
#
# Coordination Sequence:
#
# PCOD8148032 Si02
#       7
#     8   8   8   8   8   8   8
#     4  10  23  45  63  78 110 161 210 251 285 332
#     4  11  22  34  58  87 121 155 198 232 290 354
#     4  11  21  34  54  90 126 155 182 233 299 362
#     4  12  21  35  56  96 128 152 181 236 303 366
#     4  10  23  36  57  89 124 154 199 237 289 359
#     4  11  21  34  59  88 120 154 189 235 295 356
#     4  11  16  34  54  82 121 153 187 236 293 351
#
# _framework density 19.589476999999999
#
# number of rings (size 3 to 8) (size 9 to 14) (size 15 to 20)
#    0.000    1.143    7.143    2.143    2.000    1.143 
#    0.000    6.429    0.000    0.000    0.000    0.000 
#    0.000    0.000    0.000    0.000    0.000    0.000 
#
# Total GULP energy -346908.463347 kJ/mol
# GULP energy per Si atom -12389.587977 kJ/mol
# Density = 1.954489 g / cm^3
# Si number density = 19.589477 Si / 1000 Ang^3
#
#
#
# Elastic Constant Matrix: (Units=GPa)
#
#
# Indices 1 2 3 4 5 6 
#
# 1 72.3814 13.2619 33.5849 0.0000 19.5508 0.0000
# 2 13.2619 64.2711 47.0625 0.0000 -9.7916 0.0000
# 3 33.5849 47.0625 102.1711 0.0000 -2.7129 0.0000
# 4 0.0000 0.0000 0.0000 33.7298 0.0000 -3.1449
# 5 19.5508 -9.7916 -2.7129 0.0000 17.5416 0.0000
# 6 0.0000 0.0000 0.0000 -3.1449 0.0000 18.7538
#
#
#
# Elastic Compliance Matrix: (Units=1/GPa)
#
#
# Indices 1 2 3 4 5 6 
#
# 1 0.027901 -0.005656 -0.007506 0.000000 -0.035415 0.000000
# 2 -0.005656 0.027177 -0.010131 0.000000 0.019907 0.000000
# 3 -0.007506 -0.010131 0.017063 0.000000 0.005350 0.000000
# 4 0.000000 0.000000 0.000000 0.030118 0.000000 0.005051
# 5 -0.035415 0.019907 0.005350 0.000000 0.108418 0.000000
# 6 0.000000 0.000000 0.000000 0.005051 0.000000 0.054169
#
#
# Mechanical properties :
#
#
# Convention : Reuss Voigt Hill
#
# Bulk Modulus (GPa) = 39.13085 47.40470 43.26778
# Shear Modulus (GPa) = 15.62737 23.66599 19.64668
#
# Velocity S-wave (km/s) = 2.82750 3.47954 3.17033
# Velocity P-wave (km/s) = 5.53882 6.35567 5.96125
#
# Compressibility (1/GPa) = 0.02555528
#
# Stress axis : x y z
#
# Youngs Moduli (GPa) = 35.84136 36.79553 58.60473
#
# Poissons Ratio (x) = 0.20811 0.43991
# Poissons Ratio (y) = 0.20272 0.59371
# Poissons Ratio (z) = 0.26904 0.37277
#
# Static dielectric constant tensor:
#      x y z
#    x 3.097350 0.000000 -0.064140 
#    y 0.000000 3.814580 0.000000 
#    z -0.064140 0.000000 3.569680 
# 
# 
# High freq. dielectric constant tensor:
#      x y z
#    x 1.706180 0.000000 -0.009080 
#    y 0.000000 1.791510 0.000000 
#    z -0.009080 0.000000 1.762160 
# 
# From -- ./inp_files/61611.got.cif
#   From: 2010.06.25/outbox.cif.g09.slc.cpg/sg15_31_cif.got.tgz:61611.got - 2010.06.28 07:06:18.
