data_PCOD8148025
_publ_section_title
;
Structure prediction by ZEFSAII (Michael W. Deem and Ramdas Pophale) SiO2 
 PCOD8148025
Probable space group: C 2/C
;
_chemical_formula_sum "Si O2"
_cell_formula_units_Z 56
_cell_length_a 15.555330
_cell_length_b 9.964648
_cell_length_c 21.223232
_cell_angle_alpha 90.000000
_cell_angle_beta 59.297153
_cell_angle_gamma 90.000000
_cell_volume 2828.549227
_symmetry_space_group_name_H-M "C 2/C"
_symmetry_group_IT_number 15
_symmetry_cell_setting 'monoclinic'
loop_
_space_group_symop_operation_xyz
x,y,z
-x,y,1/2-z
-x,-y,-z
x,-y,1/2+z
1/2+x,1/2+y,z
1/2-x,1/2+y,1/2-z
1/2-x,1/2-y,-z
1/2+x,1/2-y,1/2+z
loop_
_atom_site_type_symbol
_atom_site_label
_atom_site_fract_x
_atom_site_fract_y
_atom_site_fract_z
Si Si1 0.817969 0.292040 0.689042
Si Si2 0.236221 0.579415 0.807583
Si Si3 0.920516 0.177910 0.533869
Si Si4 0.806864 0.789555 0.396145
Si Si5 0.511982 0.087954 0.932265
Si Si6 0.364650 0.601637 0.003495
Si Si7 0.011422 0.591033 0.175192
O O1 0.748406 0.424114 0.715924
O O2 0.755002 0.167293 0.738359
O O3 0.848344 0.262141 0.606053
O O4 0.913780 0.321444 0.696493
O O5 0.315774 0.618425 0.831220
O O6 0.127845 0.610466 0.876006
O O7 0.954566 0.270985 0.462650
O O8 0.018517 0.140173 0.537949
O O9 0.858101 0.050164 0.532086
O O10 0.701589 0.707996 0.432397
O O11 0.819144 0.890413 0.450327
O O12 0.894013 0.684170 0.363108
O O13 0.467296 0.020310 0.886108
O O14 0.500000 0.000000 0.000000
O O15 0.000000 0.528417 0.250000
#
# Coordination Sequence:
#
# PCOD8148025 Si02
#       7
#     8   8   8   8   8   8   8
#     4  11  24  40  64  97 128 172 211 271 330 392
#     4  11  24  39  66  93 131 167 220 262 330 392
#     4  11  21  41  63  96 128 170 216 274 319 391
#     4  11  21  40  59  95 120 168 208 271 316 390
#     4  11  21  41  67  92 124 176 213 264 329 393
#     4  10  23  34  65  95 124 158 222 268 321 377
#     4  11  22  39  63  92 130 169 215 265 330 390
#
# _framework density 19.798134999999998
#
# number of rings (size 3 to 8) (size 9 to 14) (size 15 to 20)
#    0.000    1.143    7.143    0.000    4.000    0.000 
#    0.000    5.714    0.000    0.000    0.000    0.000 
#    0.000    0.000    0.000    0.000    0.000    0.000 
#
# Total GULP energy -347129.700205 kJ/mol
# GULP energy per Si atom -12397.489293 kJ/mol
# Density = 1.975307 g / cm^3
# Si number density = 19.798135 Si / 1000 Ang^3
#
#
#
# Elastic Constant Matrix: (Units=GPa)
#
#
# Indices 1 2 3 4 5 6 
#
# 1 68.2856 39.4256 15.8079 0.0000 14.5888 0.0000
# 2 39.4256 134.0145 46.4162 0.0000 13.1078 0.0000
# 3 15.8079 46.4162 85.4806 0.0000 20.6745 0.0000
# 4 0.0000 0.0000 0.0000 38.7537 0.0000 -1.9598
# 5 14.5888 13.1078 20.6745 0.0000 29.1687 0.0000
# 6 0.0000 0.0000 0.0000 -1.9598 0.0000 35.5208
#
#
#
# Elastic Compliance Matrix: (Units=1/GPa)
#
#
# Indices 1 2 3 4 5 6 
#
# 1 0.019127 -0.005281 0.001292 0.000000 -0.008109 0.000000
# 2 -0.005281 0.010661 -0.005180 0.000000 0.001523 0.000000
# 3 0.001292 -0.005180 0.016735 0.000000 -0.010179 0.000000
# 4 0.000000 0.000000 0.000000 0.025876 0.000000 0.001428
# 5 -0.008109 0.001523 -0.010179 0.000000 0.044870 0.000000
# 6 0.000000 0.000000 0.000000 0.001428 0.000000 0.028231
#
#
# Mechanical properties :
#
#
# Convention : Reuss Voigt Hill
#
# Bulk Modulus (GPa) = 35.48284 54.56444 45.02364
# Shear Modulus (GPa) = 28.86272 33.09738 30.98005
#
# Velocity S-wave (km/s) = 3.82232 4.09313 3.96004
# Velocity P-wave (km/s) = 6.11894 7.06813 6.61060
#
# Compressibility (1/GPa) = 0.02818264
#
# Stress axis : x y z
#
# Youngs Moduli (GPa) = 52.28246 93.80058 59.75598
#
# Poissons Ratio (x) = 0.49538 -0.07719
# Poissons Ratio (y) = 0.27612 0.30957
# Poissons Ratio (z) = -0.06754 0.48593
#
# Static dielectric constant tensor:
#      x y z
#    x 3.798990 0.000000 0.265830 
#    y 0.000000 3.693860 0.000000 
#    z 0.265830 0.000000 3.889380 
# 
# 
# High freq. dielectric constant tensor:
#      x y z
#    x 1.759690 0.000000 0.003740 
#    y 0.000000 1.769300 0.000000 
#    z 0.003740 0.000000 1.780460 
# 
# From -- ./inp_files/276508.got.cif
#   From: 2010.06.25/outbox.cif.g09.slc.cpg/sg15_139_cif.got.tgz:276508.got - 2010.06.28 07:06:18.
