data_PCOD8148022
_publ_section_title
;
Structure prediction by ZEFSAII (Michael W. Deem and Ramdas Pophale) SiO2 
 PCOD8148022
Probable space group: C 2/C
;
_chemical_formula_sum "Si O2"
_cell_formula_units_Z 48
_cell_length_a 17.010500
_cell_length_b 18.222628
_cell_length_c 9.930449
_cell_angle_alpha 90.000000
_cell_angle_beta 126.088513
_cell_angle_gamma 90.000000
_cell_volume 2487.518828
_symmetry_space_group_name_H-M "C 2/C"
_symmetry_group_IT_number 15
_symmetry_cell_setting 'monoclinic'
loop_
_space_group_symop_operation_xyz
x,y,z
-x,y,1/2-z
-x,-y,-z
x,-y,1/2+z
1/2+x,1/2+y,z
1/2-x,1/2+y,1/2-z
1/2-x,1/2-y,-z
1/2+x,1/2-y,1/2+z
loop_
_atom_site_type_symbol
_atom_site_label
_atom_site_fract_x
_atom_site_fract_y
_atom_site_fract_z
Si Si1 0.000000 0.750083 0.250000
Si Si2 0.320275 0.336160 0.190274
Si Si3 0.133262 0.285372 0.106485
Si Si4 0.687441 0.453247 0.535967
Si Si5 0.000000 0.031845 0.250000
Si Si6 0.250360 0.609878 0.880915
Si Si7 0.144712 0.132836 0.248443
O O1 0.918454 0.802371 0.231926
O O2 0.044995 0.699359 0.413174
O O3 0.232998 0.275938 0.118714
O O4 0.282070 0.401232 0.055959
O O5 0.334718 0.372391 0.354048
O O6 0.148561 0.353354 0.226411
O O7 0.108131 0.211510 0.160713
O O8 0.576529 0.480633 0.404942
O O9 0.760838 0.522499 0.612682
O O10 0.701079 0.409089 0.687248
O O11 0.947062 0.083990 0.303508
O O12 0.281331 0.645819 0.053473
#
# Coordination Sequence:
#
# PCOD8148022 Si02
#       7
#     4   8   8   8   4   8   8
#     4  12  21  38  64  88 121 162 206 262 299 366
#     4  10  23  38  60  91 123 163 210 241 310 369
#     4  10  24  39  59  90 125 167 207 253 301 376
#     4  11  20  36  61  88 127 167 194 257 305 381
#     4  10  23  32  54 102 129 158 198 244 335 386
#     4   9  22  38  54  87 125 161 202 242 304 369
#     4  11  21  34  59  87 129 163 191 256 307 374
#
# _framework density 19.296337000000001
#
# number of rings (size 3 to 8) (size 9 to 14) (size 15 to 20)
#    1.000    0.667    1.667    4.000    4.667    0.000 
#    0.000    0.000    0.000    1.000    0.000    0.000 
#    0.000    0.000    0.000    0.000    0.000    0.000 
#
# Total GULP energy -297401.519592 kJ/mol
# GULP energy per Si atom -12391.729983 kJ/mol
# Density = 1.925242 g / cm^3
# Si number density = 19.296337 Si / 1000 Ang^3
#
#
#
# Elastic Constant Matrix: (Units=GPa)
#
#
# Indices 1 2 3 4 5 6 
#
# 1 42.7642 12.7102 22.8708 0.0000 -8.9105 0.0000
# 2 12.7102 71.3812 51.1544 0.0000 -0.4909 0.0000
# 3 22.8708 51.1544 165.0464 0.0000 -9.9228 0.0000
# 4 0.0000 0.0000 0.0000 40.5380 0.0000 -5.5011
# 5 -8.9105 -0.4909 -9.9228 0.0000 24.9825 0.0000
# 6 0.0000 0.0000 0.0000 -5.5011 0.0000 28.4356
#
#
#
# Elastic Compliance Matrix: (Units=1/GPa)
#
#
# Indices 1 2 3 4 5 6 
#
# 1 0.027382 -0.003182 -0.002279 0.000000 0.008799 0.000000
# 2 -0.003182 0.018468 -0.005460 0.000000 -0.002941 0.000000
# 3 -0.002279 -0.005460 0.008208 0.000000 0.002340 0.000000
# 4 0.000000 0.000000 0.000000 0.025333 0.000000 0.004901
# 5 0.008799 -0.002941 0.002340 0.000000 0.044038 0.000000
# 6 0.000000 0.000000 0.000000 0.004901 0.000000 0.036115
#
#
# Mechanical properties :
#
#
# Convention : Reuss Voigt Hill
#
# Bulk Modulus (GPa) = 31.04033 50.29583 40.66808
# Shear Modulus (GPa) = 26.02471 31.62165 28.82318
#
# Velocity S-wave (km/s) = 3.67643 4.05252 3.86905
# Velocity P-wave (km/s) = 5.84316 6.92956 6.40942
#
# Compressibility (1/GPa) = 0.03221615
#
# Stress axis : x y z
#
# Youngs Moduli (GPa) = 36.52035 54.14645 121.83720
#
# Poissons Ratio (x) = 0.17228 0.27770
# Poissons Ratio (y) = 0.11620 0.66523
# Poissons Ratio (z) = 0.08324 0.29564
#
# Static dielectric constant tensor:
#      x y z
#    x 3.228420 0.000000 -0.214040 
#    y 0.000000 3.480760 0.000000 
#    z -0.214040 0.000000 3.796830 
# 
# 
# High freq. dielectric constant tensor:
#      x y z
#    x 1.708630 0.000000 -0.026780 
#    y 0.000000 1.746480 0.000000 
#    z -0.026780 0.000000 1.767810 
# 
# From -- ./inp_files/49884.got.cif
#   From: 2010.06.25/outbox.cif.g09.slc.cpg/sg15_25_cif.got.tgz:49884.got - 2010.06.28 07:06:18.
