data_PCOD8148835
_publ_section_title
;
Structure prediction by ZEFSAII (Michael W. Deem and Ramdas Pophale) SiO2 
 PCOD8148835
Probable space group: C 2/C
;
_chemical_formula_sum "Si O2"
_cell_formula_units_Z 32
_cell_length_a 16.871174
_cell_length_b 7.191148
_cell_length_c 21.296662
_cell_angle_alpha 90.000000
_cell_angle_beta 36.233008
_cell_angle_gamma 90.000000
_cell_volume 1527.194402
_symmetry_space_group_name_H-M "C 2/C"
_symmetry_group_IT_number 15
_symmetry_cell_setting 'monoclinic'
loop_
_space_group_symop_operation_xyz
x,y,z
-x,y,1/2-z
-x,-y,-z
x,-y,1/2+z
1/2+x,1/2+y,z
1/2-x,1/2+y,1/2-z
1/2-x,1/2-y,-z
1/2+x,1/2-y,1/2+z
loop_
_atom_site_type_symbol
_atom_site_label
_atom_site_fract_x
_atom_site_fract_y
_atom_site_fract_z
Si Si1 0.182061 0.960953 0.213198
Si Si2 0.902704 0.306670 0.154275
Si Si3 0.511803 0.106872 0.313960
Si Si4 0.189192 0.608838 0.488793
O O1 0.148528 0.113051 0.286218
O O2 0.319235 0.856784 0.145217
O O3 0.057805 0.819370 0.290755
O O4 0.199929 0.049711 0.132812
O O5 0.882025 0.467455 0.220387
O O6 0.061415 0.292451 0.035764
O O7 0.500000 0.044414 0.250000
O O8 0.365896 0.076000 0.439923
O O9 0.250000 0.750000 0.500000
#
# Coordination Sequence:
#
# PCOD8148835 Si02
#       4
#     8   8   8   8
#     4  12  22  45  68  91 141 167 222 274 320 392
#     4  10  23  43  63  99 126 177 213 272 322 387
#     4  10  24  41  65  98 129 171 224 261 335 383
#     4  10  24  43  69  97 134 171 219 274 329 386
#
# _framework density 20.953455000000002
#
# number of rings (size 3 to 8) (size 9 to 14) (size 15 to 20)
#    1.500    0.000    2.500    2.250    3.500    1.000 
#    4.500    2.500    0.000    0.000    0.000    0.000 
#    0.000    0.000    0.000    0.000    0.000    0.000 
#
# Total GULP energy -198303.633267 kJ/mol
# GULP energy per Si atom -12393.977079 kJ/mol
# Density = 2.090576 g / cm^3
# Si number density = 20.953455 Si / 1000 Ang^3
#
#
#
# Elastic Constant Matrix: (Units=GPa)
#
#
# Indices 1 2 3 4 5 6 
#
# 1 80.9175 40.5438 12.9172 0.0002 9.5038 -0.0002
# 2 40.5438 109.8376 47.9500 0.0005 -6.4840 -0.0007
# 3 12.9172 47.9500 72.5535 0.0000 -0.6818 0.0001
# 4 0.0002 0.0005 0.0000 38.7565 -0.0001 -6.3781
# 5 9.5038 -6.4840 -0.6818 -0.0001 27.0027 0.0002
# 6 -0.0002 -0.0007 0.0001 -6.3781 0.0002 24.4268
#
#
#
# Elastic Compliance Matrix: (Units=1/GPa)
#
#
# Indices 1 2 3 4 5 6 
#
# 1 0.016668 -0.007414 0.001861 0.000000 -0.007600 0.000000
# 2 -0.007414 0.016318 -0.009406 0.000000 0.006290 0.000000
# 3 0.001861 -0.009406 0.019645 0.000000 -0.002417 0.000000
# 4 0.000000 0.000000 0.000000 0.026961 0.000000 0.007040
# 5 -0.007600 0.006290 -0.002417 0.000000 0.041158 0.000000
# 6 0.000000 0.000000 0.000000 0.007040 0.000000 0.042777
#
#
# Mechanical properties :
#
#
# Convention : Reuss Voigt Hill
#
# Bulk Modulus (GPa) = 44.02471 51.79225 47.90848
# Shear Modulus (GPa) = 24.87369 28.83037 26.85203
#
# Velocity S-wave (km/s) = 3.44916 3.71337 3.58370
# Velocity P-wave (km/s) = 6.07607 6.56939 6.32754
#
# Compressibility (1/GPa) = 0.02271452
#
# Stress axis : x y z
#
# Youngs Moduli (GPa) = 59.99355 61.28093 50.90339
#
# Poissons Ratio (x) = 0.45431 -0.09471
# Poissons Ratio (y) = 0.44477 0.47878
# Poissons Ratio (z) = -0.11162 0.57638
#
# Static dielectric constant tensor:
#      x y z
#    x 3.782360 0.000000 -0.105420 
#    y 0.000000 3.603790 0.000000 
#    z -0.105420 0.000000 3.461350 
# 
# 
# High freq. dielectric constant tensor:
#      x y z
#    x 1.830480 0.000000 -0.003360 
#    y 0.000000 1.816490 0.000000 
#    z -0.003360 0.000000 1.798100 
# 
# From -- ./inp_files/102277.got.cif
#   From: 2010.06.25/outbox.cif.g09.slc.cpg/sg15_52_cif.got.tgz:102277.got - 2010.06.28 07:06:18.
