data_PCOD8148831
_publ_section_title
;
Structure prediction by ZEFSAII (Michael W. Deem and Ramdas Pophale) SiO2 
 PCOD8148831
Probable space group: C 2/C
;
_chemical_formula_sum "Si O2"
_cell_formula_units_Z 52
_cell_length_a 28.180393
_cell_length_b 6.623172
_cell_length_c 14.374646
_cell_angle_alpha 90.000000
_cell_angle_beta 114.820506
_cell_angle_gamma 90.000000
_cell_volume 2435.105533
_symmetry_space_group_name_H-M "C 2/C"
_symmetry_group_IT_number 15
_symmetry_cell_setting 'monoclinic'
loop_
_space_group_symop_operation_xyz
x,y,z
-x,y,1/2-z
-x,-y,-z
x,-y,1/2+z
1/2+x,1/2+y,z
1/2-x,1/2+y,1/2-z
1/2-x,1/2-y,-z
1/2+x,1/2-y,1/2+z
loop_
_atom_site_type_symbol
_atom_site_label
_atom_site_fract_x
_atom_site_fract_y
_atom_site_fract_z
Si Si1 0.419534 0.036065 0.113385
Si Si2 0.024936 0.153434 0.416541
Si Si3 0.306180 0.014808 0.096573
Si Si4 0.813867 0.769232 0.774461
Si Si5 0.245848 0.098597 0.875110
Si Si6 0.424265 0.310682 0.941426
Si Si7 0.500000 0.331513 0.250000
O O1 0.365499 0.983248 0.116367
O O2 0.449682 0.186119 0.207848
O O3 0.449640 0.823603 0.126804
O O4 0.411925 0.143644 0.008637
O O5 0.978986 0.254871 0.439197
O O6 0.069780 0.040608 0.514566
O O7 0.996818 0.973487 0.336954
O O8 0.294384 0.245891 0.111608
O O9 0.295788 0.882565 0.178851
O O10 0.269470 0.958462 0.977487
O O11 0.793727 0.703211 0.859573
O O12 0.876337 0.801397 0.829580
O O13 0.787264 0.979788 0.728088
#
# Coordination Sequence:
#
# PCOD8148831 Si02
#       7
#     8   8   8   8   8   8   4
#     4  11  23  43  68  97 135 175 223 273 335 409
#     4  10  23  43  63  97 137 176 216 278 330 399
#     4  11  26  44  68  99 134 176 223 280 340 392
#     4  12  24  43  71  97 133 178 224 276 343 397
#     4  11  25  47  66  99 136 173 226 283 331 404
#     4  10  24  42  66  97 131 177 224 269 337 400
#     4  10  24  38  62 100 136 172 222 268 332 398
#
# _framework density 21.354310000000002
#
# number of rings (size 3 to 8) (size 9 to 14) (size 15 to 20)
#    0.000    1.231    3.077    1.385    6.462    3.692 
#    0.000    0.000    0.000    0.000    0.000    0.000 
#    0.000    0.000    0.000    0.000    0.000    0.000 
#
# Total GULP energy -322413.473108 kJ/mol
# GULP energy per Si atom -12400.518196 kJ/mol
# Density = 2.130571 g / cm^3
# Si number density = 21.354310 Si / 1000 Ang^3
#
#
#
# Elastic Constant Matrix: (Units=GPa)
#
#
# Indices 1 2 3 4 5 6 
#
# 1 93.3985 36.0427 25.5092 0.0000 -2.1466 0.0000
# 2 36.0427 84.9230 33.3549 0.0000 7.3477 0.0000
# 3 25.5092 33.3549 112.2888 0.0000 13.1011 0.0000
# 4 0.0000 0.0000 0.0000 28.3696 0.0000 -1.4650
# 5 -2.1466 7.3477 13.1011 0.0000 38.4348 0.0000
# 6 0.0000 0.0000 0.0000 -1.4650 0.0000 20.8042
#
#
#
# Elastic Compliance Matrix: (Units=1/GPa)
#
#
# Indices 1 2 3 4 5 6 
#
# 1 0.013214 -0.005121 -0.001751 0.000000 0.002314 0.000000
# 2 -0.005121 0.015373 -0.003152 0.000000 -0.002150 0.000000
# 3 -0.001751 -0.003152 0.010602 0.000000 -0.003109 0.000000
# 4 0.000000 0.000000 0.000000 0.035378 0.000000 0.002491
# 5 0.002314 -0.002150 -0.003109 0.000000 0.027618 0.000000
# 6 0.000000 0.000000 0.000000 0.002491 0.000000 0.048243
#
#
# Mechanical properties :
#
#
# Convention : Reuss Voigt Hill
#
# Bulk Modulus (GPa) = 52.24151 53.38045 52.81098
# Shear Modulus (GPa) = 28.27147 30.56861 29.42004
#
# Velocity S-wave (km/s) = 3.64252 3.78762 3.71578
# Velocity P-wave (km/s) = 6.49676 6.64679 6.57220
#
# Compressibility (1/GPa) = 0.01914186
#
# Stress axis : x y z
#
# Youngs Moduli (GPa) = 75.67533 65.04942 94.31788
#
# Poissons Ratio (x) = 0.33311 0.16513
# Poissons Ratio (y) = 0.38753 0.29731
# Poissons Ratio (z) = 0.13249 0.20505
#
# Static dielectric constant tensor:
#      x y z
#    x 3.651660 0.000000 0.013980 
#    y 0.000000 3.767950 0.000000 
#    z 0.013980 0.000000 4.037560 
# 
# 
# High freq. dielectric constant tensor:
#      x y z
#    x 1.835910 0.000000 -0.000310 
#    y 0.000000 1.832970 0.000000 
#    z -0.000310 0.000000 1.850390 
# 
# From -- ./inp_files/180177.got.cif
#   From: 2010.06.25/outbox.cif.g09.slc.cpg/sg15_91_cif.got.tgz:180177.got - 2010.06.28 07:06:18.
