data_PCOD8148567
_publ_section_title
;
Structure prediction by ZEFSAII (Michael W. Deem and Ramdas Pophale) SiO2 
 PCOD8148567
Probable space group: C 2/C
;
_chemical_formula_sum "Si O2"
_cell_formula_units_Z 44
_cell_length_a 20.354758
_cell_length_b 8.700287
_cell_length_c 17.129088
_cell_angle_alpha 90.000000
_cell_angle_beta 138.076318
_cell_angle_gamma 90.000000
_cell_volume 2026.755356
_symmetry_space_group_name_H-M "C 2/C"
_symmetry_group_IT_number 15
_symmetry_cell_setting 'monoclinic'
loop_
_space_group_symop_operation_xyz
x,y,z
-x,y,1/2-z
-x,-y,-z
x,-y,1/2+z
1/2+x,1/2+y,z
1/2-x,1/2+y,1/2-z
1/2-x,1/2-y,-z
1/2+x,1/2-y,1/2+z
loop_
_atom_site_type_symbol
_atom_site_label
_atom_site_fract_x
_atom_site_fract_y
_atom_site_fract_z
Si Si1 0.885546 0.164544 0.635779
Si Si2 0.434716 0.111041 0.057610
Si Si3 0.852770 0.719814 0.268994
Si Si4 0.677651 0.665722 0.379313
Si Si5 0.761222 0.514771 0.307079
Si Si6 0.500000 0.121438 0.750000
O O1 0.869672 0.254191 0.540763
O O2 0.841247 0.273024 0.665180
O O3 0.000000 0.140940 0.750000
O O4 0.836590 0.998937 0.592220
O O5 0.534324 0.180916 0.108468
O O6 0.458199 0.982162 0.143200
O O7 0.366760 0.048619 0.928818
O O8 0.779738 0.591662 0.239325
O O9 0.822336 0.885433 0.277676
O O10 0.750000 0.750000 0.500000
O O11 0.723104 0.643924 0.333615
O O12 0.580742 0.767145 0.283630
#
# Coordination Sequence:
#
# PCOD8148567 Si02
#       6
#     8   8   8   8   8   4
#     4   9  19  40  66  89 126 166 211 266 322 372
#     4  11  22  43  69  95 125 179 214 268 327 386
#     4  10  23  42  62  93 135 168 213 268 318 385
#     4  11  23  39  65 100 125 168 217 272 320 380
#     4  11  25  43  66  95 131 175 214 265 333 388
#     4  12  22  38  70  98 132 160 220 282 310 378
#
# _framework density 21.709575999999998
#
# number of rings (size 3 to 8) (size 9 to 14) (size 15 to 20)
#    0.000    1.455    5.455    0.545    2.545    4.364 
#    0.000    0.909    0.000    0.000    0.000    0.000 
#    0.000    0.000    0.000    0.000    0.000    0.000 
#
# Total GULP energy -272782.546953 kJ/mol
# GULP energy per Si atom -12399.206680 kJ/mol
# Density = 2.166016 g / cm^3
# Si number density = 21.709576 Si / 1000 Ang^3
#
#
#
# Elastic Constant Matrix: (Units=GPa)
#
#
# Indices 1 2 3 4 5 6 
#
# 1 145.8426 68.0290 25.1573 0.0000 12.0346 0.0000
# 2 68.0290 106.6938 40.0461 0.0000 3.9407 0.0000
# 3 25.1573 40.0461 50.8896 0.0000 14.6850 0.0000
# 4 0.0000 0.0000 0.0000 33.5812 0.0000 3.7399
# 5 12.0346 3.9407 14.6850 0.0000 25.1715 0.0000
# 6 0.0000 0.0000 0.0000 3.7399 0.0000 51.7708
#
#
#
# Elastic Compliance Matrix: (Units=1/GPa)
#
#
# Indices 1 2 3 4 5 6 
#
# 1 0.010221 -0.007054 0.001911 0.000000 -0.004897 0.000000
# 2 -0.007054 0.018678 -0.013636 0.000000 0.008403 0.000000
# 3 0.001911 -0.013636 0.034971 0.000000 -0.019181 0.000000
# 4 0.000000 0.000000 0.000000 0.030020 0.000000 -0.002169
# 5 -0.004897 0.008403 -0.019181 0.000000 0.051943 0.000000
# 6 0.000000 0.000000 0.000000 -0.002169 0.000000 0.019473
#
#
# Mechanical properties :
#
#
# Convention : Reuss Voigt Hill
#
# Bulk Modulus (GPa) = 38.00405 63.32120 50.66262
# Shear Modulus (GPa) = 23.62565 33.45093 28.53829
#
# Velocity S-wave (km/s) = 3.30246 3.92961 3.62960
# Velocity P-wave (km/s) = 5.66439 7.05832 6.39942
#
# Compressibility (1/GPa) = 0.02631299
#
# Stress axis : x y z
#
# Youngs Moduli (GPa) = 97.83386 53.53971 28.59514
#
# Poissons Ratio (x) = 0.37765 -0.05464
# Poissons Ratio (y) = 0.69008 0.38992
# Poissons Ratio (z) = -0.18695 0.73006
#
# Static dielectric constant tensor:
#      x y z
#    x 4.613220 0.000000 0.413660 
#    y 0.000000 4.216480 0.000000 
#    z 0.413660 0.000000 3.634060 
# 
# 
# High freq. dielectric constant tensor:
#      x y z
#    x 1.870070 0.000000 0.020790 
#    y 0.000000 1.863010 0.000000 
#    z 0.020790 0.000000 1.827870 
# 
# From -- ./inp_files/165820.got.cif
#   From: 2010.06.25/outbox.cif.g09.slc.cpg/sg15_83_cif.got.tgz:165820.got - 2010.06.28 07:06:18.
