data_PCOD8148254
_publ_section_title
;
Structure prediction by ZEFSAII (Michael W. Deem and Ramdas Pophale) SiO2 
 PCOD8148254
Probable space group: C 2/C
;
_chemical_formula_sum "Si O2"
_cell_formula_units_Z 44
_cell_length_a 9.325617
_cell_length_b 19.140960
_cell_length_c 12.839234
_cell_angle_alpha 90.000000
_cell_angle_beta 65.412340
_cell_angle_gamma 90.000000
_cell_volume 2084.010446
_symmetry_space_group_name_H-M "C 2/C"
_symmetry_group_IT_number 15
_symmetry_cell_setting 'monoclinic'
loop_
_space_group_symop_operation_xyz
x,y,z
-x,y,1/2-z
-x,-y,-z
x,-y,1/2+z
1/2+x,1/2+y,z
1/2-x,1/2+y,1/2-z
1/2-x,1/2-y,-z
1/2+x,1/2-y,1/2+z
loop_
_atom_site_type_symbol
_atom_site_label
_atom_site_fract_x
_atom_site_fract_y
_atom_site_fract_z
Si Si1 0.327901 0.523364 0.024039
Si Si2 0.851583 0.513267 0.232190
Si Si3 0.802306 0.397250 0.563192
Si Si4 0.500000 0.674767 0.250000
Si Si5 0.468853 0.808413 0.144487
Si Si6 0.177537 0.889490 0.172025
O O1 0.237064 0.454361 0.011704
O O2 0.321678 0.587162 0.947072
O O3 0.500000 0.500000 0.000000
O O4 0.250731 0.554810 0.151738
O O5 0.906950 0.564200 0.121257
O O6 0.738443 0.452334 0.225210
O O7 0.000000 0.481852 0.250000
O O8 0.647824 0.372347 0.672708
O O9 0.900372 0.335231 0.478501
O O10 0.471655 0.724225 0.156684
O O11 0.500000 0.842274 0.250000
O O12 0.294972 0.825125 0.154149
O O13 0.000000 0.865879 0.250000
#
# Coordination Sequence:
#
# PCOD8148254 Si02
#       6
#     8   8   8   4   8   8
#     4  11  21  33  60  93 126 163 198 262 325 380
#     4  11  22  37  61  96 127 162 203 262 332 379
#     4  11  22  42  64  91 132 163 221 262 311 393
#     4  10  24  40  68  90 122 178 226 254 310 368
#     4  10  23  40  64  91 121 171 217 267 309 364
#     4  11  21  36  59  94 129 162 209 256 325 386
#
# _framework density 21.113136999999998
#
# number of rings (size 3 to 8) (size 9 to 14) (size 15 to 20)
#    0.545    0.727    1.818    5.455    2.545    2.909 
#    0.000    0.909    0.000    6.545    0.000    0.000 
#    0.000    0.000    0.000    0.000    0.000    0.000 
#
# Total GULP energy -272608.193393 kJ/mol
# GULP energy per Si atom -12391.281518 kJ/mol
# Density = 2.106508 g / cm^3
# Si number density = 21.113137 Si / 1000 Ang^3
#
#
#
# Elastic Constant Matrix: (Units=GPa)
#
#
# Indices 1 2 3 4 5 6 
#
# 1 111.6982 0.7365 27.9529 0.0000 4.4836 0.0000
# 2 0.7365 45.9535 5.9556 0.0000 5.5180 0.0000
# 3 27.9529 5.9556 114.0199 0.0000 -3.1860 0.0000
# 4 0.0000 0.0000 0.0000 30.6472 0.0000 -7.0860
# 5 4.4836 5.5180 -3.1860 0.0000 40.9701 0.0000
# 6 0.0000 0.0000 0.0000 -7.0860 0.0000 20.3742
#
#
#
# Elastic Compliance Matrix: (Units=1/GPa)
#
#
# Indices 1 2 3 4 5 6 
#
# 1 0.009604 0.000312 -0.002407 0.000000 -0.001280 0.000000
# 2 0.000312 0.022306 -0.001329 0.000000 -0.003142 0.000000
# 3 -0.002407 -0.001329 0.009463 0.000000 0.001178 0.000000
# 4 0.000000 0.000000 0.000000 0.035483 0.000000 0.012341
# 5 -0.001280 -0.003142 0.001178 0.000000 0.025063 0.000000
# 6 0.000000 0.000000 0.000000 0.012341 0.000000 0.053374
#
#
# Mechanical properties :
#
#
# Convention : Reuss Voigt Hill
#
# Bulk Modulus (GPa) = 28.96511 37.88460 33.42486
# Shear Modulus (GPa) = 28.79379 34.20008 31.49693
#
# Velocity S-wave (km/s) = 3.69695 4.02910 3.86659
# Velocity P-wave (km/s) = 5.65438 6.29503 5.98329
#
# Compressibility (1/GPa) = 0.03452429
#
# Stress axis : x y z
#
# Youngs Moduli (GPa) = 104.12008 44.83163 105.67741
#
# Poissons Ratio (x) = -0.01397 0.25433
# Poissons Ratio (y) = -0.03245 0.14048
# Poissons Ratio (z) = 0.25058 0.05959
#
# Static dielectric constant tensor:
#      x y z
#    x 3.957730 0.000000 0.055350 
#    y 0.000000 3.631110 0.000000 
#    z 0.055350 0.000000 2.795160 
# 
# 
# High freq. dielectric constant tensor:
#      x y z
#    x 1.835410 0.000000 0.000130 
#    y 0.000000 1.790750 0.000000 
#    z 0.000130 0.000000 1.846860 
# 
# From -- ./inp_files/79670.got.cif
#   From: 2010.06.25/outbox.cif.g09.slc.cpg/sg15_40_cif.got.tgz:79670.got - 2010.06.28 07:06:18.
