data_PCOD8148681
_publ_section_title
;
Structure prediction by ZEFSAII (Michael W. Deem and Ramdas Pophale) SiO2 
 PCOD8148681
Probable space group: C 2/C
;
_chemical_formula_sum "Si O2"
_cell_formula_units_Z 40
_cell_length_a 15.588351
_cell_length_b 12.079545
_cell_length_c 14.766662
_cell_angle_alpha 90.000000
_cell_angle_beta 145.066009
_cell_angle_gamma 90.000000
_cell_volume 1592.241547
_symmetry_space_group_name_H-M "C 2/C"
_symmetry_group_IT_number 15
_symmetry_cell_setting 'monoclinic'
loop_
_space_group_symop_operation_xyz
x,y,z
-x,y,1/2-z
-x,-y,-z
x,-y,1/2+z
1/2+x,1/2+y,z
1/2-x,1/2+y,1/2-z
1/2-x,1/2-y,-z
1/2+x,1/2-y,1/2+z
loop_
_atom_site_type_symbol
_atom_site_label
_atom_site_fract_x
_atom_site_fract_y
_atom_site_fract_z
Si Si1 0.607949 0.794677 0.082777
Si Si2 0.071788 0.652473 0.911152
Si Si3 0.264762 0.648973 0.887164
Si Si4 0.771452 0.944158 0.093883
Si Si5 0.072989 0.926922 0.450626
O O1 0.473505 0.855688 0.020667
O O2 0.747516 0.791061 0.274386
O O3 0.645035 0.864212 0.025188
O O4 0.567716 0.669700 0.020295
O O5 0.906425 0.639171 0.715040
O O6 0.137931 0.777327 0.959395
O O7 0.198059 0.560298 0.001324
O O8 0.340711 0.531550 0.932688
O O9 0.836983 0.886551 0.060462
O O10 0.905077 0.964353 0.280502
#
# Coordination Sequence:
#
# PCOD8148681 Si02
#       5
#     8   8   8   8   8
#     4  10  24  41  70 101 135 180 230 284 339 412
#     4  10  23  42  67 103 134 183 228 285 339 416
#     4  10  24  41  70  99 138 181 231 285 338 412
#     4  11  24  44  72 100 142 180 225 286 355 412
#     4  11  25  45  69 104 140 181 227 288 350 411
#
# _framework density 25.121817
#
# number of rings (size 3 to 8) (size 9 to 14) (size 15 to 20)
#    1.200    0.400    0.000    3.600    2.800    4.800 
#    0.000    0.000    0.000    0.000    0.000    0.000 
#    0.000    0.000    0.000    0.000    0.000    0.000 
#
# Total GULP energy -247970.607603 kJ/mol
# GULP energy per Si atom -12398.530380 kJ/mol
# Density = 2.506464 g / cm^3
# Si number density = 25.121817 Si / 1000 Ang^3
#
#
#
# Elastic Constant Matrix: (Units=GPa)
#
#
# Indices 1 2 3 4 5 6 
#
# 1 87.3008 18.6616 23.6933 0.0000 0.0011 0.0000
# 2 18.6616 119.7439 59.6223 0.0000 -4.8608 0.0000
# 3 23.6933 59.6223 127.7743 0.0000 -10.0660 0.0000
# 4 0.0000 0.0000 0.0000 42.8142 0.0000 -2.3242
# 5 0.0011 -4.8608 -10.0660 0.0000 35.5367 0.0000
# 6 0.0000 0.0000 0.0000 -2.3242 0.0000 47.1640
#
#
#
# Elastic Compliance Matrix: (Units=1/GPa)
#
#
# Indices 1 2 3 4 5 6 
#
# 1 0.012169 -0.001008 -0.001838 0.000000 -0.000659 0.000000
# 2 -0.001008 0.010962 -0.004920 0.000000 0.000106 0.000000
# 3 -0.001838 -0.004920 0.010647 0.000000 0.002343 0.000000
# 4 0.000000 0.000000 0.000000 0.023419 0.000000 0.001154
# 5 -0.000659 0.000106 0.002343 0.000000 0.028818 0.000000
# 6 0.000000 0.000000 0.000000 0.001154 0.000000 0.021259
#
#
# Mechanical properties :
#
#
# Convention : Reuss Voigt Hill
#
# Bulk Modulus (GPa) = 54.80465 59.86370 57.33417
# Shear Modulus (GPa) = 38.79275 40.62577 39.70926
#
# Velocity S-wave (km/s) = 3.93388 4.02574 3.98008
# Velocity P-wave (km/s) = 6.51895 6.74462 6.63275
#
# Compressibility (1/GPa) = 0.01824663
#
# Stress axis : x y z
#
# Youngs Moduli (GPa) = 82.17619 91.22189 93.91889
#
# Poissons Ratio (x) = 0.09196 0.17263
# Poissons Ratio (y) = 0.08284 0.46208
# Poissons Ratio (z) = 0.15104 0.44881
#
# Static dielectric constant tensor:
#      x y z
#    x 5.106750 0.000000 0.086250 
#    y 0.000000 4.039310 0.000000 
#    z 0.086250 0.000000 4.544450 
# 
# 
# High freq. dielectric constant tensor:
#      x y z
#    x 2.055430 0.000000 0.003810 
#    y 0.000000 1.976640 0.000000 
#    z 0.003810 0.000000 2.003520 
# 
# From -- ./inp_files/210818.got.cif
#   From: 2010.06.25/outbox.cif.g09.slc.cpg/sg15_106_cif.got.tgz:210818.got - 2010.06.28 07:06:18.
