data_PCOD8148637
_publ_section_title
;
Structure prediction by ZEFSAII (Michael W. Deem and Ramdas Pophale) SiO2 
 PCOD8148637
Probable space group: C 2/C
;
_chemical_formula_sum "Si O2"
_cell_formula_units_Z 48
_cell_length_a 9.034116
_cell_length_b 15.147649
_cell_length_c 14.582045
_cell_angle_alpha 90.000000
_cell_angle_beta 89.240886
_cell_angle_gamma 90.000000
_cell_volume 1995.313824
_symmetry_space_group_name_H-M "C 2/C"
_symmetry_group_IT_number 15
_symmetry_cell_setting 'monoclinic'
loop_
_space_group_symop_operation_xyz
x,y,z
-x,y,1/2-z
-x,-y,-z
x,-y,1/2+z
1/2+x,1/2+y,z
1/2-x,1/2+y,1/2-z
1/2-x,1/2-y,-z
1/2+x,1/2-y,1/2+z
loop_
_atom_site_type_symbol
_atom_site_label
_atom_site_fract_x
_atom_site_fract_y
_atom_site_fract_z
Si Si1 0.500000 0.543058 0.750000
Si Si2 0.098920 0.665483 0.473803
Si Si3 0.000000 0.700224 0.750000
Si Si4 0.741103 0.901238 0.146765
Si Si5 0.679616 0.440170 0.614541
Si Si6 0.442146 0.687353 0.067576
Si Si7 0.811068 0.565250 0.464587
O O1 0.584846 0.603173 0.824638
O O2 0.635166 0.481653 0.712163
O O3 0.217954 0.659236 0.556430
O O4 0.199616 0.642184 0.382224
O O5 0.012524 0.757925 0.481034
O O6 0.980992 0.586852 0.485751
O O7 0.138954 0.636788 0.728613
O O8 0.043232 0.759210 0.837315
O O9 0.698323 0.002725 0.124449
O O10 0.527704 0.405171 0.572063
O O11 0.742792 0.518513 0.553238
O O12 0.272642 0.659240 0.050771
#
# Coordination Sequence:
#
# PCOD8148637 Si02
#       7
#     4   8   4   8   8   8   8
#     4  12  25  38  70  97 128 174 230 284 323 386
#     4  10  24  43  67  99 133 175 217 277 339 393
#     4  10  25  44  66  95 144 176 216 282 345 388
#     4  10  23  42  65  96 128 177 221 273 330 393
#     4  11  23  42  66  97 131 175 229 266 331 401
#     4  11  22  42  66 100 138 175 213 277 339 395
#     4  11  23  43  72 100 128 177 230 272 324 408
#
# _framework density 24.056365
#
# number of rings (size 3 to 8) (size 9 to 14) (size 15 to 20)
#    0.000    1.333    1.667    4.000    9.333    0.000 
#    0.000    0.000    0.000    0.000    0.000    0.000 
#    0.000    0.000    0.000    0.000    0.000    0.000 
#
# Total GULP energy -297402.436352 kJ/mol
# GULP energy per Si atom -12391.768181 kJ/mol
# Density = 2.400161 g / cm^3
# Si number density = 24.056365 Si / 1000 Ang^3
#
#
#
# Elastic Constant Matrix: (Units=GPa)
#
#
# Indices 1 2 3 4 5 6 
#
# 1 74.9383 -6.3574 26.3790 0.0000 -14.6038 0.0000
# 2 -6.3574 49.3961 5.8456 0.0000 -14.2127 0.0000
# 3 26.3790 5.8456 60.2142 0.0000 -18.2110 0.0000
# 4 0.0000 0.0000 0.0000 11.2501 0.0000 3.0355
# 5 -14.6038 -14.2127 -18.2110 0.0000 42.0045 0.0000
# 6 0.0000 0.0000 0.0000 3.0355 0.0000 38.4403
#
#
#
# Elastic Compliance Matrix: (Units=1/GPa)
#
#
# Indices 1 2 3 4 5 6 
#
# 1 0.016842 0.004222 -0.006428 0.000000 0.004497 0.000000
# 2 0.004222 0.023488 -0.001476 0.000000 0.008775 0.000000
# 3 -0.006428 -0.001476 0.021568 0.000000 0.006617 0.000000
# 4 0.000000 0.000000 0.000000 0.090823 0.000000 -0.007172
# 5 0.004497 0.008775 0.006617 0.000000 0.031208 0.000000
# 6 0.000000 0.000000 0.000000 -0.007172 0.000000 0.026581
#
#
# Mechanical properties :
#
#
# Convention : Reuss Voigt Hill
#
# Bulk Modulus (GPa) = 18.33726 26.25366 22.29546
# Shear Modulus (GPa) = 21.18194 28.91772 25.04983
#
# Velocity S-wave (km/s) = 2.97056 3.47087 3.23041
# Velocity P-wave (km/s) = 4.40509 5.19612 4.81687
#
# Compressibility (1/GPa) = 0.05453376
#
# Stress axis : x y z
#
# Youngs Moduli (GPa) = 59.37687 42.57583 46.36561
#
# Poissons Ratio (x) = -0.17976 0.29803
# Poissons Ratio (y) = -0.25070 0.06843
# Poissons Ratio (z) = 0.38167 0.06284
#
# Static dielectric constant tensor:
#      x y z
#    x 4.625300 0.000000 -0.194120 
#    y 0.000000 4.361140 0.000000 
#    z -0.194120 0.000000 4.068040 
# 
# 
# High freq. dielectric constant tensor:
#      x y z
#    x 1.971420 0.000000 -0.012370 
#    y 0.000000 1.960290 0.000000 
#    z -0.012370 0.000000 1.920250 
# 
# From -- ./inp_files/189295.got.cif
#   From: 2010.06.25/outbox.cif.g09.slc.cpg/sg15_95_cif.got.tgz:189295.got - 2010.06.28 07:06:18.
