data_PCOD8148615
_publ_section_title
;
Structure prediction by ZEFSAII (Michael W. Deem and Ramdas Pophale) SiO2 
 PCOD8148615
Probable space group: C 2/C
;
_chemical_formula_sum "Si O2"
_cell_formula_units_Z 52
_cell_length_a 26.646958
_cell_length_b 8.436392
_cell_length_c 11.517519
_cell_angle_alpha 90.000000
_cell_angle_beta 115.608993
_cell_angle_gamma 90.000000
_cell_volume 2334.836935
_symmetry_space_group_name_H-M "C 2/C"
_symmetry_group_IT_number 15
_symmetry_cell_setting 'monoclinic'
loop_
_space_group_symop_operation_xyz
x,y,z
-x,y,1/2-z
-x,-y,-z
x,-y,1/2+z
1/2+x,1/2+y,z
1/2-x,1/2+y,1/2-z
1/2-x,1/2-y,-z
1/2+x,1/2-y,1/2+z
loop_
_atom_site_type_symbol
_atom_site_label
_atom_site_fract_x
_atom_site_fract_y
_atom_site_fract_z
Si Si1 0.000000 0.750000 0.250000
Si Si2 0.145422 0.770956 0.098274
Si Si3 0.188287 0.471978 0.033928
Si Si4 0.099262 0.565161 0.250937
Si Si5 0.645422 0.770956 0.192570
Si Si6 0.188287 0.971978 0.342647
Si Si7 0.400737 0.565162 0.552412
O O1 0.962173 0.624970 0.281112
O O2 0.962172 0.875029 0.143234
O O3 0.180522 0.660528 0.045871
O O4 0.110837 0.656677 0.144854
O O5 0.185176 0.882811 0.215487
O O6 0.102719 0.878126 0.979911
O O7 0.185176 0.382811 0.154867
O O8 0.250000 0.445279 0.042894
O O9 0.142819 0.399812 0.899406
O O10 0.102719 0.378126 0.225527
O O11 0.680522 0.660528 0.315173
O O12 0.610837 0.656678 0.076820
O O13 0.142819 0.899812 0.386232
#
# Coordination Sequence:
#
# PCOD8148615 Si02
#       7
#     4   8   8   8   8   8   8
#     4  12  24  48  68  92 130 176 226 290 316 384
#     4  10  23  42  65 100 130 175 217 266 333 398
#     4  11  22  41  67 101 139 172 215 274 329 398
#     4  11  24  44  66  95 133 172 226 268 332 386
#     4  10  23  42  65 100 130 175 217 266 333 398
#     4  11  22  41  67 101 139 172 215 274 329 398
#     4  11  24  44  66  95 133 172 226 268 332 386
#
# _framework density 22.271363999999998
#
# number of rings (size 3 to 8) (size 9 to 14) (size 15 to 20)
#    0.000    1.231    3.077    1.846    0.000   11.077 
#    0.000    1.538    0.000    0.000    0.000    0.000 
#    0.000    0.000    0.000    0.000    0.000    0.000 
#
# Total GULP energy -322222.271306 kJ/mol
# GULP energy per Si atom -12393.164281 kJ/mol
# Density = 2.222067 g / cm^3
# Si number density = 22.271364 Si / 1000 Ang^3
#
#
#
# Elastic Constant Matrix: (Units=GPa)
#
#
# Indices 1 2 3 4 5 6 
#
# 1 114.1078 36.0017 52.2944 0.0000 33.3104 0.0000
# 2 36.0017 122.4627 20.9928 0.0000 11.3160 0.0000
# 3 52.2944 20.9928 59.5301 0.0000 7.8406 0.0000
# 4 0.0000 0.0000 0.0000 46.3725 0.0000 -9.6400
# 5 33.3104 11.3160 7.8406 0.0000 28.0223 0.0000
# 6 0.0000 0.0000 0.0000 -9.6400 0.0000 33.5880
#
#
#
# Elastic Compliance Matrix: (Units=1/GPa)
#
#
# Indices 1 2 3 4 5 6 
#
# 1 0.024067 -0.001968 -0.017427 0.000000 -0.022938 0.000000
# 2 -0.001968 0.009062 -0.001342 0.000000 -0.000944 0.000000
# 3 -0.017427 -0.001342 0.030920 0.000000 0.012606 0.000000
# 4 0.000000 0.000000 0.000000 0.022933 0.000000 0.006582
# 5 -0.022938 -0.000944 0.012606 0.000000 0.059806 0.000000
# 6 0.000000 0.000000 0.000000 0.006582 0.000000 0.031662
#
#
# Mechanical properties :
#
#
# Convention : Reuss Voigt Hill
#
# Bulk Modulus (GPa) = 44.29801 57.18648 50.74224
# Shear Modulus (GPa) = 21.98304 34.05069 28.01687
#
# Velocity S-wave (km/s) = 3.14515 3.91436 3.55065
# Velocity P-wave (km/s) = 5.75522 6.79430 6.29623
#
# Compressibility (1/GPa) = 0.02257438
#
# Stress axis : x y z
#
# Youngs Moduli (GPa) = 41.55043 110.35449 32.34195
#
# Poissons Ratio (x) = 0.21723 0.56361
# Poissons Ratio (y) = 0.08179 0.04340
# Poissons Ratio (z) = 0.72408 0.14810
#
# Static dielectric constant tensor:
#      x y z
#    x 3.765260 0.000000 -0.164900 
#    y 0.000000 4.417700 0.000000 
#    z -0.164900 0.000000 3.983950 
# 
# 
# High freq. dielectric constant tensor:
#      x y z
#    x 1.850470 0.000000 -0.015230 
#    y 0.000000 1.906040 0.000000 
#    z -0.015230 0.000000 1.870660 
# 
# From -- ./inp_files/121800.got.cif
#   From: 2010.06.25/outbox.cif.g09.slc.cpg/sg15_61_cif.got.tgz:121800.got - 2010.06.28 07:06:18.
