data_PCOD8148183
_publ_section_title
;
Structure prediction by ZEFSAII (Michael W. Deem and Ramdas Pophale) SiO2 
 PCOD8148183
Probable space group: C 2/C
;
_chemical_formula_sum "Si O2"
_cell_formula_units_Z 48
_cell_length_a 30.594527
_cell_length_b 8.702198
_cell_length_c 14.623481
_cell_angle_alpha 90.000000
_cell_angle_beta 36.022073
_cell_angle_gamma 90.000000
_cell_volume 2289.667101
_symmetry_space_group_name_H-M "C 2/C"
_symmetry_group_IT_number 15
_symmetry_cell_setting 'monoclinic'
loop_
_space_group_symop_operation_xyz
x,y,z
-x,y,1/2-z
-x,-y,-z
x,-y,1/2+z
1/2+x,1/2+y,z
1/2-x,1/2+y,1/2-z
1/2-x,1/2-y,-z
1/2+x,1/2-y,1/2+z
loop_
_atom_site_type_symbol
_atom_site_label
_atom_site_fract_x
_atom_site_fract_y
_atom_site_fract_z
Si Si1 0.283631 0.401089 0.633218
Si Si2 0.963041 0.099024 0.487218
Si Si3 0.555268 0.859894 0.398986
Si Si4 0.223781 0.581165 0.570725
Si Si5 0.293402 0.400152 0.290981
Si Si6 0.939362 0.818506 0.418551
O O1 0.265068 0.539187 0.595267
O O2 0.277020 0.465296 0.746684
O O3 0.226662 0.265100 0.713914
O O4 0.364326 0.323324 0.486175
O O5 0.879922 0.126112 0.664630
O O6 0.014313 0.251115 0.392995
O O7 0.961686 0.997769 0.397402
O O8 0.000000 0.000000 0.500000
O O9 0.634549 0.918525 0.228641
O O10 0.568162 0.776797 0.474843
O O11 0.500000 0.000000 0.500000
O O12 0.250000 0.750000 0.500000
O O13 0.248794 0.449773 0.456920
O O14 0.000000 0.739601 0.250000
#
# Coordination Sequence:
#
# PCOD8148183 Si02
#       6
#     8   8   8   8   8   8
#     4  11  24  42  66  98 133 165 231 271 322 400
#     4   9  20  40  63  88 127 166 216 255 320 400
#     4  11  24  42  64  99 135 165 216 279 332 386
#     4  12  25  41  69  97 132 177 218 273 336 385
#     4  11  23  42  68  95 128 176 217 278 328 391
#     4  10  23  39  66  89 126 178 216 266 325 394
#
# _framework density 20.963746
#
# number of rings (size 3 to 8) (size 9 to 14) (size 15 to 20)
#    0.000    1.333    0.000    6.500    9.333    0.000 
#    0.000    0.833    0.000    0.000    0.000    0.000 
#    0.000    0.000    0.000    0.000    0.000    0.000 
#
# Total GULP energy -297474.814340 kJ/mol
# GULP energy per Si atom -12394.783931 kJ/mol
# Density = 2.091603 g / cm^3
# Si number density = 20.963746 Si / 1000 Ang^3
#
#
#
# Elastic Constant Matrix: (Units=GPa)
#
#
# Indices 1 2 3 4 5 6 
#
# 1 114.8532 39.5799 57.0627 0.0000 -34.9998 0.0000
# 2 39.5799 84.7672 13.9332 -0.0008 -22.0285 0.0000
# 3 57.0627 13.9332 124.9347 -0.0001 -21.5817 0.0000
# 4 0.0000 -0.0008 -0.0001 31.7630 0.0000 -6.8400
# 5 -34.9998 -22.0285 -21.5817 0.0000 31.9151 0.0000
# 6 0.0000 0.0000 0.0000 -6.8400 0.0000 46.5913
#
#
#
# Elastic Compliance Matrix: (Units=1/GPa)
#
#
# Indices 1 2 3 4 5 6 
#
# 1 0.015920 -0.003597 -0.004850 0.000000 0.011697 0.000000
# 2 -0.003597 0.015190 0.001221 0.000000 0.007366 0.000000
# 3 -0.004850 0.001221 0.010541 0.000000 0.002653 0.000000
# 4 0.000000 0.000000 0.000000 0.032511 0.000000 0.004773
# 5 0.011697 0.007366 0.002653 0.000000 0.051038 0.000000
# 6 0.000000 0.000000 0.000000 0.004773 0.000000 0.022164
#
#
# Mechanical properties :
#
#
# Convention : Reuss Voigt Hill
#
# Bulk Modulus (GPa) = 36.76364 60.63406 48.69885
# Shear Modulus (GPa) = 29.25995 36.31918 32.78957
#
# Velocity S-wave (km/s) = 3.74001 4.16682 3.95917
# Velocity P-wave (km/s) = 6.01873 7.22052 6.64684
#
# Compressibility (1/GPa) = 0.02720079
#
# Stress axis : x y z
#
# Youngs Moduli (GPa) = 62.81344 65.83352 94.86514
#
# Poissons Ratio (x) = 0.23678 0.46007
# Poissons Ratio (y) = 0.22592 -0.11584
# Poissons Ratio (z) = 0.30463 -0.08039
#
# Static dielectric constant tensor:
#      x y z
#    x 3.458450 0.000000 -0.085260 
#    y 0.000000 3.081390 0.000000 
#    z -0.085260 0.000000 3.921610 
# 
# 
# High freq. dielectric constant tensor:
#      x y z
#    x 1.834000 0.000000 -0.017830 
#    y 0.000000 1.828110 0.000000 
#    z -0.017830 0.000000 1.817350 
# 
# From -- ./inp_files/180710.got.cif
#   From: 2010.06.25/outbox.cif.g09.slc.cpg/sg15_91_cif.got.tgz:180710.got - 2010.06.28 07:06:18.
