data_PCOD8148100
_publ_section_title
;
Structure prediction by ZEFSAII (Michael W. Deem and Ramdas Pophale) SiO2 
 PCOD8148100
Probable space group: C 2/C
;
_chemical_formula_sum "Si O2"
_cell_formula_units_Z 48
_cell_length_a 18.191420
_cell_length_b 5.028611
_cell_length_c 25.679881
_cell_angle_alpha 90.000000
_cell_angle_beta 110.396159
_cell_angle_gamma 90.000000
_cell_volume 2201.855159
_symmetry_space_group_name_H-M "C 2/C"
_symmetry_group_IT_number 15
_symmetry_cell_setting 'monoclinic'
loop_
_space_group_symop_operation_xyz
x,y,z
-x,y,1/2-z
-x,-y,-z
x,-y,1/2+z
1/2+x,1/2+y,z
1/2-x,1/2+y,1/2-z
1/2-x,1/2-y,-z
1/2+x,1/2-y,1/2+z
loop_
_atom_site_type_symbol
_atom_site_label
_atom_site_fract_x
_atom_site_fract_y
_atom_site_fract_z
Si Si1 0.932266 0.484684 0.376410
Si Si2 0.394526 0.046853 0.602255
Si Si3 0.695492 0.443743 0.379100
Si Si4 0.183229 0.365598 0.518859
Si Si5 0.927215 0.016491 0.944242
Si Si6 0.769947 0.424607 0.286434
O O1 0.944499 0.779356 0.401966
O O2 0.861553 0.484283 0.318103
O O3 0.012635 0.412317 0.366407
O O4 0.911777 0.276730 0.417523
O O5 0.351167 0.299666 0.614205
O O6 0.380434 0.003320 0.536112
O O7 0.361897 0.801316 0.626578
O O8 0.776747 0.419420 0.432406
O O9 0.717734 0.468312 0.324542
O O10 0.250000 0.250000 0.500000
O O11 0.148071 0.120959 0.543028
O O12 0.000000 0.000000 0.000000
O O13 0.738751 0.621839 0.234311
#
# Coordination Sequence:
#
# PCOD8148100 Si02
#       6
#     8   8   8   8   8   8
#     4  12  26  44  69  98 140 178 230 288 339 404
#     4  11  24  42  66 103 141 177 215 268 347 427
#     4  11  24  44  67  98 139 179 223 279 337 407
#     4  10  23  38  65 101 143 182 214 261 335 423
#     4  12  24  40  65 103 144 182 221 269 335 425
#     4  12  27  49  73  97 126 178 243 298 342 389
#
# _framework density 21.799799
#
# number of rings (size 3 to 8) (size 9 to 14) (size 15 to 20)
#    0.000    0.667    3.333    4.000    7.000    0.000 
#    0.000    5.000    0.000    0.000    0.000    0.000 
#    0.000    0.000    0.000    0.000    0.000    0.000 
#
# Total GULP energy -297677.966868 kJ/mol
# GULP energy per Si atom -12403.248619 kJ/mol
# Density = 2.175018 g / cm^3
# Si number density = 21.799799 Si / 1000 Ang^3
#
#
#
# Elastic Constant Matrix: (Units=GPa)
#
#
# Indices 1 2 3 4 5 6 
#
# 1 152.9962 31.1729 46.0492 -0.0002 2.7079 0.0004
# 2 31.1729 93.3715 19.8500 -0.0014 5.6505 0.0034
# 3 46.0492 19.8500 97.9777 0.0002 2.7816 -0.0002
# 4 -0.0002 -0.0014 0.0002 43.2483 -0.0001 -3.6708
# 5 2.7079 5.6505 2.7816 -0.0001 41.3465 -0.0010
# 6 0.0004 0.0034 -0.0002 -3.6708 -0.0010 35.9768
#
#
#
# Elastic Compliance Matrix: (Units=1/GPa)
#
#
# Indices 1 2 3 4 5 6 
#
# 1 0.007936 -0.001938 -0.003336 0.000000 -0.000030 0.000000
# 2 -0.001938 0.011744 -0.001429 0.000000 -0.001382 -0.000001
# 3 -0.003336 -0.001429 0.012075 0.000000 -0.000399 0.000000
# 4 0.000000 0.000000 0.000000 0.023324 0.000000 0.002380
# 5 -0.000030 -0.001382 -0.000399 0.000000 0.024403 0.000001
# 6 0.000000 -0.000001 0.000000 0.002380 0.000001 0.028038
#
#
# Mechanical properties :
#
#
# Convention : Reuss Voigt Hill
#
# Bulk Modulus (GPa) = 54.50155 59.83218 57.16686
# Shear Modulus (GPa) = 39.35609 40.59922 39.97766
#
# Velocity S-wave (km/s) = 4.25354 4.32020 4.28700
# Velocity P-wave (km/s) = 7.01275 7.23818 7.12636
#
# Compressibility (1/GPa) = 0.01834810
#
# Stress axis : x y z
#
# Youngs Moduli (GPa) = 126.01251 85.14634 82.81389
#
# Poissons Ratio (x) = 0.16504 0.27628
# Poissons Ratio (y) = 0.24425 0.11835
# Poissons Ratio (z) = 0.42040 0.12169
#
# Static dielectric constant tensor:
#      x y z
#    x 4.066000 -0.000020 0.619340 
#    y -0.000020 3.975890 0.000110 
#    z 0.619340 0.000110 1.351090 
# 
# 
# High freq. dielectric constant tensor:
#      x y z
#    x 1.876700 0.000000 0.000560 
#    y 0.000000 1.865060 0.000000 
#    z 0.000560 0.000000 1.837950 
# 
# From -- ./inp_files/275874.got.cif
#   From: 2010.06.25/outbox.cif.g09.slc.cpg/sg15_138_cif.got.tgz:275874.got - 2010.06.28 07:06:18.
