data_PCOD8148563
_publ_section_title
;
Structure prediction by ZEFSAII (Michael W. Deem and Ramdas Pophale) SiO2 
 PCOD8148563
Probable space group: C 2/C
;
_chemical_formula_sum "Si O2"
_cell_formula_units_Z 40
_cell_length_a 14.551926
_cell_length_b 22.909728
_cell_length_c 8.332317
_cell_angle_alpha 90.000000
_cell_angle_beta 41.427205
_cell_angle_gamma 90.000000
_cell_volume 1838.003345
_symmetry_space_group_name_H-M "C 2/C"
_symmetry_group_IT_number 15
_symmetry_cell_setting 'monoclinic'
loop_
_space_group_symop_operation_xyz
x,y,z
-x,y,1/2-z
-x,-y,-z
x,-y,1/2+z
1/2+x,1/2+y,z
1/2-x,1/2+y,1/2-z
1/2-x,1/2-y,-z
1/2+x,1/2-y,1/2+z
loop_
_atom_site_type_symbol
_atom_site_label
_atom_site_fract_x
_atom_site_fract_y
_atom_site_fract_z
Si Si1 0.968588 0.786655 0.959266
Si Si2 0.853984 0.127238 0.861579
Si Si3 0.351477 0.958052 0.025243
Si Si4 0.754074 0.312706 0.699034
Si Si5 0.851714 0.581762 0.893886
O O1 0.116157 0.773231 0.852669
O O2 0.000000 0.818800 0.750000
O O3 0.874027 0.827927 0.190308
O O4 0.890684 0.726617 0.018807
O O5 0.000000 0.108349 0.750000
O O6 0.776485 0.070650 0.899415
O O7 0.751925 0.158097 0.119543
O O8 0.500000 0.942360 0.750000
O O9 0.321247 0.026973 0.051298
O O10 0.348485 0.938360 0.213819
O O11 0.751233 0.363792 0.566187
O O12 0.000000 0.607095 0.750000
#
# Coordination Sequence:
#
# PCOD8148563 Si02
#       5
#     8   8   8   8   8
#     4  11  23  39  60  88 122 164 209 255 305 362
#     4  10  23  42  62  92 129 164 204 254 310 368
#     4  11  22  40  67  95 124 163 207 253 307 369
#     4  11  23  41  62  89 125 164 207 255 306 364
#     4  11  22  40  65  96 126 161 205 257 309 367
#
# _framework density 21.762744999999999
#
# number of rings (size 3 to 8) (size 9 to 14) (size 15 to 20)
#    0.000    1.200    0.000    7.800    0.000    3.200 
#    0.000   10.000    0.000    0.000    0.000    0.000 
#    0.000    0.000    0.000    0.000    0.000    0.000 
#
# Total GULP energy -247966.780092 kJ/mol
# GULP energy per Si atom -12398.339005 kJ/mol
# Density = 2.171321 g / cm^3
# Si number density = 21.762745 Si / 1000 Ang^3
#
#
#
# Elastic Constant Matrix: (Units=GPa)
#
#
# Indices 1 2 3 4 5 6 
#
# 1 91.3494 46.5714 36.3209 0.0000 -4.9611 0.0000
# 2 46.5714 112.6043 61.2721 0.0000 -12.4705 0.0000
# 3 36.3209 61.2721 109.8625 0.0000 14.3638 0.0000
# 4 0.0000 0.0000 0.0000 62.3489 0.0000 2.3685
# 5 -4.9611 -12.4705 14.3638 0.0000 41.4100 0.0000
# 6 0.0000 0.0000 0.0000 2.3685 0.0000 29.9684
#
#
#
# Elastic Compliance Matrix: (Units=1/GPa)
#
#
# Indices 1 2 3 4 5 6 
#
# 1 0.014229 -0.004466 -0.002368 0.000000 0.001181 0.000000
# 2 -0.004466 0.016146 -0.008479 0.000000 0.007268 0.000000
# 3 -0.002368 -0.008479 0.015697 0.000000 -0.008282 0.000000
# 4 0.000000 0.000000 0.000000 0.016087 0.000000 -0.001271
# 5 0.001181 0.007268 -0.008282 0.000000 0.029352 0.000000
# 6 0.000000 0.000000 0.000000 -0.001271 0.000000 0.033469
#
#
# Mechanical properties :
#
#
# Convention : Reuss Voigt Hill
#
# Bulk Modulus (GPa) = 64.73770 66.90498 65.82134
# Shear Modulus (GPa) = 31.10324 38.05559 34.57942
#
# Velocity S-wave (km/s) = 3.78457 4.18623 3.99046
# Velocity P-wave (km/s) = 6.99349 7.36041 7.17930
#
# Compressibility (1/GPa) = 0.01544695
#
# Stress axis : x y z
#
# Youngs Moduli (GPa) = 70.27714 61.93395 63.70687
#
# Poissons Ratio (x) = 0.27657 0.15087
# Poissons Ratio (y) = 0.31383 0.54017
# Poissons Ratio (z) = 0.16643 0.52514
#
# Static dielectric constant tensor:
#      x y z
#    x 4.023400 0.000000 0.137090 
#    y 0.000000 3.738570 0.000000 
#    z 0.137090 0.000000 4.138820 
# 
# 
# High freq. dielectric constant tensor:
#      x y z
#    x 1.866370 0.000000 0.008610 
#    y 0.000000 1.844960 0.000000 
#    z 0.008610 0.000000 1.867790 
# 
# From -- ./inp_files/41957.got.cif
#   From: 2010.06.25/outbox.cif.g09.slc.cpg/sg15_21_cif.got.tgz:41957.got - 2010.06.28 07:06:18.
