data_PCOD8148658
_publ_section_title
;
Structure prediction by ZEFSAII (Michael W. Deem and Ramdas Pophale) SiO2 
 PCOD8148658
Probable space group: C 2/C
;
_chemical_formula_sum "Si O2"
_cell_formula_units_Z 48
_cell_length_a 18.683081
_cell_length_b 27.734665
_cell_length_c 9.706141
_cell_angle_alpha 90.000000
_cell_angle_beta 28.712455
_cell_angle_gamma 90.000000
_cell_volume 2416.205216
_symmetry_space_group_name_H-M "C 2/C"
_symmetry_group_IT_number 15
_symmetry_cell_setting 'monoclinic'
loop_
_space_group_symop_operation_xyz
x,y,z
-x,y,1/2-z
-x,-y,-z
x,-y,1/2+z
1/2+x,1/2+y,z
1/2-x,1/2+y,1/2-z
1/2-x,1/2-y,-z
1/2+x,1/2-y,1/2+z
loop_
_atom_site_type_symbol
_atom_site_label
_atom_site_fract_x
_atom_site_fract_y
_atom_site_fract_z
Si Si1 0.626137 0.872736 0.132469
Si Si2 0.153952 0.952921 0.807290
Si Si3 0.931120 0.380585 0.728408
Si Si4 0.834285 0.263643 0.495395
Si Si5 0.316480 0.542132 0.924246
Si Si6 0.342239 0.775078 0.964373
O O1 0.500000 0.897013 0.250000
O O2 0.562241 0.871008 0.395647
O O3 0.669403 0.821507 0.991292
O O4 0.774110 0.903864 0.868404
O O5 0.223819 0.993637 0.589792
O O6 0.186468 0.968804 0.908531
O O7 0.977687 0.942810 0.092326
O O8 0.859181 0.329795 0.888711
O O9 0.000000 0.404064 0.750000
O O10 0.801964 0.415563 0.895544
O O11 0.750000 0.250000 0.500000
O O12 0.000000 0.246116 0.250000
O O13 0.753374 0.230777 0.740669
O O14 0.500000 0.752379 0.750000
O O15 0.250000 0.750000 0.000000
#
# Coordination Sequence:
#
# PCOD8148658 Si02
#       6
#     8   8   8   8   8   8
#     4  11  22  42  64  92 126 166 214 259 309 374
#     4  10  23  42  66  94 126 163 208 260 312 379
#     4  11  24  42  62  93 131 165 209 263 313 372
#     4  11  23  41  63  91 127 167 212 265 313 374
#     4  10  23  43  64  94 128 163 206 258 317 372
#     4  11  23  41  63  92 127 167 212 263 318 373
#
# _framework density 19.865860999999999
#
# number of rings (size 3 to 8) (size 9 to 14) (size 15 to 20)
#    0.000    1.333    1.667    5.000    2.333    4.000 
#    0.000    0.000    0.000    0.000    0.000    0.000 
#    0.000    0.000    0.000    0.000    0.000    0.000 
#
# Total GULP energy -297323.131784 kJ/mol
# GULP energy per Si atom -12388.463824 kJ/mol
# Density = 1.982065 g / cm^3
# Si number density = 19.865861 Si / 1000 Ang^3
#
#
#
# Elastic Constant Matrix: (Units=GPa)
#
#
# Indices 1 2 3 4 5 6 
#
# 1 129.2305 21.4463 31.1078 0.0002 -6.9341 -0.0002
# 2 21.4463 76.8621 49.3750 0.0000 -3.1470 -0.0001
# 3 31.1078 49.3750 112.4835 -0.0001 10.4893 0.0001
# 4 0.0002 0.0000 -0.0001 37.5987 0.0001 -1.5801
# 5 -6.9341 -3.1470 10.4893 0.0001 44.9177 -0.0001
# 6 -0.0002 -0.0001 0.0001 -1.5801 -0.0001 35.0667
#
#
#
# Elastic Compliance Matrix: (Units=1/GPa)
#
#
# Indices 1 2 3 4 5 6 
#
# 1 0.008493 -0.000956 -0.002091 0.000000 0.001732 0.000000
# 2 -0.000956 0.018688 -0.008226 0.000000 0.003083 0.000000
# 3 -0.002091 -0.008226 0.013456 0.000000 -0.004041 0.000000
# 4 0.000000 0.000000 0.000000 0.026647 0.000000 0.001201
# 5 0.001732 0.003083 -0.004041 0.000000 0.023690 0.000000
# 6 0.000000 0.000000 0.000000 0.001201 0.000000 0.028571
#
#
# Mechanical properties :
#
#
# Convention : Reuss Voigt Hill
#
# Bulk Modulus (GPa) = 55.27486 58.04823 56.66155
# Shear Modulus (GPa) = 33.75622 37.95975 35.85798
#
# Velocity S-wave (km/s) = 4.12662 4.37602 4.25314
# Velocity P-wave (km/s) = 7.11265 7.40380 7.25968
#
# Compressibility (1/GPa) = 0.01809141
#
# Stress axis : x y z
#
# Youngs Moduli (GPa) = 117.74460 53.51161 74.31535
#
# Poissons Ratio (x) = 0.05114 0.15538
# Poissons Ratio (y) = 0.11253 0.61133
# Poissons Ratio (z) = 0.24618 0.44019
#
# Static dielectric constant tensor:
#      x y z
#    x 4.003230 0.000000 0.002560 
#    y 0.000000 3.508440 0.000000 
#    z 0.002560 0.000000 3.753450 
# 
# 
# High freq. dielectric constant tensor:
#      x y z
#    x 1.798030 0.000000 0.002590 
#    y 0.000000 1.765370 0.000000 
#    z 0.002590 0.000000 1.786400 
# 
# From -- ./inp_files/52723.got.cif
#   From: 2010.06.25/outbox.cif.g09.slc.cpg/sg15_27_cif.got.tgz:52723.got - 2010.06.28 07:06:18.
