data_PCOD8148730
_publ_section_title
;
Structure prediction by ZEFSAII (Michael W. Deem and Ramdas Pophale) SiO2 
 PCOD8148730
Probable space group: C 2/C
;
_chemical_formula_sum "Si O2"
_cell_formula_units_Z 52
_cell_length_a 10.395785
_cell_length_b 25.704410
_cell_length_c 11.187355
_cell_angle_alpha 90.000000
_cell_angle_beta 127.211121
_cell_angle_gamma 90.000000
_cell_volume 2380.841282
_symmetry_space_group_name_H-M "C 2/C"
_symmetry_group_IT_number 15
_symmetry_cell_setting 'monoclinic'
loop_
_space_group_symop_operation_xyz
x,y,z
-x,y,1/2-z
-x,-y,-z
x,-y,1/2+z
1/2+x,1/2+y,z
1/2-x,1/2+y,1/2-z
1/2-x,1/2-y,-z
1/2+x,1/2-y,1/2+z
loop_
_atom_site_type_symbol
_atom_site_label
_atom_site_fract_x
_atom_site_fract_y
_atom_site_fract_z
Si Si1 0.341755 0.079575 0.093350
Si Si2 0.463253 0.123891 0.928176
Si Si3 0.275226 0.803951 0.871453
Si Si4 0.500000 0.550891 0.250000
Si Si5 0.438657 0.627802 0.412235
Si Si6 0.232984 0.186216 0.630484
Si Si7 0.852178 0.522817 0.493602
O O1 0.500000 0.099752 0.250000
O O2 0.188912 0.103443 0.070614
O O3 0.334739 0.016145 0.096976
O O4 0.341332 0.096629 0.953358
O O5 0.375724 0.153347 0.770913
O O6 0.593461 0.082139 0.946214
O O7 0.556969 0.166813 0.061425
O O8 0.131636 0.831430 0.721382
O O9 0.274860 0.744856 0.823931
O O10 0.253813 0.810190 0.000811
O O11 0.528094 0.583314 0.386825
O O12 0.672591 0.520938 0.330078
O O13 0.566721 0.657164 0.567872
O O14 0.000000 0.500000 0.500000
#
# Coordination Sequence:
#
# PCOD8148730 Si02
#       7
#     8   8   8   4   8   8   8
#     4  11  24  43  67  91 133 186 225 279 352 415
#     4  11  22  44  67  96 136 177 227 285 342 409
#     4  11  21  43  66  98 138 176 229 277 349 404
#     4  12  22  42  68  96 130 180 224 284 348 404
#     4  12  22  42  66  96 139 177 222 286 345 412
#     4  11  24  37  70 104 130 178 229 291 334 404
#     4  10  23  42  68  96 134 180 234 281 341 412
#
# _framework density 21.841018999999999
#
# number of rings (size 3 to 8) (size 9 to 14) (size 15 to 20)
#    0.000    0.923    4.615    2.308    0.000    8.615 
#    0.000    4.615    0.000    0.000    0.000    0.000 
#    0.000    0.000    0.000    0.000    0.000    0.000 
#
# Total GULP energy -322198.604942 kJ/mol
# GULP energy per Si atom -12392.254036 kJ/mol
# Density = 2.179131 g / cm^3
# Si number density = 21.841019 Si / 1000 Ang^3
#
#
#
# Elastic Constant Matrix: (Units=GPa)
#
#
# Indices 1 2 3 4 5 6 
#
# 1 108.5776 50.7948 29.4123 0.0000 20.7035 0.0000
# 2 50.7948 133.2914 49.6105 0.0000 13.3106 0.0000
# 3 29.4123 49.6105 91.6509 0.0000 30.1846 0.0000
# 4 0.0000 0.0000 0.0000 28.3288 0.0000 10.3796
# 5 20.7035 13.3106 30.1846 0.0000 42.6217 0.0000
# 6 0.0000 0.0000 0.0000 10.3796 0.0000 11.5652
#
#
#
# Elastic Compliance Matrix: (Units=1/GPa)
#
#
# Indices 1 2 3 4 5 6 
#
# 1 0.012007 -0.004060 -0.000199 0.000000 -0.004424 0.000000
# 2 -0.004060 0.010793 -0.005319 0.000000 0.002369 0.000000
# 3 -0.000199 -0.005319 0.017313 0.000000 -0.010504 0.000000
# 4 0.000000 0.000000 0.000000 0.052595 0.000000 -0.047204
# 5 -0.004424 0.002369 -0.010504 0.000000 0.032310 0.000000
# 6 0.000000 0.000000 0.000000 -0.047204 0.000000 0.128831
#
#
# Mechanical properties :
#
#
# Convention : Reuss Voigt Hill
#
# Bulk Modulus (GPa) = 47.71650 65.90613 56.81131
# Shear Modulus (GPa) = 17.85776 30.08328 23.97052
#
# Velocity S-wave (km/s) = 2.86252 3.71533 3.31645
# Velocity P-wave (km/s) = 5.72887 6.97465 6.38223
#
# Compressibility (1/GPa) = 0.02095711
#
# Stress axis : x y z
#
# Youngs Moduli (GPa) = 83.28774 92.65456 57.75881
#
# Poissons Ratio (x) = 0.37616 0.01147
# Poissons Ratio (y) = 0.33813 0.30724
# Poissons Ratio (z) = 0.01655 0.49286
#
# Static dielectric constant tensor:
#      x y z
#    x 3.866640 0.000000 0.259430 
#    y 0.000000 4.536420 0.000000 
#    z 0.259430 0.000000 3.926660 
# 
# 
# High freq. dielectric constant tensor:
#      x y z
#    x 1.848990 0.000000 0.022220 
#    y 0.000000 1.871520 0.000000 
#    z 0.022220 0.000000 1.847840 
# 
# From -- ./inp_files/91310.got.cif
#   From: 2010.06.25/outbox.cif.g09.slc.cpg/sg15_46_cif.got.tgz:91310.got - 2010.06.28 07:06:18.
