data_PCOD8148994
_publ_section_title
;
Structure prediction by ZEFSAII (Michael W. Deem and Ramdas Pophale) SiO2 
 PCOD8148994
Probable space group: C 2/C
;
_chemical_formula_sum "Si O2"
_cell_formula_units_Z 40
_cell_length_a 10.543430
_cell_length_b 18.428058
_cell_length_c 9.037188
_cell_angle_alpha 90.000000
_cell_angle_beta 104.076209
_cell_angle_gamma 90.000000
_cell_volume 1703.156246
_symmetry_space_group_name_H-M "C 2/C"
_symmetry_group_IT_number 15
_symmetry_cell_setting 'monoclinic'
loop_
_space_group_symop_operation_xyz
x,y,z
-x,y,1/2-z
-x,-y,-z
x,-y,1/2+z
1/2+x,1/2+y,z
1/2-x,1/2+y,1/2-z
1/2-x,1/2-y,-z
1/2+x,1/2-y,1/2+z
loop_
_atom_site_type_symbol
_atom_site_label
_atom_site_fract_x
_atom_site_fract_y
_atom_site_fract_z
Si Si1 0.369080 0.046628 0.948573
Si Si2 0.272653 0.076841 0.593410
Si Si3 0.234255 0.673772 0.413975
Si Si4 0.491252 0.342051 0.420619
Si Si5 0.353157 0.203645 0.439408
O O1 0.329749 0.060701 0.769869
O O2 0.376075 0.123674 0.037650
O O3 0.500000 0.000000 0.000000
O O4 0.258860 0.997229 0.997136
O O5 0.130195 0.112918 0.550977
O O6 0.378515 0.130505 0.541638
O O7 0.250000 0.750000 0.500000
O O8 0.374170 0.632319 0.466009
O O9 0.203286 0.682311 0.235053
O O10 0.500000 0.355491 0.250000
O O11 0.478798 0.255127 0.450696
O O12 0.250000 0.250000 0.500000
#
# Coordination Sequence:
#
# PCOD8148994 Si02
#       5
#     8   8   8   8   8
#     4  12  27  47  71 105 148 196 244 305 374 447
#     4  11  25  47  69 106 147 193 247 302 374 438
#     4  12  24  45  78 108 145 197 247 304 377 438
#     4  11  22  46  75 108 146 191 248 312 362 448
#     4  10  23  43  70 110 147 190 245 301 373 440
#
# _framework density 23.485807999999999
#
# number of rings (size 3 to 8) (size 9 to 14) (size 15 to 20)
#    0.000    0.800    4.000    3.000    2.800    4.000 
#    7.200    0.000    0.000    0.000    0.000    0.000 
#    0.000    0.000    0.000    0.000    0.000    0.000 
#
# Total GULP energy -247980.221476 kJ/mol
# GULP energy per Si atom -12399.011074 kJ/mol
# Density = 2.343235 g / cm^3
# Si number density = 23.485808 Si / 1000 Ang^3
#
#
#
# Elastic Constant Matrix: (Units=GPa)
#
#
# Indices 1 2 3 4 5 6 
#
# 1 94.5390 34.3613 35.5155 0.0000 3.2203 0.0000
# 2 34.3613 157.0120 67.9240 0.0000 -14.1101 0.0000
# 3 35.5155 67.9240 195.7022 0.0000 -13.2857 0.0000
# 4 0.0000 0.0000 0.0000 47.4356 0.0000 -16.0490
# 5 3.2203 -14.1101 -13.2857 0.0000 34.7626 0.0000
# 6 0.0000 0.0000 0.0000 -16.0490 0.0000 42.9954
#
#
#
# Elastic Compliance Matrix: (Units=1/GPa)
#
#
# Indices 1 2 3 4 5 6 
#
# 1 0.012064 -0.002178 -0.001611 0.000000 -0.002617 0.000000
# 2 -0.002178 0.008040 -0.002218 0.000000 0.002618 0.000000
# 3 -0.001611 -0.002218 0.006284 0.000000 0.001651 0.000000
# 4 0.000000 0.000000 0.000000 0.024128 0.000000 0.009006
# 5 -0.002617 0.002618 0.001651 0.000000 0.030702 0.000000
# 6 0.000000 0.000000 0.000000 0.009006 0.000000 0.026620
#
#
# Mechanical properties :
#
#
# Convention : Reuss Voigt Hill
#
# Bulk Modulus (GPa) = 69.56948 80.31720 74.94334
# Shear Modulus (GPa) = 40.11425 45.66890 42.89157
#
# Velocity S-wave (km/s) = 4.13730 4.41447 4.27813
# Velocity P-wave (km/s) = 7.24633 7.76246 7.50883
#
# Compressibility (1/GPa) = 0.01437412
#
# Stress axis : x y z
#
# Youngs Moduli (GPa) = 82.89299 124.37421 159.13764
#
# Poissons Ratio (x) = 0.27094 0.25635
# Poissons Ratio (y) = 0.18058 0.35289
# Poissons Ratio (z) = 0.13353 0.27581
#
# Static dielectric constant tensor:
#      x y z
#    x 4.869430 0.000000 -0.096450 
#    y 0.000000 5.222470 0.000000 
#    z -0.096450 0.000000 4.301560 
# 
# 
# High freq. dielectric constant tensor:
#      x y z
#    x 1.939740 0.000000 -0.019680 
#    y 0.000000 1.948730 0.000000 
#    z -0.019680 0.000000 1.930720 
# 
# From -- ./inp_files/29337.got.cif
#   From: 2010.06.25/outbox.cif.g09.slc.cpg/sg15_15_cif.got.tgz:29337.got - 2010.06.28 07:06:18.
