data_PCOD8148677
_publ_section_title
;
Structure prediction by ZEFSAII (Michael W. Deem and Ramdas Pophale) SiO2 
 PCOD8148677
Probable space group: C 2/C
;
_chemical_formula_sum "Si O2"
_cell_formula_units_Z 60
_cell_length_a 16.716946
_cell_length_b 8.898575
_cell_length_c 20.410007
_cell_angle_alpha 90.000000
_cell_angle_beta 61.172467
_cell_angle_gamma 90.000000
_cell_volume 2659.879017
_symmetry_space_group_name_H-M "C 2/C"
_symmetry_group_IT_number 15
_symmetry_cell_setting 'monoclinic'
loop_
_space_group_symop_operation_xyz
x,y,z
-x,y,1/2-z
-x,-y,-z
x,-y,1/2+z
1/2+x,1/2+y,z
1/2-x,1/2+y,1/2-z
1/2-x,1/2-y,-z
1/2+x,1/2-y,1/2+z
loop_
_atom_site_type_symbol
_atom_site_label
_atom_site_fract_x
_atom_site_fract_y
_atom_site_fract_z
Si Si1 0.500000 0.352891 0.750000
Si Si2 0.829769 0.013049 0.271803
Si Si3 0.560231 0.990049 0.411153
Si Si4 0.773403 0.665484 0.592714
Si Si5 0.260501 0.951452 0.958942
Si Si6 0.181403 0.766711 0.335864
Si Si7 0.920063 0.326854 0.394170
Si Si8 0.910797 0.088447 0.507786
O O1 0.562936 0.450706 0.773369
O O2 0.568062 0.258003 0.678371
O O3 0.772573 0.167868 0.290039
O O4 0.809016 0.938788 0.350443
O O5 0.812638 0.888053 0.223917
O O6 0.640851 0.867871 0.392870
O O7 0.500183 0.948093 0.371374
O O8 0.500000 0.000000 0.500000
O O9 0.597053 0.151064 0.372581
O O10 0.737811 0.838252 0.604729
O O11 0.802130 0.624400 0.507420
O O12 0.320132 0.101362 0.925421
O O13 0.152560 0.984449 0.013565
O O14 0.164855 0.864680 0.407746
O O15 0.937376 0.230124 0.453410
O O16 0.000000 0.000000 0.500000
#
# Coordination Sequence:
#
# PCOD8148677 Si02
#       8
#     4   8   8   8   8   8   8   8
#     4  12  28  44  66 100 142 182 228 290 356 410
#     4  11  26  47  67  98 144 179 236 285 355 417
#     4  11  21  44  70 101 133 176 239 288 347 417
#     4  10  23  42  66  99 134 180 220 296 342 418
#     4  11  23  39  68  97 136 178 230 283 358 409
#     4  11  26  43  74  99 137 187 232 290 347 418
#     4  12  24  42  68  98 142 181 231 294 351 427
#     4  12  24  41  69 101 134 185 243 289 347 428
#
# _framework density 22.557417000000001
#
# number of rings (size 3 to 8) (size 9 to 14) (size 15 to 20)
#    0.000    0.800    2.667    4.400    5.600    2.133 
#    0.000    0.000    0.000    0.000    0.000    0.000 
#    0.000    0.000    0.000    0.000    0.000    0.000 
#
# Total GULP energy -371716.206035 kJ/mol
# GULP energy per Si atom -12390.540201 kJ/mol
# Density = 2.250607 g / cm^3
# Si number density = 22.557417 Si / 1000 Ang^3
#
#
#
# Elastic Constant Matrix: (Units=GPa)
#
#
# Indices 1 2 3 4 5 6 
#
# 1 137.2095 56.6697 28.0953 0.0000 -14.1938 0.0001
# 2 56.6697 117.1516 44.2262 0.0000 -3.4555 0.0003
# 3 28.0953 44.2262 90.6060 0.0000 -2.4600 0.0000
# 4 0.0000 0.0000 0.0000 46.2689 0.0000 -1.2875
# 5 -14.1938 -3.4555 -2.4600 0.0000 28.7013 0.0000
# 6 0.0001 0.0003 0.0000 -1.2875 0.0000 38.6319
#
#
#
# Elastic Compliance Matrix: (Units=1/GPa)
#
#
# Indices 1 2 3 4 5 6 
#
# 1 0.009634 -0.004232 -0.000808 0.000000 0.004186 0.000000
# 2 -0.004232 0.012343 -0.004740 0.000000 -0.001013 0.000000
# 3 -0.000808 -0.004740 0.013606 0.000000 0.000196 0.000000
# 4 0.000000 0.000000 0.000000 0.021633 0.000000 0.000721
# 5 0.004186 -0.001013 0.000196 0.000000 0.036806 0.000000
# 6 0.000000 0.000000 0.000000 0.000721 0.000000 0.025909
#
#
# Mechanical properties :
#
#
# Convention : Reuss Voigt Hill
#
# Bulk Modulus (GPa) = 62.40859 66.99440 64.70149
# Shear Modulus (GPa) = 34.52252 37.11880 35.82066
#
# Velocity S-wave (km/s) = 3.91631 4.06091 3.98927
# Velocity P-wave (km/s) = 6.94094 7.19388 7.06854
#
# Compressibility (1/GPa) = 0.01602344
#
# Stress axis : x y z
#
# Youngs Moduli (GPa) = 103.79406 81.02079 73.49534
#
# Poissons Ratio (x) = 0.34287 0.05940
# Poissons Ratio (y) = 0.43925 0.34836
# Poissons Ratio (z) = 0.08388 0.38403
#
# Static dielectric constant tensor:
#      x y z
#    x 4.067980 0.000000 -0.110000 
#    y 0.000000 4.341950 0.000000 
#    z -0.110000 0.000000 3.958100 
# 
# 
# High freq. dielectric constant tensor:
#      x y z
#    x 1.895810 0.000000 -0.004310 
#    y 0.000000 1.901920 0.000000 
#    z -0.004310 0.000000 1.878260 
# 
# From -- ./inp_files/247803.got.cif
#   From: 2010.06.25/outbox.cif.g09.slc.cpg/sg15_124_cif.got.tgz:247803.got - 2010.06.28 07:06:18.
