data_PCOD8148342
_publ_section_title
;
Structure prediction by ZEFSAII (Michael W. Deem and Ramdas Pophale) SiO2 
 PCOD8148342
Probable space group: C 2/C
;
_chemical_formula_sum "Si O2"
_cell_formula_units_Z 56
_cell_length_a 12.319309
_cell_length_b 27.991151
_cell_length_c 9.349766
_cell_angle_alpha 90.000000
_cell_angle_beta 57.505731
_cell_angle_gamma 90.000000
_cell_volume 2719.347512
_symmetry_space_group_name_H-M "C 2/C"
_symmetry_group_IT_number 15
_symmetry_cell_setting 'monoclinic'
loop_
_space_group_symop_operation_xyz
x,y,z
-x,y,1/2-z
-x,-y,-z
x,-y,1/2+z
1/2+x,1/2+y,z
1/2-x,1/2+y,1/2-z
1/2-x,1/2-y,-z
1/2+x,1/2-y,1/2+z
loop_
_atom_site_type_symbol
_atom_site_label
_atom_site_fract_x
_atom_site_fract_y
_atom_site_fract_z
Si Si1 0.240827 0.301053 0.931486
Si Si2 0.122773 0.630983 0.747148
Si Si3 0.385189 0.963734 0.625245
Si Si4 0.618346 0.411970 0.436663
Si Si5 0.500000 0.343536 0.750000
Si Si6 0.215318 0.001452 0.999347
Si Si7 0.500000 0.433749 0.250000
Si Si8 0.040308 0.352395 0.885024
O O1 0.384335 0.311490 0.770558
O O2 0.148420 0.313612 0.860450
O O3 0.250000 0.250000 0.000000
O O4 0.192216 0.331522 0.098187
O O5 0.228963 0.591179 0.707658
O O6 0.000000 0.608160 0.750000
O O7 0.081597 0.656198 0.924707
O O8 0.281237 0.965121 0.572191
O O9 0.424020 0.908323 0.616978
O O10 0.500000 0.000000 0.500000
O O11 0.322934 0.979150 0.819738
O O12 0.567647 0.375424 0.585895
O O13 0.606904 0.466741 0.495709
O O14 0.526157 0.401065 0.368351
O O15 0.133770 0.961403 0.136422
O O16 0.000000 0.341793 0.750000
#
# Coordination Sequence:
#
# PCOD8148342 Si02
#       8
#     8   8   8   8   4   8   4   8
#     4  10  23  43  73  99 127 169 217 277 343 424
#     4   9  20  41  65  93 122 166 208 277 337 403
#     4  12  25  41  64  98 133 180 229 279 333 396
#     4  11  23  40  60  87 129 171 224 272 329 384
#     4  10  23  40  70  96 122 170 226 272 331 416
#     4  12  24  40  58  88 133 176 229 275 317 393
#     4  12  27  38  56  86 130 184 220 268 329 388
#     4  11  24  40  68 101 137 172 222 279 350 394
#
# _framework density 20.593174000000001
#
# number of rings (size 3 to 8) (size 9 to 14) (size 15 to 20)
#    0.000    1.143    1.429    5.571    9.000    1.143 
#    0.000    0.714    6.286    0.000    0.000    0.000 
#    0.000    0.000    0.000    0.000    0.000    0.000 
#
# Total GULP energy -346896.294119 kJ/mol
# GULP energy per Si atom -12389.153361 kJ/mol
# Density = 2.054630 g / cm^3
# Si number density = 20.593174 Si / 1000 Ang^3
#
#
#
# Elastic Constant Matrix: (Units=GPa)
#
#
# Indices 1 2 3 4 5 6 
#
# 1 142.5207 44.1879 55.4888 0.0000 10.5474 0.0000
# 2 44.1879 75.1648 4.1120 0.0000 -2.2293 0.0000
# 3 55.4888 4.1120 103.1454 0.0000 -2.2441 0.0000
# 4 0.0000 0.0000 0.0000 24.2664 0.0000 3.8941
# 5 10.5474 -2.2293 -2.2441 0.0000 43.7985 0.0000
# 6 0.0000 0.0000 0.0000 3.8941 0.0000 26.9025
#
#
#
# Elastic Compliance Matrix: (Units=1/GPa)
#
#
# Indices 1 2 3 4 5 6 
#
# 1 0.011718 -0.006657 -0.006114 0.000000 -0.003474 0.000000
# 2 -0.006657 0.017134 0.002956 0.000000 0.002627 0.000000
# 3 -0.006114 0.002956 0.012916 0.000000 0.002285 0.000000
# 4 0.000000 0.000000 0.000000 0.042189 0.000000 -0.006107
# 5 -0.003474 0.002627 0.002285 0.000000 0.023919 0.000000
# 6 0.000000 0.000000 0.000000 -0.006107 0.000000 0.038055
#
#
# Mechanical properties :
#
#
# Convention : Reuss Voigt Hill
#
# Bulk Modulus (GPa) = 45.17461 58.71204 51.94332
# Shear Modulus (GPa) = 28.91123 33.46296 31.18710
#
# Velocity S-wave (km/s) = 3.75096 4.03545 3.89580
# Velocity P-wave (km/s) = 6.38310 7.09122 6.74646
#
# Compressibility (1/GPa) = 0.02213633
#
# Stress axis : x y z
#
# Youngs Moduli (GPa) = 85.33702 58.36313 77.42233
#
# Poissons Ratio (x) = 0.38855 0.47338
# Poissons Ratio (y) = 0.56813 -0.22883
# Poissons Ratio (z) = 0.52177 -0.17250
#
# Static dielectric constant tensor:
#      x y z
#    x 4.325140 0.000000 -0.267310 
#    y 0.000000 3.620600 0.000000 
#    z -0.267310 0.000000 4.180190 
# 
# 
# High freq. dielectric constant tensor:
#      x y z
#    x 1.815070 0.000000 -0.007220 
#    y 0.000000 1.775080 0.000000 
#    z -0.007220 0.000000 1.823240 
# 
# From -- ./inp_files/35608.got.cif
#   From: 2010.06.25/outbox.cif.g09.slc.cpg/sg15_18_cif.got.tgz:35608.got - 2010.06.28 07:06:18.
