data_PCOD8148152
_publ_section_title
;
Structure prediction by ZEFSAII (Michael W. Deem and Ramdas Pophale) SiO2 
 PCOD8148152
Probable space group: C 2/C
;
_chemical_formula_sum "Si O2"
_cell_formula_units_Z 64
_cell_length_a 18.450746
_cell_length_b 15.686008
_cell_length_c 17.267857
_cell_angle_alpha 90.000000
_cell_angle_beta 38.583880
_cell_angle_gamma 90.000000
_cell_volume 3116.825460
_symmetry_space_group_name_H-M "C 2/C"
_symmetry_group_IT_number 15
_symmetry_cell_setting 'monoclinic'
loop_
_space_group_symop_operation_xyz
x,y,z
-x,y,1/2-z
-x,-y,-z
x,-y,1/2+z
1/2+x,1/2+y,z
1/2-x,1/2+y,1/2-z
1/2-x,1/2-y,-z
1/2+x,1/2-y,1/2+z
loop_
_atom_site_type_symbol
_atom_site_label
_atom_site_fract_x
_atom_site_fract_y
_atom_site_fract_z
Si Si1 0.594131 0.001831 0.606396
Si Si2 0.175856 0.041062 0.993893
Si Si3 0.540071 0.581342 0.514838
Si Si4 0.418034 0.923697 0.039224
Si Si5 0.910098 0.346830 0.505313
Si Si6 0.290367 0.629719 0.698274
Si Si7 0.530636 0.696327 0.143254
Si Si8 0.310234 0.318840 0.726398
O O1 0.500000 0.982335 0.750000
O O2 0.718314 0.010167 0.542593
O O3 0.590899 0.923820 0.546881
O O4 0.562542 0.087256 0.586156
O O5 0.216327 0.086237 0.880424
O O6 0.095740 0.957180 0.046653
O O7 0.102965 0.111323 0.102092
O O8 0.500000 0.500000 0.500000
O O9 0.421892 0.636404 0.622941
O O10 0.643342 0.637344 0.390632
O O11 0.481921 0.840798 0.023619
O O12 0.287335 0.930086 0.181202
O O13 0.500000 0.000000 0.000000
O O14 0.894597 0.255207 0.477331
O O15 0.795601 0.373323 0.648488
O O16 0.236154 0.723632 0.746834
O O17 0.500000 0.742683 0.250000
O O18 0.410836 0.673142 0.204244
#
# Coordination Sequence:
#
# PCOD8148152 Si02
#       8
#     8   8   8   8   8   8   8   8
#     4  11  25  39  60  95 132 176 215 270 334 392
#     4  11  23  42  61  95 136 174 218 277 340 391
#     4  10  23  40  65  92 128 179 225 277 323 387
#     4  10  23  39  63  90 125 172 224 263 319 392
#     4  11  23  38  61  94 134 175 218 263 321 407
#     4  11  22  41  65  93 132 167 228 270 327 396
#     4  12  24  37  60 101 141 176 207 265 345 411
#     4  12  22  39  64  94 128 176 222 262 327 398
#
# _framework density 20.533712999999999
#
# number of rings (size 3 to 8) (size 9 to 14) (size 15 to 20)
#    0.000    1.000    5.000    2.625   10.500    2.000 
#    0.000    0.000    0.000    0.750    3.250    0.000 
#    0.000    0.000    0.000    0.000    0.000    0.000 
#
# Total GULP energy -396591.381097 kJ/mol
# GULP energy per Si atom -12393.480659 kJ/mol
# Density = 2.048698 g / cm^3
# Si number density = 20.533713 Si / 1000 Ang^3
#
#
#
# Elastic Constant Matrix: (Units=GPa)
#
#
# Indices 1 2 3 4 5 6 
#
# 1 126.5273 23.4873 39.0438 0.0000 -4.3434 0.0000
# 2 23.4873 42.8834 22.0494 0.0000 7.9207 0.0000
# 3 39.0438 22.0494 144.6923 0.0000 -2.6439 0.0000
# 4 0.0000 0.0000 0.0000 16.3390 0.0000 8.9219
# 5 -4.3434 7.9207 -2.6439 0.0000 30.1611 0.0000
# 6 0.0000 0.0000 0.0000 8.9219 0.0000 19.3925
#
#
#
# Elastic Compliance Matrix: (Units=1/GPa)
#
#
# Indices 1 2 3 4 5 6 
#
# 1 0.009406 -0.004685 -0.001780 0.000000 0.002429 0.000000
# 2 -0.004685 0.029199 -0.003343 0.000000 -0.008636 0.000000
# 3 -0.001780 -0.003343 0.007925 0.000000 0.001316 0.000000
# 4 0.000000 0.000000 0.000000 0.081737 0.000000 -0.037605
# 5 0.002429 -0.008636 0.001316 0.000000 0.035888 0.000000
# 6 0.000000 0.000000 0.000000 -0.037605 0.000000 0.068867
#
#
# Mechanical properties :
#
#
# Convention : Reuss Voigt Hill
#
# Bulk Modulus (GPa) = 37.15558 53.69601 45.42580
# Shear Modulus (GPa) = 19.11243 28.48002 23.79622
#
# Velocity S-wave (km/s) = 3.05418 3.72827 3.40793
# Velocity P-wave (km/s) = 5.52916 6.68882 6.13644
#
# Compressibility (1/GPa) = 0.02691386
#
# Stress axis : x y z
#
# Youngs Moduli (GPa) = 106.31875 34.24770 126.18358
#
# Poissons Ratio (x) = 0.16045 0.22457
# Poissons Ratio (y) = 0.49811 0.42185
# Poissons Ratio (z) = 0.18922 0.11450
#
# Static dielectric constant tensor:
#      x y z
#    x 4.191490 0.000000 -0.118990 
#    y 0.000000 3.924360 0.000000 
#    z -0.118990 0.000000 4.304970 
# 
# 
# High freq. dielectric constant tensor:
#      x y z
#    x 1.793160 0.000000 -0.018240 
#    y 0.000000 1.785420 0.000000 
#    z -0.018240 0.000000 1.816840 
# 
# From -- ./inp_files/211363.got.cif
#   From: 2010.06.25/outbox.cif.g09.slc.cpg/sg15_106_cif.got.tgz:211363.got - 2010.06.28 07:06:18.
