data_PCOD8148206
_publ_section_title
;
Structure prediction by ZEFSAII (Michael W. Deem and Ramdas Pophale) SiO2 
 PCOD8148206
Probable space group: C 2/C
;
_chemical_formula_sum "Si O2"
_cell_formula_units_Z 56
_cell_length_a 26.834240
_cell_length_b 10.195801
_cell_length_c 14.231675
_cell_angle_alpha 90.000000
_cell_angle_beta 135.068430
_cell_angle_gamma 90.000000
_cell_volume 2749.997882
_symmetry_space_group_name_H-M "C 2/C"
_symmetry_group_IT_number 15
_symmetry_cell_setting 'monoclinic'
loop_
_space_group_symop_operation_xyz
x,y,z
-x,y,1/2-z
-x,-y,-z
x,-y,1/2+z
1/2+x,1/2+y,z
1/2-x,1/2+y,1/2-z
1/2-x,1/2-y,-z
1/2+x,1/2-y,1/2+z
loop_
_atom_site_type_symbol
_atom_site_label
_atom_site_fract_x
_atom_site_fract_y
_atom_site_fract_z
Si Si1 0.086756 0.665297 0.005689
Si Si2 0.210229 0.058261 0.005873
Si Si3 0.582400 0.373555 0.852746
Si Si4 0.680365 0.958006 0.215528
Si Si5 0.572490 0.047496 0.326149
Si Si6 0.432410 0.165262 0.826485
Si Si7 0.284813 0.158811 0.929262
O O1 0.108068 0.801892 0.983507
O O2 0.069879 0.567570 0.898990
O O3 0.013730 0.687596 0.966444
O O4 0.147590 0.604021 0.152582
O O5 0.221934 0.185229 0.087203
O O6 0.266981 0.956559 0.125087
O O7 0.226600 0.092727 0.919374
O O8 0.131128 0.001332 0.904984
O O9 0.500000 0.414440 0.750000
O O10 0.593635 0.280154 0.777484
O O11 0.618957 0.848532 0.151714
O O12 0.723538 0.909975 0.182217
O O13 0.500000 0.128269 0.250000
O O14 0.638199 0.141947 0.422864
O O15 0.575842 0.979527 0.229467
#
# Coordination Sequence:
#
# PCOD8148206 Si02
#       7
#     8   8   8   8   8   8   8
#     4   8  17  32  57  87 115 140 185 244 291 342
#     4  11  24  39  58  80 123 158 191 247 300 350
#     4   9  20  39  63  86 114 156 202 244 298 359
#     4  11  21  34  61  86 116 154 197 243 293 347
#     4   8  14  31  55  80 109 142 184 233 281 335
#     4   9  16  33  59  88 111 144 191 240 288 342
#     4  10  23  40  51  85 118 154 200 236 294 356
#
# _framework density 20.363651999999998
#
# number of rings (size 3 to 8) (size 9 to 14) (size 15 to 20)
#    0.000    2.571    1.429    2.143    2.000    2.286 
#    0.000    0.000    0.000    2.571    0.000    0.000 
#    0.000    0.000    0.000    0.000    0.000    0.000 
#
# Total GULP energy -347010.119531 kJ/mol
# GULP energy per Si atom -12393.218555 kJ/mol
# Density = 2.031730 g / cm^3
# Si number density = 20.363652 Si / 1000 Ang^3
#
#
#
# Elastic Constant Matrix: (Units=GPa)
#
#
# Indices 1 2 3 4 5 6 
#
# 1 108.4487 52.3782 30.9422 0.0000 13.5425 0.0000
# 2 52.3782 68.3421 22.9515 0.0000 7.6761 0.0000
# 3 30.9422 22.9515 57.1152 0.0000 9.7339 0.0000
# 4 0.0000 0.0000 0.0000 14.4719 0.0000 8.8283
# 5 13.5425 7.6761 9.7339 0.0000 27.6720 0.0000
# 6 0.0000 0.0000 0.0000 8.8283 0.0000 29.9537
#
#
#
# Elastic Compliance Matrix: (Units=1/GPa)
#
#
# Indices 1 2 3 4 5 6 
#
# 1 0.015767 -0.010430 -0.003753 0.000000 -0.003503 0.000000
# 2 -0.010430 0.023972 -0.003956 0.000000 -0.000154 0.000000
# 3 -0.003753 -0.003956 0.021947 0.000000 -0.004786 0.000000
# 4 0.000000 0.000000 0.000000 0.084247 0.000000 -0.024830
# 5 -0.003503 -0.000154 -0.004786 0.000000 0.039578 0.000000
# 6 0.000000 0.000000 0.000000 -0.024830 0.000000 0.040703
#
#
# Mechanical properties :
#
#
# Convention : Reuss Voigt Hill
#
# Bulk Modulus (GPa) = 39.36013 49.60553 44.48283
# Shear Modulus (GPa) = 18.45281 22.92845 20.69063
#
# Velocity S-wave (km/s) = 3.01352 3.35916 3.19102
# Velocity P-wave (km/s) = 5.61061 6.28156 5.95554
#
# Compressibility (1/GPa) = 0.02540642
#
# Stress axis : x y z
#
# Youngs Moduli (GPa) = 63.42516 41.71584 45.56352
#
# Poissons Ratio (x) = 0.43509 0.17102
# Poissons Ratio (y) = 0.66151 0.18027
# Poissons Ratio (z) = 0.23807 0.16504
#
# Static dielectric constant tensor:
#      x y z
#    x 3.839440 0.000000 0.155960 
#    y 0.000000 3.330640 0.000000 
#    z 0.155960 0.000000 3.631370 
# 
# 
# High freq. dielectric constant tensor:
#      x y z
#    x 1.805320 0.000000 0.010910 
#    y 0.000000 1.756800 0.000000 
#    z 0.010910 0.000000 1.781310 
# 
# From -- ./inp_files/177633.got.cif
#   From: 2010.06.25/outbox.cif.g09.slc.cpg/sg15_89_cif.got.tgz:177633.got - 2010.06.28 07:06:18.
