data_PCOD8148063
_publ_section_title
;
Structure prediction by ZEFSAII (Michael W. Deem and Ramdas Pophale) SiO2 
 PCOD8148063
Probable space group: C 2/C
;
_chemical_formula_sum "Si O2"
_cell_formula_units_Z 44
_cell_length_a 10.152079
_cell_length_b 21.079200
_cell_length_c 10.264122
_cell_angle_alpha 90.000000
_cell_angle_beta 108.951576
_cell_angle_gamma 90.000000
_cell_volume 2077.433808
_symmetry_space_group_name_H-M "C 2/C"
_symmetry_group_IT_number 15
_symmetry_cell_setting 'monoclinic'
loop_
_space_group_symop_operation_xyz
x,y,z
-x,y,1/2-z
-x,-y,-z
x,-y,1/2+z
1/2+x,1/2+y,z
1/2-x,1/2+y,1/2-z
1/2-x,1/2-y,-z
1/2+x,1/2-y,1/2+z
loop_
_atom_site_type_symbol
_atom_site_label
_atom_site_fract_x
_atom_site_fract_y
_atom_site_fract_z
Si Si1 0.228899 0.515466 0.209992
Si Si2 0.500029 0.656117 0.956374
Si Si3 0.000000 0.261809 0.750000
Si Si4 0.776132 0.384519 0.994729
Si Si5 0.500000 0.924136 0.250000
Si Si6 0.756227 0.349259 0.710234
Si Si7 0.500000 0.441871 0.250000
O O1 0.217809 0.575444 0.305947
O O2 0.379667 0.483929 0.276090
O O3 0.106091 0.466606 0.199936
O O4 0.222109 0.542664 0.059367
O O5 0.470522 0.720598 0.868655
O O6 0.355338 0.627762 0.957780
O O7 0.567772 0.603580 0.882241
O O8 0.603900 0.669733 0.109245
O O9 0.130783 0.306570 0.826746
O O10 0.915775 0.377654 0.125729
O O11 0.769649 0.335745 0.870629
#
# Coordination Sequence:
#
# PCOD8148063 Si02
#       7
#     8   8   4   8   4   8   4
#     4  10  23  37  66  97 140 177 214 271 333 404
#     4  11  23  44  68  98 134 174 233 274 336 402
#     4  11  25  46  68  96 126 184 230 288 332 389
#     4  10  24  40  65 101 134 176 221 274 340 395
#     4  12  21  42  61 103 150 175 218 260 342 416
#     4  10  24  42  66  97 131 173 226 276 339 387
#     4  11  22  38  67 105 136 177 220 268 338 407
#
# _framework density 21.179974999999999
#
# number of rings (size 3 to 8) (size 9 to 14) (size 15 to 20)
#    1.091    0.364    1.818    3.273    2.545    3.636 
#    3.273    0.000    0.000    0.000    0.000    0.000 
#    0.000    0.000    0.000    0.000    0.000    0.000 
#
# Total GULP energy -272694.593306 kJ/mol
# GULP energy per Si atom -12395.208787 kJ/mol
# Density = 2.113177 g / cm^3
# Si number density = 21.179975 Si / 1000 Ang^3
#
#
#
# Elastic Constant Matrix: (Units=GPa)
#
#
# Indices 1 2 3 4 5 6 
#
# 1 138.9171 49.2985 54.2773 0.0000 16.6983 0.0000
# 2 49.2985 79.6878 40.5679 0.0000 3.5280 0.0000
# 3 54.2773 40.5679 135.0268 0.0000 23.2284 0.0000
# 4 0.0000 0.0000 0.0000 18.1911 0.0000 -0.0431
# 5 16.6983 3.5280 23.2284 0.0000 40.6318 0.0000
# 6 0.0000 0.0000 0.0000 -0.0431 0.0000 -11.5668
#
#
#
# Elastic Compliance Matrix: (Units=1/GPa)
#
#
# Indices 1 2 3 4 5 6 
#
# 1 0.010129 -0.005079 -0.002113 0.000000 -0.002514 0.000000
# 2 -0.005079 0.017434 -0.003654 0.000000 0.002663 0.000000
# 3 -0.002113 -0.003654 0.010147 0.000000 -0.004615 0.000000
# 4 0.000000 0.000000 0.000000 0.054971 0.000000 -0.000205
# 5 -0.002514 0.002663 -0.004615 0.000000 0.028052 0.000000
# 6 0.000000 0.000000 0.000000 -0.000205 0.000000 -0.086454
#
#
# Mechanical properties :
#
#
# Convention : Reuss Voigt Hill
#
# Bulk Modulus (GPa) = 62.43478 71.32435 66.87957
# Shear Modulus (GPa) = 81.55253 23.41709 52.48481
#
# Velocity S-wave (km/s) = 6.21193 3.32870 4.98339
# Velocity P-wave (km/s) = 8.99961 6.96578 8.04721
#
# Compressibility (1/GPa) = 0.01601671
#
# Stress axis : x y z
#
# Youngs Moduli (GPa) = 98.72886 57.36080 98.54959
#
# Poissons Ratio (x) = 0.29134 0.20825
# Poissons Ratio (y) = 0.50145 0.36012
# Poissons Ratio (z) = 0.20863 0.20961
#
# Static dielectric constant tensor:
#      x y z
#    x 3.666760 0.000000 -0.024680 
#    y 0.000000 3.660860 0.000000 
#    z -0.024680 0.000000 3.776120 
# 
# 
# High freq. dielectric constant tensor:
#      x y z
#    x 1.826870 0.000000 0.002300 
#    y 0.000000 1.815300 0.000000 
#    z 0.002300 0.000000 1.831050 
# 
# From -- ./inp_files/79502.got.cif
#   From: 2010.06.25/outbox.cif.g09.slc.cpg/sg15_40_cif.got.tgz:79502.got - 2010.06.28 07:06:18.
