data_PCOD8148293
_publ_section_title
;
Structure prediction by ZEFSAII (Michael W. Deem and Ramdas Pophale) SiO2 
 PCOD8148293
Probable space group: C 2/C
;
_chemical_formula_sum "Si O2"
_cell_formula_units_Z 40
_cell_length_a 11.853935
_cell_length_b 18.912138
_cell_length_c 8.686212
_cell_angle_alpha 90.000000
_cell_angle_beta 82.352835
_cell_angle_gamma 90.000000
_cell_volume 1929.984609
_symmetry_space_group_name_H-M "C 2/C"
_symmetry_group_IT_number 15
_symmetry_cell_setting 'monoclinic'
loop_
_space_group_symop_operation_xyz
x,y,z
-x,y,1/2-z
-x,-y,-z
x,-y,1/2+z
1/2+x,1/2+y,z
1/2-x,1/2+y,1/2-z
1/2-x,1/2-y,-z
1/2+x,1/2-y,1/2+z
loop_
_atom_site_type_symbol
_atom_site_label
_atom_site_fract_x
_atom_site_fract_y
_atom_site_fract_z
Si Si1 0.000000 0.158141 0.250000
Si Si2 0.406017 0.438549 0.522629
Si Si3 0.348601 0.972030 0.869911
Si Si4 0.500000 0.340010 0.250000
Si Si5 0.879070 0.249046 0.524675
Si Si6 0.564947 0.910940 0.959310
O O1 0.913076 0.107170 0.176805
O O2 0.938411 0.209282 0.376566
O O3 0.500000 0.500000 0.500000
O O4 0.279811 0.469657 0.544378
O O5 0.423354 0.388502 0.373215
O O6 0.430245 0.922961 0.960178
O O7 0.361856 0.947889 0.691236
O O8 0.391512 0.052966 0.889823
O O9 0.592264 0.292156 0.323063
O O10 0.750000 0.250000 0.500000
O O11 0.921241 0.328040 0.536631
#
# Coordination Sequence:
#
# PCOD8148293 Si02
#       6
#     4   8   8   4   8   8
#     4  10  25  42  60 101 122 174 220 256 338 399
#     4  11  24  40  66  96 133 169 222 280 333 393
#     4  10  23  40  66  90 130 161 224 266 330 385
#     4  10  25  42  62 101 126 180 226 262 344 393
#     4  11  24  43  68  92 140 175 223 273 331 409
#     4  10  23  42  63  96 122 173 212 273 328 389
#
# _framework density 20.725556000000001
#
# number of rings (size 3 to 8) (size 9 to 14) (size 15 to 20)
#    0.000    1.600    0.000    3.000   11.200    4.800 
#    0.000    5.000    0.000    0.000    0.000    0.000 
#    0.000    0.000    0.000    0.000    0.000    0.000 
#
# Total GULP energy -247939.354966 kJ/mol
# GULP energy per Si atom -12396.967748 kJ/mol
# Density = 2.067838 g / cm^3
# Si number density = 20.725556 Si / 1000 Ang^3
#
#
#
# Elastic Constant Matrix: (Units=GPa)
#
#
# Indices 1 2 3 4 5 6 
#
# 1 169.2631 56.3611 39.8944 0.0000 -3.3084 0.0000
# 2 56.3611 160.3497 61.6748 0.0000 4.6769 0.0000
# 3 39.8944 61.6748 100.1300 0.0000 16.3462 0.0000
# 4 0.0000 0.0000 0.0000 75.2542 0.0000 7.9921
# 5 -3.3084 4.6769 16.3462 0.0000 25.4460 0.0000
# 6 0.0000 0.0000 0.0000 7.9921 0.0000 22.0719
#
#
#
# Elastic Compliance Matrix: (Units=1/GPa)
#
#
# Indices 1 2 3 4 5 6 
#
# 1 0.007044 -0.001714 -0.002180 0.000000 0.002632 0.000000
# 2 -0.001714 0.008676 -0.004875 0.000000 0.001315 0.000000
# 3 -0.002180 -0.004875 0.015371 0.000000 -0.009261 0.000000
# 4 0.000000 0.000000 0.000000 0.013820 0.000000 -0.005004
# 5 0.002632 0.001315 -0.009261 0.000000 0.045349 0.000000
# 6 0.000000 0.000000 0.000000 -0.005004 0.000000 0.047118
#
#
# Mechanical properties :
#
#
# Convention : Reuss Voigt Hill
#
# Bulk Modulus (GPa) = 73.79693 82.84480 78.32087
# Shear Modulus (GPa) = 31.36096 42.67526 37.01811
#
# Velocity S-wave (km/s) = 3.89415 4.54261 4.23082
# Velocity P-wave (km/s) = 7.47685 8.22027 7.85736
#
# Compressibility (1/GPa) = 0.01355070
#
# Stress axis : x y z
#
# Youngs Moduli (GPa) = 141.96413 115.26407 65.05891
#
# Poissons Ratio (x) = 0.19756 0.14185
# Poissons Ratio (y) = 0.24333 0.31719
# Poissons Ratio (z) = 0.30953 0.56197
#
# Static dielectric constant tensor:
#      x y z
#    x 3.454570 0.000000 0.240710 
#    y 0.000000 3.833840 0.000000 
#    z 0.240710 0.000000 3.933560 
# 
# 
# High freq. dielectric constant tensor:
#      x y z
#    x 1.815550 0.000000 0.009150 
#    y 0.000000 1.823280 0.000000 
#    z 0.009150 0.000000 1.819470 
# 
# From -- ./inp_files/29121.got.cif
#   From: 2010.06.25/outbox.cif.g09.slc.cpg/sg15_15_cif.got.tgz:29121.got - 2010.06.28 07:06:18.
