data_PCOD8148983
_publ_section_title
;
Structure prediction by ZEFSAII (Michael W. Deem and Ramdas Pophale) SiO2 
 PCOD8148983
Probable space group: C 2/C
;
_chemical_formula_sum "Si O2"
_cell_formula_units_Z 40
_cell_length_a 23.125020
_cell_length_b 8.437338
_cell_length_c 18.244017
_cell_angle_alpha 90.000000
_cell_angle_beta 30.300641
_cell_angle_gamma 90.000000
_cell_volume 1795.979176
_symmetry_space_group_name_H-M "C 2/C"
_symmetry_group_IT_number 15
_symmetry_cell_setting 'monoclinic'
loop_
_space_group_symop_operation_xyz
x,y,z
-x,y,1/2-z
-x,-y,-z
x,-y,1/2+z
1/2+x,1/2+y,z
1/2-x,1/2+y,1/2-z
1/2-x,1/2-y,-z
1/2+x,1/2-y,1/2+z
loop_
_atom_site_type_symbol
_atom_site_label
_atom_site_fract_x
_atom_site_fract_y
_atom_site_fract_z
Si Si1 0.140348 0.449310 0.918313
Si Si2 0.089176 0.393177 0.813015
Si Si3 0.661196 0.451700 0.201432
Si Si4 0.753820 0.573385 0.962499
Si Si5 0.459753 0.673073 0.372834
O O1 0.156064 0.402854 0.816591
O O2 0.264765 0.509752 0.807474
O O3 0.095107 0.303145 0.014970
O O4 0.046536 0.588488 0.027184
O O5 0.106724 0.220559 0.761096
O O6 0.134441 0.531278 0.708093
O O7 0.562492 0.584273 0.301913
O O8 0.747554 0.454294 0.037866
O O9 0.750000 0.750000 0.000000
O O10 0.641638 0.548016 0.034381
O O11 0.500000 0.747166 0.250000
#
# Coordination Sequence:
#
# PCOD8148983 Si02
#       5
#     8   8   8   8   8
#     4  11  26  44  68  98 138 181 215 281 340 402
#     4  11  27  43  65 103 139 170 233 277 340 395
#     4  11  25  43  71  99 134 178 224 286 327 400
#     4  11  22  46  72  96 133 183 225 275 334 404
#     4  10  23  43  69  99 129 180 230 267 337 402
#
# _framework density 22.271972999999999
#
# number of rings (size 3 to 8) (size 9 to 14) (size 15 to 20)
#    0.000    1.200    2.000    3.000    5.600    2.400 
#    3.600    0.000    0.000    0.000    0.000    0.000 
#    0.000    0.000    0.000    0.000    0.000    0.000 
#
# Total GULP energy -247990.076673 kJ/mol
# GULP energy per Si atom -12399.503834 kJ/mol
# Density = 2.222128 g / cm^3
# Si number density = 22.271973 Si / 1000 Ang^3
#
#
#
# Elastic Constant Matrix: (Units=GPa)
#
#
# Indices 1 2 3 4 5 6 
#
# 1 118.4744 30.1708 7.1682 0.0001 -9.1610 0.0001
# 2 30.1708 114.6734 26.6432 0.0022 17.1153 -0.0004
# 3 7.1682 26.6432 53.8457 0.0014 7.9875 -0.0002
# 4 0.0001 0.0022 0.0014 27.6437 -0.0002 1.8534
# 5 -9.1610 17.1153 7.9875 -0.0002 46.6530 -0.0002
# 6 0.0001 -0.0004 -0.0002 1.8534 -0.0002 21.3724
#
#
#
# Elastic Compliance Matrix: (Units=1/GPa)
#
#
# Indices 1 2 3 4 5 6 
#
# 1 0.009411 -0.002850 -0.000279 0.000000 0.002941 0.000000
# 2 -0.002850 0.011101 -0.004542 -0.000001 -0.003855 0.000000
# 3 -0.000279 -0.004542 0.021154 -0.000001 -0.002010 0.000000
# 4 0.000000 -0.000001 -0.000001 0.036386 0.000001 -0.003155
# 5 0.002941 -0.003855 -0.002010 0.000001 0.023771 0.000000
# 6 0.000000 0.000000 0.000000 -0.003155 0.000000 0.047063
#
#
# Mechanical properties :
#
#
# Convention : Reuss Voigt Hill
#
# Bulk Modulus (GPa) = 37.98732 46.10644 42.04688
# Shear Modulus (GPa) = 28.90145 34.00121 31.45133
#
# Velocity S-wave (km/s) = 3.60621 3.91146 3.76193
# Velocity P-wave (km/s) = 5.86795 6.41450 6.14730
#
# Compressibility (1/GPa) = 0.02632457
#
# Stress axis : x y z
#
# Youngs Moduli (GPa) = 106.26098 90.08351 47.27217
#
# Poissons Ratio (x) = 0.25676 0.01318
# Poissons Ratio (y) = 0.30287 0.21469
# Poissons Ratio (z) = 0.02963 0.40912
#
# Static dielectric constant tensor:
#      x y z
#    x 4.399340 0.000000 -0.138290 
#    y 0.000000 3.733360 0.000000 
#    z -0.138290 0.000000 4.221930 
# 
# 
# High freq. dielectric constant tensor:
#      x y z
#    x 1.893380 0.000000 -0.004340 
#    y 0.000000 1.860150 0.000000 
#    z -0.004340 0.000000 1.882100 
# 
# From -- ./inp_files/218790.got.cif
#   From: 2010.06.25/outbox.cif.g09.slc.cpg/sg15_110_cif.got.tgz:218790.got - 2010.06.28 07:06:18.
