data_PCOD8148719
_publ_section_title
;
Structure prediction by ZEFSAII (Michael W. Deem and Ramdas Pophale) SiO2 
 PCOD8148719
Probable space group: C 2/C
;
_chemical_formula_sum "Si O2"
_cell_formula_units_Z 36
_cell_length_a 14.130560
_cell_length_b 24.622106
_cell_length_c 8.820735
_cell_angle_alpha 90.000000
_cell_angle_beta 33.525288
_cell_angle_gamma 90.000000
_cell_volume 1694.994525
_symmetry_space_group_name_H-M "C 2/C"
_symmetry_group_IT_number 15
_symmetry_cell_setting 'monoclinic'
loop_
_space_group_symop_operation_xyz
x,y,z
-x,y,1/2-z
-x,-y,-z
x,-y,1/2+z
1/2+x,1/2+y,z
1/2-x,1/2+y,1/2-z
1/2-x,1/2-y,-z
1/2+x,1/2-y,1/2+z
loop_
_atom_site_type_symbol
_atom_site_label
_atom_site_fract_x
_atom_site_fract_y
_atom_site_fract_z
Si Si1 0.876464 0.543796 0.740353
Si Si2 0.825358 0.027293 0.770816
Si Si3 0.000000 0.892967 0.250000
Si Si4 0.239454 0.690110 0.197051
Si Si5 0.000000 0.721012 0.250000
Si Si6 0.000000 0.356290 0.250000
O O1 0.733189 0.555166 0.806127
O O2 0.945745 0.603721 0.684951
O O3 0.000000 0.500000 0.500000
O O4 0.806698 0.517881 0.990089
O O5 0.858094 0.072721 0.851368
O O6 0.000000 0.000000 0.500000
O O7 0.879894 0.857400 0.517323
O O8 0.102493 0.685834 0.239885
O O9 0.142083 0.684181 0.488392
O O10 0.352262 0.744895 0.035165
#
# Coordination Sequence:
#
# PCOD8148719 Si02
#       6
#     8   8   4   8   4   4
#     4  12  23  39  57  88 130 173 208 250 296 344
#     4  12  22  38  58  84 128 175 208 249 297 345
#     4  11  22  38  62  92 120 166 218 246 294 383
#     4  10  23  42  68  91 120 153 207 258 316 387
#     4   9  22  48  69  88 118 160 189 264 348 371
#     4  12  24  38  63 100 122 158 219 254 288 366
#
# _framework density 21.239006
#
# number of rings (size 3 to 8) (size 9 to 14) (size 15 to 20)
#    0.000    0.889    4.444    2.667    3.111    0.889 
#    0.000    0.000    0.000    0.000    0.000    0.000 
#    0.000    0.000    0.000    0.000    0.000    0.000 
#
# Total GULP energy -223058.401485 kJ/mol
# GULP energy per Si atom -12392.133416 kJ/mol
# Density = 2.119067 g / cm^3
# Si number density = 21.239006 Si / 1000 Ang^3
#
#
#
# Elastic Constant Matrix: (Units=GPa)
#
#
# Indices 1 2 3 4 5 6 
#
# 1 101.1436 7.8399 -0.8070 0.0000 0.2586 0.0000
# 2 7.8399 62.3286 32.2993 0.0000 4.4606 0.0000
# 3 -0.8070 32.2993 154.9337 0.0000 10.9846 0.0000
# 4 0.0000 0.0000 0.0000 30.0846 0.0000 1.2322
# 5 0.2586 4.4606 10.9846 0.0000 31.6459 0.0000
# 6 0.0000 0.0000 0.0000 1.2322 0.0000 24.6359
#
#
#
# Elastic Compliance Matrix: (Units=1/GPa)
#
#
# Indices 1 2 3 4 5 6 
#
# 1 0.010001 -0.001441 0.000352 0.000000 -0.000001 0.000000
# 2 -0.001441 0.018244 -0.003721 0.000000 -0.001268 0.000000
# 3 0.000352 -0.003721 0.007376 0.000000 -0.002039 0.000000
# 4 0.000000 0.000000 0.000000 0.033308 0.000000 -0.001666
# 5 -0.000001 -0.001268 -0.002039 0.000000 0.032486 0.000000
# 6 0.000000 0.000000 0.000000 -0.001666 0.000000 0.040674
#
#
# Mechanical properties :
#
#
# Convention : Reuss Voigt Hill
#
# Bulk Modulus (GPa) = 38.45576 44.11892 41.28734
# Shear Modulus (GPa) = 31.17658 35.87818 33.52738
#
# Velocity S-wave (km/s) = 3.83546 4.11452 3.97744
# Velocity P-wave (km/s) = 6.14491 6.58711 6.36985
#
# Compressibility (1/GPa) = 0.02600391
#
# Stress axis : x y z
#
# Youngs Moduli (GPa) = 99.98591 54.81186 135.56585
#
# Poissons Ratio (x) = 0.07896 -0.04779
# Poissons Ratio (y) = 0.14404 0.50444
# Poissons Ratio (z) = -0.03524 0.20395
#
# Static dielectric constant tensor:
#      x y z
#    x 4.015290 0.000000 -0.086750 
#    y 0.000000 3.293770 0.000000 
#    z -0.086750 0.000000 3.928160 
# 
# 
# High freq. dielectric constant tensor:
#      x y z
#    x 1.838970 0.000000 -0.009310 
#    y 0.000000 1.815480 0.000000 
#    z -0.009310 0.000000 1.846100 
# 
# From -- ./inp_files/23374.got.cif
#   From: 2010.06.25/outbox.cif.g09.slc.cpg/sg15_12_cif.got.tgz:23374.got - 2010.06.28 07:06:18.
