data_PCOD8148097
_publ_section_title
;
Structure prediction by ZEFSAII (Michael W. Deem and Ramdas Pophale) SiO2 
 PCOD8148097
Probable space group: C 2/C
;
_chemical_formula_sum "Si O2"
_cell_formula_units_Z 48
_cell_length_a 13.937234
_cell_length_b 18.488546
_cell_length_c 17.563703
_cell_angle_alpha 90.000000
_cell_angle_beta 149.990061
_cell_angle_gamma 90.000000
_cell_volume 2263.580266
_symmetry_space_group_name_H-M "C 2/C"
_symmetry_group_IT_number 15
_symmetry_cell_setting 'monoclinic'
loop_
_space_group_symop_operation_xyz
x,y,z
-x,y,1/2-z
-x,-y,-z
x,-y,1/2+z
1/2+x,1/2+y,z
1/2-x,1/2+y,1/2-z
1/2-x,1/2-y,-z
1/2+x,1/2-y,1/2+z
loop_
_atom_site_type_symbol
_atom_site_label
_atom_site_fract_x
_atom_site_fract_y
_atom_site_fract_z
Si Si1 0.918388 0.198400 0.879785
Si Si2 0.662479 0.812556 0.802385
Si Si3 0.524991 0.308881 0.904518
Si Si4 0.640000 0.078371 0.646011
Si Si5 0.921988 0.343887 0.115904
Si Si6 0.174211 0.413352 0.686516
O O1 0.831285 0.265884 0.772573
O O2 0.828623 0.126015 0.784180
O O3 0.890169 0.198753 0.951751
O O4 0.144304 0.197783 0.017389
O O5 0.500000 0.791012 0.750000
O O6 0.646815 0.894104 0.757718
O O7 0.464237 0.227955 0.836355
O O8 0.351812 0.365823 0.775568
O O9 0.693093 0.333499 0.961961
O O10 0.478105 0.090392 0.599348
O O11 0.531810 0.101425 0.494209
O O12 0.720544 0.997229 0.705014
O O13 0.000000 0.367436 0.250000
#
# Coordination Sequence:
#
# PCOD8148097 Si02
#       6
#     8   8   8   8   8   8
#     4  11  22  40  65  90 123 161 203 252 312 364
#     4  11  23  40  65  92 118 159 211 260 297 360
#     4  10  23  38  64  96 125 166 201 260 314 369
#     4  11  23  42  61  90 125 170 202 252 312 376
#     4  11  22  36  64  99 126 155 210 260 308 366
#     4  10  24  43  62  84 128 168 208 248 315 371
#
# _framework density 21.205344
#
# number of rings (size 3 to 8) (size 9 to 14) (size 15 to 20)
#    0.000    1.333    1.667    4.500    4.667    3.333 
#    3.000    0.000    0.000    0.000    0.000    0.000 
#    0.000    0.000    0.000    0.000    0.000    0.000 
#
# Total GULP energy -297509.240761 kJ/mol
# GULP energy per Si atom -12396.218365 kJ/mol
# Density = 2.115708 g / cm^3
# Si number density = 21.205344 Si / 1000 Ang^3
#
#
#
# Elastic Constant Matrix: (Units=GPa)
#
#
# Indices 1 2 3 4 5 6 
#
# 1 81.3367 31.0085 8.8547 0.0083 17.6024 0.0015
# 2 31.0085 90.1392 59.8838 0.0042 10.2296 -0.0011
# 3 8.8547 59.8838 119.0553 0.0226 6.7959 -0.0028
# 4 0.0083 0.0042 0.0226 39.3753 -0.0010 1.0115
# 5 17.6024 10.2296 6.7959 -0.0010 26.2111 -0.0017
# 6 0.0015 -0.0011 -0.0028 1.0115 -0.0017 24.9919
#
#
#
# Elastic Compliance Matrix: (Units=1/GPa)
#
#
# Indices 1 2 3 4 5 6 
#
# 1 0.016390 -0.006206 0.002429 -0.000004 -0.009215 -0.000001
# 2 -0.006206 0.019526 -0.009300 0.000005 -0.001041 0.000000
# 3 0.002429 -0.009300 0.012975 -0.000007 -0.001365 0.000001
# 4 -0.000004 0.000005 -0.000007 0.025423 0.000004 -0.001029
# 5 -0.009215 -0.001041 -0.001365 0.000004 0.045100 0.000003
# 6 -0.000001 0.000000 0.000001 -0.001029 0.000003 0.040055
#
#
# Mechanical properties :
#
#
# Convention : Reuss Voigt Hill
#
# Bulk Modulus (GPa) = 43.98454 54.44723 49.21589
# Shear Modulus (GPa) = 25.87956 30.83461 28.35708
#
# Velocity S-wave (km/s) = 3.49725 3.81740 3.66083
# Velocity P-wave (km/s) = 6.09056 6.72026 6.41315
#
# Compressibility (1/GPa) = 0.02273526
#
# Stress axis : x y z
#
# Youngs Moduli (GPa) = 61.01151 51.21469 77.07307
#
# Poissons Ratio (x) = 0.31784 -0.18718
# Poissons Ratio (y) = 0.37864 0.71680
# Poissons Ratio (z) = -0.14817 0.47631
#
# Static dielectric constant tensor:
#      x y z
#    x 3.770300 -0.000010 0.026950 
#    y -0.000010 3.672940 -0.000020 
#    z 0.026950 -0.000020 4.000750 
# 
# 
# High freq. dielectric constant tensor:
#      x y z
#    x 1.824730 0.000000 0.005040 
#    y 0.000000 1.816070 0.000000 
#    z 0.005040 0.000000 1.852510 
# 
# From -- ./inp_files/206502.got.cif
#   From: 2010.06.25/outbox.cif.g09.slc.cpg/sg15_104_cif.got.tgz:206502.got - 2010.06.28 07:06:18.
