data_PCOD8148261
_publ_section_title
;
Structure prediction by ZEFSAII (Michael W. Deem and Ramdas Pophale) SiO2 
 PCOD8148261
Probable space group: C 2/C
;
_chemical_formula_sum "Si O2"
_cell_formula_units_Z 36
_cell_length_a 10.599315
_cell_length_b 17.920558
_cell_length_c 16.634914
_cell_angle_alpha 90.000000
_cell_angle_beta 147.518380
_cell_angle_gamma 90.000000
_cell_volume 1696.866394
_symmetry_space_group_name_H-M "C 2/C"
_symmetry_group_IT_number 15
_symmetry_cell_setting 'monoclinic'
loop_
_space_group_symop_operation_xyz
x,y,z
-x,y,1/2-z
-x,-y,-z
x,-y,1/2+z
1/2+x,1/2+y,z
1/2-x,1/2+y,1/2-z
1/2-x,1/2-y,-z
1/2+x,1/2-y,1/2+z
loop_
_atom_site_type_symbol
_atom_site_label
_atom_site_fract_x
_atom_site_fract_y
_atom_site_fract_z
Si Si1 0.954041 0.102648 0.033318
Si Si2 0.000000 0.324738 0.250000
Si Si3 0.017936 0.061469 0.889480
Si Si4 0.693243 0.681276 0.294276
Si Si5 0.879312 0.421072 0.448401
O O1 0.676648 0.123065 0.896245
O O2 0.024079 0.103063 0.977732
O O3 0.124291 0.162903 0.165733
O O4 0.007279 0.026136 0.107571
O O5 0.175108 0.271575 0.291728
O O6 0.798098 0.091677 0.720481
O O7 0.254007 0.078064 0.967662
O O8 0.500000 0.643777 0.250000
O O9 0.944396 0.648961 0.454916
O O10 0.000000 0.500000 0.500000
#
# Coordination Sequence:
#
# PCOD8148261 Si02
#       5
#     8   4   8   8   8
#     4  11  22  42  59 101 131 162 229 264 323 388
#     4  10  26  38  70  92 136 176 220 266 316 394
#     4  10  25  37  66 100 125 176 206 276 340 365
#     4  10  23  40  64  96 124 177 219 258 329 380
#     4  11  21  42  64  92 139 164 216 270 327 402
#
# _framework density 21.215577
#
# number of rings (size 3 to 8) (size 9 to 14) (size 15 to 20)
#    0.667    0.889    2.222    2.000    6.222    0.889 
#    0.000    1.111    0.000    0.000    0.000    0.000 
#    0.000    0.000    0.000    0.000    0.000    0.000 
#
# Total GULP energy -223135.392027 kJ/mol
# GULP energy per Si atom -12396.410668 kJ/mol
# Density = 2.116729 g / cm^3
# Si number density = 21.215577 Si / 1000 Ang^3
#
#
#
# Elastic Constant Matrix: (Units=GPa)
#
#
# Indices 1 2 3 4 5 6 
#
# 1 118.3860 25.6894 52.3482 -0.0003 -2.9730 -0.0005
# 2 25.6894 56.5048 35.1209 -0.0004 0.4983 -0.0005
# 3 52.3482 35.1209 133.5599 0.0007 -1.4137 -0.0007
# 4 -0.0003 -0.0004 0.0007 36.5411 0.0006 17.1422
# 5 -2.9730 0.4983 -1.4137 0.0006 40.3210 -0.0003
# 6 -0.0005 -0.0005 -0.0007 17.1422 -0.0003 26.1661
#
#
#
# Elastic Compliance Matrix: (Units=1/GPa)
#
#
# Indices 1 2 3 4 5 6 
#
# 1 0.010561 -0.002677 -0.003428 0.000000 0.000692 0.000000
# 2 -0.002677 0.021842 -0.004701 0.000000 -0.000632 0.000000
# 3 -0.003428 -0.004701 0.010069 0.000000 0.000158 0.000000
# 4 0.000000 0.000000 0.000000 0.039509 -0.000001 -0.025883
# 5 0.000692 -0.000632 0.000158 -0.000001 0.024865 0.000001
# 6 0.000000 0.000000 0.000000 -0.025883 0.000001 0.055174
#
#
# Mechanical properties :
#
#
# Convention : Reuss Voigt Hill
#
# Bulk Modulus (GPa) = 47.93898 59.41865 53.67881
# Shear Modulus (GPa) = 26.23485 33.62512 29.92999
#
# Velocity S-wave (km/s) = 3.52033 3.98543 3.76008
# Velocity P-wave (km/s) = 6.25850 7.01756 6.64887
#
# Compressibility (1/GPa) = 0.02085985
#
# Stress axis : x y z
#
# Youngs Moduli (GPa) = 94.68767 45.78297 99.31661
#
# Poissons Ratio (x) = 0.12255 0.34047
# Poissons Ratio (y) = 0.25346 0.46690
# Poissons Ratio (z) = 0.32460 0.21523
#
# Static dielectric constant tensor:
#      x y z
#    x 3.828540 0.000000 -0.049700 
#    y 0.000000 3.649350 0.000000 
#    z -0.049700 0.000000 3.956290 
# 
# 
# High freq. dielectric constant tensor:
#      x y z
#    x 1.822370 0.000000 -0.009100 
#    y 0.000000 1.819730 0.000000 
#    z -0.009100 0.000000 1.844020 
# 
# From -- ./inp_files/29762.got.cif
#   From: 2010.06.25/outbox.cif.g09.slc.cpg/sg15_15_cif.got.tgz:29762.got - 2010.06.28 07:06:18.
