data_PCOD8148912
_publ_section_title
;
Structure prediction by ZEFSAII (Michael W. Deem and Ramdas Pophale) SiO2 
 PCOD8148912
Probable space group: C 2/C
;
_chemical_formula_sum "Si O2"
_cell_formula_units_Z 32
_cell_length_a 7.106776
_cell_length_b 18.678837
_cell_length_c 13.723223
_cell_angle_alpha 90.000000
_cell_angle_beta 131.037686
_cell_angle_gamma 90.000000
_cell_volume 1374.073493
_symmetry_space_group_name_H-M "C 2/C"
_symmetry_group_IT_number 15
_symmetry_cell_setting 'monoclinic'
loop_
_space_group_symop_operation_xyz
x,y,z
-x,y,1/2-z
-x,-y,-z
x,-y,1/2+z
1/2+x,1/2+y,z
1/2-x,1/2+y,1/2-z
1/2-x,1/2-y,-z
1/2+x,1/2-y,1/2+z
loop_
_atom_site_type_symbol
_atom_site_label
_atom_site_fract_x
_atom_site_fract_y
_atom_site_fract_z
Si Si1 0.000000 0.021472 0.250000
Si Si2 0.000000 0.788685 0.250000
Si Si3 0.938626 0.074972 0.027384
Si Si4 0.597794 0.098890 0.590928
Si Si5 0.881692 0.652617 0.111940
O O1 0.754038 0.974377 0.143654
O O2 0.041561 0.073128 0.172622
O O3 0.762428 0.837754 0.193366
O O4 0.936175 0.738390 0.134638
O O5 0.083424 0.136735 0.016368
O O6 0.643977 0.090846 0.923499
O O7 0.000000 0.000000 0.000000
O O8 0.512472 0.118317 0.451354
O O9 0.000000 0.616173 0.250000
#
# Coordination Sequence:
#
# PCOD8148912 Si02
#       5
#     4   4   8   8   8
#     4  11  24  42  68  96 138 171 214 280 338 401
#     4   9  24  44  70  92 136 177 230 278 324 391
#     4  12  25  40  69 100 134 175 220 273 340 403
#     4  11  23  45  65  98 134 177 221 280 328 396
#     4  10  23  43  67  93 137 177 219 279 327 391
#
# _framework density 23.288418
#
# number of rings (size 3 to 8) (size 9 to 14) (size 15 to 20)
#    0.750    0.500    2.500    3.000    3.500    1.000 
#    0.000    2.500    0.000    0.000    0.000    0.000 
#    0.000    0.000    0.000    0.000    0.000    0.000 
#
# Total GULP energy -198355.371384 kJ/mol
# GULP energy per Si atom -12397.210711 kJ/mol
# Density = 2.323541 g / cm^3
# Si number density = 23.288418 Si / 1000 Ang^3
#
#
#
# Elastic Constant Matrix: (Units=GPa)
#
#
# Indices 1 2 3 4 5 6 
#
# 1 129.4310 36.2429 32.5597 0.0000 29.4043 0.0000
# 2 36.2429 91.0779 16.4483 0.0000 12.5073 0.0000
# 3 32.5597 16.4483 87.4435 0.0000 11.9366 0.0000
# 4 0.0000 0.0000 0.0000 33.2379 0.0000 -0.0715
# 5 29.4043 12.5073 11.9366 0.0000 37.2629 0.0000
# 6 0.0000 0.0000 0.0000 -0.0715 0.0000 27.5424
#
#
#
# Elastic Compliance Matrix: (Units=1/GPa)
#
#
# Indices 1 2 3 4 5 6 
#
# 1 0.010679 -0.002880 -0.002527 0.000000 -0.006651 0.000000
# 2 -0.002880 0.012537 -0.001068 0.000000 -0.001593 0.000000
# 3 -0.002527 -0.001068 0.012817 0.000000 -0.001753 0.000000
# 4 0.000000 0.000000 0.000000 0.030086 0.000000 0.000078
# 5 -0.006651 -0.001593 -0.001753 0.000000 0.033181 0.000000
# 6 0.000000 0.000000 0.000000 0.000078 0.000000 0.036308
#
#
# Mechanical properties :
#
#
# Convention : Reuss Voigt Hill
#
# Bulk Modulus (GPa) = 43.32131 53.16156 48.24144
# Shear Modulus (GPa) = 31.99926 34.45541 33.22734
#
# Velocity S-wave (km/s) = 3.71083 3.85061 3.78137
# Velocity P-wave (km/s) = 6.08299 6.53044 6.31068
#
# Compressibility (1/GPa) = 0.02308333
#
# Stress axis : x y z
#
# Youngs Moduli (GPa) = 93.64041 79.76137 78.02063
#
# Poissons Ratio (x) = 0.22971 0.19714
# Poissons Ratio (y) = 0.26968 0.08336
# Poissons Ratio (z) = 0.23661 0.08522
#
# Static dielectric constant tensor:
#      x y z
#    x 4.577470 0.000000 -0.149410 
#    y 0.000000 4.013470 0.000000 
#    z -0.149410 0.000000 4.377780 
# 
# 
# High freq. dielectric constant tensor:
#      x y z
#    x 1.909820 0.000000 0.003170 
#    y 0.000000 1.910700 0.000000 
#    z 0.003170 0.000000 1.936340 
# 
# From -- ./inp_files/72246.got.cif
#   From: 2010.06.25/outbox.cif.g09.slc.cpg/sg15_37_cif.got.tgz:72246.got - 2010.06.28 07:06:18.
