data_PCOD8148528
_publ_section_title
;
Structure prediction by ZEFSAII (Michael W. Deem and Ramdas Pophale) SiO2 
 PCOD8148528
Probable space group: C 2/C
;
_chemical_formula_sum "Si O2"
_cell_formula_units_Z 40
_cell_length_a 8.276098
_cell_length_b 22.524471
_cell_length_c 18.381667
_cell_angle_alpha 90.000000
_cell_angle_beta 148.696910
_cell_angle_gamma 90.000000
_cell_volume 1780.349093
_symmetry_space_group_name_H-M "C 2/C"
_symmetry_group_IT_number 15
_symmetry_cell_setting 'monoclinic'
loop_
_space_group_symop_operation_xyz
x,y,z
-x,y,1/2-z
-x,-y,-z
x,-y,1/2+z
1/2+x,1/2+y,z
1/2-x,1/2+y,1/2-z
1/2-x,1/2-y,-z
1/2+x,1/2-y,1/2+z
loop_
_atom_site_type_symbol
_atom_site_label
_atom_site_fract_x
_atom_site_fract_y
_atom_site_fract_z
Si Si1 0.232573 0.758660 0.276139
Si Si2 0.304455 0.334452 0.530499
Si Si3 0.136699 0.034457 0.620206
Si Si4 0.633968 0.336334 0.108917
Si Si5 0.810676 0.039631 0.106952
O O1 0.440937 0.703204 0.324952
O O2 0.460821 0.807172 0.400208
O O3 0.041765 0.786404 0.133530
O O4 0.000000 0.738273 0.250000
O O5 0.461395 0.324276 0.510931
O O6 0.251988 0.402004 0.535299
O O7 0.500000 0.039495 0.750000
O O8 0.984940 0.099807 0.571285
O O9 0.000000 0.000000 0.500000
O O10 0.063927 0.000786 0.665674
O O11 0.000000 0.342148 0.250000
O O12 0.000000 0.061056 0.250000
O O13 0.500000 0.000000 0.000000
#
# Coordination Sequence:
#
# PCOD8148528 Si02
#       5
#     8   8   8   8   8
#     4  10  23  41  70  97 133 182 236 291 348 408
#     4  10  23  45  62  99 140 176 232 287 349 422
#     4  11  22  42  69 100 136 182 234 282 354 431
#     4   9  20  39  67  92 133 181 223 283 346 416
#     4  12  28  44  70 107 142 183 232 301 358 416
#
# _framework density 22.467506
#
# number of rings (size 3 to 8) (size 9 to 14) (size 15 to 20)
#    0.000    1.600    2.000    1.200    8.400    5.600 
#    3.600    0.000    0.000    0.000    0.000    0.000 
#    0.000    0.000    0.000    0.000    0.000    0.000 
#
# Total GULP energy -247766.845981 kJ/mol
# GULP energy per Si atom -12388.342299 kJ/mol
# Density = 2.241637 g / cm^3
# Si number density = 22.467506 Si / 1000 Ang^3
#
#
#
# Elastic Constant Matrix: (Units=GPa)
#
#
# Indices 1 2 3 4 5 6 
#
# 1 94.9492 31.9569 22.2107 -0.0056 -2.6010 -0.0010
# 2 31.9569 130.6641 31.7074 -0.0039 4.2472 -0.0006
# 3 22.2107 31.7074 77.4615 0.0164 -8.2267 0.0071
# 4 -0.0056 -0.0039 0.0164 28.2771 -0.0073 -2.3351
# 5 -2.6010 4.2472 -8.2267 -0.0073 30.9360 -0.0006
# 6 -0.0010 -0.0006 0.0071 -2.3351 -0.0006 30.3455
#
#
#
# Elastic Compliance Matrix: (Units=1/GPa)
#
#
# Indices 1 2 3 4 5 6 
#
# 1 0.011899 -0.002357 -0.002374 0.000004 0.000693 0.000001
# 2 -0.002357 0.009106 -0.003298 0.000002 -0.002325 0.000001
# 3 -0.002374 -0.003298 0.015402 -0.000009 0.004349 -0.000004
# 4 0.000004 0.000002 -0.000009 0.035590 0.000006 0.002739
# 5 0.000693 -0.002325 0.004349 0.000006 0.033859 0.000000
# 6 0.000001 0.000001 -0.000004 0.002739 0.000000 0.033165
#
#
# Mechanical properties :
#
#
# Convention : Reuss Voigt Hill
#
# Bulk Modulus (GPa) = 49.14105 52.75831 50.94968
# Shear Modulus (GPa) = 30.89051 32.39172 31.64112
#
# Velocity S-wave (km/s) = 3.71198 3.80111 3.75681
# Velocity P-wave (km/s) = 6.34754 6.54199 6.44550
#
# Compressibility (1/GPa) = 0.02034958
#
# Stress axis : x y z
#
# Youngs Moduli (GPa) = 84.03796 109.82247 64.92546
#
# Poissons Ratio (x) = 0.25883 0.15411
# Poissons Ratio (y) = 0.19806 0.21415
# Poissons Ratio (z) = 0.19948 0.36224
#
# Static dielectric constant tensor:
#      x y z
#    x 4.705570 0.000030 -0.676730 
#    y 0.000030 4.471340 -0.000020 
#    z -0.676730 -0.000020 4.337560 
# 
# 
# High freq. dielectric constant tensor:
#      x y z
#    x 1.877300 0.000000 -0.010550 
#    y 0.000000 1.899260 0.000000 
#    z -0.010550 0.000000 1.877620 
# 
# From -- ./inp_files/193443.got.cif
#   From: 2010.06.25/outbox.cif.g09.slc.cpg/sg15_97_cif.got.tgz:193443.got - 2010.06.28 07:06:18.
