data_PCOD8148643
_publ_section_title
;
Structure prediction by ZEFSAII (Michael W. Deem and Ramdas Pophale) SiO2 
 PCOD8148643
Probable space group: C 2/C
;
_chemical_formula_sum "Si O2"
_cell_formula_units_Z 60
_cell_length_a 25.565946
_cell_length_b 15.691180
_cell_length_c 20.261507
_cell_angle_alpha 90.000000
_cell_angle_beta 19.762804
_cell_angle_gamma 90.000000
_cell_volume 2748.331485
_symmetry_space_group_name_H-M "C 2/C"
_symmetry_group_IT_number 15
_symmetry_cell_setting 'monoclinic'
loop_
_space_group_symop_operation_xyz
x,y,z
-x,y,1/2-z
-x,-y,-z
x,-y,1/2+z
1/2+x,1/2+y,z
1/2-x,1/2+y,1/2-z
1/2-x,1/2-y,-z
1/2+x,1/2-y,1/2+z
loop_
_atom_site_type_symbol
_atom_site_label
_atom_site_fract_x
_atom_site_fract_y
_atom_site_fract_z
Si Si1 0.155040 0.782185 0.712285
Si Si2 0.913280 0.299106 0.984117
Si Si3 0.199874 0.050919 0.547457
Si Si4 0.414824 0.612736 0.944906
Si Si5 0.000000 0.618747 0.250000
Si Si6 0.173145 0.137643 0.058240
Si Si7 0.663707 0.236361 0.375325
Si Si8 0.911084 0.412891 0.622163
O O1 0.217125 0.847976 0.583414
O O2 0.205132 0.687007 0.631741
O O3 0.219732 0.800576 0.708330
O O4 0.969372 0.793926 0.934105
O O5 0.969195 0.200939 0.914373
O O6 0.905724 0.326781 0.916450
O O7 0.025926 0.366029 0.886650
O O8 0.748857 0.293395 0.217876
O O9 0.153403 0.123550 0.549045
O O10 0.372667 0.059419 0.367806
O O11 0.070003 0.054596 0.759898
O O12 0.189241 0.961380 0.521952
O O13 0.273499 0.569140 0.153059
O O14 0.000000 0.171701 0.250000
O O15 0.568328 0.155957 0.459890
O O16 0.000000 0.500000 0.500000
#
# Coordination Sequence:
#
# PCOD8148643 Si02
#       8
#     8   8   8   8   4   8   8   8
#     4  11  24  41  70  97 136 179 231 286 354 418
#     4  11  25  42  68 100 136 179 237 279 350 418
#     4  11  24  40  67  99 139 178 225 293 348 412
#     4  10  23  42  65  98 132 181 226 279 346 414
#     4  12  26  42  68 100 140 176 234 294 344 404
#     4  11  23  42  68 103 134 180 233 286 354 416
#     4  11  24  43  67  98 135 182 228 288 345 424
#     4  11  25  43  71 101 138 184 236 283 351 419
#
# _framework density 21.831429
#
# number of rings (size 3 to 8) (size 9 to 14) (size 15 to 20)
#    0.000    1.067    5.333    0.800    5.600    4.267 
#    0.000    0.000    0.000    4.000    0.000    0.000 
#    0.000    0.000    0.000    0.000    0.000    0.000 
#
# Total GULP energy -371767.127987 kJ/mol
# GULP energy per Si atom -12392.237600 kJ/mol
# Density = 2.178174 g / cm^3
# Si number density = 21.831429 Si / 1000 Ang^3
#
#
#
# Elastic Constant Matrix: (Units=GPa)
#
#
# Indices 1 2 3 4 5 6 
#
# 1 97.4853 18.5936 26.5525 -0.0012 5.2401 0.0006
# 2 18.5936 89.8427 29.7394 -0.0038 4.0894 0.0027
# 3 26.5525 29.7394 124.6567 0.0002 -0.1343 -0.0001
# 4 -0.0012 -0.0038 0.0002 24.9833 0.0011 -2.2412
# 5 5.2401 4.0894 -0.1343 0.0011 38.5248 -0.0008
# 6 0.0006 0.0027 -0.0001 -2.2412 -0.0008 25.6821
#
#
#
# Elastic Compliance Matrix: (Units=1/GPa)
#
#
# Indices 1 2 3 4 5 6 
#
# 1 0.011180 -0.001589 -0.002004 0.000000 -0.001359 0.000000
# 2 -0.001589 0.012375 -0.002615 0.000002 -0.001107 -0.000001
# 3 -0.002004 -0.002615 0.009073 -0.000001 0.000582 0.000000
# 4 0.000000 0.000002 -0.000001 0.040343 -0.000001 0.003521
# 5 -0.001359 -0.001107 0.000582 -0.000001 0.026262 0.000001
# 6 0.000000 -0.000001 0.000000 0.003521 0.000001 0.039245
#
#
# Mechanical properties :
#
#
# Convention : Reuss Voigt Hill
#
# Bulk Modulus (GPa) = 49.47232 51.30620 50.38926
# Shear Modulus (GPa) = 31.71973 33.64467 32.68220
#
# Velocity S-wave (km/s) = 3.81588 3.92996 3.87334
# Velocity P-wave (km/s) = 6.49036 6.64416 6.56771
#
# Compressibility (1/GPa) = 0.02021332
#
# Stress axis : x y z
#
# Youngs Moduli (GPa) = 89.44706 80.80556 110.21234
#
# Poissons Ratio (x) = 0.12837 0.22085
# Poissons Ratio (y) = 0.14209 0.28823
# Poissons Ratio (z) = 0.17924 0.21132
#
# Static dielectric constant tensor:
#      x y z
#    x 3.859690 -0.000010 0.153710 
#    y -0.000010 3.584490 0.000010 
#    z 0.153710 0.000010 4.167030 
# 
# 
# High freq. dielectric constant tensor:
#      x y z
#    x 1.851430 0.000000 0.010010 
#    y 0.000000 1.828250 0.000000 
#    z 0.010010 0.000000 1.878640 
# 
# From -- ./inp_files/257867.got.cif
#   From: 2010.06.25/outbox.cif.g09.slc.cpg/sg15_129_cif.got.tgz:257867.got - 2010.06.28 07:06:18.
