data_PCOD8148773
_publ_section_title
;
Structure prediction by ZEFSAII (Michael W. Deem and Ramdas Pophale) SiO2 
 PCOD8148773
Probable space group: C 2/C
;
_chemical_formula_sum "Si O2"
_cell_formula_units_Z 40
_cell_length_a 14.274975
_cell_length_b 11.435747
_cell_length_c 11.941910
_cell_angle_alpha 90.000000
_cell_angle_beta 69.566833
_cell_angle_gamma 90.000000
_cell_volume 1826.797390
_symmetry_space_group_name_H-M "C 2/C"
_symmetry_group_IT_number 15
_symmetry_cell_setting 'monoclinic'
loop_
_space_group_symop_operation_xyz
x,y,z
-x,y,1/2-z
-x,-y,-z
x,-y,1/2+z
1/2+x,1/2+y,z
1/2-x,1/2+y,1/2-z
1/2-x,1/2-y,-z
1/2+x,1/2-y,1/2+z
loop_
_atom_site_type_symbol
_atom_site_label
_atom_site_fract_x
_atom_site_fract_y
_atom_site_fract_z
Si Si1 0.224205 0.171964 0.614529
Si Si2 0.112507 0.056452 0.168864
Si Si3 0.303338 0.140753 0.194432
Si Si4 0.610105 0.906352 0.304498
Si Si5 0.391985 0.199899 0.921412
O O1 0.250000 0.250000 0.500000
O O2 0.151964 0.067134 0.604348
O O3 0.178481 0.246151 0.736501
O O4 0.328807 0.119088 0.609351
O O5 0.000000 0.031468 0.250000
O O6 0.187019 0.095743 0.240577
O O7 0.104333 0.159051 0.079343
O O8 0.379581 0.045955 0.216362
O O9 0.327526 0.162310 0.053786
O O10 0.657870 0.841335 0.175651
O O11 0.498772 0.863737 0.376090
#
# Coordination Sequence:
#
# PCOD8148773 Si02
#       5
#     8   8   8   8   8
#     4  11  26  43  63  99 142 174 227 289 344 407
#     4  11  23  44  70  96 133 182 223 278 340 406
#     4  11  24  41  71  98 133 178 229 280 349 402
#     4  10  23  42  70  97 135 176 227 286 341 404
#     4  11  21  45  72  98 131 178 238 277 342 415
#
# _framework density 21.896242999999998
#
# number of rings (size 3 to 8) (size 9 to 14) (size 15 to 20)
#    0.000    1.200    4.000    1.200    5.600    3.200 
#    3.600    3.000    0.000    0.000    0.000    0.000 
#    0.000    0.000    0.000    0.000    0.000    0.000 
#
# Total GULP energy -247873.963233 kJ/mol
# GULP energy per Si atom -12393.698162 kJ/mol
# Density = 2.184641 g / cm^3
# Si number density = 21.896243 Si / 1000 Ang^3
#
#
#
# Elastic Constant Matrix: (Units=GPa)
#
#
# Indices 1 2 3 4 5 6 
#
# 1 113.7740 56.1300 33.3835 0.0000 -14.8618 0.0000
# 2 56.1300 150.9484 20.5715 0.0000 -6.2404 0.0000
# 3 33.3835 20.5715 91.7666 0.0000 1.2393 0.0000
# 4 0.0000 0.0000 0.0000 34.0800 0.0000 1.2116
# 5 -14.8618 -6.2404 1.2393 0.0000 21.2358 0.0000
# 6 0.0000 0.0000 0.0000 1.2116 0.0000 33.2144
#
#
#
# Elastic Compliance Matrix: (Units=1/GPa)
#
#
# Indices 1 2 3 4 5 6 
#
# 1 0.012953 -0.003944 -0.003938 0.000000 0.008136 0.000000
# 2 -0.003944 0.008129 -0.000383 0.000000 -0.000349 0.000000
# 3 -0.003938 -0.000383 0.012464 0.000000 -0.003596 0.000000
# 4 0.000000 0.000000 0.000000 0.029381 0.000000 -0.001072
# 5 0.008136 -0.000349 -0.003596 0.000000 0.052892 0.000000
# 6 0.000000 0.000000 0.000000 -0.001072 0.000000 0.030147
#
#
# Mechanical properties :
#
#
# Convention : Reuss Voigt Hill
#
# Bulk Modulus (GPa) = 58.76395 64.07322 61.41859
# Shear Modulus (GPa) = 29.73233 34.13298 31.93265
#
# Velocity S-wave (km/s) = 3.68893 3.95251 3.82299
# Velocity P-wave (km/s) = 6.71119 7.08206 6.89911
#
# Compressibility (1/GPa) = 0.01701724
#
# Stress axis : x y z
#
# Youngs Moduli (GPa) = 77.20098 123.01687 80.22955
#
# Poissons Ratio (x) = 0.48513 0.31595
# Poissons Ratio (y) = 0.30445 0.03072
# Poissons Ratio (z) = 0.30402 0.04711
#
# Static dielectric constant tensor:
#      x y z
#    x 4.108540 0.000000 0.131550 
#    y 0.000000 4.553690 0.000000 
#    z 0.131550 0.000000 3.823890 
# 
# 
# High freq. dielectric constant tensor:
#      x y z
#    x 1.861720 0.000000 -0.003170 
#    y 0.000000 1.885850 0.000000 
#    z -0.003170 0.000000 1.835830 
# 
# From -- ./inp_files/94872.got.cif
#   From: 2010.06.25/outbox.cif.g09.slc.cpg/sg15_48_cif.got.tgz:94872.got - 2010.06.28 07:06:18.
