data_PCOD8148854
_publ_section_title
;
Structure prediction by ZEFSAII (Michael W. Deem and Ramdas Pophale) SiO2 
 PCOD8148854
Probable space group: C 2/C
;
_chemical_formula_sum "Si O2"
_cell_formula_units_Z 48
_cell_length_a 27.982558
_cell_length_b 14.545035
_cell_length_c 10.775128
_cell_angle_alpha 90.000000
_cell_angle_beta 152.090581
_cell_angle_gamma 90.000000
_cell_volume 2052.769342
_symmetry_space_group_name_H-M "C 2/C"
_symmetry_group_IT_number 15
_symmetry_cell_setting 'monoclinic'
loop_
_space_group_symop_operation_xyz
x,y,z
-x,y,1/2-z
-x,-y,-z
x,-y,1/2+z
1/2+x,1/2+y,z
1/2-x,1/2+y,1/2-z
1/2-x,1/2-y,-z
1/2+x,1/2-y,1/2+z
loop_
_atom_site_type_symbol
_atom_site_label
_atom_site_fract_x
_atom_site_fract_y
_atom_site_fract_z
Si Si1 0.087949 0.983390 0.543166
Si Si2 0.303602 0.939976 0.913831
Si Si3 0.224681 0.216177 0.078567
Si Si4 0.857826 0.632685 0.972127
Si Si5 0.481948 0.352971 0.473879
Si Si6 0.048858 0.338590 0.071033
O O1 0.199982 0.959355 0.751647
O O2 0.000000 0.949463 0.250000
O O3 0.068263 0.922531 0.620824
O O4 0.072158 0.093179 0.534652
O O5 0.301193 0.859980 0.805680
O O6 0.325208 0.027954 0.877821
O O7 0.394655 0.915877 0.217815
O O8 0.234589 0.304321 0.191301
O O9 0.250000 0.250000 0.000000
O O10 0.111066 0.172914 0.831801
O O11 0.890105 0.678890 0.916951
O O12 0.939200 0.627331 0.272305
O O13 0.538731 0.255469 0.630069
#
# Coordination Sequence:
#
# PCOD8148854 Si02
#       6
#     8   8   8   8   8   8
#     4  11  23  40  69  97 140 173 231 293 357 416
#     4  12  25  42  73 105 137 190 243 287 360 437
#     4  11  24  43  66 102 143 186 229 297 353 421
#     4  10  24  44  71  98 145 181 232 302 356 416
#     4  10  23  43  64  98 136 179 223 294 352 417
#     4  10  24  45  69  98 139 182 240 291 358 427
#
# _framework density 23.383044999999999
#
# number of rings (size 3 to 8) (size 9 to 14) (size 15 to 20)
#    0.000    1.333    1.667    2.500    7.000    5.333 
#    3.000    0.000    0.000    0.000    0.000    0.000 
#    0.000    0.000    0.000    0.000    0.000    0.000 
#
# Total GULP energy -297387.840241 kJ/mol
# GULP energy per Si atom -12391.160010 kJ/mol
# Density = 2.332982 g / cm^3
# Si number density = 23.383045 Si / 1000 Ang^3
#
#
#
# Elastic Constant Matrix: (Units=GPa)
#
#
# Indices 1 2 3 4 5 6 
#
# 1 73.2882 45.5293 2.1074 0.0000 4.7513 0.0000
# 2 45.5293 158.5501 24.8073 0.0000 2.3444 0.0000
# 3 2.1074 24.8073 53.1239 0.0000 2.0391 0.0000
# 4 0.0000 0.0000 0.0000 31.8567 0.0000 -0.2345
# 5 4.7513 2.3444 2.0391 0.0000 25.3366 0.0000
# 6 0.0000 0.0000 0.0000 -0.2345 0.0000 43.8192
#
#
#
# Elastic Compliance Matrix: (Units=1/GPa)
#
#
# Indices 1 2 3 4 5 6 
#
# 1 0.016953 -0.005111 0.001824 0.000000 -0.002853 0.000000
# 2 -0.005111 0.008349 -0.003715 0.000000 0.000485 0.000000
# 3 0.001824 -0.003715 0.020550 0.000000 -0.001652 0.000000
# 4 0.000000 0.000000 0.000000 0.031392 0.000000 0.000168
# 5 -0.002853 0.000485 -0.001652 0.000000 0.040092 0.000000
# 6 0.000000 0.000000 0.000000 0.000168 0.000000 0.022822
#
#
# Mechanical properties :
#
#
# Convention : Reuss Voigt Hill
#
# Bulk Modulus (GPa) = 31.40005 47.76114 39.58059
# Shear Modulus (GPa) = 30.34415 34.37037 32.35726
#
# Velocity S-wave (km/s) = 3.60627 3.83807 3.72397
# Velocity P-wave (km/s) = 5.54959 6.33332 5.95436
#
# Compressibility (1/GPa) = 0.03184709
#
# Stress axis : x y z
#
# Youngs Moduli (GPa) = 58.98803 119.77561 48.66275
#
# Poissons Ratio (x) = 0.61221 -0.08875
# Poissons Ratio (y) = 0.30151 0.18076
# Poissons Ratio (z) = -0.10759 0.44492
#
# Static dielectric constant tensor:
#      x y z
#    x 3.920970 0.000000 0.111270 
#    y 0.000000 4.488600 0.000000 
#    z 0.111270 0.000000 4.088990 
# 
# 
# High freq. dielectric constant tensor:
#      x y z
#    x 1.911630 0.000000 0.008060 
#    y 0.000000 1.942310 0.000000 
#    z 0.008060 0.000000 1.910850 
# 
# From -- ./inp_files/123602.got.cif
#   From: 2010.06.25/outbox.cif.g09.slc.cpg/sg15_62_cif.got.tgz:123602.got - 2010.06.28 07:06:18.
