data_PCOD8148509
_publ_section_title
;
Structure prediction by ZEFSAII (Michael W. Deem and Ramdas Pophale) SiO2 
 PCOD8148509
Probable space group: C 2/C
;
_chemical_formula_sum "Si O2"
_cell_formula_units_Z 60
_cell_length_a 12.352510
_cell_length_b 14.176897
_cell_length_c 20.454442
_cell_angle_alpha 90.000000
_cell_angle_beta 125.456883
_cell_angle_gamma 90.000000
_cell_volume 2917.715897
_symmetry_space_group_name_H-M "C 2/C"
_symmetry_group_IT_number 15
_symmetry_cell_setting 'monoclinic'
loop_
_space_group_symop_operation_xyz
x,y,z
-x,y,1/2-z
-x,-y,-z
x,-y,1/2+z
1/2+x,1/2+y,z
1/2-x,1/2+y,1/2-z
1/2-x,1/2-y,-z
1/2+x,1/2-y,1/2+z
loop_
_atom_site_type_symbol
_atom_site_label
_atom_site_fract_x
_atom_site_fract_y
_atom_site_fract_z
Si Si1 0.560121 0.314292 0.084086
Si Si2 0.649687 0.508077 0.812043
Si Si3 0.551980 0.798381 0.393814
Si Si4 0.723668 0.510366 0.691360
Si Si5 0.000000 0.577310 0.750000
Si Si6 0.227006 0.661590 0.070557
Si Si7 0.855514 0.182099 0.398523
Si Si8 0.598457 0.288385 0.342478
O O1 0.643047 0.407361 0.127966
O O2 0.662064 0.232382 0.099954
O O3 0.477648 0.275934 0.116321
O O4 0.462559 0.341001 0.991308
O O5 0.500000 0.468677 0.750000
O O6 0.717227 0.527087 0.766307
O O7 0.740655 0.436196 0.883485
O O8 0.647285 0.604214 0.852492
O O9 0.533760 0.857832 0.322964
O O10 0.637706 0.704765 0.410408
O O11 0.626118 0.860071 0.475511
O O12 0.408262 0.764674 0.369179
O O13 0.876365 0.510699 0.722596
O O14 0.663324 0.410284 0.651492
O O15 0.720770 0.216433 0.385385
O O16 0.500000 0.260054 0.250000
#
# Coordination Sequence:
#
# PCOD8148509 Si02
#       8
#     8   8   8   8   4   8   8   8
#     4  11  23  46  65  94 131 170 216 275 319 389
#     4  11  23  40  68  96 127 174 222 266 323 393
#     4  10  23  42  66  97 133 166 217 271 331 380
#     4  12  25  41  64 100 130 170 221 263 330 387
#     4  12  26  42  66  98 138 170 210 288 328 376
#     4  10  23  41  68  99 128 170 219 270 327 386
#     4  11  26  42  69  91 130 178 218 263 330 389
#     4  11  24  43  64  93 133 167 219 270 319 391
#
# _framework density 20.564032000000001
#
# number of rings (size 3 to 8) (size 9 to 14) (size 15 to 20)
#    0.000    1.067    4.000    2.400    5.600    1.067 
#    0.000    6.000    0.000    0.000    0.000    0.000 
#    0.000    0.000    0.000    0.000    0.000    0.000 
#
# Total GULP energy -372195.623852 kJ/mol
# GULP energy per Si atom -12406.520795 kJ/mol
# Density = 2.051723 g / cm^3
# Si number density = 20.564032 Si / 1000 Ang^3
#
#
#
# Elastic Constant Matrix: (Units=GPa)
#
#
# Indices 1 2 3 4 5 6 
#
# 1 125.1308 17.0200 33.0659 0.0000 -1.3908 0.0000
# 2 17.0200 62.7575 47.8168 0.0000 0.1674 0.0000
# 3 33.0659 47.8168 101.4221 0.0000 -10.0829 0.0000
# 4 0.0000 0.0000 0.0000 28.5902 0.0000 3.3522
# 5 -1.3908 0.1674 -10.0829 0.0000 30.8837 0.0000
# 6 0.0000 0.0000 0.0000 3.3522 0.0000 18.8547
#
#
#
# Elastic Compliance Matrix: (Units=1/GPa)
#
#
# Indices 1 2 3 4 5 6 
#
# 1 0.008757 -0.000249 -0.002789 0.000000 -0.000515 0.000000
# 2 -0.000249 0.025386 -0.012301 0.000000 -0.004165 0.000000
# 3 -0.002789 -0.012301 0.017118 0.000000 0.005530 0.000000
# 4 0.000000 0.000000 0.000000 0.035722 0.000000 -0.006351
# 5 -0.000515 -0.004165 0.005530 0.000000 0.034184 0.000000
# 6 0.000000 0.000000 0.000000 -0.006351 0.000000 0.054166
#
#
# Mechanical properties :
#
#
# Convention : Reuss Voigt Hill
#
# Bulk Modulus (GPa) = 48.58355 53.90177 51.24266
# Shear Modulus (GPa) = 23.48829 28.42623 25.95726
#
# Velocity S-wave (km/s) = 3.38331 3.72200 3.55669
# Velocity P-wave (km/s) = 6.24013 6.68877 6.46834
#
# Compressibility (1/GPa) = 0.02058310
#
# Stress axis : x y z
#
# Youngs Moduli (GPa) = 114.19846 39.39222 58.41641
#
# Poissons Ratio (x) = 0.00979 0.16292
# Poissons Ratio (y) = 0.02838 0.71861
# Poissons Ratio (z) = 0.31849 0.48458
#
# Static dielectric constant tensor:
#      x y z
#    x 4.113090 0.000000 -0.023960 
#    y 0.000000 3.485930 0.000000 
#    z -0.023960 0.000000 3.844420 
# 
# 
# High freq. dielectric constant tensor:
#      x y z
#    x 1.825840 0.000000 -0.002990 
#    y 0.000000 1.791840 0.000000 
#    z -0.002990 0.000000 1.813490 
# 
# From -- ./inp_files/238804.got.cif
#   From: 2010.06.25/outbox.cif.g09.slc.cpg/sg15_120_cif.got.tgz:238804.got - 2010.06.28 07:06:18.
