data_PCOD8148911
_publ_section_title
;
Structure prediction by ZEFSAII (Michael W. Deem and Ramdas Pophale) SiO2 
 PCOD8148911
Probable space group: C 2/C
;
_chemical_formula_sum "Si O2"
_cell_formula_units_Z 56
_cell_length_a 28.507131
_cell_length_b 7.870780
_cell_length_c 14.224934
_cell_angle_alpha 90.000000
_cell_angle_beta 126.755156
_cell_angle_gamma 90.000000
_cell_volume 2557.186880
_symmetry_space_group_name_H-M "C 2/C"
_symmetry_group_IT_number 15
_symmetry_cell_setting 'monoclinic'
loop_
_space_group_symop_operation_xyz
x,y,z
-x,y,1/2-z
-x,-y,-z
x,-y,1/2+z
1/2+x,1/2+y,z
1/2-x,1/2+y,1/2-z
1/2-x,1/2-y,-z
1/2+x,1/2-y,1/2+z
loop_
_atom_site_type_symbol
_atom_site_label
_atom_site_fract_x
_atom_site_fract_y
_atom_site_fract_z
Si Si1 0.332881 0.509370 0.647723
Si Si2 0.432644 0.400088 0.143064
Si Si3 0.737581 0.448388 0.111980
Si Si4 0.259144 0.178101 0.831673
Si Si5 0.434685 0.209227 0.638824
Si Si6 0.111595 0.410820 0.032039
Si Si7 0.363427 0.162038 0.736663
O O1 0.389746 0.618249 0.682996
O O2 0.305688 0.405258 0.525622
O O3 0.284986 0.628325 0.638207
O O4 0.350639 0.361998 0.741518
O O5 0.500000 0.368268 0.250000
O O6 0.423322 0.594459 0.094714
O O7 0.414873 0.258923 0.046389
O O8 0.719590 0.633682 0.124488
O O9 0.728626 0.326447 0.191918
O O10 0.803911 0.444327 0.155084
O O11 0.318624 0.067031 0.903450
O O12 0.500000 0.187136 0.750000
O O13 0.397806 0.140262 0.682106
O O14 0.420709 0.083336 0.536765
O O15 0.099754 0.400606 0.129464
#
# Coordination Sequence:
#
# PCOD8148911 Si02
#       7
#     8   8   8   8   8   8   8
#     4  11  22  40  64  87 132 166 212 269 318 386
#     4  10  23  43  67  93 127 173 217 263 323 373
#     4  11  22  38  61  89 131 162 204 266 316 390
#     4  11  23  38  61  99 125 167 218 251 333 393
#     4  10  23  44  66  92 130 170 220 268 320 376
#     4  11  22  43  65  94 133 165 213 274 314 391
#     4  10  24  40  62  98 124 168 217 257 330 386
#
# _framework density 21.899065
#
# number of rings (size 3 to 8) (size 9 to 14) (size 15 to 20)
#    0.000    1.429    1.429    3.857    2.000    6.286 
#    0.000    6.429    0.000    0.000    0.000    0.000 
#    0.000    0.000    0.000    0.000    0.000    0.000 
#
# Total GULP energy -347117.245436 kJ/mol
# GULP energy per Si atom -12397.044480 kJ/mol
# Density = 2.184922 g / cm^3
# Si number density = 21.899065 Si / 1000 Ang^3
#
#
#
# Elastic Constant Matrix: (Units=GPa)
#
#
# Indices 1 2 3 4 5 6 
#
# 1 65.0487 7.5522 41.6828 0.0000 13.6314 0.0000
# 2 7.5522 66.8604 19.7624 0.0000 -5.4194 0.0000
# 3 41.6828 19.7624 88.8480 0.0000 -8.3320 0.0000
# 4 0.0000 0.0000 0.0000 -80.3467 0.0000 36.9447
# 5 13.6314 -5.4194 -8.3320 0.0000 24.3383 0.0000
# 6 0.0000 0.0000 0.0000 36.9447 0.0000 21.4584
#
#
#
# Elastic Compliance Matrix: (Units=1/GPa)
#
#
# Indices 1 2 3 4 5 6 
#
# 1 0.030846 -0.000466 -0.016528 0.000000 -0.023039 0.000000
# 2 -0.000466 0.016156 -0.003113 0.000000 0.002793 0.000000
# 3 -0.016528 -0.003113 0.021185 0.000000 0.015817 0.000000
# 4 0.000000 0.000000 0.000000 -0.006947 0.000000 0.011960
# 5 -0.023039 0.002793 0.015817 0.000000 0.060028 0.000000
# 6 0.000000 0.000000 0.000000 0.011960 0.000000 0.026010
#
#
# Mechanical properties :
#
#
# Convention : Reuss Voigt Hill
#
# Bulk Modulus (GPa) = 35.74970 39.86132 37.80551
# Shear Modulus (GPa) = 25.40428 3.20732 14.30580
#
# Velocity S-wave (km/s) = 3.40966 1.21152 2.55867
# Velocity P-wave (km/s) = 5.64458 4.49431 5.10197
#
# Compressibility (1/GPa) = 0.02797226
#
# Stress axis : x y z
#
# Youngs Moduli (GPa) = 32.41869 61.89778 47.20310
#
# Poissons Ratio (x) = 0.02886 0.78019
# Poissons Ratio (y) = 0.01512 0.14694
# Poissons Ratio (z) = 0.53583 0.19268
#
# Static dielectric constant tensor:
#      x y z
#    x 4.460160 0.000000 -0.056230 
#    y 0.000000 3.883200 0.000000 
#    z -0.056230 0.000000 4.099240 
# 
# 
# High freq. dielectric constant tensor:
#      x y z
#    x 1.862440 0.000000 0.003760 
#    y 0.000000 1.860340 0.000000 
#    z 0.003760 0.000000 1.856980 
# 
# From -- ./inp_files/125974.got.cif
#   From: 2010.06.25/outbox.cif.g09.slc.cpg/sg15_63_cif.got.tgz:125974.got - 2010.06.28 07:06:18.
