data_PCOD8148374
_publ_section_title
;
Structure prediction by ZEFSAII (Michael W. Deem and Ramdas Pophale) SiO2 
 PCOD8148374
Probable space group: C 2/C
;
_chemical_formula_sum "Si O2"
_cell_formula_units_Z 40
_cell_length_a 13.599742
_cell_length_b 4.856444
_cell_length_c 25.230875
_cell_angle_alpha 90.000000
_cell_angle_beta 76.776421
_cell_angle_gamma 90.000000
_cell_volume 1622.223029
_symmetry_space_group_name_H-M "C 2/C"
_symmetry_group_IT_number 15
_symmetry_cell_setting 'monoclinic'
loop_
_space_group_symop_operation_xyz
x,y,z
-x,y,1/2-z
-x,-y,-z
x,-y,1/2+z
1/2+x,1/2+y,z
1/2-x,1/2+y,1/2-z
1/2-x,1/2-y,-z
1/2+x,1/2-y,1/2+z
loop_
_atom_site_type_symbol
_atom_site_label
_atom_site_fract_x
_atom_site_fract_y
_atom_site_fract_z
Si Si1 0.181746 0.700695 0.816489
Si Si2 0.181246 0.302967 0.201944
Si Si3 0.083947 0.746711 0.042000
Si Si4 0.158703 0.752817 0.592579
Si Si5 0.625510 0.471917 0.926869
O O1 0.126433 0.749713 0.765679
O O2 0.217638 0.385638 0.817139
O O3 0.113638 0.789664 0.874766
O O4 0.283988 0.880610 0.803614
O O5 0.111479 0.252128 0.158403
O O6 0.094646 0.433115 0.059976
O O7 0.153931 0.937819 0.070997
O O8 0.122424 0.765358 0.977093
O O9 0.966879 0.818089 0.060408
O O10 0.273587 0.652167 0.582497
#
# Coordination Sequence:
#
# PCOD8148374 Si02
#       5
#     8   8   8   8   8
#     4   9  18  34  59  85 114 156 196 241 298 347
#     4   9  18  34  59  87 112 152 203 240 292 358
#     4  11  25  38  61  94 120 157 204 239 294 365
#     4  11  22  40  62  87 121 158 197 248 297 348
#     4  10  23  41  62  88 125 159 196 248 297 350
#
# _framework density 24.657523000000001
#
# number of rings (size 3 to 8) (size 9 to 14) (size 15 to 20)
#    0.000    2.000    0.000    3.600    0.000   11.200 
#    0.000    1.000    0.000    9.600    0.000    0.000 
#    0.000    0.000    0.000    0.000    0.000    0.000 
#
# Total GULP energy -247917.683396 kJ/mol
# GULP energy per Si atom -12395.884170 kJ/mol
# Density = 2.460140 g / cm^3
# Si number density = 24.657523 Si / 1000 Ang^3
#
#
#
# Elastic Constant Matrix: (Units=GPa)
#
#
# Indices 1 2 3 4 5 6 
#
# 1 41.9996 1.1899 23.2093 -0.0001 9.9990 0.0002
# 2 1.1899 59.6696 5.8712 -0.0005 -0.3524 0.0000
# 3 23.2093 5.8712 223.1349 -0.0012 11.6807 -0.0007
# 4 -0.0001 -0.0005 -0.0012 37.6119 -0.0001 10.2106
# 5 9.9990 -0.3524 11.6807 -0.0001 19.3674 -0.0001
# 6 0.0002 0.0000 -0.0007 10.2106 -0.0001 3.2408
#
#
#
# Elastic Compliance Matrix: (Units=1/GPa)
#
#
# Indices 1 2 3 4 5 6 
#
# 1 0.028202 -0.000421 -0.002230 0.000004 -0.013223 -0.000015
# 2 -0.000421 0.016815 -0.000440 0.000002 0.000789 -0.000005
# 3 -0.002230 -0.000440 0.004817 -0.000001 -0.001762 0.000005
# 4 0.000004 0.000002 -0.000001 0.183768 -0.000002 -0.578994
# 5 -0.013223 0.000789 -0.001762 -0.000002 0.059537 0.000006
# 6 -0.000015 -0.000005 0.000005 -0.578994 0.000006 2.132791
#
#
# Mechanical properties :
#
#
# Convention : Reuss Voigt Hill
#
# Bulk Modulus (GPa) = 22.90824 42.81610 32.86217
# Shear Modulus (GPa) = 2.04360 31.67959 16.86160
#
# Velocity S-wave (km/s) = 0.91137 3.58828 2.61785
# Velocity P-wave (km/s) = 3.22772 5.87960 4.74278
#
# Compressibility (1/GPa) = 0.04365242
#
# Stress axis : x y z
#
# Youngs Moduli (GPa) = 35.45840 59.46967 207.58179
#
# Poissons Ratio (x) = 0.02504 0.46294
# Poissons Ratio (y) = 0.01493 0.09132
# Poissons Ratio (z) = 0.07908 0.02616
#
# Static dielectric constant tensor:
#      x y z
#    x 3.771960 0.000000 0.157150 
#    y 0.000000 4.264980 0.000000 
#    z 0.157150 0.000000 5.373200 
# 
# 
# High freq. dielectric constant tensor:
#      x y z
#    x 1.924310 0.000000 0.014350 
#    y 0.000000 1.985810 0.000000 
#    z 0.014350 0.000000 2.019160 
# 
# From -- ./inp_files/271701.got.cif
#   From: 2010.06.25/outbox.cif.g09.slc.cpg/sg15_136_cif.got.tgz:271701.got - 2010.06.28 07:06:18.
