data_PCOD8148538
_publ_section_title
;
Structure prediction by ZEFSAII (Michael W. Deem and Ramdas Pophale) SiO2 
 PCOD8148538
Probable space group: C 2/C
;
_chemical_formula_sum "Si O2"
_cell_formula_units_Z 40
_cell_length_a 14.678680
_cell_length_b 17.216717
_cell_length_c 14.933292
_cell_angle_alpha 90.000000
_cell_angle_beta 152.001352
_cell_angle_gamma 90.000000
_cell_volume 1771.670352
_symmetry_space_group_name_H-M "C 2/C"
_symmetry_group_IT_number 15
_symmetry_cell_setting 'monoclinic'
loop_
_space_group_symop_operation_xyz
x,y,z
-x,y,1/2-z
-x,-y,-z
x,-y,1/2+z
1/2+x,1/2+y,z
1/2-x,1/2+y,1/2-z
1/2-x,1/2-y,-z
1/2+x,1/2-y,1/2+z
loop_
_atom_site_type_symbol
_atom_site_label
_atom_site_fract_x
_atom_site_fract_y
_atom_site_fract_z
Si Si1 0.983463 0.339742 0.108244
Si Si2 0.718623 0.596943 0.519132
Si Si3 0.000000 0.964888 0.250000
Si Si4 0.000000 0.298755 0.750000
Si Si5 0.633800 0.326567 0.697479
Si Si6 0.595503 0.662011 0.956020
O O1 0.818872 0.337176 0.043790
O O2 0.138189 0.408269 0.268769
O O3 0.110821 0.262160 0.209140
O O4 0.858441 0.352550 0.908885
O O5 0.690732 0.516258 0.440823
O O6 0.502802 0.619990 0.360348
O O7 0.960431 0.907820 0.300711
O O8 0.021050 0.245193 0.856738
O O9 0.812969 0.352116 0.605966
O O10 0.579779 0.339097 0.548233
#
# Coordination Sequence:
#
# PCOD8148538 Si02
#       6
#     8   8   4   4   8   8
#     4  11  23  37  67 101 133 173 215 278 334 379
#     4  11  24  39  63  93 144 179 209 259 333 411
#     4  11  24  48  62  90 141 192 210 254 341 410
#     4   9  20  44  66 100 119 170 226 280 339 366
#     4  12  21  39  66 103 127 166 227 285 320 371
#     4  10  23  41  72  93 131 170 222 281 324 394
#
# _framework density 22.577563000000001
#
# number of rings (size 3 to 8) (size 9 to 14) (size 15 to 20)
#    0.000    1.200    4.000    1.800    2.800    2.400 
#    3.600    1.000    0.000    0.000    0.000    0.000 
#    0.000    0.000    0.000    0.000    0.000    0.000 
#
# Total GULP energy -247800.256482 kJ/mol
# GULP energy per Si atom -12390.012824 kJ/mol
# Density = 2.252618 g / cm^3
# Si number density = 22.577563 Si / 1000 Ang^3
#
#
#
# Elastic Constant Matrix: (Units=GPa)
#
#
# Indices 1 2 3 4 5 6 
#
# 1 53.0109 41.3753 23.8799 -0.0187 -18.3792 -0.0111
# 2 41.3753 93.7767 52.5477 0.0040 -10.6674 0.0013
# 3 23.8799 52.5477 157.3776 0.0135 -11.0507 0.0005
# 4 -0.0187 0.0040 0.0135 36.9107 0.0111 -6.4897
# 5 -18.3792 -10.6674 -11.0507 0.0111 40.0763 -0.0029
# 6 -0.0111 0.0013 0.0005 -6.4897 -0.0029 11.3003
#
#
#
# Elastic Compliance Matrix: (Units=1/GPa)
#
#
# Indices 1 2 3 4 5 6 
#
# 1 0.033405 -0.013558 0.000286 0.000024 0.011790 0.000051
# 2 -0.013558 0.018837 -0.004402 -0.000010 -0.002417 -0.000022
# 3 0.000286 -0.004402 0.007860 -0.000003 0.001127 -0.000001
# 4 0.000024 -0.000010 -0.000003 0.030135 0.000000 0.017307
# 5 0.011790 -0.002417 0.001127 0.000000 0.030026 0.000020
# 6 0.000051 -0.000022 -0.000001 0.017307 0.000020 0.098432
#
#
# Mechanical properties :
#
#
# Convention : Reuss Voigt Hill
#
# Bulk Modulus (GPa) = 40.39784 59.97456 50.18620
# Shear Modulus (GPa) = 19.06253 30.08160 24.57206
#
# Velocity S-wave (km/s) = 2.90886 3.65412 3.30258
# Velocity P-wave (km/s) = 5.40497 6.66520 6.06789
#
# Compressibility (1/GPa) = 0.02475380
#
# Stress axis : x y z
#
# Youngs Moduli (GPa) = 29.93600 53.08641 127.23056
#
# Poissons Ratio (x) = 0.71973 -0.03638
# Poissons Ratio (y) = 0.40586 0.56010
# Poissons Ratio (z) = -0.00856 0.23370
#
# Static dielectric constant tensor:
#      x y z
#    x 3.725870 0.000000 -0.145980 
#    y 0.000000 3.738700 -0.000040 
#    z -0.145980 -0.000040 4.711900 
# 
# 
# High freq. dielectric constant tensor:
#      x y z
#    x 1.859830 0.000000 -0.015310 
#    y 0.000000 1.850830 0.000000 
#    z -0.015310 0.000000 1.927410 
# 
# From -- ./inp_files/155628.got.cif
#   From: 2010.06.25/outbox.cif.g09.slc.cpg/sg15_78_cif.got.tgz:155628.got - 2010.06.28 07:06:18.
