data_PCOD8148075
_publ_section_title
;
Structure prediction by ZEFSAII (Michael W. Deem and Ramdas Pophale) SiO2 
 PCOD8148075
Probable space group: C 2/C
;
_chemical_formula_sum "Si O2"
_cell_formula_units_Z 40
_cell_length_a 9.043106
_cell_length_b 25.447043
_cell_length_c 8.979191
_cell_angle_alpha 90.000000
_cell_angle_beta 102.722866
_cell_angle_gamma 90.000000
_cell_volume 2015.559909
_symmetry_space_group_name_H-M "C 2/C"
_symmetry_group_IT_number 15
_symmetry_cell_setting 'monoclinic'
loop_
_space_group_symop_operation_xyz
x,y,z
-x,y,1/2-z
-x,-y,-z
x,-y,1/2+z
1/2+x,1/2+y,z
1/2-x,1/2+y,1/2-z
1/2-x,1/2-y,-z
1/2+x,1/2-y,1/2+z
loop_
_atom_site_type_symbol
_atom_site_label
_atom_site_fract_x
_atom_site_fract_y
_atom_site_fract_z
Si Si1 0.452604 0.051986 0.905078
Si Si2 0.884423 0.291915 0.360783
Si Si3 0.065834 0.642567 0.111657
Si Si4 0.839215 0.879646 0.135040
Si Si5 0.139763 0.827518 0.675727
O O1 0.500000 0.040531 0.750000
O O2 0.275081 0.069943 0.881601
O O3 0.562165 0.097952 0.986434
O O4 0.500000 0.000000 0.000000
O O5 0.738240 0.329369 0.300012
O O6 0.838013 0.231904 0.375676
O O7 0.000000 0.298893 0.250000
O O8 0.962524 0.308918 0.533252
O O9 0.233356 0.661314 0.174563
O O10 0.000000 0.619359 0.250000
O O11 0.000000 0.892590 0.250000
O O12 0.864358 0.866577 0.965957
O O13 0.000000 0.836521 0.750000
#
# Coordination Sequence:
#
# PCOD8148075 Si02
#       5
#     8   8   8   8   8
#     4  11  25  47  75  94 120 169 214 270 332 398
#     4  10  23  38  59  92 131 189 221 253 315 383
#     4  11  21  40  64  91 131 171 230 257 315 394
#     4  11  24  41  64  97 135 163 215 274 326 375
#     4  11  25  36  61  95 136 180 214 269 315 375
#
# _framework density 19.845602
#
# number of rings (size 3 to 8) (size 9 to 14) (size 15 to 20)
#    0.000    1.200    4.000    3.600    8.400    1.600 
#    0.000    2.000    0.000    0.000    0.000    0.000 
#    0.000    0.000    0.000    0.000    0.000    0.000 
#
# Total GULP energy -247912.014251 kJ/mol
# GULP energy per Si atom -12395.600713 kJ/mol
# Density = 1.980043 g / cm^3
# Si number density = 19.845602 Si / 1000 Ang^3
#
#
#
# Elastic Constant Matrix: (Units=GPa)
#
#
# Indices 1 2 3 4 5 6 
#
# 1 132.8476 71.4952 54.9618 0.0000 22.2719 0.0000
# 2 71.4952 111.1505 61.2567 0.0000 16.2954 0.0000
# 3 54.9618 61.2567 127.3220 0.0000 14.4841 0.0000
# 4 0.0000 0.0000 0.0000 33.5772 0.0000 -2.6446
# 5 22.2719 16.2954 14.4841 0.0000 48.6597 0.0000
# 6 0.0000 0.0000 0.0000 -2.6446 0.0000 58.8833
#
#
#
# Elastic Compliance Matrix: (Units=1/GPa)
#
#
# Indices 1 2 3 4 5 6 
#
# 1 0.012240 -0.006421 -0.001865 0.000000 -0.002897 0.000000
# 2 -0.006421 0.015895 -0.004766 0.000000 -0.000966 0.000000
# 3 -0.001865 -0.004766 0.011048 0.000000 -0.000839 0.000000
# 4 0.000000 0.000000 0.000000 0.029888 0.000000 0.001342
# 5 -0.002897 -0.000966 -0.000839 0.000000 0.022450 0.000000
# 6 0.000000 0.000000 0.000000 0.001342 0.000000 0.017043
#
#
# Mechanical properties :
#
#
# Convention : Reuss Voigt Hill
#
# Bulk Modulus (GPa) = 76.45587 82.97194 79.71390
# Shear Modulus (GPa) = 35.96448 40.46447 38.21448
#
# Velocity S-wave (km/s) = 4.26163 4.52039 4.39291
# Velocity P-wave (km/s) = 7.92618 8.31533 8.12308
#
# Compressibility (1/GPa) = 0.01307944
#
# Stress axis : x y z
#
# Youngs Moduli (GPa) = 81.69821 62.91388 90.51771
#
# Poissons Ratio (x) = 0.40394 0.16883
# Poissons Ratio (y) = 0.52455 0.43139
# Poissons Ratio (z) = 0.15238 0.29983
#
# Static dielectric constant tensor:
#      x y z
#    x 3.767530 0.000000 0.033850 
#    y 0.000000 3.703230 0.000000 
#    z 0.033850 0.000000 3.883220 
# 
# 
# High freq. dielectric constant tensor:
#      x y z
#    x 1.781040 0.000000 -0.004740 
#    y 0.000000 1.756390 0.000000 
#    z -0.004740 0.000000 1.791840 
# 
# From -- ./inp_files/23419.got.cif
#   From: 2010.06.25/outbox.cif.g09.slc.cpg/sg15_12_cif.got.tgz:23419.got - 2010.06.28 07:06:18.
