data_PCOD8148297
_publ_section_title
;
Structure prediction by ZEFSAII (Michael W. Deem and Ramdas Pophale) SiO2 
 PCOD8148297
Probable space group: C 2/C
;
_chemical_formula_sum "Si O2"
_cell_formula_units_Z 48
_cell_length_a 9.082104
_cell_length_b 16.608248
_cell_length_c 16.492433
_cell_angle_alpha 90.000000
_cell_angle_beta 102.394094
_cell_angle_gamma 90.000000
_cell_volume 2429.705974
_symmetry_space_group_name_H-M "C 2/C"
_symmetry_group_IT_number 15
_symmetry_cell_setting 'monoclinic'
loop_
_space_group_symop_operation_xyz
x,y,z
-x,y,1/2-z
-x,-y,-z
x,-y,1/2+z
1/2+x,1/2+y,z
1/2-x,1/2+y,1/2-z
1/2-x,1/2-y,-z
1/2+x,1/2-y,1/2+z
loop_
_atom_site_type_symbol
_atom_site_label
_atom_site_fract_x
_atom_site_fract_y
_atom_site_fract_z
Si Si1 0.058676 0.654849 0.168840
Si Si2 0.849786 0.805805 0.390616
Si Si3 0.564383 0.238668 0.927921
Si Si4 0.059219 0.951760 0.431487
Si Si5 0.330386 0.165467 0.996731
Si Si6 0.609513 0.395636 0.836226
O O1 0.098646 0.750490 0.178761
O O2 0.214422 0.610044 0.165121
O O3 0.000000 0.626326 0.250000
O O4 0.931289 0.637826 0.085670
O O5 0.669331 0.814193 0.379528
O O6 0.886520 0.749530 0.472821
O O7 0.927025 0.891150 0.390304
O O8 0.417904 0.181743 0.921513
O O9 0.550504 0.330256 0.894815
O O10 0.211859 0.905333 0.469963
O O11 0.086914 0.013532 0.362708
O O12 0.000000 0.000000 0.500000
O O13 0.250000 0.250000 0.000000
O O14 0.500000 0.378160 0.750000
#
# Coordination Sequence:
#
# PCOD8148297 Si02
#       6
#     8   8   8   8   8   8
#     4  10  23  40  66  94 124 166 211 258 304 371
#     4   9  18  37  63  88 118 158 207 251 296 368
#     4   9  18  39  62  88 115 157 214 248 294 368
#     4  12  23  38  62  93 127 167 205 261 318 368
#     4  11  21  39  67  93 119 164 219 255 295 374
#     4  11  25  41  62  94 131 164 201 260 328 373
#
# _framework density 19.755476999999999
#
# number of rings (size 3 to 8) (size 9 to 14) (size 15 to 20)
#    0.000    1.667    5.000    1.000    4.667    1.333 
#    0.000    0.000    0.000    0.000    0.000    0.000 
#    0.000    0.000    0.000    0.000    0.000    0.000 
#
# Total GULP energy -297314.193261 kJ/mol
# GULP energy per Si atom -12388.091386 kJ/mol
# Density = 1.971051 g / cm^3
# Si number density = 19.755477 Si / 1000 Ang^3
#
#
#
# Elastic Constant Matrix: (Units=GPa)
#
#
# Indices 1 2 3 4 5 6 
#
# 1 123.8724 61.9474 26.6460 0.0000 -5.3019 0.0000
# 2 61.9474 117.8879 19.0637 0.0000 -6.4772 0.0000
# 3 26.6460 19.0637 48.1050 0.0000 -2.3776 0.0000
# 4 0.0000 0.0000 0.0000 19.3100 0.0000 -3.2149
# 5 -5.3019 -6.4772 -2.3776 0.0000 32.7007 0.0000
# 6 0.0000 0.0000 0.0000 -3.2149 0.0000 41.7428
#
#
#
# Elastic Compliance Matrix: (Units=1/GPa)
#
#
# Indices 1 2 3 4 5 6 
#
# 1 0.011748 -0.005446 -0.004324 0.000000 0.000512 0.000000
# 2 -0.005446 0.011666 -0.001541 0.000000 0.001316 0.000000
# 3 -0.004324 -0.001541 0.023830 0.000000 0.000726 0.000000
# 4 0.000000 0.000000 0.000000 0.052459 0.000000 0.004040
# 5 0.000512 0.001316 0.000726 0.000000 0.030977 0.000000
# 6 0.000000 0.000000 0.000000 0.004040 0.000000 0.024267
#
#
# Mechanical properties :
#
#
# Convention : Reuss Voigt Hill
#
# Bulk Modulus (GPa) = 40.61586 56.13106 48.37346
# Shear Modulus (GPa) = 26.91384 30.89790 28.90587
#
# Velocity S-wave (km/s) = 3.69500 3.95906 3.82931
# Velocity P-wave (km/s) = 6.22961 7.02662 6.64008
#
# Compressibility (1/GPa) = 0.02462093
#
# Stress axis : x y z
#
# Youngs Moduli (GPa) = 85.11767 85.71889 41.96429
#
# Poissons Ratio (x) = 0.46684 0.18146
# Poissons Ratio (y) = 0.46357 0.06469
# Poissons Ratio (z) = 0.36805 0.13213
#
# Static dielectric constant tensor:
#      x y z
#    x 4.510810 0.000000 0.327020 
#    y 0.000000 2.367630 0.000000 
#    z 0.327020 0.000000 4.631880 
# 
# 
# High freq. dielectric constant tensor:
#      x y z
#    x 1.794970 0.000000 -0.013550 
#    y 0.000000 1.757800 0.000000 
#    z -0.013550 0.000000 1.744930 
# 
# From -- ./inp_files/189968.got.cif
#   From: 2010.06.25/outbox.cif.g09.slc.cpg/sg15_95_cif.got.tgz:189968.got - 2010.06.28 07:06:18.
