data_PCOD8148292
_publ_section_title
;
Structure prediction by ZEFSAII (Michael W. Deem and Ramdas Pophale) SiO2 
 PCOD8148292
Probable space group: C 2/C
;
_chemical_formula_sum "Si O2"
_cell_formula_units_Z 40
_cell_length_a 12.905436
_cell_length_b 11.865255
_cell_length_c 19.599383
_cell_angle_alpha 90.000000
_cell_angle_beta 37.069253
_cell_angle_gamma 90.000000
_cell_volume 1809.051419
_symmetry_space_group_name_H-M "C 2/C"
_symmetry_group_IT_number 15
_symmetry_cell_setting 'monoclinic'
loop_
_space_group_symop_operation_xyz
x,y,z
-x,y,1/2-z
-x,-y,-z
x,-y,1/2+z
1/2+x,1/2+y,z
1/2-x,1/2+y,1/2-z
1/2-x,1/2-y,-z
1/2+x,1/2-y,1/2+z
loop_
_atom_site_type_symbol
_atom_site_label
_atom_site_fract_x
_atom_site_fract_y
_atom_site_fract_z
Si Si1 0.957783 0.061298 0.452123
Si Si2 0.998387 0.850023 0.353072
Si Si3 0.617598 0.195379 0.858487
Si Si4 0.856038 0.658130 0.510365
Si Si5 0.432169 0.028493 0.859878
O O1 0.754968 0.081479 0.550727
O O2 0.046182 0.179633 0.393845
O O3 0.031461 0.980080 0.354611
O O4 0.000000 0.000000 0.500000
O O5 0.904959 0.786302 0.465529
O O6 0.853037 0.848835 0.369775
O O7 0.177369 0.789004 0.245385
O O8 0.555829 0.125067 0.825628
O O9 0.560610 0.133205 0.959111
O O10 0.929063 0.576300 0.413430
O O11 0.500000 0.989324 0.750000
#
# Coordination Sequence:
#
# PCOD8148292 Si02
#       5
#     8   8   8   8   8
#     4  11  23  45  66 100 140 174 226 283 340 410
#     4  10  23  40  66 105 130 181 218 282 340 401
#     4  12  24  43  72 100 139 177 231 278 348 404
#     4  10  23  43  69 100 139 169 238 280 326 408
#     4  11  26  44  69 101 139 184 223 278 353 403
#
# _framework density 22.111035000000001
#
# number of rings (size 3 to 8) (size 9 to 14) (size 15 to 20)
#    0.000    1.200    2.000    3.000    5.600    0.000 
#    0.000    2.000    0.000    0.000    0.000    0.000 
#    0.000    0.000    0.000    0.000    0.000    0.000 
#
# Total GULP energy -247922.899367 kJ/mol
# GULP energy per Si atom -12396.144968 kJ/mol
# Density = 2.206071 g / cm^3
# Si number density = 22.111035 Si / 1000 Ang^3
#
#
#
# Elastic Constant Matrix: (Units=GPa)
#
#
# Indices 1 2 3 4 5 6 
#
# 1 119.7622 52.1172 33.7911 0.0000 5.0763 0.0000
# 2 52.1172 124.0121 54.9641 -0.0001 -7.0726 0.0000
# 3 33.7911 54.9641 84.9086 -0.0002 -16.8902 0.0003
# 4 0.0000 -0.0001 -0.0002 30.6233 0.0001 -4.8074
# 5 5.0763 -7.0726 -16.8902 0.0001 27.1697 0.0000
# 6 0.0000 0.0000 0.0003 -4.8074 0.0000 32.4109
#
#
#
# Elastic Compliance Matrix: (Units=1/GPa)
#
#
# Indices 1 2 3 4 5 6 
#
# 1 0.010950 -0.003533 -0.003036 0.000000 -0.004853 0.000000
# 2 -0.003533 0.012529 -0.006760 0.000000 -0.000281 0.000000
# 3 -0.003036 -0.006760 0.019541 0.000000 0.010955 0.000000
# 4 0.000000 0.000000 0.000000 0.033433 0.000000 0.004959
# 5 -0.004853 -0.000281 0.010955 0.000000 0.044450 0.000000
# 6 0.000000 0.000000 0.000000 0.004959 0.000000 0.031589
#
#
# Mechanical properties :
#
#
# Convention : Reuss Voigt Hill
#
# Bulk Modulus (GPa) = 61.12041 67.82532 64.47287
# Shear Modulus (GPa) = 27.08514 30.56148 28.82331
#
# Velocity S-wave (km/s) = 3.50374 3.72180 3.61442
# Velocity P-wave (km/s) = 6.63858 7.01502 6.82940
#
# Compressibility (1/GPa) = 0.01636115
#
# Stress axis : x y z
#
# Youngs Moduli (GPa) = 91.32778 79.81754 51.17468
#
# Poissons Ratio (x) = 0.28198 0.15537
# Poissons Ratio (y) = 0.32264 0.34595
# Poissons Ratio (z) = 0.27728 0.53958
#
# Static dielectric constant tensor:
#      x y z
#    x 4.293870 0.000000 -0.174020 
#    y 0.000000 3.983070 0.000000 
#    z -0.174020 0.000000 3.877490 
# 
# 
# High freq. dielectric constant tensor:
#      x y z
#    x 1.886520 0.000000 -0.007600 
#    y 0.000000 1.866640 0.000000 
#    z -0.007600 0.000000 1.866120 
# 
# From -- ./inp_files/237348.got.cif
#   From: 2010.06.25/outbox.cif.g09.slc.cpg/sg15_119_cif.got.tgz:237348.got - 2010.06.28 07:06:18.
