data_PCOD8148685
_publ_section_title
;
Structure prediction by ZEFSAII (Michael W. Deem and Ramdas Pophale) SiO2 
 PCOD8148685
Probable space group: C 2/C
;
_chemical_formula_sum "Si O2"
_cell_formula_units_Z 48
_cell_length_a 18.888166
_cell_length_b 11.183353
_cell_length_c 12.564810
_cell_angle_alpha 90.000000
_cell_angle_beta 125.728810
_cell_angle_gamma 90.000000
_cell_volume 2154.574169
_symmetry_space_group_name_H-M "C 2/C"
_symmetry_group_IT_number 15
_symmetry_cell_setting 'monoclinic'
loop_
_space_group_symop_operation_xyz
x,y,z
-x,y,1/2-z
-x,-y,-z
x,-y,1/2+z
1/2+x,1/2+y,z
1/2-x,1/2+y,1/2-z
1/2-x,1/2-y,-z
1/2+x,1/2-y,1/2+z
loop_
_atom_site_type_symbol
_atom_site_label
_atom_site_fract_x
_atom_site_fract_y
_atom_site_fract_z
Si Si1 0.249264 0.054233 0.962811
Si Si2 0.564478 0.484418 0.214620
Si Si3 0.075665 0.765665 0.073571
Si Si4 0.253344 0.205378 0.165231
Si Si5 0.160316 0.315995 0.439138
Si Si6 0.407782 0.264900 0.832903
O O1 0.158775 0.997603 0.849125
O O2 0.271806 0.170420 0.913405
O O3 0.240441 0.092049 0.078253
O O4 0.324143 0.954198 0.013183
O O5 0.500000 0.435172 0.250000
O O6 0.567202 0.397582 0.115663
O O7 0.538177 0.615584 0.151921
O O8 0.145912 0.695978 0.208319
O O9 0.110633 0.761511 0.983696
O O10 0.977046 0.707388 0.979634
O O11 0.186096 0.196835 0.203299
O O12 0.250000 0.250000 0.500000
O O13 0.105237 0.319114 0.280829
#
# Coordination Sequence:
#
# PCOD8148685 Si02
#       6
#     8   8   8   8   8   8
#     4  10  23  42  67  90 130 170 219 259 327 376
#     4  11  22  38  66  99 128 162 214 279 328 374
#     4  11  24  41  62  97 129 169 215 259 325 382
#     4  10  23  44  65  94 125 176 213 269 313 387
#     4  12  23  41  62  94 131 170 207 260 320 384
#     4  12  24  38  66  94 134 166 218 265 327 380
#
# _framework density 22.278182999999999
#
# number of rings (size 3 to 8) (size 9 to 14) (size 15 to 20)
#    0.000    1.000    3.333    3.000    2.333    1.333 
#    0.000    5.000    0.000    0.000    0.000    0.000 
#    0.000    0.000    0.000    0.000    0.000    0.000 
#
# Total GULP energy -297475.294218 kJ/mol
# GULP energy per Si atom -12394.803926 kJ/mol
# Density = 2.222748 g / cm^3
# Si number density = 22.278183 Si / 1000 Ang^3
#
#
#
# Elastic Constant Matrix: (Units=GPa)
#
#
# Indices 1 2 3 4 5 6 
#
# 1 97.3113 37.6587 33.0536 0.0000 -5.6247 0.0000
# 2 37.6587 84.9179 42.5805 0.0000 -3.7720 0.0000
# 3 33.0536 42.5805 157.2838 0.0000 12.8836 0.0000
# 4 0.0000 0.0000 0.0000 16.7981 0.0000 -0.7307
# 5 -5.6247 -3.7720 12.8836 0.0000 42.2016 0.0000
# 6 0.0000 0.0000 0.0000 -0.7307 0.0000 27.3194
#
#
#
# Elastic Compliance Matrix: (Units=1/GPa)
#
#
# Indices 1 2 3 4 5 6 
#
# 1 0.012757 -0.004819 -0.001518 0.000000 0.001733 0.000000
# 2 -0.004819 0.015688 -0.003381 0.000000 0.001792 0.000000
# 3 -0.001518 -0.003381 0.007830 0.000000 -0.002895 0.000000
# 4 0.000000 0.000000 0.000000 0.059600 0.000000 0.001594
# 5 0.001733 0.001792 -0.002895 0.000000 0.024971 0.000000
# 6 0.000000 0.000000 0.000000 0.001594 0.000000 0.036647
#
#
# Mechanical properties :
#
#
# Convention : Reuss Voigt Hill
#
# Bulk Modulus (GPa) = 59.39068 62.89986 61.14527
# Shear Modulus (GPa) = 27.39092 32.34515 29.86804
#
# Velocity S-wave (km/s) = 3.51022 3.81448 3.66551
# Velocity P-wave (km/s) = 6.56852 6.90619 6.73947
#
# Compressibility (1/GPa) = 0.01683766
#
# Stress axis : x y z
#
# Youngs Moduli (GPa) = 78.38738 63.74173 127.72207
#
# Poissons Ratio (x) = 0.30718 0.19391
# Poissons Ratio (y) = 0.37776 0.43186
# Poissons Ratio (z) = 0.11901 0.21553
#
# Static dielectric constant tensor:
#      x y z
#    x 3.968260 0.000000 0.144870 
#    y 0.000000 3.823040 0.000000 
#    z 0.144870 0.000000 4.502850 
# 
# 
# High freq. dielectric constant tensor:
#      x y z
#    x 1.870330 0.000000 0.005970 
#    y 0.000000 1.849570 0.000000 
#    z 0.005970 0.000000 1.908130 
# 
# From -- ./inp_files/111808.got.cif
#   From: 2010.06.25/outbox.cif.g09.slc.cpg/sg15_56_cif.got.tgz:111808.got - 2010.06.28 07:06:18.
