data_PCOD8148231
_publ_section_title
;
Structure prediction by ZEFSAII (Michael W. Deem and Ramdas Pophale) SiO2 
 PCOD8148231
Probable space group: C 2/C
;
_chemical_formula_sum "Si O2"
_cell_formula_units_Z 56
_cell_length_a 14.958925
_cell_length_b 16.603667
_cell_length_c 12.956378
_cell_angle_alpha 90.000000
_cell_angle_beta 64.504750
_cell_angle_gamma 90.000000
_cell_volume 2904.647461
_symmetry_space_group_name_H-M "C 2/C"
_symmetry_group_IT_number 15
_symmetry_cell_setting 'monoclinic'
loop_
_space_group_symop_operation_xyz
x,y,z
-x,y,1/2-z
-x,-y,-z
x,-y,1/2+z
1/2+x,1/2+y,z
1/2-x,1/2+y,1/2-z
1/2-x,1/2-y,-z
1/2+x,1/2-y,1/2+z
loop_
_atom_site_type_symbol
_atom_site_label
_atom_site_fract_x
_atom_site_fract_y
_atom_site_fract_z
Si Si1 0.405969 0.053176 0.518625
Si Si2 0.669745 0.361527 0.877490
Si Si3 0.611870 0.463543 0.721806
Si Si4 0.257294 0.408346 0.245261
Si Si5 0.261719 0.487456 0.033337
Si Si6 0.445551 0.234598 0.433735
Si Si7 0.847205 0.252804 0.764574
O O1 0.340873 0.056105 0.654127
O O2 0.345881 0.012048 0.455400
O O3 0.433725 0.142057 0.468621
O O4 0.500000 0.000000 0.500000
O O5 0.621456 0.388334 0.793941
O O6 0.678809 0.434817 0.953775
O O7 0.781635 0.333424 0.796454
O O8 0.597872 0.292160 0.956427
O O9 0.500000 0.479242 0.750000
O O10 0.647380 0.544488 0.760317
O O11 0.673968 0.445954 0.587848
O O12 0.246380 0.419982 0.128351
O O13 0.270583 0.316284 0.270172
O O14 0.563168 0.246294 0.361335
O O15 0.387064 0.259141 0.360017
#
# Coordination Sequence:
#
# PCOD8148231 Si02
#       7
#     8   8   8   8   8   8   8
#     4  11  23  40  65  92 126 161 213 256 316 378
#     4  11  22  43  65  89 127 162 211 264 309 373
#     4  10  24  39  61  90 123 162 209 249 317 380
#     4  10  23  40  62  91 125 161 207 263 314 369
#     4  10  23  41  64  90 127 166 205 265 316 374
#     4  11  23  37  67  93 123 163 207 266 311 365
#     4  11  23  38  64  95 122 157 212 259 316 363
#
# _framework density 19.279447999999999
#
# number of rings (size 3 to 8) (size 9 to 14) (size 15 to 20)
#    0.000    1.429    2.857    2.143   12.000    1.714 
#    0.000    2.143    0.000    0.000    0.000    0.000 
#    0.000    0.000    0.000    0.000    0.000    0.000 
#
# Total GULP energy -347272.724319 kJ/mol
# GULP energy per Si atom -12402.597297 kJ/mol
# Density = 1.923557 g / cm^3
# Si number density = 19.279448 Si / 1000 Ang^3
#
#
#
# Elastic Constant Matrix: (Units=GPa)
#
#
# Indices 1 2 3 4 5 6 
#
# 1 108.7689 39.9258 65.1301 0.0000 -8.8675 0.0000
# 2 39.9258 90.6697 53.0241 0.0000 2.5370 0.0000
# 3 65.1301 53.0241 123.1853 0.0000 7.6726 0.0000
# 4 0.0000 0.0000 0.0000 26.8751 0.0000 -9.5611
# 5 -8.8675 2.5370 7.6726 0.0000 32.9256 0.0000
# 6 0.0000 0.0000 0.0000 -9.5611 0.0000 22.3638
#
#
#
# Elastic Compliance Matrix: (Units=1/GPa)
#
#
# Indices 1 2 3 4 5 6 
#
# 1 0.014879 -0.002542 -0.007138 0.000000 0.005867 0.000000
# 2 -0.002542 0.015177 -0.005148 0.000000 -0.000654 0.000000
# 3 -0.007138 -0.005148 0.014412 0.000000 -0.004884 0.000000
# 4 0.000000 0.000000 0.000000 0.043884 0.000000 0.018761
# 5 0.005867 -0.000654 -0.004884 0.000000 0.033140 0.000000
# 6 0.000000 0.000000 0.000000 0.018761 0.000000 0.052736
#
#
# Mechanical properties :
#
#
# Convention : Reuss Voigt Hill
#
# Bulk Modulus (GPa) = 67.51162 70.97601 69.24381
# Shear Modulus (GPa) = 23.94365 27.40248 25.67307
#
# Velocity S-wave (km/s) = 3.52792 3.77414 3.65311
# Velocity P-wave (km/s) = 7.18946 7.47573 7.33399
#
# Compressibility (1/GPa) = 0.01481227
#
# Stress axis : x y z
#
# Youngs Moduli (GPa) = 67.20666 65.88760 69.38497
#
# Poissons Ratio (x) = 0.16746 0.49530
# Poissons Ratio (y) = 0.17082 0.35722
# Poissons Ratio (z) = 0.47975 0.33922
#
# Static dielectric constant tensor:
#      x y z
#    x 3.558170 0.000000 -0.087150 
#    y 0.000000 3.440310 0.000000 
#    z -0.087150 0.000000 3.781100 
# 
# 
# High freq. dielectric constant tensor:
#      x y z
#    x 1.747570 0.000000 -0.007110 
#    y 0.000000 1.745560 0.000000 
#    z -0.007110 0.000000 1.761470 
# 
# From -- ./inp_files/98687.got.cif
#   From: 2010.06.25/outbox.cif.g09.slc.cpg/sg15_50_cif.got.tgz:98687.got - 2010.06.28 07:06:18.
