data_PCOD8148624
_publ_section_title
;
Structure prediction by ZEFSAII (Michael W. Deem and Ramdas Pophale) SiO2 
 PCOD8148624
Probable space group: C 2/C
;
_chemical_formula_sum "Si O2"
_cell_formula_units_Z 64
_cell_length_a 30.071558
_cell_length_b 18.574016
_cell_length_c 9.495311
_cell_angle_alpha 90.000000
_cell_angle_beta 38.108825
_cell_angle_gamma 90.000000
_cell_volume 3273.155597
_symmetry_space_group_name_H-M "C 2/C"
_symmetry_group_IT_number 15
_symmetry_cell_setting 'monoclinic'
loop_
_space_group_symop_operation_xyz
x,y,z
-x,y,1/2-z
-x,-y,-z
x,-y,1/2+z
1/2+x,1/2+y,z
1/2-x,1/2+y,1/2-z
1/2-x,1/2-y,-z
1/2+x,1/2-y,1/2+z
loop_
_atom_site_type_symbol
_atom_site_label
_atom_site_fract_x
_atom_site_fract_y
_atom_site_fract_z
Si Si1 0.312432 0.565996 0.308173
Si Si2 0.570502 0.688364 0.487681
Si Si3 0.418644 0.850245 0.419646
Si Si4 0.189347 0.928314 0.358631
Si Si5 0.849145 0.573817 0.841589
Si Si6 0.583090 0.155902 0.062976
Si Si7 0.153412 0.408999 0.638874
Si Si8 0.067384 0.187806 0.168691
O O1 0.368075 0.629650 0.141693
O O2 0.340700 0.495114 0.157444
O O3 0.302557 0.548793 0.498260
O O4 0.236119 0.587394 0.428836
O O5 0.602455 0.763842 0.463497
O O6 0.547313 0.695015 0.383028
O O7 0.500000 0.665321 0.750000
O O8 0.500000 0.876184 0.250000
O O9 0.396845 0.873988 0.318233
O O10 0.359861 0.887082 0.667119
O O11 0.412210 0.764625 0.447500
O O12 0.134343 0.863639 0.479048
O O13 0.263658 0.899073 0.109232
O O14 0.869853 0.595167 0.631571
O O15 0.869711 0.491806 0.823861
O O16 0.500000 0.139404 0.250000
O O17 0.603034 0.145427 0.176360
O O18 0.000000 0.155630 0.250000
#
# Coordination Sequence:
#
# PCOD8148624 Si02
#       8
#     8   8   8   8   8   8   8   8
#     4  10  23  42  65  92 123 157 200 252 305 363
#     4  10  23  42  65  92 121 159 203 248 304 365
#     4  11  24  40  60  89 126 163 204 250 301 354
#     4  10  23  43  64  92 123 157 201 251 306 362
#     4  11  22  40  61  88 122 163 203 249 301 353
#     4  11  22  38  61  90 120 159 205 249 294 355
#     4  11  24  38  60  91 124 159 206 249 296 357
#     4  10  23  43  64  90 125 159 198 252 305 362
#
# _framework density 19.552997000000001
#
# number of rings (size 3 to 8) (size 9 to 14) (size 15 to 20)
#    0.000    1.500    2.500    1.500   10.500    6.500 
#    0.000    2.500    0.000    0.000    0.000    0.000 
#    0.000    0.000    0.000    0.000    0.000    0.000 
#
# Total GULP energy -396934.292127 kJ/mol
# GULP energy per Si atom -12404.196629 kJ/mol
# Density = 1.950849 g / cm^3
# Si number density = 19.552997 Si / 1000 Ang^3
#
#
#
# Elastic Constant Matrix: (Units=GPa)
#
#
# Indices 1 2 3 4 5 6 
#
# 1 91.1275 46.1524 24.3401 0.0000 -3.8741 0.0000
# 2 46.1524 95.0456 55.1728 0.0000 -11.1633 0.0000
# 3 24.3401 55.1728 108.7443 0.0000 -1.8106 0.0000
# 4 0.0000 0.0000 0.0000 30.7380 0.0000 1.1202
# 5 -3.8741 -11.1633 -1.8106 0.0000 21.9980 0.0000
# 6 0.0000 0.0000 0.0000 1.1202 0.0000 31.5917
#
#
#
# Elastic Compliance Matrix: (Units=1/GPa)
#
#
# Indices 1 2 3 4 5 6 
#
# 1 0.014599 -0.007545 0.000540 0.000000 -0.001213 0.000000
# 2 -0.007545 0.019957 -0.008302 0.000000 0.008116 0.000000
# 3 0.000540 -0.008302 0.013236 0.000000 -0.003028 0.000000
# 4 0.000000 0.000000 0.000000 0.032575 0.000000 -0.001155
# 5 -0.001213 0.008116 -0.003028 0.000000 0.049114 0.000000
# 6 0.000000 0.000000 0.000000 -0.001155 0.000000 0.031695
#
#
# Mechanical properties :
#
#
# Convention : Reuss Voigt Hill
#
# Bulk Modulus (GPa) = 58.20820 60.69423 59.45122
# Shear Modulus (GPa) = 25.31434 28.14899 26.73166
#
# Velocity S-wave (km/s) = 3.60203 3.79836 3.70150
# Velocity P-wave (km/s) = 6.86539 7.09542 6.98135
#
# Compressibility (1/GPa) = 0.01717971
#
# Stress axis : x y z
#
# Youngs Moduli (GPa) = 68.49747 50.10722 75.54896
#
# Poissons Ratio (x) = 0.37807 -0.04081
# Poissons Ratio (y) = 0.51682 0.62718
# Poissons Ratio (z) = -0.03700 0.41597
#
# Static dielectric constant tensor:
#      x y z
#    x 3.597770 0.000000 0.116020 
#    y 0.000000 3.516530 0.000000 
#    z 0.116020 0.000000 3.585730 
# 
# 
# High freq. dielectric constant tensor:
#      x y z
#    x 1.768780 0.000000 0.006900 
#    y 0.000000 1.761990 0.000000 
#    z 0.006900 0.000000 1.769610 
# 
# From -- ./inp_files/70576.got.cif
#   From: 2010.06.25/outbox.cif.g09.slc.cpg/sg15_36_cif.got.tgz:70576.got - 2010.06.28 07:06:18.
