data_PCOD8148068
_publ_section_title
;
Structure prediction by ZEFSAII (Michael W. Deem and Ramdas Pophale) SiO2 
 PCOD8148068
Probable space group: C 2/C
;
_chemical_formula_sum "Si O2"
_cell_formula_units_Z 48
_cell_length_a 18.033028
_cell_length_b 24.994517
_cell_length_c 5.129393
_cell_angle_alpha 90.000000
_cell_angle_beta 76.496268
_cell_angle_gamma 90.000000
_cell_volume 2248.040360
_symmetry_space_group_name_H-M "C 2/C"
_symmetry_group_IT_number 15
_symmetry_cell_setting 'monoclinic'
loop_
_space_group_symop_operation_xyz
x,y,z
-x,y,1/2-z
-x,-y,-z
x,-y,1/2+z
1/2+x,1/2+y,z
1/2-x,1/2+y,1/2-z
1/2-x,1/2-y,-z
1/2+x,1/2-y,1/2+z
loop_
_atom_site_type_symbol
_atom_site_label
_atom_site_fract_x
_atom_site_fract_y
_atom_site_fract_z
Si Si1 0.584624 0.022673 0.974150
Si Si2 0.181499 0.208168 0.017505
Si Si3 0.693387 0.636837 0.508498
Si Si4 0.913577 0.305230 0.393537
Si Si5 0.136278 0.364842 0.552075
Si Si6 0.089019 0.034472 0.677026
O O1 0.627540 0.011701 0.665228
O O2 0.581625 0.084486 0.052905
O O3 0.500000 0.000000 0.000000
O O4 0.184324 0.182572 0.730754
O O5 0.250000 0.250000 0.000000
O O6 0.178959 0.162484 0.237796
O O7 0.103115 0.242005 0.091053
O O8 0.779428 0.614398 0.447121
O O9 0.635245 0.588991 0.606084
O O10 0.897675 0.328888 0.691171
O O11 0.000000 0.316631 0.250000
O O12 0.859272 0.332009 0.220863
O O13 0.000000 0.049685 0.750000
O O14 0.110849 0.993415 0.430340
#
# Coordination Sequence:
#
# PCOD8148068 Si02
#       6
#     8   8   8   8   8   8
#     4  10  23  38  57  84 119 166 210 274 311 367
#     4  12  23  45  66  97 134 172 225 277 343 382
#     4  12  24  41  75  98 132 179 222 276 332 411
#     4  12  27  41  66  93 129 176 217 276 322 408
#     4  12  24  42  64  94 127 174 227 265 339 383
#     4  10  23  44  69 103 143 175 216 279 346 407
#
# _framework density 21.351932000000001
#
# number of rings (size 3 to 8) (size 9 to 14) (size 15 to 20)
#    0.000    0.667    3.333    4.000    7.000    2.667 
#    0.000    0.000    0.000    0.000    0.000    0.000 
#    0.000    0.000    0.000    0.000    0.000    0.000 
#
# Total GULP energy -297626.760697 kJ/mol
# GULP energy per Si atom -12401.115029 kJ/mol
# Density = 2.130333 g / cm^3
# Si number density = 21.351932 Si / 1000 Ang^3
#
#
#
# Elastic Constant Matrix: (Units=GPa)
#
#
# Indices 1 2 3 4 5 6 
#
# 1 69.6563 42.6749 19.7101 0.0000 -6.4488 0.0000
# 2 42.6749 115.1816 31.3779 0.0000 -7.2309 0.0000
# 3 19.7101 31.3779 118.4437 0.0000 18.9325 0.0000
# 4 0.0000 0.0000 0.0000 43.6600 0.0000 -0.9244
# 5 -6.4488 -7.2309 18.9325 0.0000 31.2952 0.0000
# 6 0.0000 0.0000 0.0000 -0.9244 0.0000 44.1557
#
#
#
# Elastic Compliance Matrix: (Units=1/GPa)
#
#
# Indices 1 2 3 4 5 6 
#
# 1 0.019156 -0.006280 -0.002129 0.000000 0.003784 0.000000
# 2 -0.006280 0.011905 -0.002592 0.000000 0.003025 0.000000
# 3 -0.002129 -0.002592 0.010683 0.000000 -0.007500 0.000000
# 4 0.000000 0.000000 0.000000 0.022914 0.000000 0.000480
# 5 0.003784 0.003025 -0.007500 0.000000 0.037970 0.000000
# 6 0.000000 0.000000 0.000000 0.000480 0.000000 0.022657
#
#
# Mechanical properties :
#
#
# Convention : Reuss Voigt Hill
#
# Bulk Modulus (GPa) = 50.65477 54.53415 52.59446
# Shear Modulus (GPa) = 32.49534 37.79011 35.14273
#
# Velocity S-wave (km/s) = 3.90538 4.21154 4.06135
# Velocity P-wave (km/s) = 6.64163 7.01752 6.83216
#
# Compressibility (1/GPa) = 0.01974148
#
# Stress axis : x y z
#
# Youngs Moduli (GPa) = 52.20196 84.00027 93.60891
#
# Poissons Ratio (x) = 0.52751 0.19930
# Poissons Ratio (y) = 0.32782 0.24266
# Poissons Ratio (z) = 0.11114 0.21775
#
# Static dielectric constant tensor:
#      x y z
#    x 3.952740 0.000000 0.084970 
#    y 0.000000 3.894200 0.000000 
#    z 0.084970 0.000000 3.708620 
# 
# 
# High freq. dielectric constant tensor:
#      x y z
#    x 1.827250 0.000000 0.012960 
#    y 0.000000 1.839650 0.000000 
#    z 0.012960 0.000000 1.865850 
# 
# From -- ./inp_files/10884.got.cif
#   From: 2010.06.25/outbox.cif.g09.slc.cpg/sg15_6_cif.got.tgz:10884.got - 2010.06.28 07:06:18.
