data_PCOD8148399
_publ_section_title
;
Structure prediction by ZEFSAII (Michael W. Deem and Ramdas Pophale) SiO2 
 PCOD8148399
Probable space group: C 2/C
;
_chemical_formula_sum "Si O2"
_cell_formula_units_Z 56
_cell_length_a 27.003022
_cell_length_b 16.704627
_cell_length_c 9.168199
_cell_angle_alpha 90.000000
_cell_angle_beta 40.117466
_cell_angle_gamma 90.000000
_cell_volume 2664.769110
_symmetry_space_group_name_H-M "C 2/C"
_symmetry_group_IT_number 15
_symmetry_cell_setting 'monoclinic'
loop_
_space_group_symop_operation_xyz
x,y,z
-x,y,1/2-z
-x,-y,-z
x,-y,1/2+z
1/2+x,1/2+y,z
1/2-x,1/2+y,1/2-z
1/2-x,1/2-y,-z
1/2+x,1/2-y,1/2+z
loop_
_atom_site_type_symbol
_atom_site_label
_atom_site_fract_x
_atom_site_fract_y
_atom_site_fract_z
Si Si1 0.306131 0.969542 0.293700
Si Si2 0.061571 0.747261 0.489115
Si Si3 0.544863 0.063147 0.498922
Si Si4 0.190789 0.731520 0.422231
Si Si5 0.153983 0.301494 0.322968
Si Si6 0.725243 0.574453 0.263889
Si Si7 0.574076 0.334307 0.165601
O O1 0.361168 0.895802 0.122037
O O2 0.244939 0.940699 0.551607
O O3 0.249448 0.994879 0.292882
O O4 0.365237 0.039437 0.202936
O O5 0.046084 0.658208 0.455127
O O6 0.142384 0.759358 0.391777
O O7 0.059833 0.815458 0.368042
O O8 0.000000 0.769066 0.750000
O O9 0.500000 0.056265 0.750000
O O10 0.500000 0.000000 0.500000
O O11 0.140899 0.721801 0.682581
O O12 0.259823 0.790243 0.309586
O O13 0.223385 0.647108 0.295190
O O14 0.094471 0.251026 0.549173
O O15 0.637035 0.597113 0.493416
O O16 0.500000 0.368544 0.250000
#
# Coordination Sequence:
#
# PCOD8148399 Si02
#       7
#     8   8   8   8   8   8   8
#     4  11  22  39  64  94 130 169 215 261 325 379
#     4  11  24  38  62  89 131 170 212 265 316 389
#     4  11  25  37  57  93 136 170 206 255 321 394
#     4   9  18  41  55  92 123 160 209 263 311 380
#     4   9  21  34  67  86 122 163 209 261 318 381
#     4  10  23  41  63  92 128 170 213 273 316 391
#     4  11  25  43  64  92 128 170 225 267 329 382
#
# _framework density 21.014952999999998
#
# number of rings (size 3 to 8) (size 9 to 14) (size 15 to 20)
#    0.000    1.714    1.429    2.571   12.000    3.429 
#    0.000    0.714    0.000    0.857    0.000    0.000 
#    0.000    0.000    0.000    0.000    0.000    0.000 
#
# Total GULP energy -346978.342840 kJ/mol
# GULP energy per Si atom -12392.083673 kJ/mol
# Density = 2.096712 g / cm^3
# Si number density = 21.014953 Si / 1000 Ang^3
#
#
#
# Elastic Constant Matrix: (Units=GPa)
#
#
# Indices 1 2 3 4 5 6 
#
# 1 93.5252 -1.8818 10.5669 0.0000 6.1994 0.0000
# 2 -1.8818 32.4330 13.7913 0.0000 9.1102 0.0000
# 3 10.5669 13.7913 82.6509 0.0000 -7.4932 0.0000
# 4 0.0000 0.0000 0.0000 20.6435 0.0000 -0.1133
# 5 6.1994 9.1102 -7.4932 0.0000 18.5179 0.0000
# 6 0.0000 0.0000 0.0000 -0.1133 0.0000 30.9911
#
#
#
# Elastic Compliance Matrix: (Units=1/GPa)
#
#
# Indices 1 2 3 4 5 6 
#
# 1 0.011524 0.003728 -0.002711 0.000000 -0.006789 0.000000
# 2 0.003728 0.042675 -0.009980 0.000000 -0.026281 0.000000
# 3 -0.002711 -0.009980 0.015196 0.000000 0.011966 0.000000
# 4 0.000000 0.000000 0.000000 0.048442 0.000000 0.000177
# 5 -0.006789 -0.026281 0.011966 0.000000 0.074046 0.000000
# 6 0.000000 0.000000 0.000000 0.000177 0.000000 0.032268
#
#
# Mechanical properties :
#
#
# Convention : Reuss Voigt Hill
#
# Bulk Modulus (GPa) = 19.42917 28.17356 23.80136
# Shear Modulus (GPa) = 19.28765 26.43934 22.86350
#
# Velocity S-wave (km/s) = 3.03282 3.55085 3.30201
# Velocity P-wave (km/s) = 4.63998 5.49972 5.08804
#
# Compressibility (1/GPa) = 0.05146902
#
# Stress axis : x y z
#
# Youngs Moduli (GPa) = 86.77823 23.43288 65.80732
#
# Poissons Ratio (x) = -0.08737 0.17840
# Poissons Ratio (y) = -0.32354 0.65677
# Poissons Ratio (z) = 0.23525 0.23386
#
# Static dielectric constant tensor:
#      x y z
#    x 3.798360 0.000000 -0.001520 
#    y 0.000000 4.167110 0.000000 
#    z -0.001520 0.000000 3.749200 
# 
# 
# High freq. dielectric constant tensor:
#      x y z
#    x 1.824040 0.000000 0.002540 
#    y 0.000000 1.804650 0.000000 
#    z 0.002540 0.000000 1.822400 
# 
# From -- ./inp_files/62692.got.cif
#   From: 2010.06.25/outbox.cif.g09.slc.cpg/sg15_32_cif.got.tgz:62692.got - 2010.06.28 07:06:18.
