data_PCOD8148547
_publ_section_title
;
Structure prediction by ZEFSAII (Michael W. Deem and Ramdas Pophale) SiO2 
 PCOD8148547
Probable space group: C 2/C
;
_chemical_formula_sum "Si O2"
_cell_formula_units_Z 40
_cell_length_a 16.170561
_cell_length_b 9.760316
_cell_length_c 12.098978
_cell_angle_alpha 90.000000
_cell_angle_beta 100.141594
_cell_angle_gamma 90.000000
_cell_volume 1879.743096
_symmetry_space_group_name_H-M "C 2/C"
_symmetry_group_IT_number 15
_symmetry_cell_setting 'monoclinic'
loop_
_space_group_symop_operation_xyz
x,y,z
-x,y,1/2-z
-x,-y,-z
x,-y,1/2+z
1/2+x,1/2+y,z
1/2-x,1/2+y,1/2-z
1/2-x,1/2-y,-z
1/2+x,1/2-y,1/2+z
loop_
_atom_site_type_symbol
_atom_site_label
_atom_site_fract_x
_atom_site_fract_y
_atom_site_fract_z
Si Si1 0.788374 0.867431 0.582654
Si Si2 0.028353 0.659011 0.378985
Si Si3 0.916297 0.923564 0.005832
Si Si4 0.588379 0.746006 0.210831
Si Si5 0.116547 0.496859 0.573150
O O1 0.750000 0.750000 0.500000
O O2 0.837921 0.785981 0.687361
O O3 0.845455 0.971963 0.527666
O O4 0.712527 0.956164 0.615289
O O5 0.062864 0.813683 0.392731
O O6 0.101712 0.561237 0.447016
O O7 0.000000 0.619751 0.250000
O O8 0.944783 0.636247 0.434763
O O9 0.889610 0.850054 0.887316
O O10 0.000000 0.000000 0.000000
O O11 0.500000 0.714513 0.250000
O O12 0.590428 0.900997 0.166525
#
# Coordination Sequence:
#
# PCOD8148547 Si02
#       5
#     8   8   8   8   8
#     4  12  28  43  70 101 143 180 230 287 344 405
#     4  10  23  41  74  94 136 180 226 279 342 409
#     4  11  24  44  67 102 131 176 234 275 345 405
#     4  11  25  46  72  96 137 185 225 292 342 413
#     4  10  25  44  66 106 134 178 233 279 346 415
#
# _framework density 21.279503999999999
#
# number of rings (size 3 to 8) (size 9 to 14) (size 15 to 20)
#    0.000    1.200    2.000    1.800   14.000    4.800 
#    0.000    0.000    0.000    0.000    0.000    0.000 
#    0.000    0.000    0.000    0.000    0.000    0.000 
#
# Total GULP energy -247942.773018 kJ/mol
# GULP energy per Si atom -12397.138651 kJ/mol
# Density = 2.123107 g / cm^3
# Si number density = 21.279504 Si / 1000 Ang^3
#
#
#
# Elastic Constant Matrix: (Units=GPa)
#
#
# Indices 1 2 3 4 5 6 
#
# 1 132.6891 51.8507 35.3303 0.0000 16.6311 0.0000
# 2 51.8507 116.1759 45.5192 0.0000 3.6688 0.0000
# 3 35.3303 45.5192 141.6305 0.0000 26.2096 0.0000
# 4 0.0000 0.0000 0.0000 17.5010 0.0000 1.8411
# 5 16.6311 3.6688 26.2096 0.0000 36.7607 0.0000
# 6 0.0000 0.0000 0.0000 1.8411 0.0000 45.2583
#
#
#
# Elastic Compliance Matrix: (Units=1/GPa)
#
#
# Indices 1 2 3 4 5 6 
#
# 1 0.009691 -0.004036 -0.000442 0.000000 -0.003667 0.000000
# 2 -0.004036 0.011598 -0.003277 0.000000 0.003005 0.000000
# 3 -0.000442 -0.003277 0.009362 0.000000 -0.006148 0.000000
# 4 0.000000 0.000000 0.000000 0.057385 0.000000 -0.002334
# 5 -0.003667 0.003005 -0.006148 0.000000 0.032945 0.000000
# 6 0.000000 0.000000 0.000000 -0.002334 0.000000 0.022190
#
#
# Mechanical properties :
#
#
# Convention : Reuss Voigt Hill
#
# Bulk Modulus (GPa) = 66.04530 72.87732 69.46131
# Shear Modulus (GPa) = 30.53854 37.09035 33.81445
#
# Velocity S-wave (km/s) = 3.79240 4.17946 3.99063
# Velocity P-wave (km/s) = 7.09090 7.59029 7.34484
#
# Compressibility (1/GPa) = 0.01514112
#
# Stress axis : x y z
#
# Youngs Moduli (GPa) = 103.19026 86.22125 106.81930
#
# Poissons Ratio (x) = 0.34802 0.04718
# Poissons Ratio (y) = 0.41651 0.35002
# Poissons Ratio (z) = 0.04557 0.28252
#
# Static dielectric constant tensor:
#      x y z
#    x 3.521370 0.000000 0.175750 
#    y 0.000000 3.950070 0.000000 
#    z 0.175750 0.000000 3.814060 
# 
# 
# High freq. dielectric constant tensor:
#      x y z
#    x 1.832690 0.000000 0.012450 
#    y 0.000000 1.847640 0.000000 
#    z 0.012450 0.000000 1.841530 
# 
# From -- ./inp_files/102858.got.cif
#   From: 2010.06.25/outbox.cif.g09.slc.cpg/sg15_52_cif.got.tgz:102858.got - 2010.06.28 07:06:18.
