data_PCOD8148875
_publ_section_title
;
Structure prediction by ZEFSAII (Michael W. Deem and Ramdas Pophale) SiO2 
 PCOD8148875
Probable space group: C 2/C
;
_chemical_formula_sum "Si O2"
_cell_formula_units_Z 52
_cell_length_a 11.494983
_cell_length_b 20.685973
_cell_length_c 10.940605
_cell_angle_alpha 90.000000
_cell_angle_beta 63.966740
_cell_angle_gamma 90.000000
_cell_volume 2337.559968
_symmetry_space_group_name_H-M "C 2/C"
_symmetry_group_IT_number 15
_symmetry_cell_setting 'monoclinic'
loop_
_space_group_symop_operation_xyz
x,y,z
-x,y,1/2-z
-x,-y,-z
x,-y,1/2+z
1/2+x,1/2+y,z
1/2-x,1/2+y,1/2-z
1/2-x,1/2-y,-z
1/2+x,1/2-y,1/2+z
loop_
_atom_site_type_symbol
_atom_site_label
_atom_site_fract_x
_atom_site_fract_y
_atom_site_fract_z
Si Si1 0.392416 0.183524 0.043239
Si Si2 0.685078 0.320877 0.461062
Si Si3 0.864640 0.591702 0.278612
Si Si4 0.610990 0.475140 0.856755
Si Si5 0.369851 0.392246 0.248755
Si Si6 0.326781 0.187280 0.506924
Si Si7 0.000000 0.136185 0.250000
O O1 0.321252 0.252061 0.107308
O O2 0.360777 0.122673 0.144944
O O3 0.333023 0.164569 0.937202
O O4 0.544515 0.201654 0.973446
O O5 0.635910 0.375887 0.392250
O O6 0.596226 0.319783 0.625052
O O7 0.748305 0.541140 0.359003
O O8 0.862737 0.653887 0.365048
O O9 0.000000 0.555126 0.250000
O O10 0.634601 0.529789 0.742465
O O11 0.577589 0.408304 0.808253
O O12 0.500000 0.500000 0.000000
O O13 0.500000 0.364978 0.250000
O O14 0.251982 0.361866 0.373888
O O15 0.250000 0.250000 0.500000
#
# Coordination Sequence:
#
# PCOD8148875 Si02
#       7
#     8   8   8   8   8   8   4
#     4  10  23  43  65  96 131 172 222 277 346 411
#     4  11  24  41  67  96 134 175 218 281 346 399
#     4  10  23  46  66  94 134 179 224 283 349 409
#     4  12  24  43  68  99 133 176 232 278 332 411
#     4  12  25  41  63  99 131 173 226 279 332 406
#     4  11  24  41  68  97 131 176 228 281 340 407
#     4  12  24  40  70  98 136 178 222 288 340 402
#
# _framework density 22.245418000000001
#
# number of rings (size 3 to 8) (size 9 to 14) (size 15 to 20)
#    0.000    0.923    3.846    2.769    2.154    4.308 
#    2.769    1.538    0.000    0.000    0.000    0.000 
#    0.000    0.000    0.000    0.000    0.000    0.000 
#
# Total GULP energy -322245.528922 kJ/mol
# GULP energy per Si atom -12394.058805 kJ/mol
# Density = 2.219479 g / cm^3
# Si number density = 22.245418 Si / 1000 Ang^3
#
#
#
# Elastic Constant Matrix: (Units=GPa)
#
#
# Indices 1 2 3 4 5 6 
#
# 1 218.8885 44.4509 45.6888 0.0000 -10.8940 0.0000
# 2 44.4509 75.3257 21.4984 0.0000 -8.3070 0.0000
# 3 45.6888 21.4984 65.2182 0.0000 -8.6542 0.0000
# 4 0.0000 0.0000 0.0000 32.1233 0.0000 -3.4885
# 5 -10.8940 -8.3070 -8.6542 0.0000 35.0097 0.0000
# 6 0.0000 0.0000 0.0000 -3.4885 0.0000 37.2461
#
#
#
# Elastic Compliance Matrix: (Units=1/GPa)
#
#
# Indices 1 2 3 4 5 6 
#
# 1 0.005746 -0.002441 -0.003164 0.000000 0.000427 0.000000
# 2 -0.002441 0.015882 -0.003232 0.000000 0.002210 0.000000
# 3 -0.003164 -0.003232 0.019006 0.000000 0.002947 0.000000
# 4 0.000000 0.000000 0.000000 0.031450 0.000000 0.002946
# 5 0.000427 0.002210 0.002947 0.000000 0.029949 0.000000
# 6 0.000000 0.000000 0.000000 0.002946 0.000000 0.027124
#
#
# Mechanical properties :
#
#
# Convention : Reuss Voigt Hill
#
# Bulk Modulus (GPa) = 43.55366 64.74540 54.14953
# Shear Modulus (GPa) = 32.36554 37.39543 34.88049
#
# Velocity S-wave (km/s) = 3.81849 4.10450 3.96408
# Velocity P-wave (km/s) = 6.24999 7.18545 6.73399
#
# Compressibility (1/GPa) = 0.02296018
#
# Stress axis : x y z
#
# Youngs Moduli (GPa) = 174.03850 62.96366 52.61403
#
# Poissons Ratio (x) = 0.15367 0.16648
# Poissons Ratio (y) = 0.42476 0.17007
# Poissons Ratio (z) = 0.55068 0.20352
#
# Static dielectric constant tensor:
#      x y z
#    x 4.682530 0.000000 -0.257330 
#    y 0.000000 3.896120 0.000000 
#    z -0.257330 0.000000 4.600960 
# 
# 
# High freq. dielectric constant tensor:
#      x y z
#    x 1.904560 0.000000 0.002740 
#    y 0.000000 1.867000 0.000000 
#    z 0.002740 0.000000 1.856170 
# 
# From -- ./inp_files/89517.got.cif
#   From: 2010.06.25/outbox.cif.g09.slc.cpg/sg15_45_cif.got.tgz:89517.got - 2010.06.28 07:06:18.
