data_PCOD8148108
_publ_section_title
;
Structure prediction by ZEFSAII (Michael W. Deem and Ramdas Pophale) SiO2 
 PCOD8148108
Probable space group: C 2/C
;
_chemical_formula_sum "Si O2"
_cell_formula_units_Z 36
_cell_length_a 9.628369
_cell_length_b 11.232896
_cell_length_c 18.521460
_cell_angle_alpha 90.000000
_cell_angle_beta 68.103459
_cell_angle_gamma 90.000000
_cell_volume 1858.666874
_symmetry_space_group_name_H-M "C 2/C"
_symmetry_group_IT_number 15
_symmetry_cell_setting 'monoclinic'
loop_
_space_group_symop_operation_xyz
x,y,z
-x,y,1/2-z
-x,-y,-z
x,-y,1/2+z
1/2+x,1/2+y,z
1/2-x,1/2+y,1/2-z
1/2-x,1/2-y,-z
1/2+x,1/2-y,1/2+z
loop_
_atom_site_type_symbol
_atom_site_label
_atom_site_fract_x
_atom_site_fract_y
_atom_site_fract_z
Si Si1 0.743176 0.747727 0.876776
Si Si2 0.607598 0.892109 0.030331
Si Si3 0.699003 0.137951 0.963088
Si Si4 0.500000 0.615780 0.250000
Si Si5 0.005515 0.889986 0.327397
O O1 0.816591 0.646502 0.910848
O O2 0.609411 0.684656 0.860022
O O3 0.861286 0.801465 0.798062
O O4 0.684159 0.849220 0.941371
O O5 0.438549 0.837975 0.065486
O O6 0.627044 0.034940 0.027983
O O7 0.840219 0.095504 0.890947
O O8 0.750000 0.250000 0.000000
O O9 0.557015 0.528147 0.304252
O O10 0.000000 0.824368 0.250000
#
# Coordination Sequence:
#
# PCOD8148108 Si02
#       5
#     8   8   8   4   8
#     4  11  22  42  62  92 121 169 206 264 316 369
#     4  10  23  38  66  94 124 155 217 261 313 379
#     4  11  21  41  63  94 127 162 208 266 313 379
#     4  10  24  42  62  88 140 162 218 260 314 392
#     4  10  23  42  61  89 129 169 209 255 322 383
#
# _framework density 19.36872
#
# number of rings (size 3 to 8) (size 9 to 14) (size 15 to 20)
#    0.667    0.889    4.444    0.000    3.111    2.667 
#    0.000    0.000    0.000    0.000    0.000    0.000 
#    0.000    0.000    0.000    0.000    0.000    0.000 
#
# Total GULP energy -223026.134055 kJ/mol
# GULP energy per Si atom -12390.340781 kJ/mol
# Density = 1.932464 g / cm^3
# Si number density = 19.368720 Si / 1000 Ang^3
#
#
#
# Elastic Constant Matrix: (Units=GPa)
#
#
# Indices 1 2 3 4 5 6 
#
# 1 117.4006 32.0579 40.1584 0.0000 3.0323 0.0000
# 2 32.0579 74.6724 20.5817 0.0000 1.6988 0.0000
# 3 40.1584 20.5817 91.5712 0.0000 -13.3286 0.0000
# 4 0.0000 0.0000 0.0000 -11.9064 0.0000 -0.3292
# 5 3.0323 1.6988 -13.3286 0.0000 36.8435 0.0000
# 6 0.0000 0.0000 0.0000 -0.3292 0.0000 30.6424
#
#
#
# Elastic Compliance Matrix: (Units=1/GPa)
#
#
# Indices 1 2 3 4 5 6 
#
# 1 0.011030 -0.003470 -0.004398 0.000000 -0.002339 0.000000
# 2 -0.003470 0.015498 -0.002136 0.000000 -0.001202 0.000000
# 3 -0.004398 -0.002136 0.014141 0.000000 0.005576 0.000000
# 4 0.000000 0.000000 0.000000 -0.083964 0.000000 -0.000902
# 5 -0.002339 -0.001202 0.005576 0.000000 0.029407 0.000000
# 6 0.000000 0.000000 0.000000 -0.000902 0.000000 0.032625
#
#
# Mechanical properties :
#
#
# Convention : Reuss Voigt Hill
#
# Bulk Modulus (GPa) = 48.40194 52.13779 50.26987
# Shear Modulus (GPa) = 109.57230 23.83900 66.70565
#
# Velocity S-wave (km/s) = 7.52958 3.51208 5.87492
# Velocity P-wave (km/s) = 10.03179 6.58963 8.48705
#
# Compressibility (1/GPa) = 0.02066033
#
# Stress axis : x y z
#
# Youngs Moduli (GPa) = 90.66119 64.52539 70.71691
#
# Poissons Ratio (x) = 0.22390 0.31099
# Poissons Ratio (y) = 0.31460 0.15109
# Poissons Ratio (z) = 0.39870 0.13786
#
# Static dielectric constant tensor:
#      x y z
#    x 3.576230 0.000000 -0.142850 
#    y 0.000000 3.487210 0.000000 
#    z -0.142850 0.000000 3.538490 
# 
# 
# High freq. dielectric constant tensor:
#      x y z
#    x 1.755360 0.000000 -0.015040 
#    y 0.000000 1.755320 0.000000 
#    z -0.015040 0.000000 1.752990 
# 
# From -- ./inp_files/187648.got.cif
#   From: 2010.06.25/outbox.cif.g09.slc.cpg/sg15_94_cif.got.tgz:187648.got - 2010.06.28 07:06:18.
