data_PCOD8148092
_publ_section_title
;
Structure prediction by ZEFSAII (Michael W. Deem and Ramdas Pophale) SiO2 
 PCOD8148092
Probable space group: C 2/C
;
_chemical_formula_sum "Si O2"
_cell_formula_units_Z 44
_cell_length_a 12.687789
_cell_length_b 18.281457
_cell_length_c 9.450581
_cell_angle_alpha 90.000000
_cell_angle_beta 85.400138
_cell_angle_gamma 90.000000
_cell_volume 2185.013742
_symmetry_space_group_name_H-M "C 2/C"
_symmetry_group_IT_number 15
_symmetry_cell_setting 'monoclinic'
loop_
_space_group_symop_operation_xyz
x,y,z
-x,y,1/2-z
-x,-y,-z
x,-y,1/2+z
1/2+x,1/2+y,z
1/2-x,1/2+y,1/2-z
1/2-x,1/2-y,-z
1/2+x,1/2-y,1/2+z
loop_
_atom_site_type_symbol
_atom_site_label
_atom_site_fract_x
_atom_site_fract_y
_atom_site_fract_z
Si Si1 0.000000 0.710301 0.750000
Si Si2 0.163759 0.196406 0.072475
Si Si3 0.169240 0.654057 0.240343
Si Si4 0.073892 0.494101 0.859725
Si Si5 0.684220 0.130536 0.904290
Si Si6 0.386471 0.682352 0.717208
O O1 0.939328 0.760758 0.867362
O O2 0.915342 0.665183 0.666998
O O3 0.214506 0.151461 0.197804
O O4 0.250000 0.250000 0.000000
O O5 0.132405 0.148184 0.938007
O O6 0.102107 0.588634 0.315697
O O7 0.110160 0.729159 0.285732
O O8 0.180797 0.646830 0.071096
O O9 0.178209 0.543247 0.875919
O O10 0.000000 0.530658 0.750000
O O11 0.000000 0.500000 0.000000
O O12 0.795161 0.159098 0.835020
O O13 0.500000 0.651297 0.750000
#
# Coordination Sequence:
#
# PCOD8148092 Si02
#       6
#     4   8   8   8   8   8
#     4  12  22  40  66  98 136 172 224 270 344 386
#     4  10  23  38  63  95 132 175 214 276 327 396
#     4  11  24  43  62  99 133 171 223 271 341 391
#     4  12  26  41  66  97 135 177 218 280 340 394
#     4  12  25  40  68  98 133 178 221 279 334 402
#     4  11  24  42  69  95 137 174 225 275 329 400
#
# _framework density 20.137173000000001
#
# number of rings (size 3 to 8) (size 9 to 14) (size 15 to 20)
#    0.000    0.727    6.364    2.182   10.182    0.000 
#    0.000    0.000    2.000    2.182    0.000    0.000 
#    0.000    0.000    0.000    0.000    0.000    0.000 
#
# Total GULP energy -272627.364272 kJ/mol
# GULP energy per Si atom -12392.152921 kJ/mol
# Density = 2.009134 g / cm^3
# Si number density = 20.137173 Si / 1000 Ang^3
#
#
#
# Elastic Constant Matrix: (Units=GPa)
#
#
# Indices 1 2 3 4 5 6 
#
# 1 150.3097 35.0131 69.1795 0.0000 3.2415 0.0000
# 2 35.0131 68.4518 36.1718 0.0000 -7.6509 0.0000
# 3 69.1795 36.1718 168.8208 0.0000 9.8043 0.0000
# 4 0.0000 0.0000 0.0000 23.9278 0.0000 -6.6529
# 5 3.2415 -7.6509 9.8043 0.0000 50.8318 0.0000
# 6 0.0000 0.0000 0.0000 -6.6529 0.0000 26.3640
#
#
#
# Elastic Compliance Matrix: (Units=1/GPa)
#
#
# Indices 1 2 3 4 5 6 
#
# 1 0.008687 -0.002960 -0.002900 0.000000 -0.000440 0.000000
# 2 -0.002960 0.018013 -0.002847 0.000000 0.003449 0.000000
# 3 -0.002900 -0.002847 0.007823 0.000000 -0.001753 0.000000
# 4 0.000000 0.000000 0.000000 0.044946 0.000000 0.011342
# 5 -0.000440 0.003449 -0.001753 0.000000 0.020558 0.000000
# 6 0.000000 0.000000 0.000000 0.011342 0.000000 0.040793
#
#
# Mechanical properties :
#
#
# Convention : Reuss Voigt Hill
#
# Bulk Modulus (GPa) = 58.44709 74.25680 66.35195
# Shear Modulus (GPa) = 30.49978 36.70590 33.60284
#
# Velocity S-wave (km/s) = 3.89601 4.27405 4.08940
# Velocity P-wave (km/s) = 7.02325 7.83021 7.43768
#
# Compressibility (1/GPa) = 0.01710949
#
# Stress axis : x y z
#
# Youngs Moduli (GPa) = 115.12044 55.51647 127.82075
#
# Poissons Ratio (x) = 0.16433 0.37065
# Poissons Ratio (y) = 0.34076 0.36388
# Poissons Ratio (z) = 0.33383 0.15804
#
# Static dielectric constant tensor:
#      x y z
#    x 4.072470 0.000000 0.608170 
#    y 0.000000 3.089290 0.000000 
#    z 0.608170 0.000000 4.340340 
# 
# 
# High freq. dielectric constant tensor:
#      x y z
#    x 1.790490 0.000000 0.014240 
#    y 0.000000 1.749610 0.000000 
#    z 0.014240 0.000000 1.816810 
# 
# From -- ./inp_files/30862.got.cif
#   From: 2010.06.25/outbox.cif.g09.slc.cpg/sg15_16_cif.got.tgz:30862.got - 2010.06.28 07:06:18.
