data_PCOD8148556
_publ_section_title
;
Structure prediction by ZEFSAII (Michael W. Deem and Ramdas Pophale) SiO2 
 PCOD8148556
Probable space group: C 2/C
;
_chemical_formula_sum "Si O2"
_cell_formula_units_Z 48
_cell_length_a 13.066206
_cell_length_b 16.471247
_cell_length_c 11.337513
_cell_angle_alpha 90.000000
_cell_angle_beta 104.695008
_cell_angle_gamma 90.000000
_cell_volume 2360.208734
_symmetry_space_group_name_H-M "C 2/C"
_symmetry_group_IT_number 15
_symmetry_cell_setting 'monoclinic'
loop_
_space_group_symop_operation_xyz
x,y,z
-x,y,1/2-z
-x,-y,-z
x,-y,1/2+z
1/2+x,1/2+y,z
1/2-x,1/2+y,1/2-z
1/2-x,1/2-y,-z
1/2+x,1/2-y,1/2+z
loop_
_atom_site_type_symbol
_atom_site_label
_atom_site_fract_x
_atom_site_fract_y
_atom_site_fract_z
Si Si1 0.880831 0.925495 0.734453
Si Si2 0.204092 0.096363 0.809898
Si Si3 0.377416 0.950360 0.183567
Si Si4 0.617194 0.236291 0.237972
Si Si5 0.292486 0.833562 0.961863
Si Si6 0.257129 0.111215 0.091342
O O1 0.806163 0.886355 0.612948
O O2 0.844682 0.901391 0.854990
O O3 0.000000 0.894153 0.750000
O O4 0.878109 0.022544 0.721840
O O5 0.315788 0.071356 0.785424
O O6 0.156688 0.172356 0.724617
O O7 0.217401 0.121336 0.948208
O O8 0.500000 0.953973 0.250000
O O9 0.340194 0.037595 0.126135
O O10 0.356783 0.882713 0.078621
O O11 0.500000 0.237741 0.250000
O O12 0.626100 0.184224 0.120635
O O13 0.688294 0.195470 0.359211
O O14 0.250000 0.750000 0.000000
#
# Coordination Sequence:
#
# PCOD8148556 Si02
#       6
#     8   8   8   8   8   8
#     4  10  23  42  67  93 126 171 209 258 322 373
#     4  11  22  42  63  94 132 163 214 257 315 386
#     4  11  24  42  68  92 124 176 214 259 320 372
#     4  11  24  40  63  95 129 168 208 263 326 370
#     4  11  23  45  64  93 132 161 220 266 302 391
#     4  10  23  42  61  96 129 160 217 266 305 389
#
# _framework density 20.337185000000002
#
# number of rings (size 3 to 8) (size 9 to 14) (size 15 to 20)
#    0.000    1.333    3.333    1.500    2.333    3.333 
#    0.000    0.000    0.000    0.000    0.000    0.000 
#    0.000    0.000    0.000    0.000    0.000    0.000 
#
# Total GULP energy -297722.471069 kJ/mol
# GULP energy per Si atom -12405.102961 kJ/mol
# Density = 2.029090 g / cm^3
# Si number density = 20.337185 Si / 1000 Ang^3
#
#
#
# Elastic Constant Matrix: (Units=GPa)
#
#
# Indices 1 2 3 4 5 6 
#
# 1 131.0611 28.3126 25.9369 0.0000 9.3278 0.0000
# 2 28.3126 110.2016 6.7055 0.0000 6.2373 0.0000
# 3 25.9369 6.7055 80.4995 0.0000 -3.5597 0.0000
# 4 0.0000 0.0000 0.0000-1438.4293 0.0000 -123.4292
# 5 9.3278 6.2373 -3.5597 0.0000 20.7059 0.0000
# 6 0.0000 0.0000 0.0000 -123.4292 0.0000 14.2042
#
#
#
# Elastic Compliance Matrix: (Units=1/GPa)
#
#
# Indices 1 2 3 4 5 6 
#
# 1 0.008887 -0.001886 -0.002880 0.000000 -0.003931 0.000000
# 2 -0.001886 0.009697 -0.000294 0.000000 -0.002122 0.000000
# 3 -0.002880 -0.000294 0.013539 0.000000 0.003714 0.000000
# 4 0.000000 0.000000 0.000000 -0.000398 0.000000 -0.003461
# 5 -0.003931 -0.002122 0.003714 0.000000 0.051344 0.000000
# 6 0.000000 0.000000 0.000000 -0.003461 0.000000 0.040330
#
#
# Mechanical properties :
#
#
# Convention : Reuss Voigt Hill
#
# Bulk Modulus (GPa) = 45.44740 49.29690 47.37215
# Shear Modulus (GPa) = 35.49812 -263.31671 -113.90929
#
# Velocity S-wave (km/s) = 4.18242 -11.39107 -7.49213
# Velocity P-wave (km/s) = 6.76158 12.19493 7.17626
#
# Compressibility (1/GPa) = 0.02200346
#
# Stress axis : x y z
#
# Youngs Moduli (GPa) = 112.52273 103.12789 73.85990
#
# Poissons Ratio (x) = 0.19445 0.21273
# Poissons Ratio (y) = 0.21216 0.02172
# Poissons Ratio (z) = 0.32408 0.03032
#
# Static dielectric constant tensor:
#      x y z
#    x 3.671010 0.000000 -0.391700 
#    y 0.000000 4.024580 0.000000 
#    z -0.391700 0.000000 4.055670 
# 
# 
# High freq. dielectric constant tensor:
#      x y z
#    x 1.791930 0.000000 -0.015540 
#    y 0.000000 1.813430 0.000000 
#    z -0.015540 0.000000 1.795690 
# 
# From -- ./inp_files/87469.got.cif
#   From: 2010.06.25/outbox.cif.g09.slc.cpg/sg15_44_cif.got.tgz:87469.got - 2010.06.28 07:06:18.
