data_PCOD8148679
_publ_section_title
;
Structure prediction by ZEFSAII (Michael W. Deem and Ramdas Pophale) SiO2 
 PCOD8148679
Probable space group: C 2/C
;
_chemical_formula_sum "Si O2"
_cell_formula_units_Z 40
_cell_length_a 8.481922
_cell_length_b 13.787258
_cell_length_c 27.608675
_cell_angle_alpha 90.000000
_cell_angle_beta 153.374358
_cell_angle_gamma 90.000000
_cell_volume 1446.938484
_symmetry_space_group_name_H-M "C 2/C"
_symmetry_group_IT_number 15
_symmetry_cell_setting 'monoclinic'
loop_
_space_group_symop_operation_xyz
x,y,z
-x,y,1/2-z
-x,-y,-z
x,-y,1/2+z
1/2+x,1/2+y,z
1/2-x,1/2+y,1/2-z
1/2-x,1/2-y,-z
1/2+x,1/2-y,1/2+z
loop_
_atom_site_type_symbol
_atom_site_label
_atom_site_fract_x
_atom_site_fract_y
_atom_site_fract_z
Si Si1 0.662308 0.910526 0.910803
Si Si2 0.603376 0.752157 0.723611
Si Si3 0.549274 0.070211 0.706495
Si Si4 0.246088 0.051692 0.393180
Si Si5 0.414679 0.764262 0.993091
O O1 0.362293 0.853347 0.796141
O O2 0.477460 0.939668 0.909016
O O3 0.001594 0.839745 0.010860
O O4 0.761597 0.007342 0.905449
O O5 0.500000 0.776352 0.750000
O O6 0.938553 0.679367 0.813252
O O7 0.297942 0.689960 0.611237
O O8 0.500000 0.076898 0.750000
O O9 0.899298 0.010495 0.788437
O O10 0.174123 0.162434 0.394828
O O11 0.500000 0.000000 0.500000
O O12 0.250000 0.750000 0.000000
#
# Coordination Sequence:
#
# PCOD8148679 Si02
#       5
#     8   8   8   8   8
#     4  10  24  44  70  97 135 188 227 278 350 408
#     4  10  23  45  65 101 133 178 234 278 343 412
#     4  12  25  44  69 100 136 186 236 282 347 417
#     4  12  23  45  68  99 142 178 230 288 345 407
#     4  10  23  42  67 100 136 174 227 286 347 405
#
# _framework density 27.644573999999999
#
# number of rings (size 3 to 8) (size 9 to 14) (size 15 to 20)
#    1.200    0.000    2.000    4.200    2.800    1.600 
#    3.600    2.000    0.000    0.000    0.000    0.000 
#    0.000    0.000    0.000    0.000    0.000    0.000 
#
# Total GULP energy -247890.260289 kJ/mol
# GULP energy per Si atom -12394.513014 kJ/mol
# Density = 2.758165 g / cm^3
# Si number density = 27.644574 Si / 1000 Ang^3
#
#
#
# Elastic Constant Matrix: (Units=GPa)
#
#
# Indices 1 2 3 4 5 6 
#
# 1 219.0144 57.4636 -27.7224 0.0013 -19.3136 -0.0004
# 2 57.4636 185.0399 -3.5942 0.0003 -8.4484 -0.0002
# 3 -27.7224 -3.5942 42.1946 -0.0009 -5.4944 -0.0026
# 4 0.0013 0.0003 -0.0009 23.6416 0.0006 -9.6653
# 5 -19.3136 -8.4484 -5.4944 0.0006 40.9748 0.0011
# 6 -0.0004 -0.0002 -0.0026 -9.6653 0.0011 55.7811
#
#
#
# Elastic Compliance Matrix: (Units=1/GPa)
#
#
# Indices 1 2 3 4 5 6 
#
# 1 0.005745 -0.001573 0.004021 0.000000 0.002923 0.000000
# 2 -0.001573 0.005902 -0.000477 0.000000 0.000412 0.000000
# 3 0.004021 -0.000477 0.027007 0.000001 0.005419 0.000001
# 4 0.000000 0.000000 0.000001 0.045523 -0.000001 0.007888
# 5 0.002923 0.000412 0.005419 -0.000001 0.026594 0.000000
# 6 0.000000 0.000000 0.000001 0.007888 0.000000 0.019294
#
#
# Mechanical properties :
#
#
# Convention : Reuss Voigt Hill
#
# Bulk Modulus (GPa) = 23.47523 55.39367 39.43445
# Shear Modulus (GPa) = 35.63248 52.08628 43.85938
#
# Velocity S-wave (km/s) = 3.59409 4.34538 3.98747
# Velocity P-wave (km/s) = 5.07282 6.72739 5.95782
#
# Compressibility (1/GPa) = 0.04259809
#
# Stress axis : x y z
#
# Youngs Moduli (GPa) = 174.05490 169.42979 37.02773
#
# Poissons Ratio (x) = 0.26645 -0.14890
# Poissons Ratio (y) = 0.27372 0.01766
# Poissons Ratio (z) = -0.69995 0.08080
#
# Static dielectric constant tensor:
#      x y z
#    x 4.517210 -0.000010 0.043630 
#    y -0.000010 5.829660 -0.000030 
#    z 0.043630 -0.000030 6.044620 
# 
# 
# High freq. dielectric constant tensor:
#      x y z
#    x 2.090030 0.000000 -0.003730 
#    y 0.000000 2.153820 0.000000 
#    z -0.003730 0.000000 2.179490 
# 
# From -- ./inp_files/308358.got.cif
#   From: 2010.06.25/outbox.cif.g09.slc.cpg/sg15_155_cif.got.tgz:308358.got - 2010.06.28 07:06:18.
