data_PCOD8148082
_publ_section_title
;
Structure prediction by ZEFSAII (Michael W. Deem and Ramdas Pophale) SiO2 
 PCOD8148082
Probable space group: C 2/C
;
_chemical_formula_sum "Si O2"
_cell_formula_units_Z 56
_cell_length_a 12.031911
_cell_length_b 14.387647
_cell_length_c 26.437143
_cell_angle_alpha 90.000000
_cell_angle_beta 140.416696
_cell_angle_gamma 90.000000
_cell_volume 2916.179730
_symmetry_space_group_name_H-M "C 2/C"
_symmetry_group_IT_number 15
_symmetry_cell_setting 'monoclinic'
loop_
_space_group_symop_operation_xyz
x,y,z
-x,y,1/2-z
-x,-y,-z
x,-y,1/2+z
1/2+x,1/2+y,z
1/2-x,1/2+y,1/2-z
1/2-x,1/2-y,-z
1/2+x,1/2-y,1/2+z
loop_
_atom_site_type_symbol
_atom_site_label
_atom_site_fract_x
_atom_site_fract_y
_atom_site_fract_z
Si Si1 0.094440 0.336023 0.173573
Si Si2 0.160273 0.897242 0.151814
Si Si3 0.786272 0.823190 0.439798
Si Si4 0.324284 0.926402 0.664326
Si Si5 0.726933 0.653888 0.961850
Si Si6 0.866631 0.509889 0.574020
Si Si7 0.133166 0.256441 0.085891
O O1 0.215655 0.346760 0.264473
O O2 0.191042 0.277356 0.163831
O O3 0.913734 0.286001 0.128416
O O4 0.045367 0.432618 0.126745
O O5 0.163672 0.842799 0.100494
O O6 0.966054 0.887998 0.105416
O O7 0.219426 0.004341 0.165254
O O8 0.797331 0.916754 0.479551
O O9 0.921574 0.745466 0.507286
O O10 0.500000 0.883589 0.750000
O O11 0.200332 0.846967 0.598280
O O12 0.394813 0.981336 0.641537
O O13 0.785702 0.669809 0.924748
O O14 0.750000 0.750000 0.000000
O O15 0.848772 0.574042 0.028776
#
# Coordination Sequence:
#
# PCOD8148082 Si02
#       7
#     8   8   8   8   8   8   8
#     4  10  23  38  62  87 124 164 201 256 306 364
#     4  11  20  40  63  88 121 158 209 254 308 355
#     4   9  19  40  62  84 116 161 210 245 301 362
#     4  11  20  37  64  92 113 157 208 259 296 350
#     4  12  23  36  59  93 125 160 199 256 309 361
#     4   9  20  39  60  82 118 158 206 236 304 365
#     4  12  24  36  61  95 127 153 203 260 308 364
#
# _framework density 19.203206999999999
#
# number of rings (size 3 to 8) (size 9 to 14) (size 15 to 20)
#    0.857    0.571    4.286    1.714    2.000    2.857 
#    0.000    0.000    0.000    0.000    0.000    0.000 
#    0.000    0.000    0.000    0.000    0.000    0.000 
#
# Total GULP energy -346881.578467 kJ/mol
# GULP energy per Si atom -12388.627802 kJ/mol
# Density = 1.915950 g / cm^3
# Si number density = 19.203207 Si / 1000 Ang^3
#
#
#
# Elastic Constant Matrix: (Units=GPa)
#
#
# Indices 1 2 3 4 5 6 
#
# 1 64.2782 25.2759 14.2646 0.0000 -5.1983 0.0000
# 2 25.2759 52.3774 19.3679 0.0000 -4.4320 0.0000
# 3 14.2646 19.3679 77.4504 0.0000 4.0321 0.0000
# 4 0.0000 0.0000 0.0000 27.7694 0.0000 -9.7443
# 5 -5.1983 -4.4320 4.0321 0.0000 27.6414 0.0000
# 6 0.0000 0.0000 0.0000 -9.7443 0.0000 24.8011
#
#
#
# Elastic Compliance Matrix: (Units=1/GPa)
#
#
# Indices 1 2 3 4 5 6 
#
# 1 0.019497 -0.008616 -0.001567 0.000000 0.002514 0.000000
# 2 -0.008616 0.025334 -0.004913 0.000000 0.003158 0.000000
# 3 -0.001567 -0.004913 0.014596 0.000000 -0.003212 0.000000
# 4 0.000000 0.000000 0.000000 0.041770 0.000000 0.016411
# 5 0.002514 0.003158 -0.003212 0.000000 0.037625 0.000000
# 6 0.000000 0.000000 0.000000 0.016411 0.000000 0.046769
#
#
# Mechanical properties :
#
#
# Convention : Reuss Voigt Hill
#
# Bulk Modulus (GPa) = 34.20647 34.65809 34.43228
# Shear Modulus (GPa) = 22.17030 25.05556 23.61293
#
# Velocity S-wave (km/s) = 3.40150 3.61606 3.51042
# Velocity P-wave (km/s) = 5.76875 5.96002 5.86516
#
# Compressibility (1/GPa) = 0.02923424
#
# Stress axis : x y z
#
# Youngs Moduli (GPa) = 51.29104 39.47250 68.51281
#
# Poissons Ratio (x) = 0.34011 0.10736
# Poissons Ratio (y) = 0.44194 0.33659
# Poissons Ratio (z) = 0.08037 0.19392
#
# Static dielectric constant tensor:
#      x y z
#    x 3.431480 0.000000 0.041340 
#    y 0.000000 3.397730 0.000000 
#    z 0.041340 0.000000 3.370940 
# 
# 
# High freq. dielectric constant tensor:
#      x y z
#    x 1.740800 0.000000 -0.001360 
#    y 0.000000 1.726540 0.000000 
#    z -0.001360 0.000000 1.746390 
# 
# From -- ./inp_files/311081.got.cif
#   From: 2010.06.25/outbox.cif.g09.slc.cpg/sg15_156_cif.got.tgz:311081.got - 2010.06.28 07:06:18.
