data_PCOD8148251
_publ_section_title
;
Structure prediction by ZEFSAII (Michael W. Deem and Ramdas Pophale) SiO2 
 PCOD8148251
Probable space group: C 2/C
;
_chemical_formula_sum "Si O2"
_cell_formula_units_Z 48
_cell_length_a 8.185509
_cell_length_b 31.651206
_cell_length_c 13.919245
_cell_angle_alpha 90.000000
_cell_angle_beta 43.019445
_cell_angle_gamma 90.000000
_cell_volume 2460.327753
_symmetry_space_group_name_H-M "C 2/C"
_symmetry_group_IT_number 15
_symmetry_cell_setting 'monoclinic'
loop_
_space_group_symop_operation_xyz
x,y,z
-x,y,1/2-z
-x,-y,-z
x,-y,1/2+z
1/2+x,1/2+y,z
1/2-x,1/2+y,1/2-z
1/2-x,1/2-y,-z
1/2+x,1/2-y,1/2+z
loop_
_atom_site_type_symbol
_atom_site_label
_atom_site_fract_x
_atom_site_fract_y
_atom_site_fract_z
Si Si1 0.438617 0.915853 0.177555
Si Si2 0.248018 0.355321 0.402149
Si Si3 0.272630 0.379966 0.602991
Si Si4 0.607093 0.546217 0.956576
Si Si5 0.116559 0.281680 0.927029
Si Si6 0.034486 0.795171 0.890450
O O1 0.500000 0.888670 0.250000
O O2 0.402839 0.885936 0.102552
O O3 0.665886 0.948204 0.067043
O O4 0.198491 0.942531 0.308186
O O5 0.500000 0.341287 0.250000
O O6 0.297660 0.380061 0.478017
O O7 0.101296 0.313635 0.490026
O O8 0.400157 0.422512 0.583373
O O9 0.405413 0.340644 0.594017
O O10 0.000000 0.380684 0.750000
O O11 0.500000 0.500000 0.000000
O O12 0.294298 0.299544 0.931540
O O13 0.249939 0.277098 0.767718
O O14 0.010377 0.236253 0.001416
#
# Coordination Sequence:
#
# PCOD8148251 Si02
#       6
#     8   8   8   8   8   8
#     4   8  20  39  64  88 121 160 207 254 294 390
#     4  12  22  40  62  93 122 171 203 254 315 372
#     4  12  24  39  63  91 132 158 209 266 315 371
#     4   9  20  40  66  89 119 165 202 253 316 371
#     4  10  23  40  64  84 128 165 219 255 307 374
#     4  10  23  43  58  93 120 169 213 262 311 369
#
# _framework density 19.509595000000001
#
# number of rings (size 3 to 8) (size 9 to 14) (size 15 to 20)
#    1.000    0.667    3.333    1.000    4.667    1.333 
#    3.000    0.833    3.667    0.000    0.000    0.000 
#    0.000    0.000    0.000    0.000    0.000    0.000 
#
# Total GULP energy -297437.467027 kJ/mol
# GULP energy per Si atom -12393.227793 kJ/mol
# Density = 1.946519 g / cm^3
# Si number density = 19.509595 Si / 1000 Ang^3
#
#
#
# Elastic Constant Matrix: (Units=GPa)
#
#
# Indices 1 2 3 4 5 6 
#
# 1 57.1866 40.2514 29.6006 0.0000 -5.6265 0.0000
# 2 40.2514 137.0694 44.4387 0.0000 -14.6378 0.0000
# 3 29.6006 44.4387 96.7823 0.0000 -11.3892 0.0000
# 4 0.0000 0.0000 0.0000 28.4508 0.0000 -7.3448
# 5 -5.6265 -14.6378 -11.3892 0.0000 40.7242 0.0000
# 6 0.0000 0.0000 0.0000 -7.3448 0.0000 17.3466
#
#
#
# Elastic Compliance Matrix: (Units=1/GPa)
#
#
# Indices 1 2 3 4 5 6 
#
# 1 0.023786 -0.005436 -0.004780 0.000000 -0.000004 0.000000
# 2 -0.005436 0.009982 -0.002675 0.000000 0.002089 0.000000
# 3 -0.004780 -0.002675 0.013268 0.000000 0.002089 0.000000
# 4 0.000000 0.000000 0.000000 0.039462 0.000000 0.016709
# 5 -0.000004 0.002089 0.002089 0.000000 0.025890 0.000000
# 6 0.000000 0.000000 0.000000 0.016709 0.000000 0.064723
#
#
# Mechanical properties :
#
#
# Convention : Reuss Voigt Hill
#
# Bulk Modulus (GPa) = 47.04584 57.73552 52.39068
# Shear Modulus (GPa) = 23.81206 29.08750 26.44978
#
# Velocity S-wave (km/s) = 3.49740 3.86545 3.68602
# Velocity P-wave (km/s) = 6.36205 7.04130 6.71027
#
# Compressibility (1/GPa) = 0.02125587
#
# Stress axis : x y z
#
# Youngs Moduli (GPa) = 42.04109 100.17831 75.36716
#
# Poissons Ratio (x) = 0.54456 0.36022
# Poissons Ratio (y) = 0.22853 0.20161
# Poissons Ratio (z) = 0.20094 0.26798
#
# Static dielectric constant tensor:
#      x y z
#    x 3.547780 0.000000 -0.160180 
#    y 0.000000 3.236520 0.000000 
#    z -0.160180 0.000000 3.722030 
# 
# 
# High freq. dielectric constant tensor:
#      x y z
#    x 1.757000 0.000000 -0.018950 
#    y 0.000000 1.739680 0.000000 
#    z -0.018950 0.000000 1.770910 
# 
# From -- ./inp_files/139385.got.cif
#   From: 2010.06.25/outbox.cif.g09.slc.cpg/sg15_70_cif.got.tgz:139385.got - 2010.06.28 07:06:18.
