data_PCOD8148780
_publ_section_title
;
Structure prediction by ZEFSAII (Michael W. Deem and Ramdas Pophale) SiO2 
 PCOD8148780
Probable space group: C 2/C
;
_chemical_formula_sum "Si O2"
_cell_formula_units_Z 48
_cell_length_a 14.113825
_cell_length_b 14.631161
_cell_length_c 15.214554
_cell_angle_alpha 90.000000
_cell_angle_beta 39.909098
_cell_angle_gamma 90.000000
_cell_volume 2015.708687
_symmetry_space_group_name_H-M "C 2/C"
_symmetry_group_IT_number 15
_symmetry_cell_setting 'monoclinic'
loop_
_space_group_symop_operation_xyz
x,y,z
-x,y,1/2-z
-x,-y,-z
x,-y,1/2+z
1/2+x,1/2+y,z
1/2-x,1/2+y,1/2-z
1/2-x,1/2-y,-z
1/2+x,1/2-y,1/2+z
loop_
_atom_site_type_symbol
_atom_site_label
_atom_site_fract_x
_atom_site_fract_y
_atom_site_fract_z
Si Si1 0.816617 0.139619 0.773269
Si Si2 0.396797 0.171469 0.985340
Si Si3 0.000000 0.012041 0.750000
Si Si4 0.151548 0.437713 0.231693
Si Si5 0.359478 0.641216 0.446600
Si Si6 0.000000 0.404337 0.750000
Si Si7 0.962881 0.712309 0.443206
O O1 0.745503 0.068520 0.754567
O O2 0.963159 0.189224 0.629928
O O3 0.697032 0.215200 0.892965
O O4 0.862811 0.075676 0.821434
O O5 0.484879 0.094850 0.868538
O O6 0.454344 0.271476 0.910787
O O7 0.222606 0.161023 0.088516
O O8 0.425048 0.160485 0.069689
O O9 0.040936 0.948495 0.637065
O O10 0.132943 0.537318 0.200290
O O11 0.232230 0.370089 0.108437
O O12 0.934024 0.341198 0.873552
#
# Coordination Sequence:
#
# PCOD8148780 Si02
#       7
#     8   8   4   8   8   4   8
#     4  11  27  50  72 106 147 191 252 298 361 432
#     4  10  23  42  71 100 139 186 242 288 361 432
#     4  12  29  41  70 108 146 186 240 309 359 424
#     4  11  23  45  69 105 142 184 238 301 360 429
#     4  11  23  41  69 102 142 185 235 302 356 429
#     4  12  25  41  74 108 146 194 232 299 375 430
#     4  11  26  48  76 103 145 197 239 296 363 445
#
# _framework density 23.812964000000001
#
# number of rings (size 3 to 8) (size 9 to 14) (size 15 to 20)
#    0.000    1.000    3.333    1.500    7.000    6.000 
#    0.000    0.000    0.000    0.000    0.000    0.000 
#    0.000    0.000    0.000    0.000    0.000    0.000 
#
# Total GULP energy -297467.614039 kJ/mol
# GULP energy per Si atom -12394.483918 kJ/mol
# Density = 2.375876 g / cm^3
# Si number density = 23.812964 Si / 1000 Ang^3
#
#
#
# Elastic Constant Matrix: (Units=GPa)
#
#
# Indices 1 2 3 4 5 6 
#
# 1 124.6212 31.1934 32.6235 0.0000 4.1427 0.0000
# 2 31.1934 66.7206 15.7375 0.0000 -8.7394 0.0000
# 3 32.6235 15.7375 62.2058 0.0001 8.9495 0.0000
# 4 0.0000 0.0000 0.0001 31.8148 0.0000 2.8463
# 5 4.1427 -8.7394 8.9495 0.0000 30.5420 0.0000
# 6 0.0000 0.0000 0.0000 2.8463 0.0000 35.8653
#
#
#
# Elastic Compliance Matrix: (Units=1/GPa)
#
#
# Indices 1 2 3 4 5 6 
#
# 1 0.010133 -0.003931 -0.004135 0.000000 -0.001288 0.000000
# 2 -0.003931 0.018590 -0.003637 0.000000 0.006918 0.000000
# 3 -0.004135 -0.003637 0.020080 0.000000 -0.006364 0.000000
# 4 0.000000 0.000000 0.000000 0.031657 0.000000 -0.002512
# 5 -0.001288 0.006918 -0.006364 0.000000 0.036761 0.000000
# 6 0.000000 0.000000 0.000000 -0.002512 0.000000 0.028081
#
#
# Mechanical properties :
#
#
# Convention : Reuss Voigt Hill
#
# Bulk Modulus (GPa) = 39.37320 45.85072 42.61196
# Shear Modulus (GPa) = 28.22107 31.24397 29.73252
#
# Velocity S-wave (km/s) = 3.44628 3.62616 3.53737
# Velocity P-wave (km/s) = 5.69263 6.06864 5.88364
#
# Compressibility (1/GPa) = 0.02539799
#
# Stress axis : x y z
#
# Youngs Moduli (GPa) = 98.68294 53.79317 49.80163
#
# Poissons Ratio (x) = 0.21146 0.20591
# Poissons Ratio (y) = 0.38793 0.18111
# Poissons Ratio (z) = 0.40802 0.19563
#
# Static dielectric constant tensor:
#      x y z
#    x 4.486060 0.000000 0.113630 
#    y 0.000000 4.075600 0.000000 
#    z 0.113630 0.000000 4.025450 
# 
# 
# High freq. dielectric constant tensor:
#      x y z
#    x 1.957480 0.000000 0.009100 
#    y 0.000000 1.928100 0.000000 
#    z 0.009100 0.000000 1.928490 
# 
# From -- ./inp_files/205316.got.cif
#   From: 2010.06.25/outbox.cif.g09.slc.cpg/sg15_103_cif.got.tgz:205316.got - 2010.06.28 07:06:18.
