data_PCOD8148426
_publ_section_title
;
Structure prediction by ZEFSAII (Michael W. Deem and Ramdas Pophale) SiO2 
 PCOD8148426
Probable space group: C 2/C
;
_chemical_formula_sum "Si O2"
_cell_formula_units_Z 64
_cell_length_a 16.656742
_cell_length_b 13.842312
_cell_length_c 21.400797
_cell_angle_alpha 90.000000
_cell_angle_beta 144.960758
_cell_angle_gamma 90.000000
_cell_volume 2832.986035
_symmetry_space_group_name_H-M "C 2/C"
_symmetry_group_IT_number 15
_symmetry_cell_setting 'monoclinic'
loop_
_space_group_symop_operation_xyz
x,y,z
-x,y,1/2-z
-x,-y,-z
x,-y,1/2+z
1/2+x,1/2+y,z
1/2-x,1/2+y,1/2-z
1/2-x,1/2-y,-z
1/2+x,1/2-y,1/2+z
loop_
_atom_site_type_symbol
_atom_site_label
_atom_site_fract_x
_atom_site_fract_y
_atom_site_fract_z
Si Si1 0.775454 0.192706 0.952452
Si Si2 0.936106 0.163840 0.424303
Si Si3 0.241490 0.503988 0.985091
Si Si4 0.577657 0.140046 0.448353
Si Si5 0.716560 0.941488 0.712981
Si Si6 0.469960 0.647691 0.589561
Si Si7 0.721844 0.861713 0.167478
Si Si8 0.339478 0.376303 0.664106
O O1 0.938852 0.170556 0.045407
O O2 0.750000 0.250000 0.000000
O O3 0.712507 0.264366 0.860409
O O4 0.704978 0.085346 0.909383
O O5 0.825854 0.078180 0.338704
O O6 0.995507 0.143919 0.531172
O O7 0.853320 0.263304 0.362602
O O8 0.111121 0.431339 0.911804
O O9 0.376056 0.441130 0.051898
O O10 0.262263 0.564532 0.061277
O O11 0.417709 0.127690 0.368634
O O12 0.602944 0.249655 0.441834
O O13 0.684902 0.113476 0.572206
O O14 0.806740 0.925959 0.708284
O O15 0.666780 0.053267 0.678927
O O16 0.612163 0.644887 0.719179
O O17 0.500000 0.375821 0.750000
#
# Coordination Sequence:
#
# PCOD8148426 Si02
#       8
#     8   8   8   8   8   8   8   8
#     4  10  23  41  64  96 139 172 216 280 340 406
#     4  11  25  45  66 101 138 176 230 283 339 416
#     4  11  24  42  67  97 136 183 224 283 346 412
#     4  11  24  43  69 103 134 174 235 286 339 403
#     4  12  23  43  71 103 134 177 232 284 337 413
#     4  11  24  46  67 101 134 181 228 281 348 403
#     4  11  23  40  72  97 131 176 223 284 344 404
#     4  11  22  41  69 103 135 173 233 286 343 412
#
# _framework density 22.591004000000002
#
# number of rings (size 3 to 8) (size 9 to 14) (size 15 to 20)
#    0.000    1.000    2.500    5.250    3.500    2.000 
#    0.000    0.625    0.000    0.000    0.000    0.000 
#    0.000    0.000    0.000    0.000    0.000    0.000 
#
# Total GULP energy -396676.534300 kJ/mol
# GULP energy per Si atom -12396.141697 kJ/mol
# Density = 2.253959 g / cm^3
# Si number density = 22.591004 Si / 1000 Ang^3
#
#
#
# Elastic Constant Matrix: (Units=GPa)
#
#
# Indices 1 2 3 4 5 6 
#
# 1 85.3647 30.9390 29.4703 0.0000 19.9497 0.0000
# 2 30.9390 117.9437 -0.3775 -0.0002 5.4496 0.0001
# 3 29.4703 -0.3775 82.4146 0.0005 7.9311 0.0003
# 4 0.0000 -0.0002 0.0005 26.4297 0.0002 2.0939
# 5 19.9497 5.4496 7.9311 0.0002 20.8748 0.0001
# 6 0.0000 0.0001 0.0003 2.0939 0.0001 17.5428
#
#
#
# Elastic Compliance Matrix: (Units=1/GPa)
#
#
# Indices 1 2 3 4 5 6 
#
# 1 0.018424 -0.004178 -0.005208 0.000000 -0.014538 0.000000
# 2 -0.004178 0.009535 0.001446 0.000000 0.000954 0.000000
# 3 -0.005208 0.001446 0.014075 0.000000 -0.000747 0.000000
# 4 0.000000 0.000000 0.000000 0.038197 0.000000 -0.004559
# 5 -0.014538 0.000954 -0.000747 0.000000 0.061833 0.000000
# 6 0.000000 0.000000 0.000000 -0.004559 0.000000 0.057548
#
#
# Mechanical properties :
#
#
# Convention : Reuss Voigt Hill
#
# Bulk Modulus (GPa) = 38.23623 45.08740 41.66181
# Shear Modulus (GPa) = 22.30039 28.01555 25.15797
#
# Velocity S-wave (km/s) = 3.14528 3.52535 3.34073
# Velocity P-wave (km/s) = 5.49113 6.04750 5.77602
#
# Compressibility (1/GPa) = 0.02615321
#
# Stress axis : x y z
#
# Youngs Moduli (GPa) = 54.27608 104.87533 71.04923
#
# Poissons Ratio (x) = 0.43817 0.37005
# Poissons Ratio (y) = 0.22677 -0.10273
# Poissons Ratio (z) = 0.28269 -0.15163
#
# Static dielectric constant tensor:
#      x y z
#    x 3.994520 0.000000 -0.078490 
#    y 0.000000 4.812400 0.000000 
#    z -0.078490 0.000000 3.964070 
# 
# 
# High freq. dielectric constant tensor:
#      x y z
#    x 1.881000 0.000000 0.008980 
#    y 0.000000 1.922480 0.000000 
#    z 0.008980 0.000000 1.871560 
# 
# From -- ./inp_files/277651.got.cif
#   From: 2010.06.25/outbox.cif.g09.slc.cpg/sg15_139_cif.got.tgz:277651.got - 2010.06.28 07:06:18.
