data_PCOD8148979
_publ_section_title
;
Structure prediction by ZEFSAII (Michael W. Deem and Ramdas Pophale) SiO2 
 PCOD8148979
Probable space group: C 2/C
;
_chemical_formula_sum "Si O2"
_cell_formula_units_Z 48
_cell_length_a 21.843528
_cell_length_b 7.276802
_cell_length_c 16.581850
_cell_angle_alpha 90.000000
_cell_angle_beta 55.642358
_cell_angle_gamma 90.000000
_cell_volume 2175.853652
_symmetry_space_group_name_H-M "C 2/C"
_symmetry_group_IT_number 15
_symmetry_cell_setting 'monoclinic'
loop_
_space_group_symop_operation_xyz
x,y,z
-x,y,1/2-z
-x,-y,-z
x,-y,1/2+z
1/2+x,1/2+y,z
1/2-x,1/2+y,1/2-z
1/2-x,1/2-y,-z
1/2+x,1/2-y,1/2+z
loop_
_atom_site_type_symbol
_atom_site_label
_atom_site_fract_x
_atom_site_fract_y
_atom_site_fract_z
Si Si1 0.753688 0.583456 0.664924
Si Si2 0.739943 0.997899 0.658216
Si Si3 0.411147 0.878347 0.990967
Si Si4 0.359337 0.297611 0.818914
Si Si5 0.015439 0.292891 0.396046
Si Si6 0.605958 0.519202 0.037528
O O1 0.775939 0.578786 0.741813
O O2 0.827226 0.542579 0.557056
O O3 0.690767 0.435456 0.695610
O O4 0.721036 0.782945 0.666550
O O5 0.685559 0.105986 0.637300
O O6 0.824995 0.035005 0.573716
O O7 0.414614 0.694914 0.933725
O O8 0.465916 0.027760 0.911799
O O9 0.433225 0.827622 0.065720
O O10 0.436288 0.257275 0.717426
O O11 0.376433 0.385297 0.891511
O O12 0.961660 0.122517 0.455614
#
# Coordination Sequence:
#
# PCOD8148979 Si02
#       6
#     8   8   8   8   8   8
#     4  11  22  41  69  96 131 170 231 273 329 394
#     4  11  22  40  67  95 129 177 221 279 327 394
#     4  10  23  43  69  96 127 177 226 276 330 400
#     4  12  24  41  63 100 136 174 220 276 340 400
#     4  11  23  43  68  94 132 178 224 273 335 402
#     4  11  25  41  64  98 137 173 217 276 340 403
#
# _framework density 22.060307000000002
#
# number of rings (size 3 to 8) (size 9 to 14) (size 15 to 20)
#    0.000    1.000    3.333    3.500    0.000    5.333 
#    0.000    1.667    0.000    0.000    0.000    0.000 
#    0.000    0.000    0.000    0.000    0.000    0.000 
#
# Total GULP energy -297722.317796 kJ/mol
# GULP energy per Si atom -12405.096575 kJ/mol
# Density = 2.201010 g / cm^3
# Si number density = 22.060307 Si / 1000 Ang^3
#
#
#
# Elastic Constant Matrix: (Units=GPa)
#
#
# Indices 1 2 3 4 5 6 
#
# 1 63.2730 49.8106 29.2889 -0.0001 -10.5619 -0.0004
# 2 49.8106 119.3464 52.4919 -0.0004 -17.9931 -0.0029
# 3 29.2889 52.4919 69.3491 0.0001 -20.0643 0.0006
# 4 -0.0001 -0.0004 0.0001 34.4478 0.0000 -6.1704
# 5 -10.5619 -17.9931 -20.0643 0.0000 37.8772 0.0004
# 6 -0.0004 -0.0029 0.0006 -6.1704 0.0004 31.3271
#
#
#
# Elastic Compliance Matrix: (Units=1/GPa)
#
#
# Indices 1 2 3 4 5 6 
#
# 1 0.024232 -0.008383 -0.003644 0.000000 0.000844 0.000000
# 2 -0.008383 0.015500 -0.007957 0.000000 0.000810 0.000002
# 3 -0.003644 -0.007957 0.024322 0.000000 0.008088 -0.000001
# 4 0.000000 0.000000 0.000000 0.030091 0.000000 0.005927
# 5 0.000844 0.000810 0.008088 0.000000 0.031306 0.000000
# 6 0.000000 0.000002 -0.000001 0.005927 0.000000 0.033089
#
#
# Mechanical properties :
#
#
# Convention : Reuss Voigt Hill
#
# Bulk Modulus (GPa) = 41.52141 57.23903 49.38022
# Shear Modulus (GPa) = 24.20878 28.75554 26.48216
#
# Velocity S-wave (km/s) = 3.31628 3.61431 3.46850
# Velocity P-wave (km/s) = 5.79019 6.58943 6.20270
#
# Compressibility (1/GPa) = 0.02408396
#
# Stress axis : x y z
#
# Youngs Moduli (GPa) = 41.26763 64.51713 41.11543
#
# Poissons Ratio (x) = 0.54087 0.14984
# Poissons Ratio (y) = 0.34596 0.32716
# Poissons Ratio (z) = 0.15040 0.51336
#
# Static dielectric constant tensor:
#      x y z
#    x 4.076930 0.000000 -0.192210 
#    y 0.000000 4.315500 0.000000 
#    z -0.192210 0.000000 3.829860 
# 
# 
# High freq. dielectric constant tensor:
#      x y z
#    x 1.868150 0.000000 -0.014350 
#    y 0.000000 1.886160 0.000000 
#    z -0.014350 0.000000 1.862220 
# 
# From -- ./inp_files/218151.got.cif
#   From: 2010.06.25/outbox.cif.g09.slc.cpg/sg15_110_cif.got.tgz:218151.got - 2010.06.28 07:06:18.
