data_PCOD8148337
_publ_section_title
;
Structure prediction by ZEFSAII (Michael W. Deem and Ramdas Pophale) SiO2 
 PCOD8148337
Probable space group: C 2/C
;
_chemical_formula_sum "Si O2"
_cell_formula_units_Z 44
_cell_length_a 10.683209
_cell_length_b 17.654919
_cell_length_c 11.266100
_cell_angle_alpha 90.000000
_cell_angle_beta 104.654449
_cell_angle_gamma 90.000000
_cell_volume 2055.787394
_symmetry_space_group_name_H-M "C 2/C"
_symmetry_group_IT_number 15
_symmetry_cell_setting 'monoclinic'
loop_
_space_group_symop_operation_xyz
x,y,z
-x,y,1/2-z
-x,-y,-z
x,-y,1/2+z
1/2+x,1/2+y,z
1/2-x,1/2+y,1/2-z
1/2-x,1/2-y,-z
1/2+x,1/2-y,1/2+z
loop_
_atom_site_type_symbol
_atom_site_label
_atom_site_fract_x
_atom_site_fract_y
_atom_site_fract_z
Si Si1 0.500000 0.374182 0.750000
Si Si2 0.866653 0.020234 0.402289
Si Si3 0.711711 0.871926 0.022573
Si Si4 0.815372 0.248726 0.140990
Si Si5 0.862023 0.412739 0.242567
Si Si6 0.138192 0.740253 0.322105
O O1 0.598912 0.425396 0.698904
O O2 0.577894 0.316623 0.853229
O O3 0.786210 0.058144 0.486232
O O4 0.772196 0.953372 0.330164
O O5 0.000000 0.000000 0.500000
O O6 0.632098 0.902702 0.114403
O O7 0.812014 0.808525 0.086619
O O8 0.622200 0.835192 0.898520
O O9 0.871957 0.331637 0.180339
O O10 0.724871 0.222952 0.228081
O O11 0.750000 0.250000 0.000000
O O12 0.000000 0.455609 0.250000
O O13 0.000000 0.768948 0.250000
#
# Coordination Sequence:
#
# PCOD8148337 Si02
#       6
#     4   8   8   8   8   8
#     4  12  24  46  70 102 142 182 250 282 352 438
#     4  12  26  45  70 103 143 191 232 294 364 439
#     4  10  24  44  65 100 139 182 237 290 355 441
#     4  11  24  41  71 106 137 183 240 300 352 425
#     4  11  26  46  70 103 146 189 236 301 370 424
#     4  10  23  40  70 101 135 182 233 296 360 420
#
# _framework density 21.402992000000001
#
# number of rings (size 3 to 8) (size 9 to 14) (size 15 to 20)
#    0.000    1.091    2.727    2.182   10.182    1.455 
#    0.000    0.000    0.000    0.000    0.000    0.000 
#    0.000    0.000    0.000    0.000    0.000    0.000 
#
# Total GULP energy -272645.024496 kJ/mol
# GULP energy per Si atom -12392.955659 kJ/mol
# Density = 2.135428 g / cm^3
# Si number density = 21.402992 Si / 1000 Ang^3
#
#
#
# Elastic Constant Matrix: (Units=GPa)
#
#
# Indices 1 2 3 4 5 6 
#
# 1 95.9485 44.2798 37.0111 0.0000 14.4474 0.0000
# 2 44.2798 98.4974 39.8004 0.0000 -3.2406 0.0000
# 3 37.0111 39.8004 132.4498 0.0000 -2.5857 0.0000
# 4 0.0000 0.0000 0.0000 23.2315 0.0000 -9.3840
# 5 14.4474 -3.2406 -2.5857 0.0000 36.8470 0.0000
# 6 0.0000 0.0000 0.0000 -9.3840 0.0000 31.1554
#
#
#
# Elastic Compliance Matrix: (Units=1/GPa)
#
#
# Indices 1 2 3 4 5 6 
#
# 1 0.015190 -0.006010 -0.002569 0.000000 -0.006665 0.000000
# 2 -0.006010 0.013956 -0.002448 0.000000 0.003412 0.000000
# 3 -0.002569 -0.002448 0.009031 0.000000 0.001426 0.000000
# 4 0.000000 0.000000 0.000000 0.049007 0.000000 0.014761
# 5 -0.006665 0.003412 0.001426 0.000000 0.030153 0.000000
# 6 0.000000 0.000000 0.000000 0.014761 0.000000 0.036543
#
#
# Mechanical properties :
#
#
# Convention : Reuss Voigt Hill
#
# Bulk Modulus (GPa) = 62.01862 63.23090 62.62476
# Shear Modulus (GPa) = 27.57734 31.96707 29.77221
#
# Velocity S-wave (km/s) = 3.59344 3.86888 3.73370
# Velocity P-wave (km/s) = 6.80122 7.04023 6.92175
#
# Compressibility (1/GPa) = 0.01612419
#
# Stress axis : x y z
#
# Youngs Moduli (GPa) = 65.83113 71.65538 110.72788
#
# Poissons Ratio (x) = 0.43066 0.28444
# Poissons Ratio (y) = 0.39566 0.27101
# Poissons Ratio (z) = 0.16911 0.17538
#
# Static dielectric constant tensor:
#      x y z
#    x 3.491400 0.000000 0.804070 
#    y 0.000000 3.890450 0.000000 
#    z 0.804070 0.000000 4.063080 
# 
# 
# High freq. dielectric constant tensor:
#      x y z
#    x 1.843240 0.000000 -0.004330 
#    y 0.000000 1.837650 0.000000 
#    z -0.004330 0.000000 1.855440 
# 
# From -- ./inp_files/87554.got.cif
#   From: 2010.06.25/outbox.cif.g09.slc.cpg/sg15_44_cif.got.tgz:87554.got - 2010.06.28 07:06:18.
