data_PCOD8148580
_publ_section_title
;
Structure prediction by ZEFSAII (Michael W. Deem and Ramdas Pophale) SiO2 
 PCOD8148580
Probable space group: C 2/C
;
_chemical_formula_sum "Si O2"
_cell_formula_units_Z 64
_cell_length_a 21.369522
_cell_length_b 25.649871
_cell_length_c 10.766251
_cell_angle_alpha 90.000000
_cell_angle_beta 148.471727
_cell_angle_gamma 90.000000
_cell_volume 3085.880591
_symmetry_space_group_name_H-M "C 2/C"
_symmetry_group_IT_number 15
_symmetry_cell_setting 'monoclinic'
loop_
_space_group_symop_operation_xyz
x,y,z
-x,y,1/2-z
-x,-y,-z
x,-y,1/2+z
1/2+x,1/2+y,z
1/2-x,1/2+y,1/2-z
1/2-x,1/2-y,-z
1/2+x,1/2-y,1/2+z
loop_
_atom_site_type_symbol
_atom_site_label
_atom_site_fract_x
_atom_site_fract_y
_atom_site_fract_z
Si Si1 0.308248 0.193392 0.587938
Si Si2 0.881168 0.105287 0.848892
Si Si3 0.922755 0.003802 0.493430
Si Si4 0.267941 0.302149 0.278753
Si Si5 0.719929 0.647747 0.051486
Si Si6 0.638102 0.613068 0.160082
Si Si7 0.097722 0.748840 0.317627
Si Si8 0.572880 0.792783 0.514320
O O1 0.250000 0.250000 0.500000
O O2 0.311509 0.178931 0.738673
O O3 0.234667 0.147704 0.395979
O O4 0.438351 0.194304 0.735350
O O5 0.861586 0.152243 0.910598
O O6 0.790401 0.105473 0.576834
O O7 0.858626 0.052575 0.890275
O O8 0.013569 0.114940 0.020800
O O9 0.000000 0.013233 0.750000
O O10 0.829674 0.051546 0.311141
O O11 0.000000 0.000000 0.500000
O O12 0.343533 0.247481 0.425224
O O13 0.173063 0.298084 0.006241
O O14 0.625882 0.636123 0.001536
O O15 0.853962 0.653522 0.335818
O O16 0.688039 0.704047 0.939255
O O17 0.037833 0.733375 0.086945
O O18 0.000000 0.768447 0.250000
#
# Coordination Sequence:
#
# PCOD8148580 Si02
#       8
#     8   8   8   8   8   8   8   8
#     4  12  26  39  54  87 127 166 197 245 304 369
#     4  11  21  37  64  93 117 148 200 255 311 362
#     4  10  23  42  63  92 125 158 202 261 318 368
#     4  11  22  35  58  87 118 162 198 247 306 357
#     4  11  21  37  64  88 113 162 204 247 299 360
#     4  11  24  39  59  87 122 158 198 244 305 370
#     4  11  18  34  57  84 122 158 201 246 291 364
#     4  11  22  38  56  87 124 160 207 242 298 374
#
# _framework density 20.739622000000001
#
# number of rings (size 3 to 8) (size 9 to 14) (size 15 to 20)
#    0.000    1.000    3.750    5.625    3.500    3.000 
#    0.000    0.000    0.000    0.750    6.500    0.000 
#    0.000    0.000    0.000    0.000    0.000    0.000 
#
# Total GULP energy -396448.270896 kJ/mol
# GULP energy per Si atom -12389.008466 kJ/mol
# Density = 2.069242 g / cm^3
# Si number density = 20.739622 Si / 1000 Ang^3
#
#
#
# Elastic Constant Matrix: (Units=GPa)
#
#
# Indices 1 2 3 4 5 6 
#
# 1 84.0835 11.0046 13.3793 0.0000 6.5481 0.0000
# 2 11.0046 125.6039 57.5818 0.0000 3.4530 0.0000
# 3 13.3793 57.5818 93.1724 0.0000 11.5283 0.0000
# 4 0.0000 0.0000 0.0000 34.8922 0.0000 -1.8797
# 5 6.5481 3.4530 11.5283 0.0000 31.3217 0.0000
# 6 0.0000 0.0000 0.0000 -1.8797 0.0000 20.9108
#
#
#
# Elastic Compliance Matrix: (Units=1/GPa)
#
#
# Indices 1 2 3 4 5 6 
#
# 1 0.012310 -0.000459 -0.001228 0.000000 -0.002071 0.000000
# 2 -0.000459 0.011182 -0.007024 0.000000 0.001448 0.000000
# 3 -0.001228 -0.007024 0.015844 0.000000 -0.004801 0.000000
# 4 0.000000 0.000000 0.000000 0.028799 0.000000 0.002589
# 5 -0.002071 0.001448 -0.004801 0.000000 0.033967 0.000000
# 6 0.000000 0.000000 0.000000 0.002589 0.000000 0.048055
#
#
# Mechanical properties :
#
#
# Convention : Reuss Voigt Hill
#
# Bulk Modulus (GPa) = 45.63182 51.86565 48.74873
# Shear Modulus (GPa) = 28.59065 32.15123 30.37094
#
# Velocity S-wave (km/s) = 3.71691 3.94157 3.83089
# Velocity P-wave (km/s) = 6.36165 6.76586 6.56687
#
# Compressibility (1/GPa) = 0.02191453
#
# Stress axis : x y z
#
# Youngs Moduli (GPa) = 81.23722 89.42978 63.11536
#
# Poissons Ratio (x) = 0.04101 0.07750
# Poissons Ratio (y) = 0.03726 0.44332
# Poissons Ratio (z) = 0.09976 0.62815
#
# Static dielectric constant tensor:
#      x y z
#    x 4.291500 0.000000 -0.212830 
#    y 0.000000 4.243050 0.000000 
#    z -0.212830 0.000000 3.797000 
# 
# 
# High freq. dielectric constant tensor:
#      x y z
#    x 1.841990 0.000000 -0.026290 
#    y 0.000000 1.783350 0.000000 
#    z -0.026290 0.000000 1.794670 
# 
# From -- ./inp_files/90802.got.cif
#   From: 2010.06.25/outbox.cif.g09.slc.cpg/sg15_46_cif.got.tgz:90802.got - 2010.06.28 07:06:18.
