data_PCOD8148667
_publ_section_title
;
Structure prediction by ZEFSAII (Michael W. Deem and Ramdas Pophale) SiO2 
 PCOD8148667
Probable space group: C 2/C
;
_chemical_formula_sum "Si O2"
_cell_formula_units_Z 60
_cell_length_a 20.428387
_cell_length_b 18.596843
_cell_length_c 9.021637
_cell_angle_alpha 90.000000
_cell_angle_beta 57.243211
_cell_angle_gamma 90.000000
_cell_volume 2882.316629
_symmetry_space_group_name_H-M "C 2/C"
_symmetry_group_IT_number 15
_symmetry_cell_setting 'monoclinic'
loop_
_space_group_symop_operation_xyz
x,y,z
-x,y,1/2-z
-x,-y,-z
x,-y,1/2+z
1/2+x,1/2+y,z
1/2-x,1/2+y,1/2-z
1/2-x,1/2-y,-z
1/2+x,1/2-y,1/2+z
loop_
_atom_site_type_symbol
_atom_site_label
_atom_site_fract_x
_atom_site_fract_y
_atom_site_fract_z
Si Si1 0.715793 0.754976 0.876623
Si Si2 0.149204 0.127562 0.777552
Si Si3 0.004834 0.201923 0.570903
Si Si4 0.000000 0.450884 0.250000
Si Si5 0.576339 0.159555 0.440843
Si Si6 0.646380 0.041521 0.160722
Si Si7 0.330311 0.356242 0.599389
Si Si8 0.257170 0.498108 0.268394
O O1 0.700777 0.679652 0.815669
O O2 0.637242 0.802745 0.977469
O O3 0.777301 0.787737 0.688049
O O4 0.750000 0.750000 0.000000
O O5 0.167641 0.127235 0.578410
O O6 0.164702 0.049897 0.831764
O O7 0.059173 0.146501 0.911434
O O8 0.087019 0.165975 0.428738
O O9 0.000000 0.211507 0.750000
O O10 0.988188 0.282031 0.529066
O O11 0.066560 0.500979 0.231804
O O12 0.968334 0.403492 0.422337
O O13 0.625192 0.122105 0.245983
O O14 0.699182 0.994043 0.203550
O O15 0.702596 0.042411 0.952743
O O16 0.290994 0.421043 0.743048
#
# Coordination Sequence:
#
# PCOD8148667 Si02
#       8
#     8   8   8   4   8   8   8   8
#     4  11  24  40  65  96 131 175 227 276 331 397
#     4  10  23  42  66  96 132 175 223 275 334 400
#     4   9  23  43  68  94 129 176 225 268 340 395
#     4  12  26  40  62  96 138 172 216 274 344 398
#     4  11  24  43  62  96 137 172 224 274 332 412
#     4  12  25  43  63  98 130 176 218 274 333 403
#     4  11  22  44  67  97 131 176 225 278 332 405
#     4  12  24  42  71  95 133 171 228 276 337 394
#
# _framework density 20.816587999999999
#
# number of rings (size 3 to 8) (size 9 to 14) (size 15 to 20)
#    0.000    1.067    4.000    0.800    6.533    2.667 
#    0.000    0.000    0.000    0.000    0.000    0.000 
#    0.000    0.000    0.000    0.000    0.000    0.000 
#
# Total GULP energy -371677.092725 kJ/mol
# GULP energy per Si atom -12389.236424 kJ/mol
# Density = 2.076921 g / cm^3
# Si number density = 20.816588 Si / 1000 Ang^3
#
#
#
# Elastic Constant Matrix: (Units=GPa)
#
#
# Indices 1 2 3 4 5 6 
#
# 1 159.3393 75.7803 21.0791 0.0000 -1.8516 0.0000
# 2 75.7803 110.6564 31.2405 0.0000 -0.8996 0.0000
# 3 21.0791 31.2405 43.1541 0.0000 -6.7213 0.0000
# 4 0.0000 0.0000 0.0000 -8.8309 0.0000 25.2622
# 5 -1.8516 -0.8996 -6.7213 0.0000 27.8179 0.0000
# 6 0.0000 0.0000 0.0000 25.2622 0.0000 17.3573
#
#
#
# Elastic Compliance Matrix: (Units=1/GPa)
#
#
# Indices 1 2 3 4 5 6 
#
# 1 0.009313 -0.006422 0.000171 0.000000 0.000453 0.000000
# 2 -0.006422 0.015864 -0.008660 0.000000 -0.002007 0.000000
# 3 0.000171 -0.008660 0.030463 0.000000 0.007092 0.000000
# 4 0.000000 0.000000 0.000000 -0.021931 0.000000 0.031918
# 5 0.000453 -0.002007 0.007092 0.000000 0.037627 0.000000
# 6 0.000000 0.000000 0.000000 0.031918 0.000000 0.011158
#
#
# Mechanical properties :
#
#
# Convention : Reuss Voigt Hill
#
# Bulk Modulus (GPa) = 38.73376 63.26107 50.99741
# Shear Modulus (GPa) = 41.34922 19.60550 30.47736
#
# Velocity S-wave (km/s) = 4.46169 3.07224 3.83049
# Velocity P-wave (km/s) = 6.72234 6.56053 6.64193
#
# Compressibility (1/GPa) = 0.02581727
#
# Stress axis : x y z
#
# Youngs Moduli (GPa) = 107.37710 63.03726 32.82692
#
# Poissons Ratio (x) = 0.40485 -0.00561
# Poissons Ratio (y) = 0.68961 0.28427
# Poissons Ratio (z) = -0.01835 0.54588
#
# Static dielectric constant tensor:
#      x y z
#    x 4.359960 0.000000 -0.255470 
#    y 0.000000 4.280960 0.000000 
#    z -0.255470 0.000000 3.698580 
# 
# 
# High freq. dielectric constant tensor:
#      x y z
#    x 1.838490 0.000000 -0.005340 
#    y 0.000000 1.819350 0.000000 
#    z -0.005340 0.000000 1.801640 
# 
# From -- ./inp_files/57007.got.cif
#   From: 2010.06.25/outbox.cif.g09.slc.cpg/sg15_29_cif.got.tgz:57007.got - 2010.06.28 07:06:18.
