data_PCOD8148104
_publ_section_title
;
Structure prediction by ZEFSAII (Michael W. Deem and Ramdas Pophale) SiO2 
 PCOD8148104
Probable space group: C 2/C
;
_chemical_formula_sum "Si O2"
_cell_formula_units_Z 40
_cell_length_a 9.932635
_cell_length_b 20.636880
_cell_length_c 9.000895
_cell_angle_alpha 90.000000
_cell_angle_beta 92.749007
_cell_angle_gamma 90.000000
_cell_volume 1842.867643
_symmetry_space_group_name_H-M "C 2/C"
_symmetry_group_IT_number 15
_symmetry_cell_setting 'monoclinic'
loop_
_space_group_symop_operation_xyz
x,y,z
-x,y,1/2-z
-x,-y,-z
x,-y,1/2+z
1/2+x,1/2+y,z
1/2-x,1/2+y,1/2-z
1/2-x,1/2-y,-z
1/2+x,1/2-y,1/2+z
loop_
_atom_site_type_symbol
_atom_site_label
_atom_site_fract_x
_atom_site_fract_y
_atom_site_fract_z
Si Si1 0.000000 0.635542 0.750000
Si Si2 0.879746 0.708467 0.468109
Si Si3 0.229198 0.993666 0.545488
Si Si4 0.500000 0.700832 0.750000
Si Si5 0.859313 0.424097 0.816891
Si Si6 0.702368 0.589016 0.777928
O O1 0.958435 0.681335 0.613094
O O2 0.867618 0.592820 0.788177
O O3 0.750000 0.750000 0.500000
O O4 0.987301 0.754142 0.392833
O O5 0.831545 0.650009 0.359562
O O6 0.350054 0.029517 0.461352
O O7 0.151229 0.052928 0.624250
O O8 0.259274 0.944192 0.680187
O O9 0.149265 0.951916 0.417967
O O10 0.635555 0.659128 0.778034
O O11 0.000000 0.434766 0.750000
#
# Coordination Sequence:
#
# PCOD8148104 Si02
#       6
#     4   8   8   4   8   8
#     4  12  24  42  67 101 136 172 230 278 342 388
#     4  12  25  44  66  98 139 182 227 279 330 407
#     4  10  23  38  65  99 135 165 224 279 340 401
#     4  12  26  48  67  93 142 184 230 272 336 408
#     4  11  20  36  61  96 129 171 214 279 338 386
#     4  11  25  42  68 101 132 181 219 285 340 400
#
# _framework density 21.705303000000001
#
# number of rings (size 3 to 8) (size 9 to 14) (size 15 to 20)
#    0.000    0.800    5.000    1.800    5.600    3.200 
#    0.000    0.000    0.000    0.000    0.000    0.000 
#    0.000    0.000    0.000    0.000    0.000    0.000 
#
# Total GULP energy -247772.060220 kJ/mol
# GULP energy per Si atom -12388.603011 kJ/mol
# Density = 2.165590 g / cm^3
# Si number density = 21.705303 Si / 1000 Ang^3
#
#
#
# Elastic Constant Matrix: (Units=GPa)
#
#
# Indices 1 2 3 4 5 6 
#
# 1 61.8385 26.7857 25.0153 0.0000 -1.1673 0.0000
# 2 26.7857 141.3260 72.3628 0.0000 -12.4505 0.0000
# 3 25.0153 72.3628 162.4751 0.0000 -21.1284 0.0000
# 4 0.0000 0.0000 0.0000 56.2249 0.0000 -12.1689
# 5 -1.1673 -12.4505 -21.1284 0.0000 16.3087 0.0000
# 6 0.0000 0.0000 0.0000 -12.1689 0.0000 22.4696
#
#
#
# Elastic Compliance Matrix: (Units=1/GPa)
#
#
# Indices 1 2 3 4 5 6 
#
# 1 0.018092 -0.002689 -0.002028 0.000000 -0.003385 0.000000
# 2 -0.002689 0.009623 -0.003538 0.000000 0.002571 0.000000
# 3 -0.002028 -0.003538 0.009227 0.000000 0.009108 0.000000
# 4 0.000000 0.000000 0.000000 0.020147 0.000000 0.010911
# 5 -0.003385 0.002571 0.009108 0.000000 0.074837 0.000000
# 6 0.000000 0.000000 0.000000 0.010911 0.000000 0.050414
#
#
# Mechanical properties :
#
#
# Convention : Reuss Voigt Hill
#
# Bulk Modulus (GPa) = 48.93970 68.21857 58.57914
# Shear Modulus (GPa) = 24.31177 35.09904 29.70540
#
# Velocity S-wave (km/s) = 3.35040 4.02565 3.70344
# Velocity P-wave (km/s) = 6.12888 7.28735 6.73308
#
# Compressibility (1/GPa) = 0.02043331
#
# Stress axis : x y z
#
# Youngs Moduli (GPa) = 55.27181 103.91391 108.37630
#
# Poissons Ratio (x) = 0.27940 0.21982
# Poissons Ratio (y) = 0.14861 0.38340
# Poissons Ratio (z) = 0.11211 0.36762
#
# Static dielectric constant tensor:
#      x y z
#    x 3.634170 0.000000 -0.344910 
#    y 0.000000 4.438290 0.000000 
#    z -0.344910 0.000000 4.450070 
# 
# 
# High freq. dielectric constant tensor:
#      x y z
#    x 1.820190 0.000000 -0.029180 
#    y 0.000000 1.873550 0.000000 
#    z -0.029180 0.000000 1.871260 
# 
# From -- ./inp_files/29292.got.cif
#   From: 2010.06.25/outbox.cif.g09.slc.cpg/sg15_15_cif.got.tgz:29292.got - 2010.06.28 07:06:18.
