data_PCOD8148061
_publ_section_title
;
Structure prediction by ZEFSAII (Michael W. Deem and Ramdas Pophale) SiO2 
 PCOD8148061
Probable space group: C 2/C
;
_chemical_formula_sum "Si O2"
_cell_formula_units_Z 64
_cell_length_a 27.039676
_cell_length_b 9.498615
_cell_length_c 14.969376
_cell_angle_alpha 90.000000
_cell_angle_beta 53.536448
_cell_angle_gamma 90.000000
_cell_volume 3092.064055
_symmetry_space_group_name_H-M "C 2/C"
_symmetry_group_IT_number 15
_symmetry_cell_setting 'monoclinic'
loop_
_space_group_symop_operation_xyz
x,y,z
-x,y,1/2-z
-x,-y,-z
x,-y,1/2+z
1/2+x,1/2+y,z
1/2-x,1/2+y,1/2-z
1/2-x,1/2-y,-z
1/2+x,1/2-y,1/2+z
loop_
_atom_site_type_symbol
_atom_site_label
_atom_site_fract_x
_atom_site_fract_y
_atom_site_fract_z
Si Si1 0.966337 0.651795 0.033668
Si Si2 0.451230 0.659068 0.726085
Si Si3 0.251984 0.853167 0.865674
Si Si4 0.186672 0.894285 0.114632
Si Si5 0.036195 0.897183 0.897354
Si Si6 0.162382 0.549599 0.373086
Si Si7 0.237671 0.828536 0.605625
Si Si8 0.156226 0.242406 0.342025
O O1 0.966093 0.731912 0.129851
O O2 0.897318 0.645388 0.072495
O O3 0.000000 0.500000 0.000000
O O4 0.999340 0.750760 0.924030
O O5 0.500000 0.698380 0.750000
O O6 0.380255 0.672888 0.836343
O O7 0.456171 0.491610 0.699243
O O8 0.282116 0.698562 0.841371
O O9 0.299257 0.948748 0.760176
O O10 0.188194 0.852434 0.881973
O O11 0.235298 0.909354 0.981168
O O12 0.184522 0.052823 0.152854
O O13 0.099865 0.851663 0.872547
O O14 0.000000 0.000000 0.000000
O O15 0.199970 0.604507 0.419263
O O16 0.137953 0.389596 0.408425
O O17 0.250000 0.750000 0.500000
O O18 0.205611 0.722965 0.710031
#
# Coordination Sequence:
#
# PCOD8148061 Si02
#       8
#     8   8   8   8   8   8   8   8
#     4  11  23  43  69  95 127 176 225 274 330 397
#     4  11  25  44  66  96 131 174 223 275 330 395
#     4  10  23  37  64  96 126 168 211 267 325 395
#     4  11  21  41  62  93 129 162 215 264 328 391
#     4  10  23  41  65  92 126 171 225 267 320 393
#     4  11  22  41  66  94 130 168 223 265 333 394
#     4  11  24  41  62  98 132 168 208 275 336 388
#     4  11  21  41  68  92 128 173 217 268 327 399
#
# _framework density 20.698149999999998
#
# number of rings (size 3 to 8) (size 9 to 14) (size 15 to 20)
#    0.000    1.250    5.000    0.750    3.500    1.000 
#    4.500    0.625    0.000    0.000    0.000    0.000 
#    0.000    0.000    0.000    0.000    0.000    0.000 
#
# Total GULP energy -396481.327750 kJ/mol
# GULP energy per Si atom -12390.041492 kJ/mol
# Density = 2.065104 g / cm^3
# Si number density = 20.698150 Si / 1000 Ang^3
#
#
#
# Elastic Constant Matrix: (Units=GPa)
#
#
# Indices 1 2 3 4 5 6 
#
# 1 143.2761 40.0629 33.4815 0.0000 -9.4746 0.0000
# 2 40.0629 113.7257 26.5970 0.0000 -3.6115 0.0000
# 3 33.4815 26.5970 62.1537 0.0000 -2.5085 0.0000
# 4 0.0000 0.0000 0.0000 26.9138 0.0000 -4.4324
# 5 -9.4746 -3.6115 -2.5085 0.0000 30.3888 0.0000
# 6 0.0000 0.0000 0.0000 -4.4324 0.0000 30.3843
#
#
#
# Elastic Compliance Matrix: (Units=1/GPa)
#
#
# Indices 1 2 3 4 5 6 
#
# 1 0.008553 -0.002098 -0.003624 0.000000 0.002118 0.000000
# 2 -0.002098 0.010306 -0.003268 0.000000 0.000301 0.000000
# 3 -0.003624 -0.003268 0.019443 0.000000 0.000087 0.000000
# 4 0.000000 0.000000 0.000000 0.038070 0.000000 0.005554
# 5 0.002118 0.000301 0.000087 0.000000 0.033610 0.000000
# 6 0.000000 0.000000 0.000000 0.005554 0.000000 0.033722
#
#
# Mechanical properties :
#
#
# Convention : Reuss Voigt Hill
#
# Bulk Modulus (GPa) = 49.20713 57.71536 53.46125
# Shear Modulus (GPa) = 29.68075 32.13831 30.90953
#
# Velocity S-wave (km/s) = 3.79090 3.94472 3.86858
# Velocity P-wave (km/s) = 6.55641 6.97801 6.77049
#
# Compressibility (1/GPa) = 0.02032226
#
# Stress axis : x y z
#
# Youngs Moduli (GPa) = 116.91495 97.03055 51.43164
#
# Poissons Ratio (x) = 0.20359 0.18640
# Poissons Ratio (y) = 0.24532 0.16807
# Poissons Ratio (z) = 0.42372 0.31707
#
# Static dielectric constant tensor:
#      x y z
#    x 3.670920 0.000000 -0.159090 
#    y 0.000000 4.019710 0.000000 
#    z -0.159090 0.000000 3.854170 
# 
# 
# High freq. dielectric constant tensor:
#      x y z
#    x 1.810090 0.000000 -0.015370 
#    y 0.000000 1.816790 0.000000 
#    z -0.015370 0.000000 1.803250 
# 
# From -- ./inp_files/181134.got.cif
#   From: 2010.06.25/outbox.cif.g09.slc.cpg/sg15_91_cif.got.tgz:181134.got - 2010.06.28 07:06:18.
