data_PCOD8148545
_publ_section_title
;
Structure prediction by ZEFSAII (Michael W. Deem and Ramdas Pophale) SiO2 
 PCOD8148545
Probable space group: C 2/C
;
_chemical_formula_sum "Si O2"
_cell_formula_units_Z 40
_cell_length_a 8.360814
_cell_length_b 22.719594
_cell_length_c 9.384358
_cell_angle_alpha 90.000000
_cell_angle_beta 88.222214
_cell_angle_gamma 90.000000
_cell_volume 1781.741121
_symmetry_space_group_name_H-M "C 2/C"
_symmetry_group_IT_number 15
_symmetry_cell_setting 'monoclinic'
loop_
_space_group_symop_operation_xyz
x,y,z
-x,y,1/2-z
-x,-y,-z
x,-y,1/2+z
1/2+x,1/2+y,z
1/2-x,1/2+y,1/2-z
1/2-x,1/2-y,-z
1/2+x,1/2-y,1/2+z
loop_
_atom_site_type_symbol
_atom_site_label
_atom_site_fract_x
_atom_site_fract_y
_atom_site_fract_z
Si Si1 0.179499 0.976785 0.511892
Si Si2 0.836181 0.199987 0.810125
Si Si3 0.120407 0.628464 0.626331
Si Si4 0.325872 0.946115 0.792459
Si Si5 0.857476 0.670878 0.421229
O O1 0.241675 0.918285 0.424814
O O2 0.200735 0.969026 0.679554
O O3 0.287968 0.029661 0.450535
O O4 0.000000 0.000000 0.500000
O O5 0.702192 0.186226 0.694893
O O6 0.865973 0.268784 0.834752
O O7 0.000000 0.170820 0.750000
O O8 0.786157 0.171018 0.960870
O O9 0.000000 0.600857 0.750000
O O10 0.024447 0.652099 0.491558
O O11 0.500000 0.969536 0.750000
O O12 0.316742 0.875696 0.799725
#
# Coordination Sequence:
#
# PCOD8148545 Si02
#       5
#     8   8   8   8   8
#     4  12  28  45  69 106 142 184 241 305 358 416
#     4  10  23  41  73 104 143 181 240 301 350 421
#     4  10  23  45  73 101 144 189 236 290 360 433
#     4  12  25  46  74  98 141 191 241 290 355 446
#     4  10  23  46  68 106 138 193 241 284 363 432
#
# _framework density 22.449950999999999
#
# number of rings (size 3 to 8) (size 9 to 14) (size 15 to 20)
#    0.000    1.200    2.000    2.400    8.400    0.800 
#    0.000    4.000    0.000    0.000    0.000    0.000 
#    0.000    0.000    0.000    0.000    0.000    0.000 
#
# Total GULP energy -247879.706350 kJ/mol
# GULP energy per Si atom -12393.985318 kJ/mol
# Density = 2.239885 g / cm^3
# Si number density = 22.449951 Si / 1000 Ang^3
#
#
#
# Elastic Constant Matrix: (Units=GPa)
#
#
# Indices 1 2 3 4 5 6 
#
# 1 152.0007 61.5708 56.4614 0.0000 -11.9577 0.0000
# 2 61.5708 110.9978 51.7955 0.0000 13.4075 0.0000
# 3 56.4614 51.7955 112.6068 0.0000 5.0905 0.0000
# 4 0.0000 0.0000 0.0000 37.8036 0.0000 7.2475
# 5 -11.9577 13.4075 5.0905 0.0000 40.6410 0.0000
# 6 0.0000 0.0000 0.0000 7.2475 0.0000 32.1759
#
#
#
# Elastic Compliance Matrix: (Units=1/GPa)
#
#
# Indices 1 2 3 4 5 6 
#
# 1 0.010013 -0.004709 -0.003075 0.000000 0.004885 0.000000
# 2 -0.004709 0.014099 -0.003873 0.000000 -0.005552 0.000000
# 3 -0.003075 -0.003873 0.012256 0.000000 -0.001162 0.000000
# 4 0.000000 0.000000 0.000000 0.027646 0.000000 -0.006227
# 5 0.004885 -0.005552 -0.001162 0.000000 0.028020 0.000000
# 6 0.000000 0.000000 0.000000 -0.006227 0.000000 0.032482
#
#
# Mechanical properties :
#
#
# Convention : Reuss Voigt Hill
#
# Bulk Modulus (GPa) = 76.60692 79.47342 78.04017
# Shear Modulus (GPa) = 32.85503 35.84262 34.34882
#
# Velocity S-wave (km/s) = 3.82969 4.00003 3.91579
# Velocity P-wave (km/s) = 7.33164 7.53729 7.43518
#
# Compressibility (1/GPa) = 0.01305365
#
# Stress axis : x y z
#
# Youngs Moduli (GPa) = 99.86867 70.92517 81.58987
#
# Poissons Ratio (x) = 0.33401 0.25091
# Poissons Ratio (y) = 0.47032 0.31600
# Poissons Ratio (z) = 0.30713 0.27469
#
# Static dielectric constant tensor:
#      x y z
#    x 4.114530 0.000000 -0.316140 
#    y 0.000000 4.070830 0.000000 
#    z -0.316140 0.000000 4.351410 
# 
# 
# High freq. dielectric constant tensor:
#      x y z
#    x 1.884400 0.000000 -0.020170 
#    y 0.000000 1.882490 0.000000 
#    z -0.020170 0.000000 1.899020 
# 
# From -- ./inp_files/23667.got.cif
#   From: 2010.06.25/outbox.cif.g09.slc.cpg/sg15_12_cif.got.tgz:23667.got - 2010.06.28 07:06:18.
