data_PCOD8148830
_publ_section_title
;
Structure prediction by ZEFSAII (Michael W. Deem and Ramdas Pophale) SiO2 
 PCOD8148830
Probable space group: C 2/C
;
_chemical_formula_sum "Si O2"
_cell_formula_units_Z 56
_cell_length_a 18.081946
_cell_length_b 16.794448
_cell_length_c 12.885571
_cell_angle_alpha 90.000000
_cell_angle_beta 136.071191
_cell_angle_gamma 90.000000
_cell_volume 2714.728216
_symmetry_space_group_name_H-M "C 2/C"
_symmetry_group_IT_number 15
_symmetry_cell_setting 'monoclinic'
loop_
_space_group_symop_operation_xyz
x,y,z
-x,y,1/2-z
-x,-y,-z
x,-y,1/2+z
1/2+x,1/2+y,z
1/2-x,1/2+y,1/2-z
1/2-x,1/2-y,-z
1/2+x,1/2-y,1/2+z
loop_
_atom_site_type_symbol
_atom_site_label
_atom_site_fract_x
_atom_site_fract_y
_atom_site_fract_z
Si Si1 0.622894 0.970873 0.396197
Si Si2 0.557656 0.433269 0.710358
Si Si3 0.288895 0.334451 0.510857
Si Si4 0.135129 0.883445 0.114665
Si Si5 0.757181 0.526239 0.285123
Si Si6 0.610484 0.703635 0.805369
Si Si7 0.294911 0.869803 0.628948
O O1 0.500000 0.951064 0.250000
O O2 0.696498 0.900632 0.426458
O O3 0.637765 0.975700 0.536574
O O4 0.653419 0.055513 0.377125
O O5 0.500000 0.479236 0.750000
O O6 0.609475 0.354186 0.813635
O O7 0.476892 0.420731 0.534370
O O8 0.655352 0.480661 0.760126
O O9 0.250000 0.250000 0.500000
O O10 0.330404 0.319626 0.436096
O O11 0.118970 0.846602 0.209815
O O12 0.235880 0.944492 0.203366
O O13 0.762594 0.601896 0.213041
O O14 0.500000 0.691377 0.750000
O O15 0.622006 0.796617 0.785690
O O16 0.693955 0.667342 0.970022
#
# Coordination Sequence:
#
# PCOD8148830 Si02
#       7
#     8   8   8   8   8   8   8
#     4  11  24  44  66  93 131 177 224 278 340 405
#     4   9  21  37  63  96 128 162 209 271 337 397
#     4  10  23  43  63  94 136 169 215 284 332 401
#     4  11  21  40  66  99 126 169 218 270 346 393
#     4  11  22  41  66  96 126 172 218 275 333 402
#     4  11  25  43  68  98 137 181 224 280 338 405
#     4  11  24  46  65  96 138 175 227 281 331 405
#
# _framework density 20.628215000000001
#
# number of rings (size 3 to 8) (size 9 to 14) (size 15 to 20)
#    0.000    1.429    2.857    1.714    4.000    2.857 
#    0.000    0.000    0.000    0.000    0.000    0.000 
#    0.000    0.000    0.000    0.000    0.000    0.000 
#
# Total GULP energy -346889.314269 kJ/mol
# GULP energy per Si atom -12388.904081 kJ/mol
# Density = 2.058126 g / cm^3
# Si number density = 20.628215 Si / 1000 Ang^3
#
#
#
# Elastic Constant Matrix: (Units=GPa)
#
#
# Indices 1 2 3 4 5 6 
#
# 1 74.3742 34.7010 36.7353 0.0000 -2.6394 0.0000
# 2 34.7010 107.6106 37.0076 0.0000 -5.1117 0.0000
# 3 36.7353 37.0076 133.2127 0.0000 -0.3476 0.0000
# 4 0.0000 0.0000 0.0000 19.8338 0.0000 -8.5261
# 5 -2.6394 -5.1117 -0.3476 0.0000 35.2884 0.0000
# 6 0.0000 0.0000 0.0000 -8.5261 0.0000 32.6991
#
#
#
# Elastic Compliance Matrix: (Units=1/GPa)
#
#
# Indices 1 2 3 4 5 6 
#
# 1 0.017232 -0.004304 -0.003554 0.000000 0.000630 0.000000
# 2 -0.004304 0.011425 -0.001984 0.000000 0.001314 0.000000
# 3 -0.003554 -0.001984 0.009037 0.000000 -0.000464 0.000000
# 4 0.000000 0.000000 0.000000 0.056784 0.000000 0.014806
# 5 0.000630 0.001314 -0.000464 0.000000 0.028571 0.000000
# 6 0.000000 0.000000 0.000000 0.014806 0.000000 0.034442
#
#
# Mechanical properties :
#
#
# Convention : Reuss Voigt Hill
#
# Bulk Modulus (GPa) = 55.52767 59.12060 57.32413
# Shear Modulus (GPa) = 27.29572 31.34785 29.32179
#
# Velocity S-wave (km/s) = 3.64156 3.90251 3.77429
# Velocity P-wave (km/s) = 6.68267 7.00203 6.84421
#
# Compressibility (1/GPa) = 0.01800904
#
# Stress axis : x y z
#
# Youngs Moduli (GPa) = 58.03202 87.52455 110.65800
#
# Poissons Ratio (x) = 0.37674 0.39333
# Poissons Ratio (y) = 0.24979 0.21950
# Poissons Ratio (z) = 0.20627 0.17362
#
# Static dielectric constant tensor:
#      x y z
#    x 3.262060 0.000000 -0.040920 
#    y 0.000000 3.955910 0.000000 
#    z -0.040920 0.000000 4.136650 
# 
# 
# High freq. dielectric constant tensor:
#      x y z
#    x 1.815670 0.000000 -0.011100 
#    y 0.000000 1.797550 0.000000 
#    z -0.011100 0.000000 1.820240 
# 
# From -- ./inp_files/106742.got.cif
#   From: 2010.06.25/outbox.cif.g09.slc.cpg/sg15_54_cif.got.tgz:106742.got - 2010.06.28 07:06:18.
