data_PCOD8148899
_publ_section_title
;
Structure prediction by ZEFSAII (Michael W. Deem and Ramdas Pophale) SiO2 
 PCOD8148899
Probable space group: C 2/C
;
_chemical_formula_sum "Si O2"
_cell_formula_units_Z 60
_cell_length_a 10.712920
_cell_length_b 8.744926
_cell_length_c 29.395066
_cell_angle_alpha 90.000000
_cell_angle_beta 99.230341
_cell_angle_gamma 90.000000
_cell_volume 2718.180147
_symmetry_space_group_name_H-M "C 2/C"
_symmetry_group_IT_number 15
_symmetry_cell_setting 'monoclinic'
loop_
_space_group_symop_operation_xyz
x,y,z
-x,y,1/2-z
-x,-y,-z
x,-y,1/2+z
1/2+x,1/2+y,z
1/2-x,1/2+y,1/2-z
1/2-x,1/2-y,-z
1/2+x,1/2-y,1/2+z
loop_
_atom_site_type_symbol
_atom_site_label
_atom_site_fract_x
_atom_site_fract_y
_atom_site_fract_z
Si Si1 0.385925 0.887575 0.544638
Si Si2 0.813928 0.965633 0.275808
Si Si3 0.101996 0.568866 0.822986
Si Si4 0.500000 0.308903 0.750000
Si Si5 0.361668 0.870183 0.801771
Si Si6 0.108747 0.708881 0.921834
Si Si7 0.648890 0.221543 0.559241
Si Si8 0.840160 0.391486 0.904259
O O1 0.372914 0.820490 0.494188
O O2 0.271170 0.830336 0.570527
O O3 0.520684 0.833758 0.572895
O O4 0.375900 0.071570 0.540685
O O5 0.740644 0.997478 0.319316
O O6 0.725786 0.002640 0.227136
O O7 0.862165 0.791021 0.275320
O O8 0.929084 0.084054 0.282183
O O9 0.086062 0.626363 0.872650
O O10 0.003022 0.434698 0.808504
O O11 0.093521 0.706598 0.785581
O O12 0.314031 0.845450 0.850685
O O13 0.231739 0.814818 0.929291
O O14 0.980400 0.800898 0.928774
O O15 0.674010 0.072386 0.591014
#
# Coordination Sequence:
#
# PCOD8148899 Si02
#       8
#     8   8   8   4   8   8   8   8
#     4  10  23  43  66  98 133 175 216 269 337 401
#     4  12  25  43  64  96 127 175 217 272 325 397
#     4  12  23  44  64  90 131 167 221 275 318 391
#     4  12  26  42  62  94 128 170 216 264 334 384
#     4  12  23  46  67  91 135 174 221 270 335 379
#     4  11  22  41  66  96 130 170 217 272 327 382
#     4  10  23  43  67  97 136 171 216 273 334 397
#     4  11  22  43  65  99 129 175 218 272 324 399
#
# _framework density 22.073592999999999
#
# number of rings (size 3 to 8) (size 9 to 14) (size 15 to 20)
#    0.000    0.800    6.667    1.600    1.867    4.267 
#    7.200    2.667    0.000    0.000    0.000    0.000 
#    0.000    0.000    0.000    0.000    0.000    0.000 
#
# Total GULP energy -372005.819692 kJ/mol
# GULP energy per Si atom -12400.193990 kJ/mol
# Density = 2.202335 g / cm^3
# Si number density = 22.073593 Si / 1000 Ang^3
#
#
#
# Elastic Constant Matrix: (Units=GPa)
#
#
# Indices 1 2 3 4 5 6 
#
# 1 165.8818 42.9045 11.4578 0.0000 -35.8400 0.0000
# 2 42.9045 69.5303 -0.3914 0.0000 -7.8762 0.0000
# 3 11.4578 -0.3914 53.7699 0.0000 -12.5471 0.0000
# 4 0.0000 0.0000 0.0000 23.6644 0.0000 -14.0683
# 5 -35.8400 -7.8762 -12.5471 0.0000 37.1978 0.0000
# 6 0.0000 0.0000 0.0000 -14.0683 0.0000 32.5157
#
#
#
# Elastic Compliance Matrix: (Units=1/GPa)
#
#
# Indices 1 2 3 4 5 6 
#
# 1 0.008853 -0.004615 -0.000171 0.000000 0.007495 0.000000
# 2 -0.004615 0.017182 0.000998 0.000000 -0.000472 0.000000
# 3 -0.000171 0.000998 0.020246 0.000000 0.006876 0.000000
# 4 0.000000 0.000000 0.000000 0.056891 0.000000 0.024614
# 5 0.007495 -0.000472 0.006876 0.000000 0.036324 0.000000
# 6 0.000000 0.000000 0.000000 0.024614 0.000000 0.041404
#
#
# Mechanical properties :
#
#
# Convention : Reuss Voigt Hill
#
# Bulk Modulus (GPa) = 25.83579 44.12488 34.98033
# Shear Modulus (GPa) = 24.82900 34.35631 29.59265
#
# Velocity S-wave (km/s) = 3.35748 3.94946 3.66544
# Velocity P-wave (km/s) = 5.17301 6.38991 5.81339
#
# Compressibility (1/GPa) = 0.03870600
#
# Stress axis : x y z
#
# Youngs Moduli (GPa) = 112.95315 58.20007 49.39266
#
# Poissons Ratio (x) = 0.26859 0.00845
# Poissons Ratio (y) = 0.52127 -0.04931
# Poissons Ratio (z) = 0.01933 -0.05811
#
# Static dielectric constant tensor:
#      x y z
#    x 4.451240 0.000000 -0.245970 
#    y 0.000000 3.945650 0.000000 
#    z -0.245970 0.000000 3.918490 
# 
# 
# High freq. dielectric constant tensor:
#      x y z
#    x 1.890200 0.000000 -0.016750 
#    y 0.000000 1.852010 0.000000 
#    z -0.016750 0.000000 1.865580 
# 
# From -- ./inp_files/291592.got.cif
#   From: 2010.06.25/outbox.cif.g09.slc.cpg/sg15_146_cif.got.tgz:291592.got - 2010.06.28 07:06:18.
