data_PCOD8148774
_publ_section_title
;
Structure prediction by ZEFSAII (Michael W. Deem and Ramdas Pophale) SiO2 
 PCOD8148774
Probable space group: C 2/C
;
_chemical_formula_sum "Si O2"
_cell_formula_units_Z 52
_cell_length_a 26.336719
_cell_length_b 6.692120
_cell_length_c 16.732768
_cell_angle_alpha 90.000000
_cell_angle_beta 53.335834
_cell_angle_gamma 90.000000
_cell_volume 2365.638415
_symmetry_space_group_name_H-M "C 2/C"
_symmetry_group_IT_number 15
_symmetry_cell_setting 'monoclinic'
loop_
_space_group_symop_operation_xyz
x,y,z
-x,y,1/2-z
-x,-y,-z
x,-y,1/2+z
1/2+x,1/2+y,z
1/2-x,1/2+y,1/2-z
1/2-x,1/2-y,-z
1/2+x,1/2-y,1/2+z
loop_
_atom_site_type_symbol
_atom_site_label
_atom_site_fract_x
_atom_site_fract_y
_atom_site_fract_z
Si Si1 0.677570 0.839176 0.964278
Si Si2 0.100756 0.667454 0.688273
Si Si3 0.971707 0.988946 0.153857
Si Si4 0.093872 0.074932 0.943380
Si Si5 0.000000 0.656208 0.250000
Si Si6 0.806488 0.744369 0.617582
Si Si7 0.212729 0.586625 0.691001
O O1 0.637850 0.762482 0.924480
O O2 0.748940 0.758345 0.892022
O O3 0.679565 0.079393 0.963178
O O4 0.645699 0.755277 0.074847
O O5 0.057137 0.852209 0.756699
O O6 0.141779 0.584338 0.723665
O O7 0.061057 0.484551 0.689827
O O8 0.918897 0.919875 0.139493
O O9 0.997706 0.793648 0.173716
O O10 0.028991 0.094928 0.053627
O O11 0.130087 0.871338 0.930440
O O12 0.787176 0.627659 0.715341
O O13 0.747451 0.876103 0.643417
#
# Coordination Sequence:
#
# PCOD8148774 Si02
#       7
#     8   8   8   8   4   8   8
#     4  11  24  42  67  98 137 173 222 275 335 402
#     4  12  26  45  66  99 138 179 216 282 341 398
#     4  11  24  44  68  96 134 175 228 278 334 395
#     4  10  23  42  70  98 127 179 223 278 331 398
#     4  12  26  40  66  96 134 176 222 274 334 400
#     4  11  22  42  68 101 134 172 229 277 326 405
#     4  11  24  41  68  97 132 180 222 277 336 393
#
# _framework density 21.981383000000001
#
# number of rings (size 3 to 8) (size 9 to 14) (size 15 to 20)
#    0.000    0.923    3.077    3.692    2.154    3.077 
#    0.000    3.846    0.000    0.000    0.000    0.000 
#    0.000    0.000    0.000    0.000    0.000    0.000 
#
# Total GULP energy -322560.010556 kJ/mol
# GULP energy per Si atom -12406.154252 kJ/mol
# Density = 2.193135 g / cm^3
# Si number density = 21.981383 Si / 1000 Ang^3
#
#
#
# Elastic Constant Matrix: (Units=GPa)
#
#
# Indices 1 2 3 4 5 6 
#
# 1 102.0027 41.8708 7.8875 -0.0026 -4.4273 -0.0151
# 2 41.8708 115.9171 27.3239 0.0079 1.9235 0.0125
# 3 7.8875 27.3239 96.0027 -0.0022 -3.8233 -0.0086
# 4 -0.0026 0.0079 -0.0022 32.4997 -0.0019 -1.6772
# 5 -4.4273 1.9235 -3.8233 -0.0019 30.4205 0.0016
# 6 -0.0151 0.0125 -0.0086 -1.6772 0.0016 29.5507
#
#
#
# Elastic Compliance Matrix: (Units=1/GPa)
#
#
# Indices 1 2 3 4 5 6 
#
# 1 0.011637 -0.004320 0.000354 0.000003 0.002011 0.000008
# 2 -0.004320 0.010877 -0.002807 -0.000004 -0.001669 -0.000008
# 3 0.000354 -0.002807 0.011252 0.000002 0.001643 0.000005
# 4 0.000003 -0.000004 0.000002 0.030860 0.000003 0.001751
# 5 0.002011 -0.001669 0.001643 0.000003 0.033477 0.000000
# 6 0.000008 -0.000008 0.000005 0.001751 0.000000 0.033940
#
#
# Mechanical properties :
#
#
# Convention : Reuss Voigt Hill
#
# Bulk Modulus (GPa) = 49.46112 52.00965 50.73538
# Shear Modulus (GPa) = 32.82363 34.28352 33.55358
#
# Velocity S-wave (km/s) = 3.86845 3.95354 3.91123
# Velocity P-wave (km/s) = 6.51946 6.67479 6.59758
#
# Compressibility (1/GPa) = 0.02021790
#
# Stress axis : x y z
#
# Youngs Moduli (GPa) = 85.93294 91.93912 88.87509
#
# Poissons Ratio (x) = 0.39719 -0.03143
# Poissons Ratio (y) = 0.37124 0.24949
# Poissons Ratio (z) = -0.03038 0.25809
#
# Static dielectric constant tensor:
#      x y z
#    x 4.093970 -0.000040 -0.040460 
#    y -0.000040 3.860930 0.000010 
#    z -0.040460 0.000010 3.864910 
# 
# 
# High freq. dielectric constant tensor:
#      x y z
#    x 1.873610 0.000000 -0.005990 
#    y 0.000000 1.861240 0.000000 
#    z -0.005990 0.000000 1.867430 
# 
# From -- ./inp_files/221160.got.cif
#   From: 2010.06.25/outbox.cif.g09.slc.cpg/sg15_111_cif.got.tgz:221160.got - 2010.06.28 07:06:18.
