data_PCOD8148393
_publ_section_title
;
Structure prediction by ZEFSAII (Michael W. Deem and Ramdas Pophale) SiO2 
 PCOD8148393
Probable space group: C 2/C
;
_chemical_formula_sum "Si O2"
_cell_formula_units_Z 48
_cell_length_a 12.951510
_cell_length_b 31.599446
_cell_length_c 8.306293
_cell_angle_alpha 90.000000
_cell_angle_beta 137.844293
_cell_angle_gamma 90.000000
_cell_volume 2281.524983
_symmetry_space_group_name_H-M "C 2/C"
_symmetry_group_IT_number 15
_symmetry_cell_setting 'monoclinic'
loop_
_space_group_symop_operation_xyz
x,y,z
-x,y,1/2-z
-x,-y,-z
x,-y,1/2+z
1/2+x,1/2+y,z
1/2-x,1/2+y,1/2-z
1/2-x,1/2-y,-z
1/2+x,1/2-y,1/2+z
loop_
_atom_site_type_symbol
_atom_site_label
_atom_site_fract_x
_atom_site_fract_y
_atom_site_fract_z
Si Si1 0.820748 0.041326 0.986425
Si Si2 0.328829 0.790157 0.015790
Si Si3 0.667354 0.793127 0.860375
Si Si4 0.329019 0.376011 0.003650
Si Si5 0.667741 0.371684 0.868855
Si Si6 0.683909 0.042388 0.472120
O O1 0.778820 0.045099 0.749296
O O2 0.733888 0.000596 0.946520
O O3 0.752967 0.084320 0.985958
O O4 0.000000 0.037986 0.250000
O O5 0.324640 0.794370 0.820779
O O6 0.268080 0.831599 0.041161
O O7 0.500000 0.782149 0.250000
O O8 0.250000 0.750000 0.000000
O O9 0.500000 0.794479 0.750000
O O10 0.761319 0.835323 0.022964
O O11 0.750000 0.750000 0.000000
O O12 0.337798 0.367886 0.826656
O O13 0.226249 0.416946 0.916812
O O14 0.500000 0.386657 0.250000
O O15 0.500000 0.367825 0.750000
O O16 0.500000 0.041297 0.250000
#
# Coordination Sequence:
#
# PCOD8148393 Si02
#       6
#     8   8   8   8   8   8
#     4  11  23  42  66  92 127 171 213 260 315 382
#     4  11  24  40  63  90 124 163 205 256 312 374
#     4  11  24  41  63  92 126 164 209 261 318 380
#     4  11  23  41  64  92 126 167 211 259 316 381
#     4  10  23  41  63  91 121 160 209 259 309 369
#     4  12  25  41  65  97 131 167 210 265 320 380
#
# _framework density 21.038558999999999
#
# number of rings (size 3 to 8) (size 9 to 14) (size 15 to 20)
#    0.000    1.000    0.000    7.000    0.000   11.333 
#    0.000    0.000    0.000    0.000    0.000    0.000 
#    0.000    0.000    0.000    0.000    0.000    0.000 
#
# Total GULP energy -297357.133466 kJ/mol
# GULP energy per Si atom -12389.880561 kJ/mol
# Density = 2.099067 g / cm^3
# Si number density = 21.038559 Si / 1000 Ang^3
#
#
#
# Elastic Constant Matrix: (Units=GPa)
#
#
# Indices 1 2 3 4 5 6 
#
# 1 127.1497 80.2381 35.8394 0.0000 16.0653 0.0000
# 2 80.2381 208.9696 25.2197 0.0000 26.7145 0.0000
# 3 35.8394 25.2197 89.2587 0.0000 17.7785 0.0000
# 4 0.0000 0.0000 0.0000 34.2212 0.0000 4.8880
# 5 16.0653 26.7145 17.7785 0.0000 39.4565 0.0000
# 6 0.0000 0.0000 0.0000 4.8880 0.0000 55.2174
#
#
#
# Elastic Compliance Matrix: (Units=1/GPa)
#
#
# Indices 1 2 3 4 5 6 
#
# 1 0.011319 -0.003881 -0.003355 0.000000 -0.000469 0.000000
# 2 -0.003881 0.006629 0.000291 0.000000 -0.003039 0.000000
# 3 -0.003355 0.000291 0.013442 0.000000 -0.004888 0.000000
# 4 0.000000 0.000000 0.000000 0.029596 0.000000 -0.002620
# 5 -0.000469 -0.003039 -0.004888 0.000000 0.029795 0.000000
# 6 0.000000 0.000000 0.000000 -0.002620 0.000000 0.018342
#
#
# Mechanical properties :
#
#
# Convention : Reuss Voigt Hill
#
# Bulk Modulus (GPa) = 57.14555 78.66364 67.90460
# Shear Modulus (GPa) = 38.80585 44.71775 41.76180
#
# Velocity S-wave (km/s) = 4.29944 4.61533 4.46018
# Velocity P-wave (km/s) = 7.20195 8.11622 7.67272
#
# Compressibility (1/GPa) = 0.01749917
#
# Stress axis : x y z
#
# Youngs Moduli (GPa) = 88.34783 150.85012 74.39513
#
# Poissons Ratio (x) = 0.58549 0.24957
# Poissons Ratio (y) = 0.34290 -0.02163
# Poissons Ratio (z) = 0.29638 -0.04385
#
# Static dielectric constant tensor:
#      x y z
#    x 3.946890 0.000000 -0.014290 
#    y 0.000000 2.504680 0.000000 
#    z -0.014290 0.000000 3.773050 
# 
# 
# High freq. dielectric constant tensor:
#      x y z
#    x 1.834790 0.000000 -0.000530 
#    y 0.000000 1.858560 0.000000 
#    z -0.000530 0.000000 1.826800 
# 
# From -- ./inp_files/43948.got.cif
#   From: 2010.06.25/outbox.cif.g09.slc.cpg/sg15_22_cif.got.tgz:43948.got - 2010.06.28 07:06:18.
