data_PCOD8148879
_publ_section_title
;
Structure prediction by ZEFSAII (Michael W. Deem and Ramdas Pophale) SiO2 
 PCOD8148879
Probable space group: C 2/C
;
_chemical_formula_sum "Si O2"
_cell_formula_units_Z 48
_cell_length_a 11.592150
_cell_length_b 16.289930
_cell_length_c 11.319756
_cell_angle_alpha 90.000000
_cell_angle_beta 105.237503
_cell_angle_gamma 90.000000
_cell_volume 2062.422693
_symmetry_space_group_name_H-M "C 2/C"
_symmetry_group_IT_number 15
_symmetry_cell_setting 'monoclinic'
loop_
_space_group_symop_operation_xyz
x,y,z
-x,y,1/2-z
-x,-y,-z
x,-y,1/2+z
1/2+x,1/2+y,z
1/2-x,1/2+y,1/2-z
1/2-x,1/2-y,-z
1/2+x,1/2-y,1/2+z
loop_
_atom_site_type_symbol
_atom_site_label
_atom_site_fract_x
_atom_site_fract_y
_atom_site_fract_z
Si Si1 0.495240 0.059417 0.112585
Si Si2 0.433285 0.412633 0.502113
Si Si3 0.795993 0.335172 0.460978
Si Si4 0.415407 0.721803 0.332316
Si Si5 0.753797 0.100566 0.169053
Si Si6 0.134000 0.060298 0.758578
O O1 0.500000 0.022730 0.250000
O O2 0.612454 0.114587 0.119368
O O3 0.372954 0.112453 0.075553
O O4 0.500000 0.000000 0.000000
O O5 0.500000 0.500000 0.500000
O O6 0.527862 0.342955 0.561552
O O7 0.325336 0.415702 0.566425
O O8 0.372623 0.385365 0.362084
O O9 0.750000 0.250000 0.500000
O O10 0.885725 0.309658 0.380557
O O11 0.684686 0.387252 0.381678
O O12 0.500000 0.745920 0.250000
O O13 0.296181 0.680594 0.249339
O O14 0.780875 0.016953 0.248665
O O15 0.000000 0.026899 0.750000
#
# Coordination Sequence:
#
# PCOD8148879 Si02
#       6
#     8   8   8   8   8   8
#     4  12  29  49  75 109 153 203 254 304 376 459
#     4  11  21  38  71 103 138 182 250 308 370 444
#     4  12  28  47  70 103 150 195 240 313 374 446
#     4  10  23  43  66 101 144 180 239 317 371 435
#     4  11  23  42  71 105 140 190 248 309 366 449
#     4  12  23  40  70 104 136 190 250 300 371 445
#
# _framework density 23.273599000000001
#
# number of rings (size 3 to 8) (size 9 to 14) (size 15 to 20)
#    0.000    0.667    5.000    2.500    2.333    6.667 
#    0.000    3.333    0.000    0.000    0.000    0.000 
#    0.000    0.000    0.000    0.000    0.000    0.000 
#
# Total GULP energy -297424.177869 kJ/mol
# GULP energy per Si atom -12392.674078 kJ/mol
# Density = 2.322063 g / cm^3
# Si number density = 23.273599 Si / 1000 Ang^3
#
#
#
# Elastic Constant Matrix: (Units=GPa)
#
#
# Indices 1 2 3 4 5 6 
#
# 1 87.2559 4.8624 35.3410 0.0000 22.7969 0.0000
# 2 4.8624 55.6216 16.6349 0.0000 5.1774 0.0000
# 3 35.3410 16.6349 143.0240 0.0000 4.9374 0.0000
# 4 0.0000 0.0000 0.0000 55.4756 0.0000 7.7133
# 5 22.7969 5.1774 4.9374 0.0000 38.4771 0.0000
# 6 0.0000 0.0000 0.0000 7.7133 0.0000 46.0202
#
#
#
# Elastic Compliance Matrix: (Units=1/GPa)
#
#
# Indices 1 2 3 4 5 6 
#
# 1 0.015082 0.000523 -0.003492 0.000000 -0.008558 0.000000
# 2 0.000523 0.018839 -0.002232 0.000000 -0.002558 0.000000
# 3 -0.003492 -0.002232 0.008068 0.000000 0.001334 0.000000
# 4 0.000000 0.000000 0.000000 0.018456 0.000000 -0.003093
# 5 -0.008558 -0.002558 0.001334 0.000000 0.031233 0.000000
# 6 0.000000 0.000000 0.000000 -0.003093 0.000000 0.022248
#
#
# Mechanical properties :
#
#
# Convention : Reuss Voigt Hill
#
# Bulk Modulus (GPa) = 31.65992 44.39757 38.02875
# Shear Modulus (GPa) = 37.07640 43.26546 40.17093
#
# Velocity S-wave (km/s) = 3.99565 4.31628 4.15906
# Velocity P-wave (km/s) = 5.90931 6.63010 6.28005
#
# Compressibility (1/GPa) = 0.03158567
#
# Stress axis : x y z
#
# Youngs Moduli (GPa) = 66.30580 53.08260 123.94277
#
# Poissons Ratio (x) = -0.02774 0.43281
# Poissons Ratio (y) = -0.03465 0.27663
# Poissons Ratio (z) = 0.23154 0.11847
#
# Static dielectric constant tensor:
#      x y z
#    x 4.386940 0.000000 -0.111350 
#    y 0.000000 3.992300 0.000000 
#    z -0.111350 0.000000 4.875490 
# 
# 
# High freq. dielectric constant tensor:
#      x y z
#    x 1.933440 0.000000 -0.003800 
#    y 0.000000 1.890860 0.000000 
#    z -0.003800 0.000000 1.940090 
# 
# From -- ./inp_files/87890.got.cif
#   From: 2010.06.25/outbox.cif.g09.slc.cpg/sg15_44_cif.got.tgz:87890.got - 2010.06.28 07:06:18.
