data_PCOD8148474
_publ_section_title
;
Structure prediction by ZEFSAII (Michael W. Deem and Ramdas Pophale) SiO2 
 PCOD8148474
Probable space group: C 2/C
;
_chemical_formula_sum "Si O2"
_cell_formula_units_Z 36
_cell_length_a 17.471671
_cell_length_b 5.087718
_cell_length_c 18.131593
_cell_angle_alpha 90.000000
_cell_angle_beta 64.682246
_cell_angle_gamma 90.000000
_cell_volume 1456.927314
_symmetry_space_group_name_H-M "C 2/C"
_symmetry_group_IT_number 15
_symmetry_cell_setting 'monoclinic'
loop_
_space_group_symop_operation_xyz
x,y,z
-x,y,1/2-z
-x,-y,-z
x,-y,1/2+z
1/2+x,1/2+y,z
1/2-x,1/2+y,1/2-z
1/2-x,1/2-y,-z
1/2+x,1/2-y,1/2+z
loop_
_atom_site_type_symbol
_atom_site_label
_atom_site_fract_x
_atom_site_fract_y
_atom_site_fract_z
Si Si1 0.135573 0.229104 0.606250
Si Si2 0.000000 0.904125 0.750000
Si Si3 0.676765 0.851665 0.431640
Si Si4 0.822020 0.837482 0.162970
Si Si5 0.636325 0.047312 0.738363
O O1 0.226799 0.097153 0.582711
O O2 0.120232 0.278931 0.525925
O O3 0.139353 0.504496 0.648665
O O4 0.057820 0.068337 0.670930
O O5 0.944727 0.729851 0.714928
O O6 0.661547 0.630727 0.374217
O O7 0.647444 0.129390 0.411267
O O8 0.722495 0.801710 0.225992
O O9 0.871565 0.740067 0.216955
#
# Coordination Sequence:
#
# PCOD8148474 Si02
#       5
#     8   4   8   8   8
#     4  10  23  41  67 100 138 187 230 288 345 421
#     4  12  24  42  68 104 144 184 232 290 356 426
#     4  10  23  42  71 100 137 178 244 283 343 406
#     4  11  23  42  71 102 132 181 237 294 334 412
#     4  11  24  42  71 102 141 181 242 285 350 418
#
# _framework density 24.709538999999999
#
# number of rings (size 3 to 8) (size 9 to 14) (size 15 to 20)
#    0.000    1.333    2.222    3.333    6.222    2.667 
#    0.000    2.222    0.000    0.000    0.000    0.000 
#    0.000    0.000    0.000    0.000    0.000    0.000 
#
# Total GULP energy -223099.130166 kJ/mol
# GULP energy per Si atom -12394.396120 kJ/mol
# Density = 2.465330 g / cm^3
# Si number density = 24.709539 Si / 1000 Ang^3
#
#
#
# Elastic Constant Matrix: (Units=GPa)
#
#
# Indices 1 2 3 4 5 6 
#
# 1 53.7633 19.4513 37.3670 -0.0239 -7.8049 -0.0151
# 2 19.4513 89.3935 26.5986 -0.0712 -0.2992 0.0229
# 3 37.3670 26.5986 149.2894 -0.0054 9.8591 -0.0015
# 4 -0.0239 -0.0712 -0.0054 33.2837 -0.0086 3.3463
# 5 -7.8049 -0.2992 9.8591 -0.0086 34.5522 -0.0058
# 6 -0.0151 0.0229 -0.0015 3.3463 -0.0058 46.7378
#
#
#
# Elastic Compliance Matrix: (Units=1/GPa)
#
#
# Indices 1 2 3 4 5 6 
#
# 1 0.025287 -0.003641 -0.006172 0.000010 0.007442 0.000010
# 2 -0.003641 0.012354 -0.001266 0.000024 -0.000354 -0.000009
# 3 -0.006172 -0.001266 0.008726 -0.000007 -0.003895 -0.000001
# 4 0.000010 0.000024 -0.000007 0.030263 0.000012 -0.002167
# 5 0.007442 -0.000354 -0.003895 0.000012 0.031731 0.000006
# 6 0.000010 -0.000009 -0.000001 -0.002167 0.000006 0.021551
#
#
# Mechanical properties :
#
#
# Convention : Reuss Voigt Hill
#
# Bulk Modulus (GPa) = 41.30712 51.03112 46.16912
# Shear Modulus (GPa) = 31.22235 36.85003 34.03619
#
# Velocity S-wave (km/s) = 3.55854 3.86596 3.71543
# Velocity P-wave (km/s) = 5.79979 6.37376 6.09354
#
# Compressibility (1/GPa) = 0.02420890
#
# Stress axis : x y z
#
# Youngs Moduli (GPa) = 39.54524 80.94280 114.59784
#
# Poissons Ratio (x) = 0.29471 0.70732
# Poissons Ratio (y) = 0.14398 0.14513
# Poissons Ratio (z) = 0.24408 0.10251
#
# Static dielectric constant tensor:
#      x y z
#    x 4.473030 -0.000040 0.259780 
#    y -0.000040 4.341490 -0.000040 
#    z 0.259780 -0.000040 4.660810 
# 
# 
# High freq. dielectric constant tensor:
#      x y z
#    x 1.963740 0.000000 0.020060 
#    y 0.000000 1.986880 -0.000010 
#    z 0.020060 -0.000010 1.977630 
# 
# From -- ./inp_files/246169.got.cif
#   From: 2010.06.25/outbox.cif.g09.slc.cpg/sg15_124_cif.got.tgz:246169.got - 2010.06.28 07:06:18.
