data_PCOD8148816
_publ_section_title
;
Structure prediction by ZEFSAII (Michael W. Deem and Ramdas Pophale) SiO2 
 PCOD8148816
Probable space group: C 2/C
;
_chemical_formula_sum "Si O2"
_cell_formula_units_Z 60
_cell_length_a 8.691381
_cell_length_b 11.739497
_cell_length_c 30.258902
_cell_angle_alpha 90.000000
_cell_angle_beta 80.542194
_cell_angle_gamma 90.000000
_cell_volume 3045.422378
_symmetry_space_group_name_H-M "C 2/C"
_symmetry_group_IT_number 15
_symmetry_cell_setting 'monoclinic'
loop_
_space_group_symop_operation_xyz
x,y,z
-x,y,1/2-z
-x,-y,-z
x,-y,1/2+z
1/2+x,1/2+y,z
1/2-x,1/2+y,1/2-z
1/2-x,1/2-y,-z
1/2+x,1/2-y,1/2+z
loop_
_atom_site_type_symbol
_atom_site_label
_atom_site_fract_x
_atom_site_fract_y
_atom_site_fract_z
Si Si1 0.982698 0.824263 0.702420
Si Si2 0.717897 0.985120 0.678441
Si Si3 0.160369 0.191114 0.043764
Si Si4 0.253060 0.775335 0.367604
Si Si5 0.609308 0.004607 0.952226
Si Si6 0.951185 0.635784 0.386719
Si Si7 0.500000 0.891731 0.250000
Si Si8 0.818277 0.243196 0.045564
O O1 0.929630 0.691825 0.714508
O O2 0.000000 0.884211 0.750000
O O3 0.145954 0.809536 0.668502
O O4 0.864229 0.901332 0.679942
O O5 0.761668 0.094271 0.646964
O O6 0.641918 0.028637 0.727585
O O7 0.586254 0.913226 0.659592
O O8 0.175491 0.269986 0.086561
O O9 0.981156 0.174957 0.038176
O O10 0.233592 0.067381 0.048202
O O11 0.250000 0.250000 0.000000
O O12 0.075178 0.735532 0.375589
O O13 0.657627 0.130807 0.937654
O O14 0.515655 0.963131 0.914461
O O15 0.500000 0.000000 0.000000
O O16 0.793811 0.681144 0.415561
O O17 0.750000 0.250000 0.000000
#
# Coordination Sequence:
#
# PCOD8148816 Si02
#       8
#     8   8   8   8   8   8   4   8
#     4   9  21  44  63  91 126 157 206 257 317 388
#     4  11  22  41  69  91 125 165 206 260 327 372
#     4  11  22  39  67  89 128 176 208 261 320 370
#     4  10  23  43  60  95 131 160 215 263 311 381
#     4  11  22  43  61  88 130 173 208 268 320 359
#     4  11  25  39  63  95 125 164 217 261 305 378
#     4   8  22  40  64  94 124 156 200 260 318 392
#     4  12  23  39  60  93 127 167 226 259 302 379
#
# _framework density 19.701699999999999
#
# number of rings (size 3 to 8) (size 9 to 14) (size 15 to 20)
#    0.400    1.067    2.667    2.400    1.867    4.800 
#    2.400    0.000    0.000    0.000    0.000    0.000 
#    0.000    0.000    0.000    0.000    0.000    0.000 
#
# Total GULP energy -371908.008812 kJ/mol
# GULP energy per Si atom -12396.933627 kJ/mol
# Density = 1.965686 g / cm^3
# Si number density = 19.701700 Si / 1000 Ang^3
#
#
#
# Elastic Constant Matrix: (Units=GPa)
#
#
# Indices 1 2 3 4 5 6 
#
# 1 147.8257 49.2722 43.0687 0.0000 -1.4032 0.0000
# 2 49.2722 90.9002 17.4771 0.0000 1.1069 0.0000
# 3 43.0687 17.4771 99.5235 0.0000 -2.2616 0.0000
# 4 0.0000 0.0000 0.0000 30.9975 0.0000 0.6553
# 5 -1.4032 1.1069 -2.2616 0.0000 35.7386 0.0000
# 6 0.0000 0.0000 0.0000 0.6553 0.0000 29.7026
#
#
#
# Elastic Compliance Matrix: (Units=1/GPa)
#
#
# Indices 1 2 3 4 5 6 
#
# 1 0.009145 -0.004348 -0.003187 0.000000 0.000292 0.000000
# 2 -0.004348 0.013461 -0.000496 0.000000 -0.000619 0.000000
# 3 -0.003187 -0.000496 0.011528 0.000000 0.000620 0.000000
# 4 0.000000 0.000000 0.000000 0.032276 0.000000 -0.000712
# 5 0.000292 -0.000619 0.000620 0.000000 0.028051 0.000000
# 6 0.000000 0.000000 0.000000 -0.000712 0.000000 0.033683
#
#
# Mechanical properties :
#
#
# Convention : Reuss Voigt Hill
#
# Bulk Modulus (GPa) = 55.33664 61.98727 58.66196
# Shear Modulus (GPa) = 33.28200 34.51649 33.89925
#
# Velocity S-wave (km/s) = 4.11456 4.19018 4.15254
# Velocity P-wave (km/s) = 7.12187 7.41224 7.26851
#
# Compressibility (1/GPa) = 0.01807121
#
# Stress axis : x y z
#
# Youngs Moduli (GPa) = 109.34468 74.28965 86.74156
#
# Poissons Ratio (x) = 0.32301 0.27649
# Poissons Ratio (y) = 0.47542 0.04305
# Poissons Ratio (z) = 0.34854 0.03687
#
# Static dielectric constant tensor:
#      x y z
#    x 4.896120 0.000000 -0.045250 
#    y 0.000000 3.199670 0.000000 
#    z -0.045250 0.000000 3.703610 
# 
# 
# High freq. dielectric constant tensor:
#      x y z
#    x 1.765150 0.000000 -0.005040 
#    y 0.000000 1.768490 0.000000 
#    z -0.005040 0.000000 1.777950 
# 
# From -- ./inp_files/307116.got.cif
#   From: 2010.06.25/outbox.cif.g09.slc.cpg/sg15_154_cif.got.tgz:307116.got - 2010.06.28 07:06:18.
