data_PCOD8148284
_publ_section_title
;
Structure prediction by ZEFSAII (Michael W. Deem and Ramdas Pophale) SiO2 
 PCOD8148284
Probable space group: C 2/C
;
_chemical_formula_sum "Si O2"
_cell_formula_units_Z 60
_cell_length_a 17.876454
_cell_length_b 28.534851
_cell_length_c 13.334925
_cell_angle_alpha 90.000000
_cell_angle_beta 156.765102
_cell_angle_gamma 90.000000
_cell_volume 2683.467909
_symmetry_space_group_name_H-M "C 2/C"
_symmetry_group_IT_number 15
_symmetry_cell_setting 'monoclinic'
loop_
_space_group_symop_operation_xyz
x,y,z
-x,y,1/2-z
-x,-y,-z
x,-y,1/2+z
1/2+x,1/2+y,z
1/2-x,1/2+y,1/2-z
1/2-x,1/2-y,-z
1/2+x,1/2-y,1/2+z
loop_
_atom_site_type_symbol
_atom_site_label
_atom_site_fract_x
_atom_site_fract_y
_atom_site_fract_z
Si Si1 0.064224 0.598433 0.441964
Si Si2 0.213152 0.564227 0.041989
Si Si3 0.500000 0.384800 0.750000
Si Si4 0.226188 0.323966 0.284863
Si Si5 0.840382 0.193769 0.473657
Si Si6 0.970122 0.753844 0.462278
Si Si7 0.879121 0.970761 0.273023
Si Si8 0.780483 0.085527 0.357377
O O1 0.115864 0.645301 0.565859
O O2 0.253600 0.567605 0.675234
O O3 0.897067 0.568818 0.292498
O O4 0.000000 0.611663 0.250000
O O5 0.388043 0.585926 0.195544
O O6 0.236678 0.508454 0.047431
O O7 0.234892 0.579510 0.184078
O O8 0.000000 0.579753 0.750000
O O9 0.331262 0.354932 0.495151
O O10 0.375738 0.289703 0.419945
O O11 0.076283 0.288610 0.153178
O O12 0.660094 0.225981 0.280038
O O13 0.804813 0.138890 0.420317
O O14 0.000000 0.203628 0.750000
O O15 0.887210 0.213221 0.421710
O O16 0.027449 0.944118 0.381277
O O17 0.000000 0.000000 0.500000
#
# Coordination Sequence:
#
# PCOD8148284 Si02
#       8
#     8   8   4   8   8   8   8   8
#     4  12  26  43  70 104 142 180 230 287 349 419
#     4  11  25  45  71  99 133 181 233 290 348 411
#     4  12  26  48  76 100 138 186 238 296 350 418
#     4  11  24  45  67 102 137 181 232 289 351 410
#     4  11  22  38  63  97 134 182 219 274 340 412
#     4  10  23  40  65  96 140 172 232 282 339 415
#     4  10  24  44  67  99 137 182 229 286 343 413
#     4  11  25  44  67 100 138 180 226 280 342 411
#
# _framework density 22.359127000000001
#
# number of rings (size 3 to 8) (size 9 to 14) (size 15 to 20)
#    0.000    1.067    1.333    4.800    3.733    6.933 
#    0.000    0.000    0.000    0.000    0.000    0.000 
#    0.000    0.000    0.000    0.000    0.000    0.000 
#
# Total GULP energy -371683.017379 kJ/mol
# GULP energy per Si atom -12389.433913 kJ/mol
# Density = 2.230824 g / cm^3
# Si number density = 22.359127 Si / 1000 Ang^3
#
#
#
# Elastic Constant Matrix: (Units=GPa)
#
#
# Indices 1 2 3 4 5 6 
#
# 1 106.7255 22.9580 30.0362 0.0001 16.4887 0.0000
# 2 22.9580 77.1744 8.2153 0.0000 13.1663 0.0000
# 3 30.0362 8.2153 78.7346 0.0001 18.2953 0.0000
# 4 0.0001 0.0000 0.0001 49.5371 0.0000 16.0345
# 5 16.4887 13.1663 18.2953 0.0000 43.6854 0.0000
# 6 0.0000 0.0000 0.0000 16.0345 0.0000 19.0420
#
#
#
# Elastic Compliance Matrix: (Units=1/GPa)
#
#
# Indices 1 2 3 4 5 6 
#
# 1 0.011240 -0.002631 -0.003558 0.000000 -0.001959 0.000000
# 2 -0.002631 0.014295 0.000313 0.000000 -0.003446 0.000000
# 3 -0.003558 0.000313 0.015216 0.000000 -0.005124 0.000000
# 4 0.000000 0.000000 0.000000 0.027751 0.000000 -0.023368
# 5 -0.001959 -0.003446 -0.005124 0.000000 0.026815 0.000000
# 6 0.000000 0.000000 0.000000 -0.023368 0.000000 0.072193
#
#
# Mechanical properties :
#
#
# Convention : Reuss Voigt Hill
#
# Bulk Modulus (GPa) = 34.48363 42.78372 38.63367
# Shear Modulus (GPa) = 26.46516 35.88123 31.17319
#
# Velocity S-wave (km/s) = 3.44414 4.01030 3.73796
# Velocity P-wave (km/s) = 5.59216 6.37336 5.99550
#
# Compressibility (1/GPa) = 0.02899927
#
# Stress axis : x y z
#
# Youngs Moduli (GPa) = 88.96968 69.95505 65.71942
#
# Poissons Ratio (x) = 0.18402 0.23383
# Poissons Ratio (y) = 0.23404 -0.02056
# Poissons Ratio (z) = 0.31656 -0.02188
#
# Static dielectric constant tensor:
#      x y z
#    x 4.015180 0.000000 0.556160 
#    y 0.000000 4.473750 0.000000 
#    z 0.556160 0.000000 4.561050 
# 
# 
# High freq. dielectric constant tensor:
#      x y z
#    x 1.866880 0.000000 0.025200 
#    y 0.000000 1.898210 0.000000 
#    z 0.025200 0.000000 1.897540 
# 
# From -- ./inp_files/169970.got.cif
#   From: 2010.06.25/outbox.cif.g09.slc.cpg/sg15_85_cif.got.tgz:169970.got - 2010.06.28 07:06:18.
