data_PCOD8148324
_publ_section_title
;
Structure prediction by ZEFSAII (Michael W. Deem and Ramdas Pophale) SiO2 
 PCOD8148324
Probable space group: C 2/C
;
_chemical_formula_sum "Si O2"
_cell_formula_units_Z 40
_cell_length_a 18.213119
_cell_length_b 9.830126
_cell_length_c 12.301135
_cell_angle_alpha 90.000000
_cell_angle_beta 124.258217
_cell_angle_gamma 90.000000
_cell_volume 1820.271609
_symmetry_space_group_name_H-M "C 2/C"
_symmetry_group_IT_number 15
_symmetry_cell_setting 'monoclinic'
loop_
_space_group_symop_operation_xyz
x,y,z
-x,y,1/2-z
-x,-y,-z
x,-y,1/2+z
1/2+x,1/2+y,z
1/2-x,1/2+y,1/2-z
1/2-x,1/2-y,-z
1/2+x,1/2-y,1/2+z
loop_
_atom_site_type_symbol
_atom_site_label
_atom_site_fract_x
_atom_site_fract_y
_atom_site_fract_z
Si Si1 0.670169 0.398626 0.484069
Si Si2 0.188542 0.799849 0.045238
Si Si3 0.316449 0.257913 0.221768
Si Si4 0.969698 0.388931 0.110772
Si Si5 0.021764 0.313495 0.931139
O O1 0.644451 0.555722 0.479089
O O2 0.692671 0.377044 0.375741
O O3 0.758426 0.369001 0.629078
O O4 0.586489 0.307484 0.450237
O O5 0.227798 0.808849 0.201176
O O6 0.250000 0.750000 0.000000
O O7 0.120047 0.679152 0.000707
O O8 0.420409 0.223825 0.319569
O O9 0.953945 0.549862 0.114011
O O10 0.000000 0.324556 0.250000
O O11 0.038971 0.350716 0.072678
#
# Coordination Sequence:
#
# PCOD8148324 Si02
#       5
#     8   8   8   8   8
#     4  11  25  43  73  96 135 183 216 280 338 396
#     4  11  28  42  66 104 137 167 229 284 330 392
#     4  10  25  44  70 100 131 180 224 265 341 403
#     4  10  23  40  68  97 132 176 222 277 334 388
#     4  10  23  44  68  96 134 177 229 266 332 410
#
# _framework density 21.974743
#
# number of rings (size 3 to 8) (size 9 to 14) (size 15 to 20)
#    0.000    1.600    0.000    1.800   14.000    6.400 
#    0.000    0.000    0.000    0.000    0.000    0.000 
#    0.000    0.000    0.000    0.000    0.000    0.000 
#
# Total GULP energy -247855.113510 kJ/mol
# GULP energy per Si atom -12392.755675 kJ/mol
# Density = 2.192473 g / cm^3
# Si number density = 21.974743 Si / 1000 Ang^3
#
#
#
# Elastic Constant Matrix: (Units=GPa)
#
#
# Indices 1 2 3 4 5 6 
#
# 1 120.8574 58.9332 61.2076 0.0000 -20.8406 0.0000
# 2 58.9332 126.3621 41.6403 0.0000 -10.9095 0.0000
# 3 61.2076 41.6403 132.5019 0.0000 -27.8265 0.0000
# 4 0.0000 0.0000 0.0000 14.8034 0.0000 -3.5049
# 5 -20.8406 -10.9095 -27.8265 0.0000 54.9584 0.0000
# 6 0.0000 0.0000 0.0000 -3.5049 0.0000 25.5255
#
#
#
# Elastic Compliance Matrix: (Units=1/GPa)
#
#
# Indices 1 2 3 4 5 6 
#
# 1 0.012886 -0.004480 -0.004146 0.000000 0.001898 0.000000
# 2 -0.004480 0.010393 -0.001254 0.000000 -0.000270 0.000000
# 3 -0.004146 -0.001254 0.010601 0.000000 0.003546 0.000000
# 4 0.000000 0.000000 0.000000 0.069822 0.000000 0.009587
# 5 0.001898 -0.000270 0.003546 0.000000 0.020657 0.000000
# 6 0.000000 0.000000 0.000000 0.009587 0.000000 0.040493
#
#
# Mechanical properties :
#
#
# Convention : Reuss Voigt Hill
#
# Bulk Modulus (GPa) = 70.81614 78.14262 74.47938
# Shear Modulus (GPa) = 26.41082 33.58681 29.99882
#
# Velocity S-wave (km/s) = 3.47056 3.91375 3.69880
# Velocity P-wave (km/s) = 6.95384 7.48737 7.22553
#
# Compressibility (1/GPa) = 0.01412107
#
# Stress axis : x y z
#
# Youngs Moduli (GPa) = 77.60642 96.22166 94.33088
#
# Poissons Ratio (x) = 0.43103 0.39110
# Poissons Ratio (y) = 0.34764 0.11825
# Poissons Ratio (z) = 0.32176 0.12062
#
# Static dielectric constant tensor:
#      x y z
#    x 1.833160 0.000000 0.889220 
#    y 0.000000 4.484110 0.000000 
#    z 0.889220 0.000000 3.433880 
# 
# 
# High freq. dielectric constant tensor:
#      x y z
#    x 1.870760 0.000000 -0.026730 
#    y 0.000000 1.855080 0.000000 
#    z -0.026730 0.000000 1.876510 
# 
# From -- ./inp_files/166519.got.cif
#   From: 2010.06.25/outbox.cif.g09.slc.cpg/sg15_84_cif.got.tgz:166519.got - 2010.06.28 07:06:18.
