data_PCOD8148861
_publ_section_title
;
Structure prediction by ZEFSAII (Michael W. Deem and Ramdas Pophale) SiO2 
 PCOD8148861
Probable space group: C 2/C
;
_chemical_formula_sum "Si O2"
_cell_formula_units_Z 56
_cell_length_a 26.998717
_cell_length_b 8.953279
_cell_length_c 11.114050
_cell_angle_alpha 90.000000
_cell_angle_beta 115.572873
_cell_angle_gamma 90.000000
_cell_volume 2423.382360
_symmetry_space_group_name_H-M "C 2/C"
_symmetry_group_IT_number 15
_symmetry_cell_setting 'monoclinic'
loop_
_space_group_symop_operation_xyz
x,y,z
-x,y,1/2-z
-x,-y,-z
x,-y,1/2+z
1/2+x,1/2+y,z
1/2-x,1/2+y,1/2-z
1/2-x,1/2-y,-z
1/2+x,1/2-y,1/2+z
loop_
_atom_site_type_symbol
_atom_site_label
_atom_site_fract_x
_atom_site_fract_y
_atom_site_fract_z
Si Si1 0.963684 0.090979 0.597761
Si Si2 0.936748 0.369212 0.170734
Si Si3 0.107017 0.308926 0.840242
Si Si4 0.792725 0.266273 0.401900
Si Si5 0.437301 0.301418 0.442737
Si Si6 0.756788 0.998963 0.510388
Si Si7 0.829068 0.264698 0.166971
O O1 0.917670 0.205993 0.583546
O O2 0.000000 0.035711 0.750000
O O3 0.000727 0.182797 0.541830
O O4 0.928396 0.955877 0.504581
O O5 0.928501 0.540120 0.199861
O O6 0.894391 0.272779 0.208029
O O7 0.000000 0.318411 0.250000
O O8 0.925868 0.339092 0.018143
O O9 0.105231 0.225107 0.710129
O O10 0.168834 0.326933 0.948000
O O11 0.770672 0.100603 0.407873
O O12 0.746926 0.395969 0.373152
O O13 0.819318 0.270930 0.299354
O O14 0.807438 0.888226 0.586944
O O15 0.701470 0.904138 0.427364
#
# Coordination Sequence:
#
# PCOD8148861 Si02
#       7
#     8   8   8   8   8   8   8
#     4   9  20  42  65  92 130 187 241 285 336 401
#     4  12  27  43  67 105 145 191 230 277 350 415
#     4  11  25  41  66 103 138 181 232 283 355 407
#     4  11  24  45  74 105 138 177 228 300 350 411
#     4  10  23  43  65  92 140 186 233 288 327 416
#     4  10  24  49  72 106 133 179 238 286 360 403
#     4  11  25  47  74 104 138 183 232 289 343 423
#
# _framework density 23.108198999999999
#
# number of rings (size 3 to 8) (size 9 to 14) (size 15 to 20)
#    0.000    1.429    1.429    2.571    6.000    2.286 
#   10.286    0.000    0.000    0.000    0.000    0.000 
#    0.000    0.000    0.000    0.000    0.000    0.000 
#
# Total GULP energy -347042.914304 kJ/mol
# GULP energy per Si atom -12394.389797 kJ/mol
# Density = 2.305560 g / cm^3
# Si number density = 23.108199 Si / 1000 Ang^3
#
#
#
# Elastic Constant Matrix: (Units=GPa)
#
#
# Indices 1 2 3 4 5 6 
#
# 1 119.4122 51.7626 46.9881 0.0000 -12.4613 0.0000
# 2 51.7626 135.9775 49.0762 0.0000 -10.0604 0.0000
# 3 46.9881 49.0762 67.9376 0.0000 -17.6008 0.0000
# 4 0.0000 0.0000 0.0000 18.1811 0.0000 -14.3952
# 5 -12.4613 -10.0604 -17.6008 0.0000 39.1224 0.0000
# 6 0.0000 0.0000 0.0000 -14.3952 0.0000 32.1252
#
#
#
# Elastic Compliance Matrix: (Units=1/GPa)
#
#
# Indices 1 2 3 4 5 6 
#
# 1 0.011942 -0.002124 -0.006657 0.000000 0.000263 0.000000
# 2 -0.002124 0.010346 -0.006215 0.000000 -0.000812 0.000000
# 3 -0.006657 -0.006215 0.025864 0.000000 0.007918 0.000000
# 4 0.000000 0.000000 0.000000 0.085247 0.000000 0.038199
# 5 0.000263 -0.000812 0.007918 0.000000 0.028998 0.000000
# 6 0.000000 0.000000 0.000000 0.038199 0.000000 0.048245
#
#
# Mechanical properties :
#
#
# Convention : Reuss Voigt Hill
#
# Bulk Modulus (GPa) = 55.06571 68.77568 61.92070
# Shear Modulus (GPa) = 20.26861 29.58577 24.92719
#
# Velocity S-wave (km/s) = 2.96483 3.58203 3.28794
# Velocity P-wave (km/s) = 5.96670 6.85091 6.42404
#
# Compressibility (1/GPa) = 0.01816012
#
# Stress axis : x y z
#
# Youngs Moduli (GPa) = 83.73808 96.65977 38.66313
#
# Poissons Ratio (x) = 0.20529 0.25739
# Poissons Ratio (y) = 0.17785 0.24028
# Poissons Ratio (z) = 0.55747 0.60072
#
# Static dielectric constant tensor:
#      x y z
#    x 4.199890 0.000000 -0.100790 
#    y 0.000000 4.216280 0.000000 
#    z -0.100790 0.000000 3.999440 
# 
# 
# High freq. dielectric constant tensor:
#      x y z
#    x 1.917920 0.000000 -0.011300 
#    y 0.000000 1.925720 0.000000 
#    z -0.011300 0.000000 1.902040 
# 
# From -- ./inp_files/125623.got.cif
#   From: 2010.06.25/outbox.cif.g09.slc.cpg/sg15_63_cif.got.tgz:125623.got - 2010.06.28 07:06:18.
