data_PCOD8148772
_publ_section_title
;
Structure prediction by ZEFSAII (Michael W. Deem and Ramdas Pophale) SiO2 
 PCOD8148772
Probable space group: C 2/C
;
_chemical_formula_sum "Si O2"
_cell_formula_units_Z 64
_cell_length_a 13.774141
_cell_length_b 31.557193
_cell_length_c 9.018686
_cell_angle_alpha 90.000000
_cell_angle_beta 49.697574
_cell_angle_gamma 90.000000
_cell_volume 2989.690791
_symmetry_space_group_name_H-M "C 2/C"
_symmetry_group_IT_number 15
_symmetry_cell_setting 'monoclinic'
loop_
_space_group_symop_operation_xyz
x,y,z
-x,y,1/2-z
-x,-y,-z
x,-y,1/2+z
1/2+x,1/2+y,z
1/2-x,1/2+y,1/2-z
1/2-x,1/2-y,-z
1/2+x,1/2-y,1/2+z
loop_
_atom_site_type_symbol
_atom_site_label
_atom_site_fract_x
_atom_site_fract_y
_atom_site_fract_z
Si Si1 0.824073 0.586754 0.807827
Si Si2 0.283138 0.000728 0.200325
Si Si3 0.222246 0.130183 0.458066
Si Si4 0.370906 0.235684 0.781919
Si Si5 0.732202 0.335514 0.256664
Si Si6 0.898525 0.585466 0.056863
Si Si7 0.966244 0.801209 0.451354
Si Si8 0.860266 0.039839 0.918954
O O1 0.804584 0.537938 0.789835
O O2 0.719123 0.617648 0.841003
O O3 0.958951 0.601323 0.606450
O O4 0.815314 0.592825 0.992232
O O5 0.245220 0.983792 0.076898
O O6 0.401097 0.034224 0.082964
O O7 0.168268 0.028938 0.381815
O O8 0.271833 0.159326 0.544739
O O9 0.341442 0.113657 0.245371
O O10 0.123144 0.157399 0.460194
O O11 0.147283 0.090118 0.600367
O O12 0.500000 0.231686 0.750000
O O13 0.339018 0.190323 0.741215
O O14 0.392309 0.266352 0.620223
O O15 0.250000 0.250000 0.000000
O O16 0.596600 0.312488 0.406882
O O17 0.000000 0.785671 0.250000
O O18 0.000000 0.022608 0.750000
#
# Coordination Sequence:
#
# PCOD8148772 Si02
#       8
#     8   8   8   8   8   8   8   8
#     4  11  23  41  63  91 132 177 231 279 338 404
#     4  11  21  40  60  89 131 172 225 275 339 395
#     4  10  23  42  70  96 136 176 227 282 341 405
#     4  12  27  49  76 107 143 182 227 286 355 433
#     4  11  24  45  69 103 133 177 223 281 344 410
#     4  10  24  41  60  96 130 182 228 281 332 403
#     4  10  24  48  73 103 140 182 225 286 352 420
#     4  11  21  38  60  93 129 172 221 276 331 400
#
# _framework density 21.406896
#
# number of rings (size 3 to 8) (size 9 to 14) (size 15 to 20)
#    0.000    1.250    3.750    1.875    3.500    2.500 
#    2.250    0.000    0.000    0.000    0.000    0.000 
#    0.000    0.000    0.000    0.000    0.000    0.000 
#
# Total GULP energy -396712.393108 kJ/mol
# GULP energy per Si atom -12397.262285 kJ/mol
# Density = 2.135817 g / cm^3
# Si number density = 21.406896 Si / 1000 Ang^3
#
#
#
# Elastic Constant Matrix: (Units=GPa)
#
#
# Indices 1 2 3 4 5 6 
#
# 1 85.4871 34.5067 18.9076 0.0000 5.7500 0.0000
# 2 34.5067 103.9981 39.2227 0.0000 7.1632 0.0000
# 3 18.9076 39.2227 100.0770 0.0000 5.2187 0.0000
# 4 0.0000 0.0000 0.0000 34.0899 0.0000 9.7997
# 5 5.7500 7.1632 5.2187 0.0000 20.2803 0.0000
# 6 0.0000 0.0000 0.0000 9.7997 0.0000 37.4197
#
#
#
# Elastic Compliance Matrix: (Units=1/GPa)
#
#
# Indices 1 2 3 4 5 6 
#
# 1 0.013678 -0.004054 -0.000880 0.000000 -0.002220 0.000000
# 2 -0.004054 0.012654 -0.004075 0.000000 -0.002272 0.000000
# 3 -0.000880 -0.004075 0.011826 0.000000 -0.001354 0.000000
# 4 0.000000 0.000000 0.000000 0.031722 0.000000 -0.008308
# 5 -0.002220 -0.002272 -0.001354 0.000000 0.051089 0.000000
# 6 0.000000 0.000000 0.000000 -0.008308 0.000000 0.028900
#
#
# Mechanical properties :
#
#
# Convention : Reuss Voigt Hill
#
# Bulk Modulus (GPa) = 49.64950 52.75960 51.20455
# Shear Modulus (GPa) = 28.63694 31.48632 30.06163
#
# Velocity S-wave (km/s) = 3.66149 3.83933 3.75146
# Velocity P-wave (km/s) = 6.41240 6.65984 6.53729
#
# Compressibility (1/GPa) = 0.02014119
#
# Stress axis : x y z
#
# Youngs Moduli (GPa) = 73.11128 79.02682 84.55755
#
# Poissons Ratio (x) = 0.32035 0.07438
# Poissons Ratio (y) = 0.29637 0.34458
# Poissons Ratio (z) = 0.06431 0.32204
#
# Static dielectric constant tensor:
#      x y z
#    x 3.731910 0.000000 0.107250 
#    y 0.000000 3.852150 0.000000 
#    z 0.107250 0.000000 3.842860 
# 
# 
# High freq. dielectric constant tensor:
#      x y z
#    x 1.833650 0.000000 0.011150 
#    y 0.000000 1.844320 0.000000 
#    z 0.011150 0.000000 1.842480 
# 
# From -- ./inp_files/44847.got.cif
#   From: 2010.06.25/outbox.cif.g09.slc.cpg/sg15_23_cif.got.tgz:44847.got - 2010.06.28 07:06:18.
