data_PCOD8148208
_publ_section_title
;
Structure prediction by ZEFSAII (Michael W. Deem and Ramdas Pophale) SiO2 
 PCOD8148208
Probable space group: C 2/C
;
_chemical_formula_sum "Si O2"
_cell_formula_units_Z 56
_cell_length_a 15.339067
_cell_length_b 12.209120
_cell_length_c 17.371693
_cell_angle_alpha 90.000000
_cell_angle_beta 61.707679
_cell_angle_gamma 90.000000
_cell_volume 2864.672494
_symmetry_space_group_name_H-M "C 2/C"
_symmetry_group_IT_number 15
_symmetry_cell_setting 'monoclinic'
loop_
_space_group_symop_operation_xyz
x,y,z
-x,y,1/2-z
-x,-y,-z
x,-y,1/2+z
1/2+x,1/2+y,z
1/2-x,1/2+y,1/2-z
1/2-x,1/2-y,-z
1/2+x,1/2-y,1/2+z
loop_
_atom_site_type_symbol
_atom_site_label
_atom_site_fract_x
_atom_site_fract_y
_atom_site_fract_z
Si Si1 0.728328 0.273156 0.131230
Si Si2 0.387097 0.632318 0.144332
Si Si3 0.590859 0.835711 0.270037
Si Si4 0.544839 0.728622 0.975472
Si Si5 0.037913 0.563524 0.556658
Si Si6 0.693394 0.393138 0.304558
Si Si7 0.122242 0.348038 0.551257
O O1 0.800695 0.177069 0.126796
O O2 0.691010 0.342662 0.219787
O O3 0.637735 0.213394 0.125994
O O4 0.782469 0.348570 0.044940
O O5 0.395820 0.706318 0.218004
O O6 0.357210 0.511151 0.182043
O O7 0.489694 0.638207 0.052444
O O8 0.500000 0.854899 0.250000
O O9 0.562254 0.898208 0.359760
O O10 0.696173 0.890805 0.204006
O O11 0.630305 0.675864 0.890625
O O12 0.469221 0.788267 0.950185
O O13 0.594575 0.824052 0.008589
O O14 0.102867 0.477233 0.578458
O O15 0.000000 0.500000 0.500000
#
# Coordination Sequence:
#
# PCOD8148208 Si02
#       7
#     8   8   8   8   8   8   8
#     4   9  20  35  56  88 116 148 194 252 288 354
#     4   9  20  39  58  77 126 161 182 246 312 340
#     4  10  23  40  57  89 119 149 206 253 289 356
#     4   9  19  36  57  85 118 156 195 230 295 368
#     4   9  18  36  60  82 117 156 184 241 305 347
#     4  11  21  36  62  84 115 156 204 240 301 351
#     4   9  18  36  57  84 119 147 192 242 301 348
#
# _framework density 19.548483000000001
#
# number of rings (size 3 to 8) (size 9 to 14) (size 15 to 20)
#    0.000    2.571    0.000    3.000    2.000    7.429 
#    2.571    2.857    6.286    0.000    0.000    0.000 
#    0.000    0.000    0.000    0.000    0.000    0.000 
#
# Total GULP energy -346921.554637 kJ/mol
# GULP energy per Si atom -12390.055523 kJ/mol
# Density = 1.950399 g / cm^3
# Si number density = 19.548483 Si / 1000 Ang^3
#
#
#
# Elastic Constant Matrix: (Units=GPa)
#
#
# Indices 1 2 3 4 5 6 
#
# 1 83.3932 45.5661 30.5051 0.0000 1.5536 0.0000
# 2 45.5661 144.4514 66.4761 0.0000 -15.5968 0.0000
# 3 30.5051 66.4761 110.1153 0.0000 -15.9471 0.0000
# 4 0.0000 0.0000 0.0000 26.7710 0.0000 1.4160
# 5 1.5536 -15.5968 -15.9471 0.0000 24.0166 0.0000
# 6 0.0000 0.0000 0.0000 1.4160 0.0000 27.8989
#
#
#
# Elastic Compliance Matrix: (Units=1/GPa)
#
#
# Indices 1 2 3 4 5 6 
#
# 1 0.015331 -0.004299 -0.002434 0.000000 -0.005400 0.000000
# 2 -0.004299 0.010945 -0.004809 0.000000 0.004193 0.000000
# 3 -0.002434 -0.004809 0.013531 0.000000 0.006019 0.000000
# 4 0.000000 0.000000 0.000000 0.037454 0.000000 -0.001901
# 5 -0.005400 0.004193 0.006019 0.000000 0.048706 0.000000
# 6 0.000000 0.000000 0.000000 -0.001901 0.000000 0.035940
#
#
# Mechanical properties :
#
#
# Convention : Reuss Voigt Hill
#
# Bulk Modulus (GPa) = 59.80027 69.22827 64.51427
# Shear Modulus (GPa) = 26.23765 28.76480 27.50122
#
# Velocity S-wave (km/s) = 3.66756 3.84012 3.75483
# Velocity P-wave (km/s) = 6.97078 7.42648 7.20223
#
# Compressibility (1/GPa) = 0.01672233
#
# Stress axis : x y z
#
# Youngs Moduli (GPa) = 65.22589 91.36851 73.90702
#
# Poissons Ratio (x) = 0.39281 0.17988
# Poissons Ratio (y) = 0.28041 0.35543
# Poissons Ratio (z) = 0.15875 0.43940
#
# Static dielectric constant tensor:
#      x y z
#    x 3.760250 0.000000 -0.136900 
#    y 0.000000 4.066180 0.000000 
#    z -0.136900 0.000000 3.719050 
# 
# 
# High freq. dielectric constant tensor:
#      x y z
#    x 1.742940 0.000000 0.002390 
#    y 0.000000 1.763430 0.000000 
#    z 0.002390 0.000000 1.762150 
# 
# From -- ./inp_files/210561.got.cif
#   From: 2010.06.25/outbox.cif.g09.slc.cpg/sg15_106_cif.got.tgz:210561.got - 2010.06.28 07:06:18.
