data_PCOD8148613
_publ_section_title
;
Structure prediction by ZEFSAII (Michael W. Deem and Ramdas Pophale) SiO2 
 PCOD8148613
Probable space group: C 2/C
;
_chemical_formula_sum "Si O2"
_cell_formula_units_Z 40
_cell_length_a 5.771936
_cell_length_b 23.337645
_cell_length_c 14.122976
_cell_angle_alpha 90.000000
_cell_angle_beta 69.381040
_cell_angle_gamma 90.000000
_cell_volume 1780.550040
_symmetry_space_group_name_H-M "C 2/C"
_symmetry_group_IT_number 15
_symmetry_cell_setting 'monoclinic'
loop_
_space_group_symop_operation_xyz
x,y,z
-x,y,1/2-z
-x,-y,-z
x,-y,1/2+z
1/2+x,1/2+y,z
1/2-x,1/2+y,1/2-z
1/2-x,1/2-y,-z
1/2+x,1/2-y,1/2+z
loop_
_atom_site_type_symbol
_atom_site_label
_atom_site_fract_x
_atom_site_fract_y
_atom_site_fract_z
Si Si1 0.300801 0.240976 0.698017
Si Si2 0.575820 0.853124 0.463059
Si Si3 0.784290 0.363058 0.848709
Si Si4 0.352921 0.565717 0.479937
Si Si5 0.099247 0.039606 0.630796
O O1 0.500000 0.220541 0.750000
O O2 0.388226 0.206712 0.593631
O O3 0.349210 0.308547 0.679810
O O4 0.000000 0.229465 0.750000
O O5 0.611916 0.839928 0.567328
O O6 0.299986 0.876237 0.490991
O O7 0.751443 0.901583 0.392748
O O8 0.609433 0.416944 0.892668
O O9 0.000000 0.386593 0.750000
O O10 0.381237 0.542523 0.583341
O O11 0.238838 0.515820 0.427765
O O12 0.000000 0.029410 0.750000
#
# Coordination Sequence:
#
# PCOD8148613 Si02
#       5
#     8   8   8   8   8
#     4  11  27  45  73 106 141 184 232 284 355 418
#     4  11  24  42  69  96 138 178 232 287 347 415
#     4  10  25  44  66  98 135 179 234 283 348 416
#     4  10  24  42  67  99 131 182 229 290 345 417
#     4  10  23  42  64  98 138 174 233 283 355 411
#
# _framework density 22.464967000000001
#
# number of rings (size 3 to 8) (size 9 to 14) (size 15 to 20)
#    0.000    1.600    0.000    1.800   16.800    0.800 
#    0.000    0.000    0.000    0.000    0.000    0.000 
#    0.000    0.000    0.000    0.000    0.000    0.000 
#
# Total GULP energy -247816.661022 kJ/mol
# GULP energy per Si atom -12390.833051 kJ/mol
# Density = 2.241384 g / cm^3
# Si number density = 22.464967 Si / 1000 Ang^3
#
#
#
# Elastic Constant Matrix: (Units=GPa)
#
#
# Indices 1 2 3 4 5 6 
#
# 1 87.3290 7.1400 43.4783 0.0000 5.7515 0.0000
# 2 7.1400 63.2240 21.4657 0.0000 -7.6809 0.0000
# 3 43.4783 21.4657 146.4454 0.0000 9.7700 0.0000
# 4 0.0000 0.0000 0.0000 19.9013 0.0000 44.6271
# 5 5.7515 -7.6809 9.7700 0.0000 23.3573 0.0000
# 6 0.0000 0.0000 0.0000 44.6271 0.0000 -49.9654
#
#
#
# Elastic Compliance Matrix: (Units=1/GPa)
#
#
# Indices 1 2 3 4 5 6 
#
# 1 0.013514 -0.000458 -0.003820 0.000000 -0.001881 0.000000
# 2 -0.000458 0.017740 -0.002943 0.000000 0.007177 0.000000
# 3 -0.003820 -0.002943 0.008637 0.000000 -0.003640 0.000000
# 4 0.000000 0.000000 0.000000 0.016733 0.000000 0.014946
# 5 -0.001881 0.007177 -0.003640 0.000000 0.047159 0.000000
# 6 0.000000 0.000000 0.000000 0.014946 0.000000 -0.006665
#
#
# Mechanical properties :
#
#
# Convention : Reuss Voigt Hill
#
# Bulk Modulus (GPa) = 39.29394 49.01848 44.15621
# Shear Modulus (GPa) = 41.65207 13.65291 27.65249
#
# Velocity S-wave (km/s) = 4.31059 2.46792 3.51225
# Velocity P-wave (km/s) = 6.50416 5.47614 6.01216
#
# Compressibility (1/GPa) = 0.02544922
#
# Stress axis : x y z
#
# Youngs Moduli (GPa) = 73.99800 56.37071 115.78466
#
# Poissons Ratio (x) = 0.02581 0.44225
# Poissons Ratio (y) = 0.03387 0.34078
# Poissons Ratio (z) = 0.28264 0.16591
#
# Static dielectric constant tensor:
#      x y z
#    x 4.073720 0.000000 0.083170 
#    y 0.000000 4.075620 0.000000 
#    z 0.083170 0.000000 4.030790 
# 
# 
# High freq. dielectric constant tensor:
#      x y z
#    x 1.873130 0.000000 0.006950 
#    y 0.000000 1.898380 0.000000 
#    z 0.006950 0.000000 1.892530 
# 
# From -- ./inp_files/73054.got.cif
#   From: 2010.06.25/outbox.cif.g09.slc.cpg/sg15_37_cif.got.tgz:73054.got - 2010.06.28 07:06:18.
