data_PCOD8148187
_publ_section_title
;
Structure prediction by ZEFSAII (Michael W. Deem and Ramdas Pophale) SiO2 
 PCOD8148187
Probable space group: C 2/C
;
_chemical_formula_sum "Si O2"
_cell_formula_units_Z 64
_cell_length_a 13.967157
_cell_length_b 17.156491
_cell_length_c 14.587700
_cell_angle_alpha 90.000000
_cell_angle_beta 128.151495
_cell_angle_gamma 90.000000
_cell_volume 2748.880378
_symmetry_space_group_name_H-M "C 2/C"
_symmetry_group_IT_number 15
_symmetry_cell_setting 'monoclinic'
loop_
_space_group_symop_operation_xyz
x,y,z
-x,y,1/2-z
-x,-y,-z
x,-y,1/2+z
1/2+x,1/2+y,z
1/2-x,1/2+y,1/2-z
1/2-x,1/2-y,-z
1/2+x,1/2-y,1/2+z
loop_
_atom_site_type_symbol
_atom_site_label
_atom_site_fract_x
_atom_site_fract_y
_atom_site_fract_z
Si Si1 0.052338 0.015368 0.159619
Si Si2 0.883467 0.689415 0.456734
Si Si3 0.864832 0.657317 0.138370
Si Si4 0.759577 0.240318 0.718742
Si Si5 0.510681 0.690922 0.148466
Si Si6 0.249193 0.958997 0.918579
Si Si7 0.682712 0.525401 0.057124
Si Si8 0.871870 0.610545 0.938982
O O1 0.990587 0.100942 0.108402
O O2 0.117205 0.014328 0.298014
O O3 0.153340 0.995362 0.141690
O O4 0.942236 0.954461 0.074502
O O5 0.864231 0.740331 0.354042
O O6 0.768472 0.631857 0.405703
O O7 0.903409 0.753083 0.547276
O O8 0.993090 0.627298 0.516498
O O9 0.818005 0.737670 0.154741
O O10 0.000000 0.634354 0.250000
O O11 0.769810 0.597303 0.125930
O O12 0.855532 0.657761 0.023958
O O13 0.637336 0.284942 0.676346
O O14 0.726418 0.148514 0.689853
O O15 0.500000 0.703246 0.250000
O O16 0.252708 0.964690 0.031181
O O17 0.349931 0.018249 0.936257
#
# Coordination Sequence:
#
# PCOD8148187 Si02
#       8
#     8   8   8   8   8   8   8   8
#     4  11  22  44  67  94 140 177 225 293 347 407
#     4  11  23  43  66  97 139 182 225 285 342 416
#     4  11  20  41  69  97 138 179 220 284 351 407
#     4  11  22  43  66 100 132 177 229 282 341 414
#     4  11  24  43  68  96 135 182 231 282 345 411
#     4  11  22  44  67  97 136 181 227 282 353 406
#     4  10  23  39  67 100 129 181 229 280 343 422
#     4  10  24  40  66 100 136 177 232 277 344 412
#
# _framework density 23.282205999999999
#
# number of rings (size 3 to 8) (size 9 to 14) (size 15 to 20)
#    0.000    1.250    3.750    1.875    0.000    2.500 
#    4.500    1.875    0.000    0.000    0.000    0.000 
#    0.000    0.000    0.000    0.000    0.000    0.000 
#
# Total GULP energy -396487.239754 kJ/mol
# GULP energy per Si atom -12390.226242 kJ/mol
# Density = 2.322921 g / cm^3
# Si number density = 23.282206 Si / 1000 Ang^3
#
#
#
# Elastic Constant Matrix: (Units=GPa)
#
#
# Indices 1 2 3 4 5 6 
#
# 1 45.4726 13.9149 5.1024 0.0000 6.0786 0.0000
# 2 13.9149 78.7068 39.0615 0.0000 0.1751 0.0000
# 3 5.1024 39.0615 87.2899 0.0000 6.8515 0.0000
# 4 0.0000 0.0000 0.0000 31.4823 0.0000 2.3922
# 5 6.0786 0.1751 6.8515 0.0000 42.0197 0.0000
# 6 0.0000 0.0000 0.0000 2.3922 0.0000 18.6841
#
#
#
# Elastic Compliance Matrix: (Units=1/GPa)
#
#
# Indices 1 2 3 4 5 6 
#
# 1 0.023794 -0.004690 0.000989 0.000000 -0.003584 0.000000
# 2 -0.004690 0.017311 -0.007617 0.000000 0.001848 0.000000
# 3 0.000989 -0.007617 0.015008 0.000000 -0.002558 0.000000
# 4 0.000000 0.000000 0.000000 0.032076 0.000000 -0.004107
# 5 -0.003584 0.001848 -0.002558 0.000000 0.024726 0.000000
# 6 0.000000 0.000000 0.000000 -0.004107 0.000000 0.054047
#
#
# Mechanical properties :
#
#
# Convention : Reuss Voigt Hill
#
# Bulk Modulus (GPa) = 29.87121 36.40298 33.13709
# Shear Modulus (GPa) = 24.90565 28.66324 26.78445
#
# Velocity S-wave (km/s) = 3.27422 3.51254 3.39547
# Velocity P-wave (km/s) = 5.21075 5.66746 5.44390
#
# Compressibility (1/GPa) = 0.03347705
#
# Stress axis : x y z
#
# Youngs Moduli (GPa) = 42.02672 57.76735 66.63197
#
# Poissons Ratio (x) = 0.27090 -0.06590
# Poissons Ratio (y) = 0.19709 0.50756
# Poissons Ratio (z) = -0.04156 0.44004
#
# Static dielectric constant tensor:
#      x y z
#    x 4.363940 0.000000 -0.007220 
#    y 0.000000 3.957630 0.000000 
#    z -0.007220 0.000000 4.196350 
# 
# 
# High freq. dielectric constant tensor:
#      x y z
#    x 1.939250 0.000000 -0.001960 
#    y 0.000000 1.894000 0.000000 
#    z -0.001960 0.000000 1.918950 
# 
# From -- ./inp_files/155522.got.cif
#   From: 2010.06.25/outbox.cif.g09.slc.cpg/sg15_78_cif.got.tgz:155522.got - 2010.06.28 07:06:18.
