data_PCOD8148463
_publ_section_title
;
Structure prediction by ZEFSAII (Michael W. Deem and Ramdas Pophale) SiO2 
 PCOD8148463
Probable space group: C 2/C
;
_chemical_formula_sum "Si O2"
_cell_formula_units_Z 60
_cell_length_a 18.775090
_cell_length_b 8.120444
_cell_length_c 17.400115
_cell_angle_alpha 90.000000
_cell_angle_beta 97.188858
_cell_angle_gamma 90.000000
_cell_volume 2632.003532
_symmetry_space_group_name_H-M "C 2/C"
_symmetry_group_IT_number 15
_symmetry_cell_setting 'monoclinic'
loop_
_space_group_symop_operation_xyz
x,y,z
-x,y,1/2-z
-x,-y,-z
x,-y,1/2+z
1/2+x,1/2+y,z
1/2-x,1/2+y,1/2-z
1/2-x,1/2-y,-z
1/2+x,1/2-y,1/2+z
loop_
_atom_site_type_symbol
_atom_site_label
_atom_site_fract_x
_atom_site_fract_y
_atom_site_fract_z
Si Si1 0.601082 0.123987 0.403991
Si Si2 0.233554 0.951775 0.804619
Si Si3 0.150970 0.255403 0.757168
Si Si4 0.000000 0.075225 0.250000
Si Si5 0.854225 0.856581 0.489282
Si Si6 0.214920 0.501925 0.028908
Si Si7 0.537056 0.322528 0.126804
Si Si8 0.114834 0.744379 0.848790
O O1 0.627810 0.246513 0.342226
O O2 0.523494 0.199776 0.418365
O O3 0.657860 0.124401 0.482400
O O4 0.597883 0.944583 0.364666
O O5 0.181020 0.070582 0.749477
O O6 0.292821 0.899150 0.751394
O O7 0.266913 0.053829 0.881595
O O8 0.196308 0.784068 0.832211
O O9 0.084945 0.287260 0.690912
O O10 0.066787 0.195435 0.271697
O O11 0.005212 0.969567 0.173193
O O12 0.822506 0.677938 0.467473
O O13 0.787542 0.985842 0.486374
O O14 0.912735 0.902586 0.432596
O O15 0.897326 0.851585 0.575553
#
# Coordination Sequence:
#
# PCOD8148463 Si02
#       8
#     8   8   8   4   8   8   8   8
#     4  11  24  41  66  94 130 169 215 268 333 380
#     4  11  22  43  66  96 129 169 221 267 324 380
#     4  12  24  40  65  95 131 171 211 272 320 392
#     4  12  24  42  62  90 130 170 212 260 326 384
#     4   9  20  40  64  91 130 166 212 264 331 370
#     4   9  20  39  67  94 123 169 216 270 312 387
#     4  12  23  42  64  93 134 174 201 268 331 391
#     4  10  23  41  66  93 124 170 219 267 317 398
#
# _framework density 22.796322
#
# number of rings (size 3 to 8) (size 9 to 14) (size 15 to 20)
#    0.000    1.333    4.000    1.600    3.733    3.200 
#    0.000    0.000    0.000    0.000    0.000    0.000 
#    0.000    0.000    0.000    0.000    0.000    0.000 
#
# Total GULP energy -371822.591479 kJ/mol
# GULP energy per Si atom -12394.086383 kJ/mol
# Density = 2.274444 g / cm^3
# Si number density = 22.796322 Si / 1000 Ang^3
#
#
#
# Elastic Constant Matrix: (Units=GPa)
#
#
# Indices 1 2 3 4 5 6 
#
# 1 116.9156 30.1206 40.0818 0.0000 4.0326 0.0000
# 2 30.1206 49.2407 1.7848 0.0000 8.7506 0.0000
# 3 40.0818 1.7848 62.9925 0.0000 3.1200 0.0000
# 4 0.0000 0.0000 0.0000 26.4540 0.0000 6.3650
# 5 4.0326 8.7506 3.1200 0.0000 45.9383 0.0000
# 6 0.0000 0.0000 0.0000 6.3650 0.0000 39.1220
#
#
#
# Elastic Compliance Matrix: (Units=1/GPa)
#
#
# Indices 1 2 3 4 5 6 
#
# 1 0.013491 -0.008114 -0.008401 0.000000 0.000932 0.000000
# 2 -0.008114 0.025910 0.004653 0.000000 -0.004539 0.000000
# 3 -0.008401 0.004653 0.021167 0.000000 -0.001587 0.000000
# 4 0.000000 0.000000 0.000000 0.039342 0.000000 -0.006401
# 5 0.000932 -0.004539 -0.001587 0.000000 0.022659 0.000000
# 6 0.000000 0.000000 0.000000 -0.006401 0.000000 0.026602
#
#
# Mechanical properties :
#
#
# Convention : Reuss Voigt Hill
#
# Bulk Modulus (GPa) = 27.14006 41.45812 34.29909
# Shear Modulus (GPa) = 27.00148 32.78029 29.89088
#
# Velocity S-wave (km/s) = 3.44534 3.79616 3.62500
# Velocity P-wave (km/s) = 5.26863 6.11885 5.70959
#
# Compressibility (1/GPa) = 0.03684590
#
# Stress axis : x y z
#
# Youngs Moduli (GPa) = 74.12142 38.59568 47.24336
#
# Poissons Ratio (x) = 0.31316 0.39688
# Poissons Ratio (y) = 0.60141 -0.21985
# Poissons Ratio (z) = 0.62268 -0.17960
#
# Static dielectric constant tensor:
#      x y z
#    x 4.291170 0.000000 0.165660 
#    y 0.000000 3.695430 0.000000 
#    z 0.165660 0.000000 4.219460 
# 
# 
# High freq. dielectric constant tensor:
#      x y z
#    x 1.907100 0.000000 0.010430 
#    y 0.000000 1.873260 0.000000 
#    z 0.010430 0.000000 1.898740 
# 
# From -- ./inp_files/209571.got.cif
#   From: 2010.06.25/outbox.cif.g09.slc.cpg/sg15_105_cif.got.tgz:209571.got - 2010.06.28 07:06:18.
