data_PCOD8148364
_publ_section_title
;
Structure prediction by ZEFSAII (Michael W. Deem and Ramdas Pophale) SiO2 
 PCOD8148364
Probable space group: C 2/C
;
_chemical_formula_sum "Si O2"
_cell_formula_units_Z 56
_cell_length_a 20.887860
_cell_length_b 11.216527
_cell_length_c 11.951542
_cell_angle_alpha 90.000000
_cell_angle_beta 76.479483
_cell_angle_gamma 90.000000
_cell_volume 2722.516035
_symmetry_space_group_name_H-M "C 2/C"
_symmetry_group_IT_number 15
_symmetry_cell_setting 'monoclinic'
loop_
_space_group_symop_operation_xyz
x,y,z
-x,y,1/2-z
-x,-y,-z
x,-y,1/2+z
1/2+x,1/2+y,z
1/2-x,1/2+y,1/2-z
1/2-x,1/2-y,-z
1/2+x,1/2-y,1/2+z
loop_
_atom_site_type_symbol
_atom_site_label
_atom_site_fract_x
_atom_site_fract_y
_atom_site_fract_z
Si Si1 0.000000 0.196464 0.250000
Si Si2 0.540254 0.386628 0.514811
Si Si3 0.933112 0.276809 0.964068
Si Si4 0.294449 0.245306 0.809068
Si Si5 0.500000 0.090071 0.250000
Si Si6 0.411652 0.107707 0.684910
Si Si7 0.186776 0.894344 0.478840
Si Si8 0.702549 0.334595 0.946035
O O1 0.041805 0.116006 0.149034
O O2 0.048658 0.273424 0.303917
O O3 0.500000 0.500000 0.500000
O O4 0.503651 0.274039 0.475162
O O5 0.615791 0.395211 0.446924
O O6 0.948184 0.330140 0.837400
O O7 0.906297 0.386264 0.052452
O O8 0.873691 0.181735 0.984482
O O9 0.342671 0.128941 0.777362
O O10 0.226190 0.192472 0.880036
O O11 0.287706 0.308989 0.690665
O O12 0.317543 0.341473 0.893061
O O13 0.549099 0.011017 0.303783
O O14 0.218367 0.027044 0.466690
O O15 0.750000 0.250000 0.000000
#
# Coordination Sequence:
#
# PCOD8148364 Si02
#       8
#     4   8   8   8   4   8   8   8
#     4   9  18  35  62  84 122 163 202 255 312 376
#     4  11  21  39  64  96 126 162 214 266 321 391
#     4  10  23  41  60  98 128 169 219 265 335 392
#     4  10  24  46  68  98 128 180 232 270 341 404
#     4  11  22  37  62  96 132 167 210 275 326 380
#     4   9  19  40  63  84 127 171 211 259 321 392
#     4  11  24  44  72  98 131 180 229 276 336 408
#     4  11  26  46  67  97 137 174 223 285 341 396
#
# _framework density 20.569209000000001
#
# number of rings (size 3 to 8) (size 9 to 14) (size 15 to 20)
#    0.000    1.714    2.857    0.429    4.000    1.714 
#    0.000    0.000    0.000    0.000    0.000    0.000 
#    0.000    0.000    0.000    0.000    0.000    0.000 
#
# Total GULP energy -346968.738756 kJ/mol
# GULP energy per Si atom -12391.740670 kJ/mol
# Density = 2.052239 g / cm^3
# Si number density = 20.569209 Si / 1000 Ang^3
#
#
#
# Elastic Constant Matrix: (Units=GPa)
#
#
# Indices 1 2 3 4 5 6 
#
# 1 108.6084 29.7106 30.8935 0.0000 -11.5748 0.0000
# 2 29.7106 91.5874 45.0976 0.0000 -3.5639 0.0000
# 3 30.8935 45.0976 124.6547 0.0000 -11.3411 0.0000
# 4 0.0000 0.0000 0.0000 25.1498 0.0000 9.8117
# 5 -11.5748 -3.5639 -11.3411 0.0000 27.0927 0.0000
# 6 0.0000 0.0000 0.0000 9.8117 0.0000 63.9241
#
#
#
# Elastic Compliance Matrix: (Units=1/GPa)
#
#
# Indices 1 2 3 4 5 6 
#
# 1 0.010712 -0.002664 -0.001358 0.000000 0.003658 0.000000
# 2 -0.002664 0.013950 -0.004494 0.000000 -0.001184 0.000000
# 3 -0.001358 -0.004494 0.010269 0.000000 0.003127 0.000000
# 4 0.000000 0.000000 0.000000 0.042294 0.000000 -0.006492
# 5 0.003658 -0.001184 0.003127 0.000000 0.039626 0.000000
# 6 0.000000 0.000000 0.000000 -0.006492 0.000000 0.016640
#
#
# Mechanical properties :
#
#
# Convention : Reuss Voigt Hill
#
# Bulk Modulus (GPa) = 55.87156 59.58376 57.72766
# Shear Modulus (GPa) = 31.95082 37.84325 34.89704
#
# Velocity S-wave (km/s) = 3.94551 4.29394 4.12341
# Velocity P-wave (km/s) = 6.92660 7.32218 7.12713
#
# Compressibility (1/GPa) = 0.01789819
#
# Stress axis : x y z
#
# Youngs Moduli (GPa) = 93.35070 71.68691 97.37806
#
# Poissons Ratio (x) = 0.19096 0.13228
# Poissons Ratio (y) = 0.24867 0.43764
# Poissons Ratio (z) = 0.12680 0.32218
#
# Static dielectric constant tensor:
#      x y z
#    x 2.798890 0.000000 -0.631420 
#    y 0.000000 3.761110 0.000000 
#    z -0.631420 0.000000 3.722070 
# 
# 
# High freq. dielectric constant tensor:
#      x y z
#    x 1.806310 0.000000 -0.009830 
#    y 0.000000 1.793400 0.000000 
#    z -0.009830 0.000000 1.812470 
# 
# From -- ./inp_files/111163.got.cif
#   From: 2010.06.25/outbox.cif.g09.slc.cpg/sg15_56_cif.got.tgz:111163.got - 2010.06.28 07:06:18.
