data_PCOD8148597
_publ_section_title
;
Structure prediction by ZEFSAII (Michael W. Deem and Ramdas Pophale) SiO2 
 PCOD8148597
Probable space group: C 2/C
;
_chemical_formula_sum "Si O2"
_cell_formula_units_Z 32
_cell_length_a 12.778041
_cell_length_b 12.428254
_cell_length_c 8.849515
_cell_angle_alpha 90.000000
_cell_angle_beta 90.164341
_cell_angle_gamma 90.000000
_cell_volume 1405.374538
_symmetry_space_group_name_H-M "C 2/C"
_symmetry_group_IT_number 15
_symmetry_cell_setting 'monoclinic'
loop_
_space_group_symop_operation_xyz
x,y,z
-x,y,1/2-z
-x,-y,-z
x,-y,1/2+z
1/2+x,1/2+y,z
1/2-x,1/2+y,1/2-z
1/2-x,1/2-y,-z
1/2+x,1/2-y,1/2+z
loop_
_atom_site_type_symbol
_atom_site_label
_atom_site_fract_x
_atom_site_fract_y
_atom_site_fract_z
Si Si1 0.045704 0.286990 0.409203
Si Si2 0.709432 0.959980 0.297380
Si Si3 0.173321 0.647368 0.488340
Si Si4 0.062721 0.085958 0.599806
O O1 0.947765 0.324614 0.507086
O O2 0.000000 0.246233 0.250000
O O3 0.132809 0.379066 0.387812
O O4 0.094242 0.187447 0.497628
O O5 0.703491 0.936663 0.120063
O O6 0.827715 0.960236 0.350550
O O7 0.679935 0.084506 0.329173
O O8 0.250000 0.750000 0.500000
O O9 0.000000 0.119684 0.750000
O O10 0.000000 0.000000 0.500000
#
# Coordination Sequence:
#
# PCOD8148597 Si02
#       4
#     8   8   8   8
#     4  10  23  42  64  92 127 168 215 268 324 386
#     4  11  24  42  66  93 127 170 215 268 327 390
#     4  11  24  44  66  96 132 169 215 271 327 391
#     4  12  24  40  62  93 129 171 218 269 325 387
#
# _framework density 22.769731
#
# number of rings (size 3 to 8) (size 9 to 14) (size 15 to 20)
#    0.000    1.000    0.000    6.750    0.000   10.000 
#    0.000    0.000    0.000    0.000    0.000    0.000 
#    0.000    0.000    0.000    0.000    0.000    0.000 
#
# Total GULP energy -198364.102167 kJ/mol
# GULP energy per Si atom -12397.756385 kJ/mol
# Density = 2.271791 g / cm^3
# Si number density = 22.769731 Si / 1000 Ang^3
#
#
#
# Elastic Constant Matrix: (Units=GPa)
#
#
# Indices 1 2 3 4 5 6 
#
# 1 102.0165 -13.3484 -1.6325 0.0000 -10.1313 0.0000
# 2 -13.3484 90.1258 35.4112 0.0000 -10.9576 0.0000
# 3 -1.6325 35.4112 70.0784 0.0000 -12.2795 0.0000
# 4 0.0000 0.0000 0.0000 39.8235 0.0000 5.7533
# 5 -10.1313 -10.9576 -12.2795 0.0000 34.5058 0.0000
# 6 0.0000 0.0000 0.0000 5.7533 0.0000 20.9320
#
#
#
# Elastic Compliance Matrix: (Units=1/GPa)
#
#
# Indices 1 2 3 4 5 6 
#
# 1 0.010432 0.002049 -0.000151 0.000000 0.003660 0.000000
# 2 0.002049 0.014382 -0.006734 0.000000 0.002773 0.000000
# 3 -0.000151 -0.006734 0.018436 0.000000 0.004378 0.000000
# 4 0.000000 0.000000 0.000000 0.026149 0.000000 -0.007187
# 5 0.003660 0.002773 0.004378 0.000000 0.032494 0.000000
# 6 0.000000 0.000000 0.000000 -0.007187 0.000000 0.049749
#
#
# Mechanical properties :
#
#
# Convention : Reuss Voigt Hill
#
# Bulk Modulus (GPa) = 29.78127 33.67571 31.72849
# Shear Modulus (GPa) = 28.98458 35.17162 32.07810
#
# Velocity S-wave (km/s) = 3.57170 3.93449 3.75748
# Velocity P-wave (km/s) = 5.48791 5.95500 5.72622
#
# Compressibility (1/GPa) = 0.03357816
#
# Stress axis : x y z
#
# Youngs Moduli (GPa) = 95.86325 69.53152 54.24175
#
# Poissons Ratio (x) = -0.14250 0.00821
# Poissons Ratio (y) = -0.19646 0.36525
# Poissons Ratio (z) = 0.01450 0.46821
#
# Static dielectric constant tensor:
#      x y z
#    x -5.246450 0.000000 7.357670 
#    y 0.000000 4.584430 0.000000 
#    z 7.357670 0.000000 -1.581420 
# 
# 
# High freq. dielectric constant tensor:
#      x y z
#    x 1.919850 0.000000 -0.006760 
#    y 0.000000 1.898340 0.000000 
#    z -0.006760 0.000000 1.903830 
# 
# From -- ./inp_files/27650.got.cif
#   From: 2010.06.25/outbox.cif.g09.slc.cpg/sg15_14_cif.got.tgz:27650.got - 2010.06.28 07:06:18.
