data_PCOD8148889
_publ_section_title
;
Structure prediction by ZEFSAII (Michael W. Deem and Ramdas Pophale) SiO2 
 PCOD8148889
Probable space group: C 2/C
;
_chemical_formula_sum "Si O2"
_cell_formula_units_Z 36
_cell_length_a 11.046667
_cell_length_b 16.501593
_cell_length_c 8.656998
_cell_angle_alpha 90.000000
_cell_angle_beta 95.522423
_cell_angle_gamma 90.000000
_cell_volume 1570.739009
_symmetry_space_group_name_H-M "C 2/C"
_symmetry_group_IT_number 15
_symmetry_cell_setting 'monoclinic'
loop_
_space_group_symop_operation_xyz
x,y,z
-x,y,1/2-z
-x,-y,-z
x,-y,1/2+z
1/2+x,1/2+y,z
1/2-x,1/2+y,1/2-z
1/2-x,1/2-y,-z
1/2+x,1/2-y,1/2+z
loop_
_atom_site_type_symbol
_atom_site_label
_atom_site_fract_x
_atom_site_fract_y
_atom_site_fract_z
Si Si1 0.142845 0.689135 0.782474
Si Si2 0.000000 0.254161 0.750000
Si Si3 0.216196 0.656328 0.121962
Si Si4 0.342901 0.384933 0.128594
Si Si5 0.124909 0.038912 0.196759
O O1 0.176520 0.783357 0.808210
O O2 0.205628 0.648884 0.638789
O O3 0.000000 0.676482 0.750000
O O4 0.203283 0.644613 0.937519
O O5 0.086412 0.311954 0.663252
O O6 0.073456 0.195090 0.874840
O O7 0.255186 0.570799 0.198644
O O8 0.378920 0.441517 0.279789
O O9 0.359258 0.440300 0.980604
O O10 0.000000 0.076777 0.250000
#
# Coordination Sequence:
#
# PCOD8148889 Si02
#       5
#     8   4   8   8   8
#     4  10  23  43  66  95 140 177 217 279 334 406
#     4  10  24  42  68 100 140 172 222 282 328 412
#     4  10  24  40  68 100 136 173 230 268 344 392
#     4  11  25  43  69  99 135 179 228 272 344 394
#     4  12  25  42  71  99 134 177 228 284 331 402
#
# _framework density 22.919146999999999
#
# number of rings (size 3 to 8) (size 9 to 14) (size 15 to 20)
#    0.000    1.333    1.111    2.667   15.556    1.778 
#    2.000    2.222    0.000    0.000    0.000    0.000 
#    0.000    0.000    0.000    0.000    0.000    0.000 
#
# Total GULP energy -223152.307198 kJ/mol
# GULP energy per Si atom -12397.350400 kJ/mol
# Density = 2.286698 g / cm^3
# Si number density = 22.919147 Si / 1000 Ang^3
#
#
#
# Elastic Constant Matrix: (Units=GPa)
#
#
# Indices 1 2 3 4 5 6 
#
# 1 169.6270 47.0961 28.9227 0.0000 -12.8334 0.0000
# 2 47.0961 58.9699 18.4256 0.0000 -5.4065 0.0000
# 3 28.9227 18.4256 69.7267 0.0000 -17.4550 0.0000
# 4 0.0000 0.0000 0.0000 34.8152 0.0000 0.9008
# 5 -12.8334 -5.4065 -17.4550 0.0000 27.2193 0.0000
# 6 0.0000 0.0000 0.0000 0.9008 0.0000 26.4334
#
#
#
# Elastic Compliance Matrix: (Units=1/GPa)
#
#
# Indices 1 2 3 4 5 6 
#
# 1 0.007827 -0.005683 -0.001315 0.000000 0.001718 0.000000
# 2 -0.005683 0.022619 -0.003772 0.000000 -0.000605 0.000000
# 3 -0.001315 -0.003772 0.018513 0.000000 0.010503 0.000000
# 4 0.000000 0.000000 0.000000 0.028748 0.000000 -0.000980
# 5 0.001718 -0.000605 0.010503 0.000000 0.044164 0.000000
# 6 0.000000 0.000000 0.000000 -0.000980 0.000000 0.037864
#
#
# Mechanical properties :
#
#
# Convention : Reuss Voigt Hill
#
# Bulk Modulus (GPa) = 36.46813 54.13472 45.30142
# Shear Modulus (GPa) = 26.25841 31.28552 28.77196
#
# Velocity S-wave (km/s) = 3.38849 3.69865 3.54696
# Velocity P-wave (km/s) = 5.59065 6.47388 6.04841
#
# Compressibility (1/GPa) = 0.02742121
#
# Stress axis : x y z
#
# Youngs Moduli (GPa) = 127.75765 44.20991 54.01613
#
# Poissons Ratio (x) = 0.25124 0.07102
# Poissons Ratio (y) = 0.72603 0.20372
# Poissons Ratio (z) = 0.16798 0.16674
#
# Static dielectric constant tensor:
#      x y z
#    x 4.174700 0.000000 -0.152440 
#    y 0.000000 3.968880 0.000000 
#    z -0.152440 0.000000 3.930450 
# 
# 
# High freq. dielectric constant tensor:
#      x y z
#    x 1.913690 0.000000 -0.010290 
#    y 0.000000 1.895540 0.000000 
#    z -0.010290 0.000000 1.898760 
# 
# From -- ./inp_files/28739.got.cif
#   From: 2010.06.25/outbox.cif.g09.slc.cpg/sg15_15_cif.got.tgz:28739.got - 2010.06.28 07:06:18.
