data_PCOD8148933
_publ_section_title
;
Structure prediction by ZEFSAII (Michael W. Deem and Ramdas Pophale) SiO2 
 PCOD8148933
Probable space group: C 2/C
;
_chemical_formula_sum "Si O2"
_cell_formula_units_Z 56
_cell_length_a 16.004206
_cell_length_b 22.387614
_cell_length_c 13.623749
_cell_angle_alpha 90.000000
_cell_angle_beta 145.860963
_cell_angle_gamma 90.000000
_cell_volume 2739.419818
_symmetry_space_group_name_H-M "C 2/C"
_symmetry_group_IT_number 15
_symmetry_cell_setting 'monoclinic'
loop_
_space_group_symop_operation_xyz
x,y,z
-x,y,1/2-z
-x,-y,-z
x,-y,1/2+z
1/2+x,1/2+y,z
1/2-x,1/2+y,1/2-z
1/2-x,1/2-y,-z
1/2+x,1/2-y,1/2+z
loop_
_atom_site_type_symbol
_atom_site_label
_atom_site_fract_x
_atom_site_fract_y
_atom_site_fract_z
Si Si1 0.243685 0.179546 0.645867
Si Si2 0.835698 0.391008 0.050983
Si Si3 0.933760 0.912860 0.422160
Si Si4 0.564597 0.328968 0.406735
Si Si5 0.428083 0.799454 0.985162
Si Si6 0.603241 0.791688 0.763237
Si Si7 0.905222 0.980193 0.752347
O O1 0.241931 0.147368 0.538381
O O2 0.204816 0.129950 0.689695
O O3 0.401670 0.207339 0.821620
O O4 0.131020 0.234349 0.543235
O O5 0.845666 0.350441 0.965093
O O6 0.000000 0.409160 0.250000
O O7 0.748151 0.450945 0.935062
O O8 0.065684 0.874387 0.498752
O O9 0.998566 0.934990 0.588246
O O10 0.870051 0.963573 0.288057
O O11 0.500000 0.365356 0.250000
O O12 0.442851 0.276550 0.301662
O O13 0.723765 0.298752 0.539739
O O14 0.415296 0.822229 0.860627
O O15 0.500000 0.819775 0.750000
O O16 0.000000 0.999937 0.750000
#
# Coordination Sequence:
#
# PCOD8148933 Si02
#       7
#     8   8   8   8   8   8   8
#     4  11  23  40  65  99 135 165 210 257 328 386
#     4  10  23  43  67  98 132 167 206 268 325 382
#     4  11  24  40  68  94 121 172 217 268 312 371
#     4  11  22  37  59  87 128 162 216 262 315 383
#     4  11  23  38  64  97 137 166 205 258 327 400
#     4  11  22  35  57  87 127 172 205 256 322 378
#     4  11  23  44  70  90 124 168 226 264 317 369
#
# _framework density 20.442284000000001
#
# number of rings (size 3 to 8) (size 9 to 14) (size 15 to 20)
#    0.000    1.143    2.857    4.286    4.000    0.000 
#    0.000    2.857    6.286    0.000    0.000    0.000 
#    0.000    0.000    0.000    0.000    0.000    0.000 
#
# Total GULP energy -347069.604623 kJ/mol
# GULP energy per Si atom -12395.343022 kJ/mol
# Density = 2.039576 g / cm^3
# Si number density = 20.442284 Si / 1000 Ang^3
#
#
#
# Elastic Constant Matrix: (Units=GPa)
#
#
# Indices 1 2 3 4 5 6 
#
# 1 136.5715 49.0541 55.6726 0.0000 -4.9730 0.0000
# 2 49.0541 81.3037 56.1125 0.0000 15.8816 0.0000
# 3 55.6726 56.1125 99.3666 0.0000 -3.6728 0.0000
# 4 0.0000 0.0000 0.0000 26.4766 0.0000 -8.8147
# 5 -4.9730 15.8816 -3.6728 0.0000 34.8165 0.0000
# 6 0.0000 0.0000 0.0000 -8.8147 0.0000 19.8374
#
#
#
# Elastic Compliance Matrix: (Units=1/GPa)
#
#
# Indices 1 2 3 4 5 6 
#
# 1 0.010410 -0.004938 -0.002917 0.000000 0.003431 0.000000
# 2 -0.004938 0.027143 -0.013096 0.000000 -0.014468 0.000000
# 3 -0.002917 -0.013096 0.019375 0.000000 0.007601 0.000000
# 4 0.000000 0.000000 0.000000 0.044327 0.000000 0.019696
# 5 0.003431 -0.014468 0.007601 0.000000 0.036614 0.000000
# 6 0.000000 0.000000 0.000000 0.019696 0.000000 0.059162
#
#
# Mechanical properties :
#
#
# Convention : Reuss Voigt Hill
#
# Bulk Modulus (GPa) = 66.55324 70.99111 68.77217
# Shear Modulus (GPa) = 20.49678 26.65294 23.57486
#
# Velocity S-wave (km/s) = 3.16993 3.61475 3.39962
# Velocity P-wave (km/s) = 6.78419 7.22668 7.00893
#
# Compressibility (1/GPa) = 0.01502557
#
# Stress axis : x y z
#
# Youngs Moduli (GPa) = 96.06301 36.84148 51.61402
#
# Poissons Ratio (x) = 0.18191 0.15057
# Poissons Ratio (y) = 0.47433 0.67595
# Poissons Ratio (z) = 0.28024 0.48248
#
# Static dielectric constant tensor:
#      x y z
#    x 4.301000 0.000000 -0.240900 
#    y 0.000000 3.501880 0.000000 
#    z -0.240900 0.000000 3.671200 
# 
# 
# High freq. dielectric constant tensor:
#      x y z
#    x 1.825860 0.000000 -0.012070 
#    y 0.000000 1.780100 0.000000 
#    z -0.012070 0.000000 1.797060 
# 
# From -- ./inp_files/163827.got.cif
#   From: 2010.06.25/outbox.cif.g09.slc.cpg/sg15_82_cif.got.tgz:163827.got - 2010.06.28 07:06:18.
