data_PCOD8148609
_publ_section_title
;
Structure prediction by ZEFSAII (Michael W. Deem and Ramdas Pophale) SiO2 
 PCOD8148609
Probable space group: C 2/C
;
_chemical_formula_sum "Si O2"
_cell_formula_units_Z 48
_cell_length_a 10.959077
_cell_length_b 22.757552
_cell_length_c 10.997997
_cell_angle_alpha 90.000000
_cell_angle_beta 129.209616
_cell_angle_gamma 90.000000
_cell_volume 2125.319646
_symmetry_space_group_name_H-M "C 2/C"
_symmetry_group_IT_number 15
_symmetry_cell_setting 'monoclinic'
loop_
_space_group_symop_operation_xyz
x,y,z
-x,y,1/2-z
-x,-y,-z
x,-y,1/2+z
1/2+x,1/2+y,z
1/2-x,1/2+y,1/2-z
1/2-x,1/2-y,-z
1/2+x,1/2-y,1/2+z
loop_
_atom_site_type_symbol
_atom_site_label
_atom_site_fract_x
_atom_site_fract_y
_atom_site_fract_z
Si Si1 0.766206 0.802769 0.773969
Si Si2 0.856920 0.914295 0.241335
Si Si3 0.403190 0.308366 0.433293
Si Si4 0.810340 0.479033 0.143946
Si Si5 0.820442 0.118852 0.095962
Si Si6 0.823343 0.393482 0.598629
O O1 0.669025 0.744596 0.687934
O O2 0.726084 0.852753 0.648742
O O3 0.732350 0.831712 0.882260
O O4 0.948487 0.784702 0.896300
O O5 0.944217 0.860617 0.365282
O O6 0.769274 0.956885 0.281231
O O7 0.000000 0.942771 0.250000
O O8 0.713127 0.889850 0.067919
O O9 0.289721 0.335978 0.464520
O O10 0.744163 0.545636 0.095458
O O11 0.000000 0.474239 0.250000
O O12 0.746501 0.444213 0.985359
O O13 0.000000 0.110919 0.250000
O O14 0.000000 0.401024 0.750000
#
# Coordination Sequence:
#
# PCOD8148609 Si02
#       6
#     8   8   8   8   8   8
#     4  11  23  41  66  95 132 176 227 273 338 398
#     4  11  24  47  66  98 140 171 228 277 335 406
#     4  10  23  42  64  97 132 177 225 282 328 400
#     4  10  25  44  70  99 136 180 224 278 332 397
#     4   9  21  42  66 100 131 175 230 278 332 396
#     4  11  27  42  64 101 133 179 223 274 341 401
#
# _framework density 22.584838000000001
#
# number of rings (size 3 to 8) (size 9 to 14) (size 15 to 20)
#    0.000    1.667    1.667    0.500    7.000    5.333 
#    0.000    0.833    0.000    0.000    0.000    0.000 
#    0.000    0.000    0.000    0.000    0.000    0.000 
#
# Total GULP energy -297353.586099 kJ/mol
# GULP energy per Si atom -12389.732754 kJ/mol
# Density = 2.253343 g / cm^3
# Si number density = 22.584838 Si / 1000 Ang^3
#
#
#
# Elastic Constant Matrix: (Units=GPa)
#
#
# Indices 1 2 3 4 5 6 
#
# 1 74.1998 10.8705 9.4885 0.0000 -2.8734 0.0000
# 2 10.8705 102.0225 24.2163 0.0000 9.0785 0.0000
# 3 9.4885 24.2163 108.2234 0.0000 -4.8610 0.0000
# 4 0.0000 0.0000 0.0000 23.7506 0.0000 -8.6962
# 5 -2.8734 9.0785 -4.8610 0.0000 26.6088 0.0000
# 6 0.0000 0.0000 0.0000 -8.6962 0.0000 8.9259
#
#
#
# Elastic Compliance Matrix: (Units=1/GPa)
#
#
# Indices 1 2 3 4 5 6 
#
# 1 0.013864 -0.001449 -0.000808 0.000000 0.001844 0.000000
# 2 -0.001449 0.010940 -0.002516 0.000000 -0.004349 0.000000
# 3 -0.000808 -0.002516 0.009991 0.000000 0.002596 0.000000
# 4 0.000000 0.000000 0.000000 0.065453 0.000000 0.063770
# 5 0.001844 -0.004349 0.002596 0.000000 0.039739 0.000000
# 6 0.000000 0.000000 0.000000 0.063770 0.000000 0.174163
#
#
# Mechanical properties :
#
#
# Convention : Reuss Voigt Hill
#
# Bulk Modulus (GPa) = 39.60847 41.51067 40.55957
# Shear Modulus (GPa) = 15.05503 27.84841 21.45172
#
# Velocity S-wave (km/s) = 2.58466 3.51530 3.08527
# Velocity P-wave (km/s) = 5.14616 5.90730 5.53982
#
# Compressibility (1/GPa) = 0.02524713
#
# Stress axis : x y z
#
# Youngs Moduli (GPa) = 72.12790 91.40381 100.09306
#
# Poissons Ratio (x) = 0.13248 0.08091
# Poissons Ratio (y) = 0.10455 0.25187
# Poissons Ratio (z) = 0.05831 0.23000
#
# Static dielectric constant tensor:
#      x y z
#    x 3.950540 0.000000 -0.084090 
#    y 0.000000 4.038510 0.000000 
#    z -0.084090 0.000000 4.400030 
# 
# 
# High freq. dielectric constant tensor:
#      x y z
#    x 1.870270 0.000000 -0.006810 
#    y 0.000000 1.887400 0.000000 
#    z -0.006810 0.000000 1.914830 
# 
# From -- ./inp_files/89799.got.cif
#   From: 2010.06.25/outbox.cif.g09.slc.cpg/sg15_45_cif.got.tgz:89799.got - 2010.06.28 07:06:18.
