data_PCOD8148229
_publ_section_title
;
Structure prediction by ZEFSAII (Michael W. Deem and Ramdas Pophale) SiO2 
 PCOD8148229
Probable space group: C 2/C
;
_chemical_formula_sum "Si O2"
_cell_formula_units_Z 60
_cell_length_a 13.449009
_cell_length_b 18.488700
_cell_length_c 22.675861
_cell_angle_alpha 90.000000
_cell_angle_beta 147.552147
_cell_angle_gamma 90.000000
_cell_volume 3025.212601
_symmetry_space_group_name_H-M "C 2/C"
_symmetry_group_IT_number 15
_symmetry_cell_setting 'monoclinic'
loop_
_space_group_symop_operation_xyz
x,y,z
-x,y,1/2-z
-x,-y,-z
x,-y,1/2+z
1/2+x,1/2+y,z
1/2-x,1/2+y,1/2-z
1/2-x,1/2-y,-z
1/2+x,1/2-y,1/2+z
loop_
_atom_site_type_symbol
_atom_site_label
_atom_site_fract_x
_atom_site_fract_y
_atom_site_fract_z
Si Si1 0.527935 0.775983 0.663783
Si Si2 0.843082 0.783596 0.959980
Si Si3 0.091547 0.988565 0.905001
Si Si4 0.294086 0.169366 0.848859
Si Si5 0.018357 0.467721 0.443325
Si Si6 0.148126 0.943860 0.552334
Si Si7 0.287484 0.072228 0.243198
Si Si8 0.500000 0.419760 0.250000
O O1 0.380434 0.790796 0.642763
O O2 0.420513 0.765455 0.550072
O O3 0.643556 0.701456 0.728118
O O4 0.661883 0.844347 0.723015
O O5 0.894048 0.739106 0.926582
O O6 0.931557 0.862419 0.994495
O O7 0.930849 0.935285 0.848301
O O8 0.983867 0.036795 0.802975
O O9 0.264277 0.951525 0.958673
O O10 0.197510 0.032712 0.010347
O O11 0.432945 0.111855 0.889896
O O12 0.185238 0.128097 0.847173
O O13 0.923046 0.521933 0.349166
O O14 0.000000 0.500000 0.500000
O O15 0.308228 0.945990 0.683137
O O16 0.000000 0.000000 0.500000
#
# Coordination Sequence:
#
# PCOD8148229 Si02
#       8
#     8   8   8   8   8   8   8   4
#     4  11  23  36  60  91 123 158 200 261 316 364
#     4  11  22  36  61  91 122 154 202 261 317 360
#     4  11  23  41  63  91 128 162 215 254 305 373
#     4  12  22  37  59  97 124 153 203 264 320 361
#     4  12  24  39  65  95 123 164 211 259 311 367
#     4  10  23  40  62  89 126 167 202 248 307 379
#     4  11  23  41  63  93 127 167 207 249 311 380
#     4  12  20  38  64  92 128 158 200 272 318 352
#
# _framework density 19.833317999999998
#
# number of rings (size 3 to 8) (size 9 to 14) (size 15 to 20)
#    0.000    0.800    5.333    2.400    3.733    1.600 
#    0.000    0.667    0.000    0.000    0.000    0.000 
#    0.000    0.000    0.000    0.000    0.000    0.000 
#
# Total GULP energy -371661.582897 kJ/mol
# GULP energy per Si atom -12388.719430 kJ/mol
# Density = 1.978818 g / cm^3
# Si number density = 19.833318 Si / 1000 Ang^3
#
#
#
# Elastic Constant Matrix: (Units=GPa)
#
#
# Indices 1 2 3 4 5 6 
#
# 1 71.8676 42.6637 40.7844 0.0005 -1.6089 0.0002
# 2 42.6637 131.2421 42.2240 0.0019 9.5255 0.0004
# 3 40.7844 42.2240 101.1081 0.0034 -11.2960 0.0013
# 4 0.0005 0.0019 0.0034 33.9843 -0.0006 1.1506
# 5 -1.6089 9.5255 -11.2960 -0.0006 44.1303 0.0000
# 6 0.0002 0.0004 0.0013 1.1506 0.0000 27.2153
#
#
#
# Elastic Compliance Matrix: (Units=1/GPa)
#
#
# Indices 1 2 3 4 5 6 
#
# 1 0.020148 -0.004562 -0.006208 0.000001 0.000130 0.000000
# 2 -0.004562 0.010218 -0.002771 0.000000 -0.003081 0.000000
# 3 -0.006208 -0.002771 0.013993 -0.000001 0.003954 -0.000001
# 4 0.000001 0.000000 -0.000001 0.029468 0.000000 -0.001246
# 5 0.000130 -0.003081 0.003954 0.000000 0.024342 0.000000
# 6 0.000000 0.000000 -0.000001 -0.001246 0.000000 0.036797
#
#
# Mechanical properties :
#
#
# Convention : Reuss Voigt Hill
#
# Bulk Modulus (GPa) = 57.87715 61.72909 59.80312
# Shear Modulus (GPa) = 29.79624 32.96903 31.38264
#
# Velocity S-wave (km/s) = 3.88020 4.08156 3.98215
# Velocity P-wave (km/s) = 7.02280 7.30778 7.16671
#
# Compressibility (1/GPa) = 0.01727798
#
# Stress axis : x y z
#
# Youngs Moduli (GPa) = 49.63170 97.86978 71.46270
#
# Poissons Ratio (x) = 0.44649 0.44361
# Poissons Ratio (y) = 0.22642 0.19802
# Poissons Ratio (z) = 0.30809 0.27120
#
# Static dielectric constant tensor:
#      x y z
#    x 3.647760 0.000000 -0.292220 
#    y 0.000000 3.677540 0.000000 
#    z -0.292220 0.000000 3.925700 
# 
# 
# High freq. dielectric constant tensor:
#      x y z
#    x 1.753280 0.000000 -0.021740 
#    y 0.000000 1.774740 0.000000 
#    z -0.021740 0.000000 1.787560 
# 
# From -- ./inp_files/274731.got.cif
#   From: 2010.06.25/outbox.cif.g09.slc.cpg/sg15_138_cif.got.tgz:274731.got - 2010.06.28 07:06:18.
