data_PCOD8148316
_publ_section_title
;
Structure prediction by ZEFSAII (Michael W. Deem and Ramdas Pophale) SiO2 
 PCOD8148316
Probable space group: C 2/C
;
_chemical_formula_sum "Si O2"
_cell_formula_units_Z 48
_cell_length_a 21.324844
_cell_length_b 11.691618
_cell_length_c 10.394117
_cell_angle_alpha 90.000000
_cell_angle_beta 68.013392
_cell_angle_gamma 90.000000
_cell_volume 2403.006471
_symmetry_space_group_name_H-M "C 2/C"
_symmetry_group_IT_number 15
_symmetry_cell_setting 'monoclinic'
loop_
_space_group_symop_operation_xyz
x,y,z
-x,y,1/2-z
-x,-y,-z
x,-y,1/2+z
1/2+x,1/2+y,z
1/2-x,1/2+y,1/2-z
1/2-x,1/2-y,-z
1/2+x,1/2-y,1/2+z
loop_
_atom_site_type_symbol
_atom_site_label
_atom_site_fract_x
_atom_site_fract_y
_atom_site_fract_z
Si Si1 0.222301 0.552681 0.872501
Si Si2 0.405977 0.921004 0.498868
Si Si3 0.804517 0.993611 0.056073
Si Si4 0.518360 0.146390 0.098519
Si Si5 0.644939 0.273748 0.900130
Si Si6 0.670457 0.272488 0.584737
O O1 0.156679 0.480319 0.880489
O O2 0.275373 0.534189 0.718640
O O3 0.202813 0.685771 0.902220
O O4 0.246999 0.507277 0.991373
O O5 0.449650 0.854516 0.570332
O O6 0.377682 0.832912 0.415218
O O7 0.451721 0.019264 0.397900
O O8 0.848389 0.108682 0.025860
O O9 0.850570 0.885020 0.980796
O O10 0.500000 0.201153 0.250000
O O11 0.570564 0.225909 0.982784
O O12 0.656373 0.299987 0.742735
O O13 0.750000 0.250000 0.500000
#
# Coordination Sequence:
#
# PCOD8148316 Si02
#       6
#     8   8   8   8   8   8
#     4  11  22  37  66  97 133 166 210 270 323 386
#     4  10  23  40  67  96 129 167 214 267 322 372
#     4  12  23  40  62  99 135 167 210 262 333 393
#     4  10  25  42  66  94 127 169 223 268 308 372
#     4  11  24  41  63  94 129 173 216 260 322 389
#     4  12  22  41  65  97 135 165 208 262 339 392
#
# _framework density 19.974978
#
# number of rings (size 3 to 8) (size 9 to 14) (size 15 to 20)
#    0.000    1.000    5.000    0.500   11.667    1.333 
#    0.000    0.833    0.000    0.000    0.000    0.000 
#    0.000    0.000    0.000    0.000    0.000    0.000 
#
# Total GULP energy -297615.435742 kJ/mol
# GULP energy per Si atom -12400.643156 kJ/mol
# Density = 1.992951 g / cm^3
# Si number density = 19.974978 Si / 1000 Ang^3
#
#
#
# Elastic Constant Matrix: (Units=GPa)
#
#
# Indices 1 2 3 4 5 6 
#
# 1 89.7467 36.1814 26.5500 0.0000 6.6748 0.0000
# 2 36.1814 121.3117 21.7292 0.0000 2.5025 0.0000
# 3 26.5500 21.7292 104.9956 0.0000 -1.7674 0.0000
# 4 0.0000 0.0000 0.0000 29.1545 0.0000 10.2132
# 5 6.6748 2.5025 -1.7674 0.0000 22.4091 0.0000
# 6 0.0000 0.0000 0.0000 10.2132 0.0000 24.7624
#
#
#
# Elastic Compliance Matrix: (Units=1/GPa)
#
#
# Indices 1 2 3 4 5 6 
#
# 1 0.013670 -0.003495 -0.002799 0.000000 -0.003902 0.000000
# 2 -0.003495 0.009481 -0.001080 0.000000 -0.000103 0.000000
# 3 -0.002799 -0.001080 0.010486 0.000000 0.001781 0.000000
# 4 0.000000 0.000000 0.000000 0.040093 0.000000 -0.016536
# 5 -0.003902 -0.000103 0.001781 0.000000 0.045939 0.000000
# 6 0.000000 0.000000 0.000000 -0.016536 0.000000 0.047204
#
#
# Mechanical properties :
#
#
# Convention : Reuss Voigt Hill
#
# Bulk Modulus (GPa) = 52.94365 53.88615 53.41490
# Shear Modulus (GPa) = 26.60746 30.70475 28.65611
#
# Velocity S-wave (km/s) = 3.65367 3.92492 3.79172
# Velocity P-wave (km/s) = 6.66045 6.89749 6.78001
#
# Compressibility (1/GPa) = 0.01888801
#
# Stress axis : x y z
#
# Youngs Moduli (GPa) = 73.15386 105.47114 95.36974
#
# Poissons Ratio (x) = 0.36864 0.26694
# Poissons Ratio (y) = 0.25569 0.10301
# Poissons Ratio (z) = 0.20476 0.11392
#
# Static dielectric constant tensor:
#      x y z
#    x 3.576810 0.000000 0.003030 
#    y 0.000000 3.939790 0.000000 
#    z 0.003030 0.000000 3.620310 
# 
# 
# High freq. dielectric constant tensor:
#      x y z
#    x 1.760970 0.000000 0.006050 
#    y 0.000000 1.786650 0.000000 
#    z 0.006050 0.000000 1.781790 
# 
# From -- ./inp_files/60836.got.cif
#   From: 2010.06.25/outbox.cif.g09.slc.cpg/sg15_31_cif.got.tgz:60836.got - 2010.06.28 07:06:18.
