data_PCOD8148918
_publ_section_title
;
Structure prediction by ZEFSAII (Michael W. Deem and Ramdas Pophale) SiO2 
 PCOD8148918
Probable space group: C 2/C
;
_chemical_formula_sum "Si O2"
_cell_formula_units_Z 40
_cell_length_a 11.648520
_cell_length_b 8.574049
_cell_length_c 18.200429
_cell_angle_alpha 90.000000
_cell_angle_beta 82.453212
_cell_angle_gamma 90.000000
_cell_volume 1802.021899
_symmetry_space_group_name_H-M "C 2/C"
_symmetry_group_IT_number 15
_symmetry_cell_setting 'monoclinic'
loop_
_space_group_symop_operation_xyz
x,y,z
-x,y,1/2-z
-x,-y,-z
x,-y,1/2+z
1/2+x,1/2+y,z
1/2-x,1/2+y,1/2-z
1/2-x,1/2-y,-z
1/2+x,1/2-y,1/2+z
loop_
_atom_site_type_symbol
_atom_site_label
_atom_site_fract_x
_atom_site_fract_y
_atom_site_fract_z
Si Si1 0.366926 0.036232 0.281934
Si Si2 0.532788 0.550898 0.331330
Si Si3 0.784828 0.684324 0.670292
Si Si4 0.782467 0.874977 0.097499
Si Si5 0.294008 0.542364 0.434346
O O1 0.500000 0.030222 0.250000
O O2 0.326831 0.213357 0.298065
O O3 0.289820 0.964892 0.222968
O O4 0.339508 0.932521 0.356836
O O5 0.500000 0.517565 0.250000
O O6 0.598724 0.715481 0.333785
O O7 0.613510 0.411926 0.354902
O O8 0.420307 0.561802 0.390300
O O9 0.767167 0.614762 0.590170
O O10 0.783293 0.691612 0.081761
O O11 0.802173 0.972332 0.021245
#
# Coordination Sequence:
#
# PCOD8148918 Si02
#       5
#     8   8   8   8   8
#     4  11  23  41  62  90 124 164 212 260 310 370
#     4  11  23  41  65  92 127 170 213 263 314 372
#     4  11  24  39  63  93 123 164 214 260 312 376
#     4  10  23  43  67  95 129 170 212 256 318 381
#     4  11  23  43  65  94 134 166 206 265 316 376
#
# _framework density 22.197289999999999
#
# number of rings (size 3 to 8) (size 9 to 14) (size 15 to 20)
#    0.000    1.200    0.000    7.200    0.000    8.800 
#    0.000   12.000    0.000    0.000    0.000    0.000 
#    0.000    0.000    0.000    0.000    0.000    0.000 
#
# Total GULP energy -248054.140616 kJ/mol
# GULP energy per Si atom -12402.707031 kJ/mol
# Density = 2.214677 g / cm^3
# Si number density = 22.197290 Si / 1000 Ang^3
#
#
#
# Elastic Constant Matrix: (Units=GPa)
#
#
# Indices 1 2 3 4 5 6 
#
# 1 113.7999 33.7019 73.2388 0.0000 6.2172 0.0000
# 2 33.7019 77.2623 15.0014 0.0000 23.6128 0.0000
# 3 73.2388 15.0014 133.3713 0.0000 2.2265 0.0000
# 4 0.0000 0.0000 0.0000 -131.4278 0.0000 -54.9658
# 5 6.2172 23.6128 2.2265 0.0000 36.1002 0.0000
# 6 0.0000 0.0000 0.0000 -54.9658 0.0000 5.1046
#
#
#
# Elastic Compliance Matrix: (Units=1/GPa)
#
#
# Indices 1 2 3 4 5 6 
#
# 1 0.015452 -0.005683 -0.007872 0.000000 0.001541 0.000000
# 2 -0.005683 0.018635 0.001213 0.000000 -0.011285 0.000000
# 3 -0.007872 0.001213 0.011687 0.000000 -0.000159 0.000000
# 4 0.000000 0.000000 0.000000 -0.001383 0.000000 -0.014887
# 5 0.001541 -0.011285 -0.000159 0.000000 0.034827 0.000000
# 6 0.000000 0.000000 0.000000 -0.014887 0.000000 0.035597
#
#
# Mechanical properties :
#
#
# Convention : Reuss Voigt Hill
#
# Bulk Modulus (GPa) = 47.41419 63.14641 55.28030
# Shear Modulus (GPa) = 34.12287 -4.54517 14.78885
#
# Velocity S-wave (km/s) = 3.92504 -1.43250 2.58397
# Velocity P-wave (km/s) = 6.47672 5.07676 5.81900
#
# Compressibility (1/GPa) = 0.02109073
#
# Stress axis : x y z
#
# Youngs Moduli (GPa) = 64.71512 53.66153 85.56645
#
# Poissons Ratio (x) = 0.30496 0.67357
# Poissons Ratio (y) = 0.36778 -0.10380
# Poissons Ratio (z) = 0.50943 -0.06509
#
# Static dielectric constant tensor:
#      x y z
#    x 3.927260 0.000000 -0.017080 
#    y 0.000000 4.034720 0.000000 
#    z -0.017080 0.000000 4.267970 
# 
# 
# High freq. dielectric constant tensor:
#      x y z
#    x 1.870410 0.000000 -0.003570 
#    y 0.000000 1.881480 0.000000 
#    z -0.003570 0.000000 1.884200 
# 
# From -- ./inp_files/195070.got.cif
#   From: 2010.06.25/outbox.cif.g09.slc.cpg/sg15_98_cif.got.tgz:195070.got - 2010.06.28 07:06:18.
