data_PCOD8148148
_publ_section_title
;
Structure prediction by ZEFSAII (Michael W. Deem and Ramdas Pophale) SiO2 
 PCOD8148148
Probable space group: C 2/C
;
_chemical_formula_sum "Si O2"
_cell_formula_units_Z 60
_cell_length_a 21.644951
_cell_length_b 5.414636
_cell_length_c 25.252997
_cell_angle_alpha 90.000000
_cell_angle_beta 110.599835
_cell_angle_gamma 90.000000
_cell_volume 2770.401684
_symmetry_space_group_name_H-M "C 2/C"
_symmetry_group_IT_number 15
_symmetry_cell_setting 'monoclinic'
loop_
_space_group_symop_operation_xyz
x,y,z
-x,y,1/2-z
-x,-y,-z
x,-y,1/2+z
1/2+x,1/2+y,z
1/2-x,1/2+y,1/2-z
1/2-x,1/2-y,-z
1/2+x,1/2-y,1/2+z
loop_
_atom_site_type_symbol
_atom_site_label
_atom_site_fract_x
_atom_site_fract_y
_atom_site_fract_z
Si Si1 0.251532 0.783293 0.664802
Si Si2 0.500000 0.626053 0.750000
Si Si3 0.041814 0.748562 0.006154
Si Si4 0.870248 0.925164 0.378982
Si Si5 0.555290 0.717369 0.177026
Si Si6 0.883183 0.771116 0.142637
Si Si7 0.826045 0.553348 0.286614
Si Si8 0.918410 0.291647 0.099375
O O1 0.196734 0.950679 0.617921
O O2 0.276661 0.934210 0.723053
O O3 0.311661 0.697726 0.647094
O O4 0.213090 0.544978 0.674056
O O5 0.459537 0.473233 0.780947
O O6 0.557740 0.782073 0.797107
O O7 0.098534 0.743536 0.068347
O O8 0.081145 0.742774 0.963245
O O9 0.000000 0.500000 0.000000
O O10 0.000000 0.000000 0.000000
O O11 0.855079 0.808343 0.316629
O O12 0.925924 0.117031 0.376146
O O13 0.613472 0.888706 0.215969
O O14 0.489491 0.869404 0.144076
O O15 0.875121 0.531847 0.101942
O O16 0.895178 0.029410 0.116245
#
# Coordination Sequence:
#
# PCOD8148148 Si02
#       8
#     8   4   8   8   8   8   8   8
#     4  11  25  41  65  97 140 188 226 281 339 415
#     4  10  24  38  64  96 138 180 220 272 346 424
#     4  12  25  46  76 104 135 176 230 297 347 398
#     4  11  24  43  69  99 133 178 234 286 343 406
#     4  10  23  39  63 101 132 175 221 282 343 413
#     4  11  27  43  66  96 142 184 222 276 344 413
#     4  11  23  40  66  97 138 178 234 279 336 409
#     4  11  25  45  67 101 138 172 227 286 343 407
#
# _framework density 21.657509000000001
#
# number of rings (size 3 to 8) (size 9 to 14) (size 15 to 20)
#    0.000    1.067    2.667    2.400   16.800    0.533 
#    0.000    1.333    0.000    0.000    0.000    0.000 
#    0.000    0.000    0.000    0.000    0.000    0.000 
#
# Total GULP energy -371817.596068 kJ/mol
# GULP energy per Si atom -12393.919869 kJ/mol
# Density = 2.160822 g / cm^3
# Si number density = 21.657509 Si / 1000 Ang^3
#
#
#
# Elastic Constant Matrix: (Units=GPa)
#
#
# Indices 1 2 3 4 5 6 
#
# 1 125.5285 36.8814 36.6854 -0.0001 -17.2543 0.0001
# 2 36.8814 102.6035 22.4045 0.0004 -7.9119 -0.0001
# 3 36.6854 22.4045 88.9550 -0.0003 -9.0672 0.0001
# 4 -0.0001 0.0004 -0.0003 26.8010 -0.0001 -2.0630
# 5 -17.2543 -7.9119 -9.0672 -0.0001 31.4418 -0.0001
# 6 0.0001 -0.0001 0.0001 -2.0630 -0.0001 23.0200
#
#
#
# Elastic Compliance Matrix: (Units=1/GPa)
#
#
# Indices 1 2 3 4 5 6 
#
# 1 0.010223 -0.002680 -0.003130 0.000000 0.004033 0.000000
# 2 -0.002680 0.011128 -0.001609 0.000000 0.000865 0.000000
# 3 -0.003130 -0.001609 0.013107 0.000000 0.001657 0.000000
# 4 0.000000 0.000000 0.000000 0.037571 0.000000 0.003367
# 5 0.004033 0.000865 0.001657 0.000000 0.034714 0.000000
# 6 0.000000 0.000000 0.000000 0.003367 0.000000 0.043742
#
#
# Mechanical properties :
#
#
# Convention : Reuss Voigt Hill
#
# Bulk Modulus (GPa) = 50.97147 56.55886 53.76517
# Shear Modulus (GPa) = 29.09309 30.99362 30.04335
#
# Velocity S-wave (km/s) = 3.66912 3.78707 3.72856
# Velocity P-wave (km/s) = 6.44486 6.73010 6.58903
#
# Compressibility (1/GPa) = 0.01961882
#
# Stress axis : x y z
#
# Youngs Moduli (GPa) = 97.82043 89.86525 76.29756
#
# Poissons Ratio (x) = 0.24086 0.23880
# Poissons Ratio (y) = 0.26218 0.12277
# Poissons Ratio (z) = 0.30616 0.14461
#
# Static dielectric constant tensor:
#      x y z
#    x 4.031010 0.000000 0.025560 
#    y 0.000000 3.848490 0.000000 
#    z 0.025560 0.000000 3.876510 
# 
# 
# High freq. dielectric constant tensor:
#      x y z
#    x 1.860430 0.000000 -0.005820 
#    y 0.000000 1.853630 0.000000 
#    z -0.005820 0.000000 1.835210 
# 
# From -- ./inp_files/278953.got.cif
#   From: 2010.06.25/outbox.cif.g09.slc.cpg/sg15_140_cif.got.tgz:278953.got - 2010.06.28 07:06:18.
