data_PCOD8148328
_publ_section_title
;
Structure prediction by ZEFSAII (Michael W. Deem and Ramdas Pophale) SiO2 
 PCOD8148328
Probable space group: C 2/C
;
_chemical_formula_sum "Si O2"
_cell_formula_units_Z 48
_cell_length_a 14.340979
_cell_length_b 25.739076
_cell_length_c 9.401811
_cell_angle_alpha 90.000000
_cell_angle_beta 37.873241
_cell_angle_gamma 90.000000
_cell_volume 2130.554504
_symmetry_space_group_name_H-M "C 2/C"
_symmetry_group_IT_number 15
_symmetry_cell_setting 'monoclinic'
loop_
_space_group_symop_operation_xyz
x,y,z
-x,y,1/2-z
-x,-y,-z
x,-y,1/2+z
1/2+x,1/2+y,z
1/2-x,1/2+y,1/2-z
1/2-x,1/2-y,-z
1/2+x,1/2-y,1/2+z
loop_
_atom_site_type_symbol
_atom_site_label
_atom_site_fract_x
_atom_site_fract_y
_atom_site_fract_z
Si Si1 0.811396 0.606540 0.778899
Si Si2 0.398999 0.325032 0.575925
Si Si3 0.299633 0.062264 0.495277
Si Si4 0.000000 0.261628 0.750000
Si Si5 0.910247 0.347767 0.665536
Si Si6 0.000000 0.531875 0.750000
Si Si7 0.500000 0.409802 0.250000
Si Si8 0.500000 0.651210 0.250000
O O1 0.752418 0.588938 0.697787
O O2 0.926265 0.655297 0.611163
O O3 0.925424 0.565840 0.716291
O O4 0.657553 0.618354 0.051265
O O5 0.408237 0.272744 0.473191
O O6 0.223182 0.343903 0.791159
O O7 0.494197 0.371939 0.393321
O O8 0.471606 0.313847 0.644099
O O9 0.405199 0.098353 0.264725
O O10 0.144989 0.053114 0.592391
O O11 0.367674 0.007012 0.460084
O O12 0.885227 0.299455 0.802930
#
# Coordination Sequence:
#
# PCOD8148328 Si02
#       8
#     8   8   8   4   8   4   4   4
#     4  12  24  44  65  95 138 179 220 276 342 402
#     4  10  23  40  69 102 135 176 222 272 332 403
#     4  11  21  42  70  98 128 176 228 284 321 400
#     4  11  21  42  76 107 128 169 236 280 315 401
#     4  11  22  43  73  99 128 178 229 278 329 389
#     4  12  25  40  68 102 130 174 228 286 339 392
#     4   9  20  41  67  96 134 176 227 269 330 391
#     4  12  26  47  63  99 146 183 205 279 358 394
#
# _framework density 22.529346
#
# number of rings (size 3 to 8) (size 9 to 14) (size 15 to 20)
#    0.000    1.000    5.000    2.000    0.000    2.000 
#    0.000    5.833    0.000    0.000    0.000    0.000 
#    0.000    0.000    0.000    0.000    0.000    0.000 
#
# Total GULP energy -297323.908589 kJ/mol
# GULP energy per Si atom -12388.496191 kJ/mol
# Density = 2.247807 g / cm^3
# Si number density = 22.529346 Si / 1000 Ang^3
#
#
#
# Elastic Constant Matrix: (Units=GPa)
#
#
# Indices 1 2 3 4 5 6 
#
# 1 158.0193 48.7191 53.2070 0.0000 -7.0896 0.0000
# 2 48.7191 90.8233 35.3501 0.0000 -8.4884 0.0000
# 3 53.2070 35.3501 117.3789 0.0000 -16.6652 0.0000
# 4 0.0000 0.0000 0.0000 14.3833 0.0000 0.8427
# 5 -7.0896 -8.4884 -16.6652 0.0000 37.4555 0.0000
# 6 0.0000 0.0000 0.0000 0.8427 0.0000 19.2299
#
#
#
# Elastic Compliance Matrix: (Units=1/GPa)
#
#
# Indices 1 2 3 4 5 6 
#
# 1 0.008301 -0.003404 -0.002801 0.000000 -0.000447 0.000000
# 2 -0.003404 0.013922 -0.002448 0.000000 0.001422 0.000000
# 3 -0.002801 -0.002448 0.011072 0.000000 0.003841 0.000000
# 4 0.000000 0.000000 0.000000 0.069704 0.000000 -0.003055
# 5 -0.000447 0.001422 0.003841 0.000000 0.028645 0.000000
# 6 0.000000 0.000000 0.000000 -0.003055 0.000000 0.052136
#
#
# Mechanical properties :
#
#
# Convention : Reuss Voigt Hill
#
# Bulk Modulus (GPa) = 62.54466 71.19712 66.87089
# Shear Modulus (GPa) = 24.22295 29.47676 26.84985
#
# Velocity S-wave (km/s) = 3.28254 3.62107 3.45595
# Velocity P-wave (km/s) = 6.49526 7.01095 6.75803
#
# Compressibility (1/GPa) = 0.01598858
#
# Stress axis : x y z
#
# Youngs Moduli (GPa) = 120.46728 71.82801 90.32106
#
# Poissons Ratio (x) = 0.24453 0.25298
# Poissons Ratio (y) = 0.41011 0.22109
# Poissons Ratio (z) = 0.33742 0.17582
#
# Static dielectric constant tensor:
#      x y z
#    x 4.231100 0.000000 -0.084870 
#    y 0.000000 3.811720 0.000000 
#    z -0.084870 0.000000 3.959150 
# 
# 
# High freq. dielectric constant tensor:
#      x y z
#    x 1.917900 0.000000 -0.011290 
#    y 0.000000 1.855670 0.000000 
#    z -0.011290 0.000000 1.875260 
# 
# From -- ./inp_files/43893.got.cif
#   From: 2010.06.25/outbox.cif.g09.slc.cpg/sg15_22_cif.got.tgz:43893.got - 2010.06.28 07:06:18.
