data_PCOD8148531
_publ_section_title
;
Structure prediction by ZEFSAII (Michael W. Deem and Ramdas Pophale) SiO2 
 PCOD8148531
Probable space group: C 2/C
;
_chemical_formula_sum "Si O2"
_cell_formula_units_Z 64
_cell_length_a 13.928478
_cell_length_b 12.660139
_cell_length_c 25.321817
_cell_angle_alpha 90.000000
_cell_angle_beta 136.735929
_cell_angle_gamma 90.000000
_cell_volume 3060.250141
_symmetry_space_group_name_H-M "C 2/C"
_symmetry_group_IT_number 15
_symmetry_cell_setting 'monoclinic'
loop_
_space_group_symop_operation_xyz
x,y,z
-x,y,1/2-z
-x,-y,-z
x,-y,1/2+z
1/2+x,1/2+y,z
1/2-x,1/2+y,1/2-z
1/2-x,1/2-y,-z
1/2+x,1/2-y,1/2+z
loop_
_atom_site_type_symbol
_atom_site_label
_atom_site_fract_x
_atom_site_fract_y
_atom_site_fract_z
Si Si1 0.338460 0.321300 0.824096
Si Si2 0.633227 0.560754 0.270008
Si Si3 0.396168 0.801993 0.573719
Si Si4 0.286007 0.029507 0.690638
Si Si5 0.078068 0.483071 0.362783
Si Si6 0.108336 0.697250 0.959436
Si Si7 0.626187 0.344847 0.208339
Si Si8 0.917809 0.403282 0.942548
O O1 0.342862 0.351300 0.764502
O O2 0.301216 0.420884 0.845946
O O3 0.487381 0.281622 0.902655
O O4 0.224475 0.228810 0.783750
O O5 0.500000 0.599152 0.250000
O O6 0.594163 0.448985 0.228812
O O7 0.775526 0.552184 0.360167
O O8 0.250000 0.750000 0.500000
O O9 0.365791 0.901517 0.599357
O O10 0.480639 0.713329 0.639487
O O11 0.485299 0.840597 0.559485
O O12 0.329123 0.061847 0.648538
O O13 0.417608 0.007200 0.781200
O O14 0.197549 0.124884 0.680681
O O15 0.083676 0.408213 0.415664
O O16 0.250000 0.750000 0.000000
O O17 0.121585 0.675181 0.026459
O O18 0.000000 0.500000 0.000000
#
# Coordination Sequence:
#
# PCOD8148531 Si02
#       8
#     8   8   8   8   8   8   8   8
#     4  11  22  44  68  97 132 178 232 272 337 409
#     4  11  25  42  71 104 134 174 238 288 329 413
#     4  12  27  44  67 100 140 181 225 277 346 413
#     4  10  23  41  71  96 132 171 228 284 327 392
#     4  11  23  45  64 100 135 172 221 280 335 403
#     4  12  27  43  71 103 140 177 223 280 353 414
#     4  11  22  43  69  98 130 178 231 276 333 401
#     4  12  25  47  70  97 146 183 219 288 357 397
#
# _framework density 20.913323999999999
#
# number of rings (size 3 to 8) (size 9 to 14) (size 15 to 20)
#    0.000    0.750    5.000    2.250    5.250    4.000 
#    0.000    1.250    0.000    0.000    0.000    0.000 
#    0.000    0.000    0.000    0.000    0.000    0.000 
#
# Total GULP energy -396979.652650 kJ/mol
# GULP energy per Si atom -12405.614145 kJ/mol
# Density = 2.086572 g / cm^3
# Si number density = 20.913324 Si / 1000 Ang^3
#
#
#
# Elastic Constant Matrix: (Units=GPa)
#
#
# Indices 1 2 3 4 5 6 
#
# 1 83.3548 5.1859 37.2816 0.0000 3.7825 0.0000
# 2 5.1859 79.5401 32.2981 0.0000 8.7359 0.0000
# 3 37.2816 32.2981 111.8206 0.0000 12.5616 0.0000
# 4 0.0000 0.0000 0.0000 26.5208 0.0000 -2.8234
# 5 3.7825 8.7359 12.5616 0.0000 41.7957 0.0000
# 6 0.0000 0.0000 0.0000 -2.8234 0.0000 20.4840
#
#
#
# Elastic Compliance Matrix: (Units=1/GPa)
#
#
# Indices 1 2 3 4 5 6 
#
# 1 0.014188 0.001128 -0.005056 0.000000 0.000000 0.000000
# 2 0.001128 0.014465 -0.004350 0.000000 -0.001818 0.000000
# 3 -0.005056 -0.004350 0.012141 0.000000 -0.002282 0.000000
# 4 0.000000 0.000000 0.000000 0.038268 0.000000 0.005275
# 5 0.000000 -0.001818 -0.002282 0.000000 0.024992 0.000000
# 6 0.000000 0.000000 0.000000 0.005275 0.000000 0.049546
#
#
# Mechanical properties :
#
#
# Convention : Reuss Voigt Hill
#
# Bulk Modulus (GPa) = 41.25684 47.13854 44.19769
# Shear Modulus (GPa) = 28.05283 31.09009 29.57146
#
# Velocity S-wave (km/s) = 3.66647 3.85985 3.76440
# Velocity P-wave (km/s) = 6.13957 6.51563 6.33040
#
# Compressibility (1/GPa) = 0.02423841
#
# Stress axis : x y z
#
# Youngs Moduli (GPa) = 70.48108 69.13384 82.36234
#
# Poissons Ratio (x) = -0.07799 0.41644
# Poissons Ratio (y) = -0.07951 0.35826
# Poissons Ratio (z) = 0.35637 0.30072
#
# Static dielectric constant tensor:
#      x y z
#    x 3.952970 0.000000 -0.144610 
#    y 0.000000 4.055490 0.000000 
#    z -0.144610 0.000000 3.995100 
# 
# 
# High freq. dielectric constant tensor:
#      x y z
#    x 1.828330 0.000000 0.001090 
#    y 0.000000 1.830450 0.000000 
#    z 0.001090 0.000000 1.820100 
# 
# From -- ./inp_files/296176.got.cif
#   From: 2010.06.25/outbox.cif.g09.slc.cpg/sg15_149_cif.got.tgz:296176.got - 2010.06.28 07:06:18.
