data_PCOD8148130
_publ_section_title
;
Structure prediction by ZEFSAII (Michael W. Deem and Ramdas Pophale) SiO2 
 PCOD8148130
Probable space group: C 2/C
;
_chemical_formula_sum "Si O2"
_cell_formula_units_Z 64
_cell_length_a 29.346349
_cell_length_b 14.355069
_cell_length_c 8.724385
_cell_angle_alpha 90.000000
_cell_angle_beta 122.781172
_cell_angle_gamma 90.000000
_cell_volume 3089.998406
_symmetry_space_group_name_H-M "C 2/C"
_symmetry_group_IT_number 15
_symmetry_cell_setting 'monoclinic'
loop_
_space_group_symop_operation_xyz
x,y,z
-x,y,1/2-z
-x,-y,-z
x,-y,1/2+z
1/2+x,1/2+y,z
1/2-x,1/2+y,1/2-z
1/2-x,1/2-y,-z
1/2+x,1/2-y,1/2+z
loop_
_atom_site_type_symbol
_atom_site_label
_atom_site_fract_x
_atom_site_fract_y
_atom_site_fract_z
Si Si1 0.423856 0.227787 0.477369
Si Si2 0.754133 0.148785 0.439671
Si Si3 0.608568 0.594538 0.107371
Si Si4 0.860452 0.433843 0.717463
Si Si5 0.953476 0.250738 0.377086
Si Si6 0.792706 0.782384 0.701653
Si Si7 0.871212 0.900451 0.213518
Si Si8 0.626096 0.877299 0.094962
O O1 0.394795 0.129486 0.396146
O O2 0.483667 0.225802 0.516291
O O3 0.424551 0.242979 0.659874
O O4 0.389728 0.307554 0.332405
O O5 0.750000 0.250000 0.500000
O O6 0.702945 0.087534 0.389094
O O7 0.759153 0.160899 0.266710
O O8 0.806212 0.095250 0.601749
O O9 0.554950 0.645852 0.074331
O O10 0.660770 0.647606 0.276655
O O11 0.605160 0.488352 0.153621
O O12 0.608437 0.601210 0.923717
O O13 0.883949 0.419555 0.590574
O O14 0.865590 0.541592 0.767367
O O15 0.926888 0.321196 0.449711
O O16 0.750000 0.750000 0.500000
O O17 0.821819 0.690340 0.821381
#
# Coordination Sequence:
#
# PCOD8148130 Si02
#       8
#     8   8   8   8   8   8   8   8
#     4  11  23  43  70  91 122 165 206 265 325 368
#     4  11  22  40  61  91 130 166 209 251 306 371
#     4  10  23  40  61  94 128 163 213 253 311 374
#     4  12  25  41  65  95 128 169 211 258 311 373
#     4  10  24  45  66  93 123 161 212 264 318 379
#     4  10  23  39  60  90 126 172 207 254 309 363
#     4  11  23  40  64  95 129 168 207 258 310 374
#     4  11  25  42  62  93 128 164 214 257 310 373
#
# _framework density 20.711986
#
# number of rings (size 3 to 8) (size 9 to 14) (size 15 to 20)
#    0.000    1.250    2.500    3.000    7.000    5.000 
#    0.000    0.000    0.000    0.000    0.000    0.000 
#    0.000    0.000    0.000    0.000    0.000    0.000 
#
# Total GULP energy -396919.264760 kJ/mol
# GULP energy per Si atom -12403.727024 kJ/mol
# Density = 2.066484 g / cm^3
# Si number density = 20.711986 Si / 1000 Ang^3
#
#
#
# Elastic Constant Matrix: (Units=GPa)
#
#
# Indices 1 2 3 4 5 6 
#
# 1 107.0967 19.5235 28.6902 0.0000 -6.0682 0.0000
# 2 19.5235 88.9885 8.6736 0.0000 -2.8302 0.0000
# 3 28.6902 8.6736 79.9059 0.0000 -2.0954 0.0000
# 4 0.0000 0.0000 0.0000 20.6534 0.0000 -12.3122
# 5 -6.0682 -2.8302 -2.0954 0.0000 27.6916 0.0000
# 6 0.0000 0.0000 0.0000 -12.3122 0.0000 23.4005
#
#
#
# Elastic Compliance Matrix: (Units=1/GPa)
#
#
# Indices 1 2 3 4 5 6 
#
# 1 0.010765 -0.001951 -0.003604 0.000000 0.001887 0.000000
# 2 -0.001951 0.011743 -0.000555 0.000000 0.000731 0.000000
# 3 -0.003604 -0.000555 0.013874 0.000000 0.000203 0.000000
# 4 0.000000 0.000000 0.000000 0.070545 0.000000 0.037117
# 5 0.001887 0.000731 0.000203 0.000000 0.036616 0.000000
# 6 0.000000 0.000000 0.000000 0.037117 0.000000 0.062263
#
#
# Mechanical properties :
#
#
# Convention : Reuss Voigt Hill
#
# Bulk Modulus (GPa) = 41.38583 43.30730 42.34656
# Shear Modulus (GPa) = 22.11602 28.95602 25.53602
#
# Velocity S-wave (km/s) = 3.27125 3.74308 3.51509
# Velocity P-wave (km/s) = 5.85603 6.29568 6.07983
#
# Compressibility (1/GPa) = 0.02416286
#
# Stress axis : x y z
#
# Youngs Moduli (GPa) = 92.89053 85.15931 72.07539
#
# Poissons Ratio (x) = 0.16611 0.25977
# Poissons Ratio (y) = 0.18119 0.04001
# Poissons Ratio (z) = 0.33479 0.04728
#
# Static dielectric constant tensor:
#      x y z
#    x 3.531340 0.000000 -0.243550 
#    y 0.000000 3.494570 0.000000 
#    z -0.243550 0.000000 3.641440 
# 
# 
# High freq. dielectric constant tensor:
#      x y z
#    x 1.821340 0.000000 -0.008330 
#    y 0.000000 1.816940 0.000000 
#    z -0.008330 0.000000 1.807510 
# 
# From -- ./inp_files/70175.got.cif
#   From: 2010.06.25/outbox.cif.g09.slc.cpg/sg15_36_cif.got.tgz:70175.got - 2010.06.28 07:06:18.
