data_PCOD8148715
_publ_section_title
;
Structure prediction by ZEFSAII (Michael W. Deem and Ramdas Pophale) SiO2 
 PCOD8148715
Probable space group: C 2/C
;
_chemical_formula_sum "Si O2"
_cell_formula_units_Z 40
_cell_length_a 7.918181
_cell_length_b 22.111193
_cell_length_c 13.860536
_cell_angle_alpha 90.000000
_cell_angle_beta 132.502787
_cell_angle_gamma 90.000000
_cell_volume 1789.077489
_symmetry_space_group_name_H-M "C 2/C"
_symmetry_group_IT_number 15
_symmetry_cell_setting 'monoclinic'
loop_
_space_group_symop_operation_xyz
x,y,z
-x,y,1/2-z
-x,-y,-z
x,-y,1/2+z
1/2+x,1/2+y,z
1/2-x,1/2+y,1/2-z
1/2-x,1/2-y,-z
1/2+x,1/2-y,1/2+z
loop_
_atom_site_type_symbol
_atom_site_label
_atom_site_fract_x
_atom_site_fract_y
_atom_site_fract_z
Si Si1 0.241142 0.775345 0.889082
Si Si2 0.949305 0.949962 0.866897
Si Si3 0.949420 0.209422 0.622211
Si Si4 0.652862 0.572361 0.955713
Si Si5 0.861142 0.406278 0.922987
O O1 0.326216 0.721799 0.853781
O O2 0.406771 0.834196 0.948512
O O3 0.000000 0.795642 0.750000
O O4 0.250000 0.750000 0.000000
O O5 0.215094 0.926695 0.961127
O O6 0.791785 0.918624 0.728955
O O7 0.964244 0.022332 0.851992
O O8 0.833885 0.932389 0.923392
O O9 0.750000 0.250000 0.500000
O O10 0.918471 0.137994 0.606518
O O11 0.000000 0.230976 0.750000
O O12 0.898152 0.558982 0.999091
#
# Coordination Sequence:
#
# PCOD8148715 Si02
#       5
#     8   8   8   8   8
#     4  12  25  45  71 105 144 188 240 295 362 429
#     4  10  23  42  68 103 134 182 229 292 349 429
#     4  12  27  44  71 104 143 186 239 296 355 428
#     4  11  24  44  67 102 141 176 241 284 355 420
#     4  11  22  42  74  93 139 182 232 285 360 421
#
# _framework density 22.357890000000001
#
# number of rings (size 3 to 8) (size 9 to 14) (size 15 to 20)
#    0.000    0.800    4.000    3.600    5.600    0.000 
#    0.000    2.000    0.000    0.000    0.000    0.000 
#    0.000    0.000    0.000    0.000    0.000    0.000 
#
# Total GULP energy -247913.072343 kJ/mol
# GULP energy per Si atom -12395.653617 kJ/mol
# Density = 2.230700 g / cm^3
# Si number density = 22.357890 Si / 1000 Ang^3
#
#
#
# Elastic Constant Matrix: (Units=GPa)
#
#
# Indices 1 2 3 4 5 6 
#
# 1 124.2923 29.6187 23.4030 0.0000 -13.0141 0.0000
# 2 29.6187 115.5338 38.9124 0.0000 -7.3106 0.0000
# 3 23.4030 38.9124 90.5379 0.0000 -22.5566 0.0000
# 4 0.0000 0.0000 0.0000 28.8189 0.0000 -3.7053
# 5 -13.0141 -7.3106 -22.5566 0.0000 33.5116 0.0000
# 6 0.0000 0.0000 0.0000 -3.7053 0.0000 41.4583
#
#
#
# Elastic Compliance Matrix: (Units=1/GPa)
#
#
# Indices 1 2 3 4 5 6 
#
# 1 0.008907 -0.001822 -0.000909 0.000000 0.002450 0.000000
# 2 -0.001822 0.010514 -0.004389 0.000000 -0.001368 0.000000
# 3 -0.000909 -0.004389 0.015427 0.000000 0.009073 0.000000
# 4 0.000000 0.000000 0.000000 0.035103 0.000000 0.003137
# 5 0.002450 -0.001368 0.009073 0.000000 0.036601 0.000000
# 6 0.000000 0.000000 0.000000 0.003137 0.000000 0.024401
#
#
# Mechanical properties :
#
#
# Convention : Reuss Voigt Hill
#
# Bulk Modulus (GPa) = 48.52351 57.13689 52.83020
# Shear Modulus (GPa) = 32.88121 36.65308 34.76715
#
# Velocity S-wave (km/s) = 3.83910 4.05332 3.94766
# Velocity P-wave (km/s) = 6.43442 6.89325 6.66778
#
# Compressibility (1/GPa) = 0.02060857
#
# Stress axis : x y z
#
# Youngs Moduli (GPa) = 112.26523 95.10902 64.82227
#
# Poissons Ratio (x) = 0.17333 0.05891
# Poissons Ratio (y) = 0.20460 0.28449
# Poissons Ratio (z) = 0.10203 0.41740
#
# Static dielectric constant tensor:
#      x y z
#    x 4.582910 0.000000 -0.069460 
#    y 0.000000 4.195290 0.000000 
#    z -0.069460 0.000000 3.718310 
# 
# 
# High freq. dielectric constant tensor:
#      x y z
#    x 1.900740 0.000000 -0.007520 
#    y 0.000000 1.897770 0.000000 
#    z -0.007520 0.000000 1.858360 
# 
# From -- ./inp_files/137026.got.cif
#   From: 2010.06.25/outbox.cif.g09.slc.cpg/sg15_69_cif.got.tgz:137026.got - 2010.06.28 07:06:18.
