data_PCOD8148548
_publ_section_title
;
Structure prediction by ZEFSAII (Michael W. Deem and Ramdas Pophale) SiO2 
 PCOD8148548
Probable space group: C 2/C
;
_chemical_formula_sum "Si O2"
_cell_formula_units_Z 32
_cell_length_a 20.407028
_cell_length_b 7.410526
_cell_length_c 13.737929
_cell_angle_alpha 90.000000
_cell_angle_beta 39.077907
_cell_angle_gamma 90.000000
_cell_volume 1309.634454
_symmetry_space_group_name_H-M "C 2/C"
_symmetry_group_IT_number 15
_symmetry_cell_setting 'monoclinic'
loop_
_space_group_symop_operation_xyz
x,y,z
-x,y,1/2-z
-x,-y,-z
x,-y,1/2+z
1/2+x,1/2+y,z
1/2-x,1/2+y,1/2-z
1/2-x,1/2-y,-z
1/2+x,1/2-y,1/2+z
loop_
_atom_site_type_symbol
_atom_site_label
_atom_site_fract_x
_atom_site_fract_y
_atom_site_fract_z
Si Si1 0.612642 0.513271 0.325908
Si Si2 0.315999 0.524319 0.466749
Si Si3 0.303818 0.209522 0.633366
Si Si4 0.384075 0.902173 0.421170
O O1 0.500000 0.500000 0.500000
O O2 0.607868 0.510887 0.214639
O O3 0.661802 0.705308 0.303568
O O4 0.682962 0.345529 0.280597
O O5 0.326756 0.350712 0.521204
O O6 0.355899 0.696488 0.482127
O O7 0.196436 0.537482 0.570451
O O8 0.368791 0.027886 0.534007
O O9 0.500000 0.925148 0.250000
#
# Coordination Sequence:
#
# PCOD8148548 Si02
#       4
#     8   8   8   8
#     4  11  27  45  75 107 142 192 243 301 355 439
#     4  10  25  48  66 102 149 181 238 297 358 428
#     4  11  27  46  70 105 149 182 240 299 362 424
#     4  10  23  41  74  98 131 194 232 287 357 427
#
# _framework density 24.4343
#
# number of rings (size 3 to 8) (size 9 to 14) (size 15 to 20)
#    0.000    1.500    0.000    3.000   21.000    0.000 
#    0.000    2.500    0.000    0.000    0.000    0.000 
#    0.000    0.000    0.000    0.000    0.000    0.000 
#
# Total GULP energy -198384.890326 kJ/mol
# GULP energy per Si atom -12399.055645 kJ/mol
# Density = 2.437869 g / cm^3
# Si number density = 24.434300 Si / 1000 Ang^3
#
#
#
# Elastic Constant Matrix: (Units=GPa)
#
#
# Indices 1 2 3 4 5 6 
#
# 1 33.0231 27.7599 42.8136 0.0008 10.8215 -0.0006
# 2 27.7599 150.7379 57.9866 0.0036 3.8604 -0.0043
# 3 42.8136 57.9866 186.5844 0.0012 -19.2218 -0.0006
# 4 0.0008 0.0036 0.0012 36.3532 -0.0010 10.6856
# 5 10.8215 3.8604 -19.2218 -0.0010 38.0074 0.0005
# 6 -0.0006 -0.0043 -0.0006 10.6856 0.0005 39.4589
#
#
#
# Elastic Compliance Matrix: (Units=1/GPa)
#
#
# Indices 1 2 3 4 5 6 
#
# 1 0.062720 -0.004966 -0.015441 -0.000001 -0.025162 0.000001
# 2 -0.004966 0.008084 -0.001384 -0.000001 -0.000107 0.000001
# 3 -0.015441 -0.001384 0.010339 0.000001 0.009765 -0.000001
# 4 -0.000001 -0.000001 0.000001 0.029887 0.000002 -0.008094
# 5 -0.025162 -0.000107 0.009765 0.000002 0.038424 -0.000001
# 6 0.000001 0.000001 -0.000001 -0.008094 -0.000001 0.027535
#
#
# Mechanical properties :
#
#
# Convention : Reuss Voigt Hill
#
# Bulk Modulus (GPa) = 26.62310 69.71841 48.17076
# Shear Modulus (GPa) = 21.45093 38.88291 30.16692
#
# Velocity S-wave (km/s) = 2.96616 3.99347 3.51752
# Velocity P-wave (km/s) = 4.75922 7.06107 6.02117
#
# Compressibility (1/GPa) = 0.03756137
#
# Stress axis : x y z
#
# Youngs Moduli (GPa) = 15.94377 123.70658 96.72569
#
# Poissons Ratio (x) = 0.61438 1.49350
# Poissons Ratio (y) = 0.07918 0.13383
# Poissons Ratio (z) = 0.24618 0.17117
#
# Static dielectric constant tensor:
#      x y z
#    x 4.370380 0.000000 0.001430 
#    y 0.000000 4.832160 0.000000 
#    z 0.001430 0.000000 4.406780 
# 
# 
# High freq. dielectric constant tensor:
#      x y z
#    x 1.950210 0.000000 0.005720 
#    y 0.000000 1.983640 0.000000 
#    z 0.005720 0.000000 1.987220 
# 
# From -- ./inp_files/165917.got.cif
#   From: 2010.06.25/outbox.cif.g09.slc.cpg/sg15_83_cif.got.tgz:165917.got - 2010.06.28 07:06:18.
