data_PCOD8148823
_publ_section_title
;
Structure prediction by ZEFSAII (Michael W. Deem and Ramdas Pophale) SiO2 
 PCOD8148823
Probable space group: C 2/C
;
_chemical_formula_sum "Si O2"
_cell_formula_units_Z 48
_cell_length_a 27.360409
_cell_length_b 7.377741
_cell_length_c 28.674460
_cell_angle_alpha 90.000000
_cell_angle_beta 154.796085
_cell_angle_gamma 90.000000
_cell_volume 2464.840553
_symmetry_space_group_name_H-M "C 2/C"
_symmetry_group_IT_number 15
_symmetry_cell_setting 'monoclinic'
loop_
_space_group_symop_operation_xyz
x,y,z
-x,y,1/2-z
-x,-y,-z
x,-y,1/2+z
1/2+x,1/2+y,z
1/2-x,1/2+y,1/2-z
1/2-x,1/2-y,-z
1/2+x,1/2-y,1/2+z
loop_
_atom_site_type_symbol
_atom_site_label
_atom_site_fract_x
_atom_site_fract_y
_atom_site_fract_z
Si Si1 0.044550 0.369193 0.178100
Si Si2 0.569354 0.551461 0.263576
Si Si3 0.314146 0.008677 0.951997
Si Si4 0.764421 0.848133 0.709053
Si Si5 0.903831 0.901656 0.387955
Si Si6 0.994635 0.237988 0.868567
O O1 0.053926 0.261273 0.235025
O O2 0.132901 0.285393 0.217427
O O3 0.073973 0.583640 0.209950
O O4 0.911844 0.354533 0.045465
O O5 0.500000 0.508191 0.250000
O O6 0.703752 0.514124 0.390327
O O7 0.520435 0.427120 0.179648
O O8 0.266148 0.989735 0.858169
O O9 0.370373 0.206895 0.009388
O O10 0.648970 0.746128 0.623136
O O11 0.804708 0.956903 0.789136
O O12 0.952483 0.812483 0.383322
O O13 0.000000 0.000000 0.500000
#
# Coordination Sequence:
#
# PCOD8148823 Si02
#       6
#     8   8   8   8   8   8
#     4   9  21  43  63  89 130 164 211 265 312 378
#     4  11  23  44  68  96 127 163 216 270 328 385
#     4   9  22  42  62  89 128 167 210 261 317 386
#     4  11  22  39  63  95 129 171 217 255 316 383
#     4  12  25  37  66  97 130 176 215 263 322 371
#     4  10  23  43  62  91 133 164 217 259 321 379
#
# _framework density 19.473876000000001
#
# number of rings (size 3 to 8) (size 9 to 14) (size 15 to 20)
#    1.000    0.667    3.333    2.000    2.333    4.000 
#    3.000    0.000    0.000    0.000    0.000    0.000 
#    0.000    0.000    0.000    0.000    0.000    0.000 
#
# Total GULP energy -297453.639689 kJ/mol
# GULP energy per Si atom -12393.901654 kJ/mol
# Density = 1.942955 g / cm^3
# Si number density = 19.473876 Si / 1000 Ang^3
#
#
#
# Elastic Constant Matrix: (Units=GPa)
#
#
# Indices 1 2 3 4 5 6 
#
# 1 134.8827 33.9395 40.1021 0.0005 15.9596 0.0008
# 2 33.9395 88.4139 28.0215 0.0032 3.7880 0.0053
# 3 40.1021 28.0215 101.1525 -0.0001 20.5170 0.0003
# 4 0.0005 0.0032 -0.0001 40.0808 0.0005 2.6235
# 5 15.9596 3.7880 20.5170 0.0005 20.9923 0.0008
# 6 0.0008 0.0053 0.0003 2.6235 0.0008 17.2353
#
#
#
# Elastic Compliance Matrix: (Units=1/GPa)
#
#
# Indices 1 2 3 4 5 6 
#
# 1 0.009229 -0.002721 -0.001973 0.000000 -0.004597 0.000001
# 2 -0.002721 0.013234 -0.003146 -0.000001 0.002756 -0.000004
# 3 -0.001973 -0.003146 0.013870 0.000000 -0.011489 0.000001
# 4 0.000000 -0.000001 0.000000 0.025201 -0.000001 -0.003836
# 5 -0.004597 0.002756 -0.011489 -0.000001 0.061863 -0.000003
# 6 0.000001 -0.000004 0.000001 -0.003836 -0.000003 0.058604
#
#
# Mechanical properties :
#
#
# Convention : Reuss Voigt Hill
#
# Bulk Modulus (GPa) = 48.41775 58.73059 53.57417
# Shear Modulus (GPa) = 24.44217 30.48742 27.46479
#
# Velocity S-wave (km/s) = 3.54662 3.96100 3.75952
# Velocity P-wave (km/s) = 6.45664 7.15147 6.81292
#
# Compressibility (1/GPa) = 0.02065358
#
# Stress axis : x y z
#
# Youngs Moduli (GPa) = 108.35579 75.56335 72.09807
#
# Poissons Ratio (x) = 0.20557 0.14222
# Poissons Ratio (y) = 0.29478 0.22685
# Poissons Ratio (z) = 0.21375 0.23776
#
# Static dielectric constant tensor:
#      x y z
#    x 3.515730 0.000000 0.131330 
#    y 0.000000 3.556420 0.000000 
#    z 0.131330 0.000000 3.652460 
# 
# 
# High freq. dielectric constant tensor:
#      x y z
#    x 1.748830 0.000000 0.013930 
#    y 0.000000 1.756180 0.000000 
#    z 0.013930 0.000000 1.759670 
# 
# From -- ./inp_files/281722.got.cif
#   From: 2010.06.25/outbox.cif.g09.slc.cpg/sg15_141_cif.got.tgz:281722.got - 2010.06.28 07:06:18.
