data_PCOD8148120
_publ_section_title
;
Structure prediction by ZEFSAII (Michael W. Deem and Ramdas Pophale) SiO2 
 PCOD8148120
Probable space group: C 2/C
;
_chemical_formula_sum "Si O2"
_cell_formula_units_Z 32
_cell_length_a 23.073309
_cell_length_b 7.317894
_cell_length_c 9.203333
_cell_angle_alpha 90.000000
_cell_angle_beta 49.420928
_cell_angle_gamma 90.000000
_cell_volume 1180.250069
_symmetry_space_group_name_H-M "C 2/C"
_symmetry_group_IT_number 15
_symmetry_cell_setting 'monoclinic'
loop_
_space_group_symop_operation_xyz
x,y,z
-x,y,1/2-z
-x,-y,-z
x,-y,1/2+z
1/2+x,1/2+y,z
1/2-x,1/2+y,1/2-z
1/2-x,1/2-y,-z
1/2+x,1/2-y,1/2+z
loop_
_atom_site_type_symbol
_atom_site_label
_atom_site_fract_x
_atom_site_fract_y
_atom_site_fract_z
Si Si1 0.710370 0.455939 0.048183
Si Si2 0.751257 0.719371 0.202786
Si Si3 0.424902 0.791159 0.686669
Si Si4 0.410452 0.861429 0.035892
O O1 0.764594 0.524982 0.094756
O O2 0.625721 0.393103 0.235076
O O3 0.758075 0.301448 0.870235
O O4 0.697714 0.619135 0.948624
O O5 0.662897 0.744498 0.300917
O O6 0.515905 0.759417 0.513146
O O7 0.395792 0.931256 0.612234
O O8 0.417891 0.887113 0.852830
#
# Coordination Sequence:
#
# PCOD8148120 Si02
#       4
#     8   8   8   8
#     4  10  23  39  58  84 118 154 199 248 301 355
#     4  10  23  39  58  85 116 157 201 249 304 359
#     4   9  19  37  59  85 119 156 195 243 294 361
#     4   9  19  36  59  86 117 154 197 239 297 358
#
# _framework density 27.112898000000001
#
# number of rings (size 3 to 8) (size 9 to 14) (size 15 to 20)
#    0.000    2.500    0.000    0.000    0.000   15.000 
#    0.000    0.000    0.000    0.000    0.000    0.000 
#    0.000    0.000    0.000    0.000    0.000    0.000 
#
# Total GULP energy -198346.934593 kJ/mol
# GULP energy per Si atom -12396.683412 kJ/mol
# Density = 2.705119 g / cm^3
# Si number density = 27.112898 Si / 1000 Ang^3
#
#
#
# Elastic Constant Matrix: (Units=GPa)
#
#
# Indices 1 2 3 4 5 6 
#
# 1 80.1819 33.3468 43.2959 0.0000 9.0543 0.0000
# 2 33.3468 112.1729 50.4956 0.0000 -24.3379 0.0000
# 3 43.2959 50.4956 91.7072 0.0000 0.8154 0.0000
# 4 0.0000 0.0000 0.0000 54.5538 0.0000 -7.1683
# 5 9.0543 -24.3379 0.8154 0.0000 64.9566 0.0000
# 6 0.0000 0.0000 0.0000 -7.1683 0.0000 44.8276
#
#
#
# Elastic Compliance Matrix: (Units=1/GPa)
#
#
# Indices 1 2 3 4 5 6 
#
# 1 0.017733 -0.003034 -0.006670 0.000000 -0.003525 0.000000
# 2 -0.003034 0.013868 -0.006255 0.000000 0.005698 0.000000
# 3 -0.006670 -0.006255 0.017512 0.000000 -0.001634 0.000000
# 4 0.000000 0.000000 0.000000 0.018724 0.000000 0.002994
# 5 -0.003525 0.005698 -0.001634 0.000000 0.018041 0.000000
# 6 0.000000 0.000000 0.000000 0.002994 0.000000 0.022786
#
#
# Mechanical properties :
#
#
# Convention : Reuss Voigt Hill
#
# Bulk Modulus (GPa) = 58.15255 59.81540 58.98398
# Shear Modulus (GPa) = 34.17299 43.32919 38.75109
#
# Velocity S-wave (km/s) = 3.55406 4.00196 3.78464
# Velocity P-wave (km/s) = 6.19166 6.59271 6.39533
#
# Compressibility (1/GPa) = 0.01719615
#
# Stress axis : x y z
#
# Youngs Moduli (GPa) = 56.39166 72.10606 57.10465
#
# Poissons Ratio (x) = 0.21876 0.38090
# Poissons Ratio (y) = 0.17108 0.35716
# Poissons Ratio (z) = 0.37614 0.45099
#
# Static dielectric constant tensor:
#      x y z
#    x 4.942330 0.000000 -0.028000 
#    y 0.000000 5.074560 0.000000 
#    z -0.028000 0.000000 5.587950 
# 
# 
# High freq. dielectric constant tensor:
#      x y z
#    x 2.093130 0.000000 0.015930 
#    y 0.000000 2.098440 0.000000 
#    z 0.015930 0.000000 2.107160 
# 
# From -- ./inp_files/124680.got.cif
#   From: 2010.06.25/outbox.cif.g09.slc.cpg/sg15_63_cif.got.tgz:124680.got - 2010.06.28 07:06:18.
