data_PCOD8148804
_publ_section_title
;
Structure prediction by ZEFSAII (Michael W. Deem and Ramdas Pophale) SiO2 
 PCOD8148804
Probable space group: C 2/C
;
_chemical_formula_sum "Si O2"
_cell_formula_units_Z 44
_cell_length_a 23.920026
_cell_length_b 10.557015
_cell_length_c 14.488729
_cell_angle_alpha 90.000000
_cell_angle_beta 146.381470
_cell_angle_gamma 90.000000
_cell_volume 2025.708385
_symmetry_space_group_name_H-M "C 2/C"
_symmetry_group_IT_number 15
_symmetry_cell_setting 'monoclinic'
loop_
_space_group_symop_operation_xyz
x,y,z
-x,y,1/2-z
-x,-y,-z
x,-y,1/2+z
1/2+x,1/2+y,z
1/2-x,1/2+y,1/2-z
1/2-x,1/2-y,-z
1/2+x,1/2-y,1/2+z
loop_
_atom_site_type_symbol
_atom_site_label
_atom_site_fract_x
_atom_site_fract_y
_atom_site_fract_z
Si Si1 0.500000 0.114903 0.250000
Si Si2 0.500337 0.924470 0.093830
Si Si3 0.797644 0.769362 0.965461
Si Si4 0.337026 0.295449 0.685702
Si Si5 0.811314 0.261444 0.866289
Si Si6 0.614426 0.534440 0.402746
O O1 0.403961 0.200850 0.094755
O O2 0.537245 0.025316 0.218977
O O3 0.573954 0.805792 0.187791
O O4 0.389838 0.876204 0.969681
O O5 0.500000 0.000000 0.000000
O O6 0.811639 0.919674 0.971906
O O7 0.750000 0.750000 0.000000
O O8 0.719816 0.720122 0.780120
O O9 0.250000 0.250000 0.500000
O O10 0.289751 0.314931 0.722231
O O11 0.375038 0.424504 0.690624
O O12 0.860748 0.145646 0.990444
O O13 0.500000 0.488115 0.250000
#
# Coordination Sequence:
#
# PCOD8148804 Si02
#       6
#     4   8   8   8   8   8
#     4  12  26  44  64 100 142 178 224 288 348 408
#     4  12  25  44  71 102 139 176 236 286 337 413
#     4  12  29  45  67 102 143 185 226 289 356 404
#     4  10  23  42  73 101 130 182 232 281 344 407
#     4  11  26  45  73 102 133 188 235 280 348 413
#     4  11  23  50  70  98 141 181 236 287 340 422
#
# _framework density 21.720797999999998
#
# number of rings (size 3 to 8) (size 9 to 14) (size 15 to 20)
#    0.000    0.727    2.727    4.364   15.273    0.000 
#    0.000    1.818    0.000    0.000    0.000    0.000 
#    0.000    0.000    0.000    0.000    0.000    0.000 
#
# Total GULP energy -272801.524627 kJ/mol
# GULP energy per Si atom -12400.069301 kJ/mol
# Density = 2.167136 g / cm^3
# Si number density = 21.720798 Si / 1000 Ang^3
#
#
#
# Elastic Constant Matrix: (Units=GPa)
#
#
# Indices 1 2 3 4 5 6 
#
# 1 132.6993 36.4763 33.4761 0.0000 -8.0918 0.0000
# 2 36.4763 104.5314 27.2158 0.0000 -1.9550 0.0000
# 3 33.4761 27.2158 94.8156 0.0000 -9.5635 0.0000
# 4 0.0000 0.0000 0.0000 28.6500 0.0000 -2.6079
# 5 -8.0918 -1.9550 -9.5635 0.0000 46.4715 0.0000
# 6 0.0000 0.0000 0.0000 -2.6079 0.0000 36.3039
#
#
#
# Elastic Compliance Matrix: (Units=1/GPa)
#
#
# Indices 1 2 3 4 5 6 
#
# 1 0.008859 -0.002469 -0.002322 0.000000 0.000961 0.000000
# 2 -0.002469 0.011029 -0.002339 0.000000 -0.000447 0.000000
# 3 -0.002322 -0.002339 0.012241 0.000000 0.002016 0.000000
# 4 0.000000 0.000000 0.000000 0.035134 0.000000 0.002524
# 5 0.000961 -0.000447 0.002016 0.000000 0.022082 0.000000
# 6 0.000000 0.000000 0.000000 0.002524 0.000000 0.027727
#
#
# Mechanical properties :
#
#
# Convention : Reuss Voigt Hill
#
# Bulk Modulus (GPa) = 55.96350 58.48698 57.22524
# Shear Modulus (GPa) = 36.41985 37.94362 37.18174
#
# Velocity S-wave (km/s) = 4.09923 4.18410 4.14188
# Velocity P-wave (km/s) = 6.94448 7.09419 7.01973
#
# Compressibility (1/GPa) = 0.01786879
#
# Stress axis : x y z
#
# Youngs Moduli (GPa) = 112.88139 90.67321 81.68940
#
# Poissons Ratio (x) = 0.22385 0.18970
# Poissons Ratio (y) = 0.27867 0.19108
# Poissons Ratio (z) = 0.26214 0.21210
#
# Static dielectric constant tensor:
#      x y z
#    x 4.744800 0.000000 -0.058440 
#    y 0.000000 3.877180 0.000000 
#    z -0.058440 0.000000 3.816980 
# 
# 
# High freq. dielectric constant tensor:
#      x y z
#    x 1.872370 0.000000 0.003840 
#    y 0.000000 1.851450 0.000000 
#    z 0.003840 0.000000 1.857590 
# 
# From -- ./inp_files/177685.got.cif
#   From: 2010.06.25/outbox.cif.g09.slc.cpg/sg15_89_cif.got.tgz:177685.got - 2010.06.28 07:06:18.
