data_PCOD8148069
_publ_section_title
;
Structure prediction by ZEFSAII (Michael W. Deem and Ramdas Pophale) SiO2 
 PCOD8148069
Probable space group: C 2/C
;
_chemical_formula_sum "Si O2"
_cell_formula_units_Z 40
_cell_length_a 12.815795
_cell_length_b 27.070224
_cell_length_c 5.177954
_cell_angle_alpha 90.000000
_cell_angle_beta 85.915849
_cell_angle_gamma 90.000000
_cell_volume 1791.807315
_symmetry_space_group_name_H-M "C 2/C"
_symmetry_group_IT_number 15
_symmetry_cell_setting 'monoclinic'
loop_
_space_group_symop_operation_xyz
x,y,z
-x,y,1/2-z
-x,-y,-z
x,-y,1/2+z
1/2+x,1/2+y,z
1/2-x,1/2+y,1/2-z
1/2-x,1/2-y,-z
1/2+x,1/2-y,1/2+z
loop_
_atom_site_type_symbol
_atom_site_label
_atom_site_fract_x
_atom_site_fract_y
_atom_site_fract_z
Si Si1 0.928534 0.747812 0.511288
Si Si2 0.753540 0.827624 0.526360
Si Si3 0.121895 0.474762 0.209329
Si Si4 0.954833 0.944156 0.007848
Si Si5 0.749602 0.890941 0.034091
O O1 0.850848 0.793093 0.583805
O O2 0.857249 0.700227 0.466694
O O3 0.000000 0.738503 0.750000
O O4 0.000000 0.758680 0.250000
O O5 0.778610 0.849873 0.240238
O O6 0.742304 0.868662 0.750267
O O7 0.171462 0.490513 0.475072
O O8 0.141783 0.417191 0.137386
O O9 0.000000 0.483924 0.250000
O O10 0.830594 0.937340 0.026762
O O11 0.000000 0.916229 0.250000
O O12 0.000000 0.915918 0.750000
O O13 0.000000 0.000000 0.000000
#
# Coordination Sequence:
#
# PCOD8148069 Si02
#       5
#     8   8   8   8   8
#     4  11  24  46  73  94 139 178 208 276 345 419
#     4  11  26  43  65 109 127 171 232 264 344 406
#     4  10  23  41  63  89 123 173 224 270 333 384
#     4  10  23  38  57  89 125 174 220 258 319 394
#     4  12  24  40  68  93 139 169 221 295 311 396
#
# _framework density 22.323829
#
# number of rings (size 3 to 8) (size 9 to 14) (size 15 to 20)
#    0.000    1.200    0.000    4.800    5.600   10.400 
#    0.000    0.000    0.000    0.000    0.000    0.000 
#    0.000    0.000    0.000    0.000    0.000    0.000 
#
# Total GULP energy -247902.504024 kJ/mol
# GULP energy per Si atom -12395.125201 kJ/mol
# Density = 2.227302 g / cm^3
# Si number density = 22.323829 Si / 1000 Ang^3
#
#
#
# Elastic Constant Matrix: (Units=GPa)
#
#
# Indices 1 2 3 4 5 6 
#
# 1 85.7249 40.7025 49.0281 0.0000 7.5048 0.0000
# 2 40.7025 89.0187 28.2335 0.0000 -1.6161 0.0000
# 3 49.0281 28.2335 177.8224 0.0000 7.8505 0.0000
# 4 0.0000 0.0000 0.0000 30.5415 0.0000 -5.2459
# 5 7.5048 -1.6161 7.8505 0.0000 31.8409 0.0000
# 6 0.0000 0.0000 0.0000 -5.2459 0.0000 30.6670
#
#
#
# Elastic Compliance Matrix: (Units=1/GPa)
#
#
# Indices 1 2 3 4 5 6 
#
# 1 0.017223 -0.006826 -0.003508 0.000000 -0.003541 0.000000
# 2 -0.006826 0.014572 -0.000541 0.000000 0.002482 0.000000
# 3 -0.003508 -0.000541 0.006715 0.000000 -0.000856 0.000000
# 4 0.000000 0.000000 0.000000 0.033733 0.000000 0.005770
# 5 -0.003541 0.002482 -0.000856 0.000000 0.032578 0.000000
# 6 0.000000 0.000000 0.000000 0.005770 0.000000 0.033595
#
#
# Mechanical properties :
#
#
# Convention : Reuss Voigt Hill
#
# Bulk Modulus (GPa) = 59.67544 65.38823 62.53183
# Shear Modulus (GPa) = 30.16530 34.25002 32.20766
#
# Velocity S-wave (km/s) = 3.67994 3.92118 3.80247
# Velocity P-wave (km/s) = 6.69669 7.06083 6.88117
#
# Compressibility (1/GPa) = 0.01675731
#
# Stress axis : x y z
#
# Youngs Moduli (GPa) = 58.06191 68.62690 148.92926
#
# Poissons Ratio (x) = 0.46848 0.52251
# Poissons Ratio (y) = 0.39636 0.08057
# Poissons Ratio (z) = 0.20371 0.03713
#
# Static dielectric constant tensor:
#      x y z
#    x 4.022810 0.000000 0.049720 
#    y 0.000000 3.861710 0.000000 
#    z 0.049720 0.000000 4.839090 
# 
# 
# High freq. dielectric constant tensor:
#      x y z
#    x 1.881220 0.000000 -0.000260 
#    y 0.000000 1.861980 0.000000 
#    z -0.000260 0.000000 1.911660 
# 
# From -- ./inp_files/4921.got.cif
#   From: 2010.06.25/outbox.cif.g09.slc.cpg/sg15_3_cif.got.tgz:4921.got - 2010.06.28 07:06:18.
