data_PCOD8148989
_publ_section_title
;
Structure prediction by ZEFSAII (Michael W. Deem and Ramdas Pophale) SiO2 
 PCOD8148989
Probable space group: C 2/C
;
_chemical_formula_sum "Si O2"
_cell_formula_units_Z 36
_cell_length_a 10.647444
_cell_length_b 25.859361
_cell_length_c 8.528064
_cell_angle_alpha 90.000000
_cell_angle_beta 43.164485
_cell_angle_gamma 90.000000
_cell_volume 1606.312716
_symmetry_space_group_name_H-M "C 2/C"
_symmetry_group_IT_number 15
_symmetry_cell_setting 'monoclinic'
loop_
_space_group_symop_operation_xyz
x,y,z
-x,y,1/2-z
-x,-y,-z
x,-y,1/2+z
1/2+x,1/2+y,z
1/2-x,1/2+y,1/2-z
1/2-x,1/2-y,-z
1/2+x,1/2-y,1/2+z
loop_
_atom_site_type_symbol
_atom_site_label
_atom_site_fract_x
_atom_site_fract_y
_atom_site_fract_z
Si Si1 0.641381 0.692064 0.420040
Si Si2 0.694601 0.070687 0.621410
Si Si3 0.000000 0.891043 0.250000
Si Si4 0.500000 0.351514 0.750000
Si Si5 0.680921 0.033901 0.985634
Si Si6 0.500000 0.216986 0.250000
O O1 0.500183 0.647561 0.602136
O O2 0.621582 0.686574 0.250536
O O3 0.582043 0.748588 0.533709
O O4 0.845029 0.681487 0.307526
O O5 0.500000 0.096613 0.750000
O O6 0.855342 0.112809 0.476030
O O7 0.660554 0.043419 0.819671
O O8 0.747787 0.025165 0.450341
O O9 0.176077 0.926117 0.075549
O O10 0.500000 0.044431 0.250000
#
# Coordination Sequence:
#
# PCOD8148989 Si02
#       6
#     8   8   4   4   8   4
#     4  10  23  43  70 101 130 173 220 278 341 412
#     4  11  25  41  62  97 139 186 222 276 330 382
#     4  11  23  38  66  98 124 178 226 266 331 397
#     4  12  25  42  69 106 140 166 231 284 329 394
#     4  11  24  40  64  92 137 184 228 269 324 388
#     4   9  22  48  71  94 138 172 217 270 354 425
#
# _framework density 22.411576
#
# number of rings (size 3 to 8) (size 9 to 14) (size 15 to 20)
#    0.000    1.333    2.222    3.333    7.778    2.667 
#    4.000    0.000    0.000    0.000    0.000    0.000 
#    0.000    0.000    0.000    0.000    0.000    0.000 
#
# Total GULP energy -223083.471600 kJ/mol
# GULP energy per Si atom -12393.526200 kJ/mol
# Density = 2.236057 g / cm^3
# Si number density = 22.411576 Si / 1000 Ang^3
#
#
#
# Elastic Constant Matrix: (Units=GPa)
#
#
# Indices 1 2 3 4 5 6 
#
# 1 153.9412 54.7518 59.4027 0.0000 12.2821 0.0000
# 2 54.7518 73.9078 32.2509 0.0000 -7.2617 0.0000
# 3 59.4027 32.2509 85.8518 0.0000 5.1498 0.0000
# 4 0.0000 0.0000 0.0000 7.1074 0.0000 -20.6858
# 5 12.2821 -7.2617 5.1498 0.0000 38.1312 0.0000
# 6 0.0000 0.0000 0.0000 -20.6858 0.0000 40.5725
#
#
#
# Elastic Compliance Matrix: (Units=1/GPa)
#
#
# Indices 1 2 3 4 5 6 
#
# 1 0.011016 -0.006392 -0.004975 0.000000 -0.004093 0.000000
# 2 -0.006392 0.020500 -0.003666 0.000000 0.006458 0.000000
# 3 -0.004975 -0.003666 0.016547 0.000000 -0.001330 0.000000
# 4 0.000000 0.000000 0.000000 -0.290761 0.000000 -0.148244
# 5 -0.004093 0.006458 -0.001330 0.000000 0.028953 0.000000
# 6 0.000000 0.000000 0.000000 -0.148244 0.000000 -0.050935
#
#
# Mechanical properties :
#
#
# Convention : Reuss Voigt Hill
#
# Bulk Modulus (GPa) = 55.56418 67.39019 61.47718
# Shear Modulus (GPa) = -21.87075 28.31523 3.22224
#
# Velocity S-wave (km/s) = -3.12728 3.55832 1.20037
# Velocity P-wave (km/s) = 3.43608 6.85688 5.42326
#
# Compressibility (1/GPa) = 0.01799721
#
# Stress axis : x y z
#
# Youngs Moduli (GPa) = 90.77834 48.78166 60.43249
#
# Poissons Ratio (x) = 0.31180 0.30068
# Poissons Ratio (y) = 0.58023 0.22152
# Poissons Ratio (z) = 0.45166 0.17881
#
# Static dielectric constant tensor:
#      x y z
#    x 5.003420 0.000000 0.057930 
#    y 0.000000 3.878710 0.000000 
#    z 0.057930 0.000000 4.044290 
# 
# 
# High freq. dielectric constant tensor:
#      x y z
#    x 1.897770 0.000000 -0.003220 
#    y 0.000000 1.868860 0.000000 
#    z -0.003220 0.000000 1.877750 
# 
# From -- ./inp_files/33294.got.cif
#   From: 2010.06.25/outbox.cif.g09.slc.cpg/sg15_17_cif.got.tgz:33294.got - 2010.06.28 07:06:18.
