data_PCOD8148326
_publ_section_title
;
Structure prediction by ZEFSAII (Michael W. Deem and Ramdas Pophale) SiO2 
 PCOD8148326
Probable space group: C 2/C
;
_chemical_formula_sum "Si O2"
_cell_formula_units_Z 56
_cell_length_a 17.121924
_cell_length_b 10.795787
_cell_length_c 13.878025
_cell_angle_alpha 90.000000
_cell_angle_beta 102.525640
_cell_angle_gamma 90.000000
_cell_volume 2504.222536
_symmetry_space_group_name_H-M "C 2/C"
_symmetry_group_IT_number 15
_symmetry_cell_setting 'monoclinic'
loop_
_space_group_symop_operation_xyz
x,y,z
-x,y,1/2-z
-x,-y,-z
x,-y,1/2+z
1/2+x,1/2+y,z
1/2-x,1/2+y,1/2-z
1/2-x,1/2-y,-z
1/2+x,1/2-y,1/2+z
loop_
_atom_site_type_symbol
_atom_site_label
_atom_site_fract_x
_atom_site_fract_y
_atom_site_fract_z
Si Si1 0.350542 0.359125 0.745669
Si Si2 0.701451 0.519005 0.598423
Si Si3 0.044297 0.377384 0.470795
Si Si4 0.000000 0.431448 0.250000
Si Si5 0.500000 0.527022 0.750000
Si Si6 0.157801 0.585302 0.733080
Si Si7 0.465254 0.622265 0.940422
Si Si8 0.718347 0.046995 0.073871
O O1 0.325001 0.400525 0.846624
O O2 0.421220 0.442397 0.721629
O O3 0.381911 0.220991 0.770275
O O4 0.274881 0.362683 0.652501
O O5 0.774738 0.583363 0.670051
O O6 0.630504 0.618546 0.575662
O O7 0.730615 0.485014 0.498685
O O8 0.006569 0.253433 0.508730
O O9 0.139840 0.381878 0.515338
O O10 0.000000 0.500000 0.500000
O O11 0.030089 0.357810 0.353388
O O12 0.919077 0.505757 0.262958
O O13 0.495374 0.618850 0.838987
O O14 0.191408 0.564723 0.635844
O O15 0.500000 0.500000 0.000000
#
# Coordination Sequence:
#
# PCOD8148326 Si02
#       8
#     8   8   8   4   4   8   8   8
#     4  10  23  40  68  98 133 174 221 271 336 397
#     4  10  23  41  63  95 132 173 219 274 334 400
#     4  12  27  45  68 100 134 178 233 279 340 403
#     4  12  25  41  70  94 132 180 228 284 336 400
#     4  10  23  45  68 100 140 172 220 282 336 398
#     4  11  23  40  66  97 129 175 224 274 332 400
#     4  11  26  43  70 103 134 181 227 278 342 402
#     4  11  23  43  64  94 134 175 219 275 332 402
#
# _framework density 22.36223
#
# number of rings (size 3 to 8) (size 9 to 14) (size 15 to 20)
#    0.000    1.143    2.857    2.143    8.000    2.286 
#    0.000    4.286    0.000    0.000    0.000    0.000 
#    0.000    0.000    0.000    0.000    0.000    0.000 
#
# Total GULP energy -346924.802677 kJ/mol
# GULP energy per Si atom -12390.171524 kJ/mol
# Density = 2.231133 g / cm^3
# Si number density = 22.362230 Si / 1000 Ang^3
#
#
#
# Elastic Constant Matrix: (Units=GPa)
#
#
# Indices 1 2 3 4 5 6 
#
# 1 149.8241 34.1388 62.9305 0.0000 -17.4030 0.0000
# 2 34.1388 99.8106 43.8601 0.0000 -10.3064 0.0000
# 3 62.9305 43.8601 164.0269 0.0000 -21.3213 0.0000
# 4 0.0000 0.0000 0.0000 10.3549 0.0000 -1.0234
# 5 -17.4030 -10.3064 -21.3213 0.0000 59.2050 0.0000
# 6 0.0000 0.0000 0.0000 -1.0234 0.0000 18.8391
#
#
#
# Elastic Compliance Matrix: (Units=1/GPa)
#
#
# Indices 1 2 3 4 5 6 
#
# 1 0.008261 -0.001560 -0.002594 0.000000 0.001223 0.000000
# 2 -0.001560 0.011696 -0.002438 0.000000 0.000700 0.000000
# 3 -0.002594 -0.002438 0.007962 0.000000 0.001681 0.000000
# 4 0.000000 0.000000 0.000000 0.097094 0.000000 0.005275
# 5 0.001223 0.000700 0.001681 0.000000 0.017977 0.000000
# 6 0.000000 0.000000 0.000000 0.005275 0.000000 0.053368
#
#
# Mechanical properties :
#
#
# Convention : Reuss Voigt Hill
#
# Bulk Modulus (GPa) = 67.85819 77.28006 72.56913
# Shear Modulus (GPa) = 23.31521 35.86196 29.58858
#
# Velocity S-wave (km/s) = 3.23246 4.00895 3.64146
# Velocity P-wave (km/s) = 6.65902 7.48747 7.08537
#
# Compressibility (1/GPa) = 0.01473661
#
# Stress axis : x y z
#
# Youngs Moduli (GPa) = 121.04662 85.49865 125.59682
#
# Poissons Ratio (x) = 0.13335 0.32574
# Poissons Ratio (y) = 0.18880 0.30623
# Poissons Ratio (z) = 0.31394 0.20846
#
# Static dielectric constant tensor:
#      x y z
#    x 4.529560 0.000000 -0.010280 
#    y 0.000000 3.505520 0.000000 
#    z -0.010280 0.000000 4.427350 
# 
# 
# High freq. dielectric constant tensor:
#      x y z
#    x 1.910270 0.000000 0.003690 
#    y 0.000000 1.835510 0.000000 
#    z 0.003690 0.000000 1.906520 
# 
# From -- ./inp_files/161036.got.cif
#   From: 2010.06.25/outbox.cif.g09.slc.cpg/sg15_81_cif.got.tgz:161036.got - 2010.06.28 07:06:18.
