data_PCOD8148961
_publ_section_title
;
Structure prediction by ZEFSAII (Michael W. Deem and Ramdas Pophale) SiO2 
 PCOD8148961
Probable space group: C 2/C
;
_chemical_formula_sum "Si O2"
_cell_formula_units_Z 64
_cell_length_a 23.430019
_cell_length_b 9.475804
_cell_length_c 26.258723
_cell_angle_alpha 90.000000
_cell_angle_beta 31.662665
_cell_angle_gamma 90.000000
_cell_volume 3060.222907
_symmetry_space_group_name_H-M "C 2/C"
_symmetry_group_IT_number 15
_symmetry_cell_setting 'monoclinic'
loop_
_space_group_symop_operation_xyz
x,y,z
-x,y,1/2-z
-x,-y,-z
x,-y,1/2+z
1/2+x,1/2+y,z
1/2-x,1/2+y,1/2-z
1/2-x,1/2-y,-z
1/2+x,1/2-y,1/2+z
loop_
_atom_site_type_symbol
_atom_site_label
_atom_site_fract_x
_atom_site_fract_y
_atom_site_fract_z
Si Si1 0.497775 0.332277 0.643059
Si Si2 0.452738 0.848619 0.905774
Si Si3 0.774417 0.087147 0.571593
Si Si4 0.766390 0.228814 0.111035
Si Si5 0.083099 0.409350 0.144746
Si Si6 0.711291 0.192759 0.727951
Si Si7 0.546877 0.388303 0.268601
Si Si8 0.690435 0.883623 0.769181
O O1 0.600990 0.372055 0.530611
O O2 0.533661 0.236700 0.662949
O O3 0.411342 0.251400 0.672806
O O4 0.439518 0.472089 0.708085
O O5 0.462713 0.716656 0.860260
O O6 0.567747 0.885639 0.842906
O O7 0.405954 0.981189 0.910067
O O8 0.373082 0.813103 0.012931
O O9 0.700846 0.126539 0.578816
O O10 0.733322 0.173639 0.651512
O O11 0.759762 0.920972 0.588609
O O12 0.663213 0.318278 0.171988
O O13 0.766884 0.202452 0.171404
O O14 0.000000 0.473370 0.250000
O O15 0.796171 0.305686 0.686966
O O16 0.728022 0.045680 0.745146
O O17 0.500000 0.431896 0.250000
#
# Coordination Sequence:
#
# PCOD8148961 Si02
#       8
#     8   8   8   8   8   8   8   8
#     4  12  25  43  64 104 137 175 231 281 345 417
#     4  11  22  43  68  99 135 179 231 275 341 421
#     4  11  24  44  70 100 139 187 224 282 354 410
#     4  10  23  43  68  98 135 177 229 280 339 408
#     4  12  22  43  68  96 146 183 220 283 349 416
#     4  11  25  47  69  96 137 179 232 286 350 402
#     4  11  24  38  64 100 136 176 222 274 332 408
#     4  10  24  46  69  96 131 183 227 288 345 405
#
# _framework density 20.913508
#
# number of rings (size 3 to 8) (size 9 to 14) (size 15 to 20)
#    0.000    1.000    3.750    3.375    5.250    3.000 
#    0.000    3.750    0.000    0.000    0.000    0.000 
#    0.000    0.000    0.000    0.000    0.000    0.000 
#
# Total GULP energy -396954.907275 kJ/mol
# GULP energy per Si atom -12404.840852 kJ/mol
# Density = 2.086591 g / cm^3
# Si number density = 20.913508 Si / 1000 Ang^3
#
#
#
# Elastic Constant Matrix: (Units=GPa)
#
#
# Indices 1 2 3 4 5 6 
#
# 1 104.4929 53.2453 26.7393 0.0006 -11.8248 -0.0004
# 2 53.2453 113.0708 37.6996 0.0028 3.3137 -0.0041
# 3 26.7393 37.6996 114.3454 -0.0004 5.8818 -0.0001
# 4 0.0006 0.0028 -0.0004 31.4932 -0.0017 1.2589
# 5 -11.8248 3.3137 5.8818 -0.0017 12.2819 0.0020
# 6 -0.0004 -0.0041 -0.0001 1.2589 0.0020 35.9556
#
#
#
# Elastic Compliance Matrix: (Units=1/GPa)
#
#
# Indices 1 2 3 4 5 6 
#
# 1 0.015952 -0.007294 -0.002273 0.000001 0.018415 -0.000002
# 2 -0.007294 0.013287 -0.002183 -0.000002 -0.009562 0.000002
# 3 -0.002273 -0.002183 0.010334 0.000000 -0.006548 0.000000
# 4 0.000001 -0.000002 0.000000 0.031797 0.000006 -0.001113
# 5 0.018415 -0.009562 -0.006548 0.000006 0.104865 -0.000007
# 6 -0.000002 0.000002 0.000000 -0.001113 -0.000007 0.027851
#
#
# Mechanical properties :
#
#
# Convention : Reuss Voigt Hill
#
# Bulk Modulus (GPa) = 62.21661 63.03084 62.62373
# Shear Modulus (GPa) = 21.46446 30.22782 25.84614
#
# Velocity S-wave (km/s) = 3.20714 3.80593 3.51929
# Velocity P-wave (km/s) = 6.59760 7.03688 6.82078
#
# Compressibility (1/GPa) = 0.01607288
#
# Stress axis : x y z
#
# Youngs Moduli (GPa) = 62.68767 75.26280 96.77223
#
# Poissons Ratio (x) = 0.54895 0.21995
# Poissons Ratio (y) = 0.45723 0.21127
# Poissons Ratio (z) = 0.14248 0.16431
#
# Static dielectric constant tensor:
#      x y z
#    x 3.626430 0.000000 0.077700 
#    y 0.000000 3.899560 0.000000 
#    z 0.077700 0.000000 3.871610 
# 
# 
# High freq. dielectric constant tensor:
#      x y z
#    x 1.811150 0.000000 -0.003440 
#    y 0.000000 1.833850 0.000000 
#    z -0.003440 0.000000 1.814900 
# 
# From -- ./inp_files/318605.got.cif
#   From: 2010.06.25/outbox.cif.g09.slc.cpg/sg15_160_cif.got.tgz:318605.got - 2010.06.28 07:06:18.
