data_PCOD8148826
_publ_section_title
;
Structure prediction by ZEFSAII (Michael W. Deem and Ramdas Pophale) SiO2 
 PCOD8148826
Probable space group: C 2/C
;
_chemical_formula_sum "Si O2"
_cell_formula_units_Z 60
_cell_length_a 14.249412
_cell_length_b 11.810160
_cell_length_c 17.224535
_cell_angle_alpha 90.000000
_cell_angle_beta 97.862355
_cell_angle_gamma 90.000000
_cell_volume 2871.430834
_symmetry_space_group_name_H-M "C 2/C"
_symmetry_group_IT_number 15
_symmetry_cell_setting 'monoclinic'
loop_
_space_group_symop_operation_xyz
x,y,z
-x,y,1/2-z
-x,-y,-z
x,-y,1/2+z
1/2+x,1/2+y,z
1/2-x,1/2+y,1/2-z
1/2-x,1/2-y,-z
1/2+x,1/2-y,1/2+z
loop_
_atom_site_type_symbol
_atom_site_label
_atom_site_fract_x
_atom_site_fract_y
_atom_site_fract_z
Si Si1 0.033244 0.135195 0.046369
Si Si2 0.528108 0.574927 0.877717
Si Si3 0.393374 0.844984 0.205955
Si Si4 0.330304 0.307338 0.557849
Si Si5 0.000000 0.252449 0.750000
Si Si6 0.721294 0.506453 0.851505
Si Si7 0.685154 0.765475 0.146008
Si Si8 0.177272 0.585822 0.289185
O O1 0.086964 0.240870 0.090907
O O2 0.921674 0.158469 0.017486
O O3 0.075309 0.114392 0.965108
O O4 0.043484 0.027767 0.107096
O O5 0.480557 0.677738 0.825454
O O6 0.609189 0.530981 0.827119
O O7 0.500000 0.844595 0.250000
O O8 0.377445 0.766705 0.130690
O O9 0.326785 0.793637 0.264829
O O10 0.363494 0.971815 0.176468
O O11 0.250000 0.250000 0.500000
O O12 0.272002 0.415546 0.579875
O O13 0.091948 0.329696 0.762576
O O14 0.770618 0.621968 0.886817
O O15 0.767988 0.452687 0.781330
O O16 0.752039 0.654387 0.145744
#
# Coordination Sequence:
#
# PCOD8148826 Si02
#       8
#     8   8   8   8   4   8   8   8
#     4  10  24  42  66  96 132 172 225 274 336 395
#     4  10  24  42  65  94 131 169 219 277 324 403
#     4  11  22  42  66  95 133 173 225 267 335 407
#     4  11  24  43  67  97 136 181 221 277 335 407
#     4  12  24  42  64  94 134 174 218 272 340 402
#     4  10  23  43  62  99 129 164 228 269 325 406
#     4  11  22  41  69  94 125 175 216 285 328 389
#     4  11  24  39  66  99 131 170 219 277 333 402
#
# _framework density 20.895505
#
# number of rings (size 3 to 8) (size 9 to 14) (size 15 to 20)
#    0.000    1.333    4.667    0.000    3.733    3.733 
#    2.400    0.667    0.000    0.000    0.000    0.000 
#    0.000    0.000    0.000    0.000    0.000    0.000 
#
# Total GULP energy -371807.953260 kJ/mol
# GULP energy per Si atom -12393.598442 kJ/mol
# Density = 2.084795 g / cm^3
# Si number density = 20.895505 Si / 1000 Ang^3
#
#
#
# Elastic Constant Matrix: (Units=GPa)
#
#
# Indices 1 2 3 4 5 6 
#
# 1 86.1868 40.9511 30.0366 0.0000 2.6514 0.0000
# 2 40.9511 141.1703 41.7347 0.0000 10.1648 0.0000
# 3 30.0366 41.7347 63.1035 0.0000 4.3554 0.0000
# 4 0.0000 0.0000 0.0000 28.7480 0.0000 6.6703
# 5 2.6514 10.1648 4.3554 0.0000 28.3201 0.0000
# 6 0.0000 0.0000 0.0000 6.6703 0.0000 36.1888
#
#
#
# Elastic Compliance Matrix: (Units=1/GPa)
#
#
# Indices 1 2 3 4 5 6 
#
# 1 0.014716 -0.002759 -0.005209 0.000000 0.000414 0.000000
# 2 -0.002759 0.009472 -0.004785 0.000000 -0.002405 0.000000
# 3 -0.005209 -0.004785 0.021568 0.000000 -0.001112 0.000000
# 4 0.000000 0.000000 0.000000 0.036339 0.000000 -0.006698
# 5 0.000414 -0.002405 -0.001112 0.000000 0.036306 0.000000
# 6 0.000000 0.000000 0.000000 -0.006698 0.000000 0.028867
#
#
# Mechanical properties :
#
#
# Convention : Reuss Voigt Hill
#
# Bulk Modulus (GPa) = 49.38184 57.32284 53.35234
# Shear Modulus (GPa) = 27.85145 30.50058 29.17602
#
# Velocity S-wave (km/s) = 3.65484 3.82471 3.74074
# Velocity P-wave (km/s) = 6.44163 6.85545 6.65176
#
# Compressibility (1/GPa) = 0.02025036
#
# Stress axis : x y z
#
# Youngs Moduli (GPa) = 67.95297 105.57677 46.36558
#
# Poissons Ratio (x) = 0.29127 0.24150
# Poissons Ratio (y) = 0.18747 0.22187
# Poissons Ratio (z) = 0.35394 0.50520
#
# Static dielectric constant tensor:
#      x y z
#    x 3.776070 0.000000 -1.314680 
#    y 0.000000 4.250590 0.000000 
#    z -1.314680 0.000000 -7.274540 
# 
# 
# High freq. dielectric constant tensor:
#      x y z
#    x 1.824870 0.000000 -0.007110 
#    y 0.000000 1.840710 0.000000 
#    z -0.007110 0.000000 1.790300 
# 
# From -- ./inp_files/204516.got.cif
#   From: 2010.06.25/outbox.cif.g09.slc.cpg/sg15_103_cif.got.tgz:204516.got - 2010.06.28 07:06:18.
