data_PCOD8148212
_publ_section_title
;
Structure prediction by ZEFSAII (Michael W. Deem and Ramdas Pophale) SiO2 
 PCOD8148212
Probable space group: C 2/C
;
_chemical_formula_sum "Si O2"
_cell_formula_units_Z 36
_cell_length_a 7.643086
_cell_length_b 13.948279
_cell_length_c 15.921002
_cell_angle_alpha 90.000000
_cell_angle_beta 84.186675
_cell_angle_gamma 90.000000
_cell_volume 1688.575593
_symmetry_space_group_name_H-M "C 2/C"
_symmetry_group_IT_number 15
_symmetry_cell_setting 'monoclinic'
loop_
_space_group_symop_operation_xyz
x,y,z
-x,y,1/2-z
-x,-y,-z
x,-y,1/2+z
1/2+x,1/2+y,z
1/2-x,1/2+y,1/2-z
1/2-x,1/2-y,-z
1/2+x,1/2-y,1/2+z
loop_
_atom_site_type_symbol
_atom_site_label
_atom_site_fract_x
_atom_site_fract_y
_atom_site_fract_z
Si Si1 0.393880 0.058381 0.388454
Si Si2 0.167524 0.758428 0.196715
Si Si3 0.202546 0.427659 0.418276
Si Si4 0.534001 0.516430 0.341296
Si Si5 0.500000 0.695729 0.250000
O O1 0.403470 0.156092 0.334546
O O2 0.377043 0.087547 0.486352
O O3 0.568194 0.992265 0.368110
O O4 0.229052 0.993545 0.365878
O O5 0.256514 0.823099 0.120831
O O6 0.318184 0.753810 0.261437
O O7 0.000000 0.807842 0.250000
O O8 0.389869 0.480929 0.414500
O O9 0.500000 0.470276 0.250000
O O10 0.512372 0.631748 0.334482
#
# Coordination Sequence:
#
# PCOD8148212 Si02
#       5
#     8   8   8   8   4
#     4  10  23  40  59  86 125 159 194 256 306 359
#     4  11  22  39  61  89 121 160 204 253 302 361
#     4  11  22  37  61  91 118 159 205 243 310 369
#     4   9  19  37  61  83 117 159 199 246 295 357
#     4   8  20  38  56  86 118 154 202 250 300 348
#
# _framework density 21.319745000000001
#
# number of rings (size 3 to 8) (size 9 to 14) (size 15 to 20)
#    0.667    1.333    0.000    3.333    0.000    3.556 
#    0.000    0.000    0.000   14.667    0.000    0.000 
#    0.000    0.000    0.000    0.000    0.000    0.000 
#
# Total GULP energy -223025.877510 kJ/mol
# GULP energy per Si atom -12390.326528 kJ/mol
# Density = 2.127122 g / cm^3
# Si number density = 21.319745 Si / 1000 Ang^3
#
#
#
# Elastic Constant Matrix: (Units=GPa)
#
#
# Indices 1 2 3 4 5 6 
#
# 1 152.7573 49.7842 23.2388 0.0000 2.5849 0.0000
# 2 49.7842 76.4104 14.7272 0.0000 -0.5653 0.0000
# 3 23.2388 14.7272 55.3483 0.0000 -4.3332 0.0000
# 4 0.0000 0.0000 0.0000 -17.1342 0.0000 -12.1899
# 5 2.5849 -0.5653 -4.3332 0.0000 34.4519 0.0000
# 6 0.0000 0.0000 0.0000 -12.1899 0.0000 19.5904
#
#
#
# Elastic Compliance Matrix: (Units=1/GPa)
#
#
# Indices 1 2 3 4 5 6 
#
# 1 0.008599 -0.005164 -0.002316 0.000000 -0.001021 0.000000
# 2 -0.005164 0.016897 -0.002299 0.000000 0.000376 0.000000
# 3 -0.002316 -0.002299 0.019858 0.000000 0.002634 0.000000
# 4 0.000000 0.000000 0.000000 -0.040454 0.000000 -0.025172
# 5 -0.001021 0.000376 0.002634 0.000000 0.029440 0.000000
# 6 0.000000 0.000000 0.000000 -0.025172 0.000000 0.035382
#
#
# Mechanical properties :
#
#
# Convention : Reuss Voigt Hill
#
# Bulk Modulus (GPa) = 38.76461 51.11292 44.93877
# Shear Modulus (GPa) = 51.08415 20.49937 35.79176
#
# Velocity S-wave (km/s) = 4.90030 3.10420 4.10177
# Velocity P-wave (km/s) = 7.08797 6.07245 6.59977
#
# Compressibility (1/GPa) = 0.02579673
#
# Stress axis : x y z
#
# Youngs Moduli (GPa) = 116.29500 59.18113 50.35806
#
# Poissons Ratio (x) = 0.30558 0.11665
# Poissons Ratio (y) = 0.60050 0.11576
# Poissons Ratio (z) = 0.26938 0.13604
#
# Static dielectric constant tensor:
#      x y z
#    x 4.120760 0.000000 0.063720 
#    y 0.000000 3.667130 0.000000 
#    z 0.063720 0.000000 3.476250 
# 
# 
# High freq. dielectric constant tensor:
#      x y z
#    x 1.855670 0.000000 -0.001920 
#    y 0.000000 1.827430 0.000000 
#    z -0.001920 0.000000 1.810350 
# 
# From -- ./inp_files/260000.got.cif
#   From: 2010.06.25/outbox.cif.g09.slc.cpg/sg15_130_cif.got.tgz:260000.got - 2010.06.28 07:06:18.
