data_PCOD8148117
_publ_section_title
;
Structure prediction by ZEFSAII (Michael W. Deem and Ramdas Pophale) SiO2 
 PCOD8148117
Probable space group: C 2/C
;
_chemical_formula_sum "Si O2"
_cell_formula_units_Z 52
_cell_length_a 6.341747
_cell_length_b 23.113376
_cell_length_c 22.815725
_cell_angle_alpha 90.000000
_cell_angle_beta 126.303057
_cell_angle_gamma 90.000000
_cell_volume 2695.168638
_symmetry_space_group_name_H-M "C 2/C"
_symmetry_group_IT_number 15
_symmetry_cell_setting 'monoclinic'
loop_
_space_group_symop_operation_xyz
x,y,z
-x,y,1/2-z
-x,-y,-z
x,-y,1/2+z
1/2+x,1/2+y,z
1/2-x,1/2+y,1/2-z
1/2-x,1/2-y,-z
1/2+x,1/2-y,1/2+z
loop_
_atom_site_type_symbol
_atom_site_label
_atom_site_fract_x
_atom_site_fract_y
_atom_site_fract_z
Si Si1 0.989316 0.273618 0.182509
Si Si2 0.724479 0.165871 0.173166
Si Si3 0.474767 0.055732 0.417406
Si Si4 0.335074 0.550330 0.584058
Si Si5 0.273801 0.119830 0.823563
Si Si6 0.000000 0.701336 0.250000
Si Si7 0.419418 0.016359 0.674577
O O1 0.744130 0.228066 0.141071
O O2 0.000000 0.298481 0.250000
O O3 0.996692 0.330823 0.142641
O O4 0.243096 0.239222 0.204692
O O5 0.663916 0.117206 0.115372
O O6 0.508763 0.165355 0.190056
O O7 0.000000 0.153393 0.250000
O O8 0.715494 0.063972 0.501024
O O9 0.263107 0.011554 0.408583
O O10 0.589146 0.033969 0.374703
O O11 0.255243 0.603218 0.613180
O O12 0.644693 0.548949 0.629808
O O13 0.356543 0.062965 0.801862
O O14 0.000000 0.141846 0.750000
O O15 0.500000 0.988111 0.750000
#
# Coordination Sequence:
#
# PCOD8148117 Si02
#       7
#     8   8   8   8   8   4   8
#     4   9  18  32  54  85 113 141 188 240 287 330
#     4   9  20  33  55  86 109 146 197 229 280 337
#     4  10  23  39  57  80 124 156 185 237 288 358
#     4  10  23  40  55  84 120 156 187 231 304 343
#     4  11  20  34  59  87 114 146 194 246 287 341
#     4   8  16  32  50  82 110 142 176 232 280 316
#     4  11  22  34  59  89 111 150 200 239 288 341
#
# _framework density 19.293783000000001
#
# number of rings (size 3 to 8) (size 9 to 14) (size 15 to 20)
#    0.000    2.462    2.308    0.923    3.231    1.231 
#    0.000    0.769    0.000    1.846    0.000    0.000 
#    0.000    0.000    0.000    0.000    0.000    0.000 
#
# Total GULP energy -322185.219671 kJ/mol
# GULP energy per Si atom -12391.739218 kJ/mol
# Density = 1.924987 g / cm^3
# Si number density = 19.293783 Si / 1000 Ang^3
#
#
#
# Elastic Constant Matrix: (Units=GPa)
#
#
# Indices 1 2 3 4 5 6 
#
# 1 101.7138 31.5220 36.9693 0.0000 -10.8669 0.0000
# 2 31.5220 104.7491 40.6473 0.0000 -18.6116 0.0000
# 3 36.9693 40.6473 104.0431 0.0000 -18.1074 0.0000
# 4 0.0000 0.0000 0.0000 8.2423 0.0000 -1.7971
# 5 -10.8669 -18.6116 -18.1074 0.0000 27.0922 0.0000
# 6 0.0000 0.0000 0.0000 -1.7971 0.0000 14.9563
#
#
#
# Elastic Compliance Matrix: (Units=1/GPa)
#
#
# Indices 1 2 3 4 5 6 
#
# 1 0.011754 -0.002108 -0.003151 0.000000 0.001160 0.000000
# 2 -0.002108 0.012382 -0.003118 0.000000 0.005577 0.000000
# 3 -0.003151 -0.003118 0.012851 0.000000 0.005184 0.000000
# 4 0.000000 0.000000 0.000000 0.124589 0.000000 0.014970
# 5 0.001160 0.005577 0.005184 0.000000 0.044672 0.000000
# 6 0.000000 0.000000 0.000000 0.014970 0.000000 0.068660
#
#
# Mechanical properties :
#
#
# Convention : Reuss Voigt Hill
#
# Bulk Modulus (GPa) = 49.42348 58.75369 54.08858
# Shear Modulus (GPa) = 16.75569 23.48266 20.11918
#
# Velocity S-wave (km/s) = 2.95015 3.49250 3.23271
# Velocity P-wave (km/s) = 6.10544 6.83971 6.48298
#
# Compressibility (1/GPa) = 0.02023330
#
# Stress axis : x y z
#
# Youngs Moduli (GPa) = 85.07673 80.76469 77.81415
#
# Poissons Ratio (x) = 0.17027 0.24519
# Poissons Ratio (y) = 0.17936 0.24259
# Poissons Ratio (z) = 0.26807 0.25179
#
# Static dielectric constant tensor:
#      x y z
#    x 3.987570 0.000000 -0.197700 
#    y 0.000000 3.584500 0.000000 
#    z -0.197700 0.000000 3.228680 
# 
# 
# High freq. dielectric constant tensor:
#      x y z
#    x 1.769350 0.000000 -0.009580 
#    y 0.000000 1.747570 0.000000 
#    z -0.009580 0.000000 1.709000 
# 
# From -- ./inp_files/261841.got.cif
#   From: 2010.06.25/outbox.cif.g09.slc.cpg/sg15_131_cif.got.tgz:261841.got - 2010.06.28 07:06:18.
