data_PCOD8148493
_publ_section_title
;
Structure prediction by ZEFSAII (Michael W. Deem and Ramdas Pophale) SiO2 
 PCOD8148493
Probable space group: C 2/C
;
_chemical_formula_sum "Si O2"
_cell_formula_units_Z 48
_cell_length_a 12.188888
_cell_length_b 12.846711
_cell_length_c 32.151030
_cell_angle_alpha 90.000000
_cell_angle_beta 153.282543
_cell_angle_gamma 90.000000
_cell_volume 2263.438540
_symmetry_space_group_name_H-M "C 2/C"
_symmetry_group_IT_number 15
_symmetry_cell_setting 'monoclinic'
loop_
_space_group_symop_operation_xyz
x,y,z
-x,y,1/2-z
-x,-y,-z
x,-y,1/2+z
1/2+x,1/2+y,z
1/2-x,1/2+y,1/2-z
1/2-x,1/2-y,-z
1/2+x,1/2-y,1/2+z
loop_
_atom_site_type_symbol
_atom_site_label
_atom_site_fract_x
_atom_site_fract_y
_atom_site_fract_z
Si Si1 0.814563 0.431181 0.962613
Si Si2 0.271701 0.503816 0.775564
Si Si3 0.893520 0.548669 0.584602
Si Si4 0.934463 0.207352 0.977252
Si Si5 0.950563 0.664112 0.137123
Si Si6 0.763662 0.190001 0.829183
O O1 0.557892 0.486759 0.868681
O O2 0.797754 0.314655 0.940011
O O3 0.903380 0.421677 0.039991
O O4 0.000000 0.500000 0.000000
O O5 0.218608 0.572344 0.798203
O O6 0.158496 0.565703 0.696877
O O7 0.134543 0.391559 0.732399
O O8 0.684888 0.615640 0.536504
O O9 0.830761 0.425898 0.567172
O O10 0.920976 0.184534 0.923819
O O11 0.224938 0.216996 0.085461
O O12 0.096533 0.746336 0.158938
O O13 0.500000 0.241427 0.750000
#
# Coordination Sequence:
#
# PCOD8148493 Si02
#       6
#     8   8   8   8   8   8
#     4  12  25  45  70 100 139 183 230 295 352 411
#     4  10  25  41  67  99 136 177 231 283 350 413
#     4  10  24  43  66  96 140 176 228 287 344 416
#     4  12  23  43  69 101 134 184 230 285 354 417
#     4  10  23  41  67  99 133 175 232 283 337 417
#     4  12  21  41  69  98 133 179 234 285 344 417
#
# _framework density 21.206672000000001
#
# number of rings (size 3 to 8) (size 9 to 14) (size 15 to 20)
#    1.000    0.000    1.667    5.500    0.000    2.000 
#    0.000    0.000    0.000    0.000    0.000    0.000 
#    0.000    0.000    0.000    0.000    0.000    0.000 
#
# Total GULP energy -297480.942754 kJ/mol
# GULP energy per Si atom -12395.039281 kJ/mol
# Density = 2.115840 g / cm^3
# Si number density = 21.206672 Si / 1000 Ang^3
#
#
#
# Elastic Constant Matrix: (Units=GPa)
#
#
# Indices 1 2 3 4 5 6 
#
# 1 82.8015 45.4499 43.1259 -0.0001 9.3458 0.0001
# 2 45.4499 79.0891 17.2577 -0.0001 3.2333 0.0000
# 3 43.1259 17.2577 114.0436 -0.0016 13.7766 0.0000
# 4 -0.0001 -0.0001 -0.0016 28.2164 -0.0001 6.7572
# 5 9.3458 3.2333 13.7766 -0.0001 44.0971 0.0000
# 6 0.0001 0.0000 0.0000 6.7572 0.0000 42.0041
#
#
#
# Elastic Compliance Matrix: (Units=1/GPa)
#
#
# Indices 1 2 3 4 5 6 
#
# 1 0.021559 -0.010945 -0.006278 0.000000 -0.001805 0.000000
# 2 -0.010945 0.018638 0.001251 0.000000 0.000562 0.000000
# 3 -0.006278 0.001251 0.011227 0.000001 -0.002269 0.000000
# 4 0.000000 0.000000 0.000001 0.036860 0.000000 -0.005930
# 5 -0.001805 0.000562 -0.002269 0.000000 0.023727 0.000000
# 6 0.000000 0.000000 0.000000 -0.005930 0.000000 0.024761
#
#
# Mechanical properties :
#
#
# Convention : Reuss Voigt Hill
#
# Bulk Modulus (GPa) = 51.33842 54.17792 52.75817
# Shear Modulus (GPa) = 28.53699 34.20356 31.37028
#
# Velocity S-wave (km/s) = 3.67230 4.02041 3.85029
# Velocity P-wave (km/s) = 6.49941 6.86692 6.68569
#
# Compressibility (1/GPa) = 0.01947859
#
# Stress axis : x y z
#
# Youngs Moduli (GPa) = 46.38531 53.65391 89.06732
#
# Poissons Ratio (x) = 0.58726 0.55917
# Poissons Ratio (y) = 0.50770 -0.11139
# Poissons Ratio (z) = 0.29121 -0.06710
#
# Static dielectric constant tensor:
#      x y z
#    x 3.590320 0.000000 0.076810 
#    y 0.000000 3.848460 0.000000 
#    z 0.076810 0.000000 3.897170 
# 
# 
# High freq. dielectric constant tensor:
#      x y z
#    x 1.821520 0.000000 0.011700 
#    y 0.000000 1.833840 0.000000 
#    z 0.011700 0.000000 1.840630 
# 
# From -- ./inp_files/311254.got.cif
#   From: 2010.06.25/outbox.cif.g09.slc.cpg/sg15_156_cif.got.tgz:311254.got - 2010.06.28 07:06:18.
