data_PCOD8148591
_publ_section_title
;
Structure prediction by ZEFSAII (Michael W. Deem and Ramdas Pophale) SiO2 
 PCOD8148591
Probable space group: C 2/C
;
_chemical_formula_sum "Si O2"
_cell_formula_units_Z 44
_cell_length_a 11.629657
_cell_length_b 32.997954
_cell_length_c 5.298914
_cell_angle_alpha 90.000000
_cell_angle_beta 100.938672
_cell_angle_gamma 90.000000
_cell_volume 1996.537480
_symmetry_space_group_name_H-M "C 2/C"
_symmetry_group_IT_number 15
_symmetry_cell_setting 'monoclinic'
loop_
_space_group_symop_operation_xyz
x,y,z
-x,y,1/2-z
-x,-y,-z
x,-y,1/2+z
1/2+x,1/2+y,z
1/2-x,1/2+y,1/2-z
1/2-x,1/2-y,-z
1/2+x,1/2-y,1/2+z
loop_
_atom_site_type_symbol
_atom_site_label
_atom_site_fract_x
_atom_site_fract_y
_atom_site_fract_z
Si Si1 0.640002 0.304916 0.417649
Si Si2 0.500000 0.172928 0.750000
Si Si3 0.500000 0.473429 0.750000
Si Si4 0.714301 0.875449 0.172374
Si Si5 0.500000 0.657507 0.250000
Si Si6 0.830098 0.725652 0.345834
Si Si7 0.303633 0.407162 0.696593
O O1 0.683133 0.341037 0.249750
O O2 0.514104 0.314685 0.502704
O O3 0.748036 0.305732 0.662879
O O4 0.616914 0.259689 0.314259
O O5 0.412765 0.145462 0.879471
O O6 0.432113 0.200967 0.523998
O O7 0.500000 0.500000 0.500000
O O8 0.381746 0.447357 0.719833
O O9 0.720042 0.905751 0.416217
O O10 0.731599 0.902974 0.928257
O O11 0.615446 0.631589 0.297102
O O12 0.750000 0.750000 0.500000
#
# Coordination Sequence:
#
# PCOD8148591 Si02
#       7
#     8   4   4   8   4   8   8
#     4  10  23  43  57  80 121 163 225 293 360 404
#     4  12  24  43  67  84 120 180 240 294 360 398
#     4  11  22  42  77 116 148 178 198 236 322 404
#     4  11  23  43  62  89 129 173 230 281 330 391
#     4   9  20  39  60  82 114 172 200 258 344 400
#     4  11  24  45  51  84 116 161 234 306 352 410
#     4  10  23  42  64 102 138 163 211 259 309 404
#
# _framework density 22.038155
#
# number of rings (size 3 to 8) (size 9 to 14) (size 15 to 20)
#    0.000    1.455    1.818    3.273    0.000    9.455 
#    6.545    0.000    0.000    0.000    0.000   12.727 
#    0.000    0.000    0.000    0.000    0.000    0.000 
#
# Total GULP energy -272747.646432 kJ/mol
# GULP energy per Si atom -12397.620292 kJ/mol
# Density = 2.198800 g / cm^3
# Si number density = 22.038155 Si / 1000 Ang^3
#
#
#
# Elastic Constant Matrix: (Units=GPa)
#
#
# Indices 1 2 3 4 5 6 
#
# 1 132.6088 50.5876 53.9618 0.0000 -16.0502 0.0000
# 2 50.5876 106.2514 56.1562 0.0000 -10.4126 0.0000
# 3 53.9618 56.1562 150.8242 0.0000 -14.4244 0.0000
# 4 0.0000 0.0000 0.0000 -2.7277 0.0000 -32.6228
# 5 -16.0502 -10.4126 -14.4244 0.0000 45.1185 0.0000
# 6 0.0000 0.0000 0.0000 -32.6228 0.0000 18.7389
#
#
#
# Elastic Compliance Matrix: (Units=1/GPa)
#
#
# Indices 1 2 3 4 5 6 
#
# 1 0.009950 -0.003432 -0.002083 0.000000 0.002081 0.000000
# 2 -0.003432 0.012982 -0.003544 0.000000 0.000642 0.000000
# 3 -0.002083 -0.003544 0.008815 0.000000 0.001259 0.000000
# 4 0.000000 0.000000 0.000000 -0.016801 0.000000 -0.029249
# 5 0.002081 0.000642 0.001259 0.000000 0.023455 0.000000
# 6 0.000000 0.000000 0.000000 -0.029249 0.000000 0.002446
#
#
# Mechanical properties :
#
#
# Convention : Reuss Voigt Hill
#
# Bulk Modulus (GPa) = 73.37544 79.01061 76.19303
# Shear Modulus (GPa) = 78.72939 27.49120 53.11029
#
# Velocity S-wave (km/s) = 5.98345 3.53574 4.91442
# Velocity P-wave (km/s) = 9.00570 7.25246 8.17621
#
# Compressibility (1/GPa) = 0.01362854
#
# Stress axis : x y z
#
# Youngs Moduli (GPa) = 100.50392 77.03030 113.43755
#
# Poissons Ratio (x) = 0.26440 0.23627
# Poissons Ratio (y) = 0.34498 0.40203
# Poissons Ratio (z) = 0.20933 0.27300
#
# Static dielectric constant tensor:
#      x y z
#    x 4.260340 0.000000 -0.131240 
#    y 0.000000 3.343480 0.000000 
#    z -0.131240 0.000000 3.805910 
# 
# 
# High freq. dielectric constant tensor:
#      x y z
#    x 1.868950 0.000000 -0.007510 
#    y 0.000000 1.829430 0.000000 
#    z -0.007510 0.000000 1.893560 
# 
# From -- ./inp_files/5892.got.cif
#   From: 2010.06.25/outbox.cif.g09.slc.cpg/sg15_3_cif.got.tgz:5892.got - 2010.06.28 07:06:18.
