data_PCOD8148327
_publ_section_title
;
Structure prediction by ZEFSAII (Michael W. Deem and Ramdas Pophale) SiO2 
 PCOD8148327
Probable space group: C 2/C
;
_chemical_formula_sum "Si O2"
_cell_formula_units_Z 56
_cell_length_a 29.970731
_cell_length_b 10.655051
_cell_length_c 8.985301
_cell_angle_alpha 90.000000
_cell_angle_beta 63.828493
_cell_angle_gamma 90.000000
_cell_volume 2575.189673
_symmetry_space_group_name_H-M "C 2/C"
_symmetry_group_IT_number 15
_symmetry_cell_setting 'monoclinic'
loop_
_space_group_symop_operation_xyz
x,y,z
-x,y,1/2-z
-x,-y,-z
x,-y,1/2+z
1/2+x,1/2+y,z
1/2-x,1/2+y,1/2-z
1/2-x,1/2-y,-z
1/2+x,1/2-y,1/2+z
loop_
_atom_site_type_symbol
_atom_site_label
_atom_site_fract_x
_atom_site_fract_y
_atom_site_fract_z
Si Si1 0.616806 0.226973 0.513599
Si Si2 0.504367 0.334945 0.398218
Si Si3 0.169303 0.906754 0.235984
Si Si4 0.077439 0.066288 0.289683
Si Si5 0.216829 0.644289 0.478643
Si Si6 0.473179 0.893941 0.442392
Si Si7 0.764268 0.958966 0.624079
O O1 0.639706 0.282959 0.327682
O O2 0.583453 0.334529 0.645050
O O3 0.659032 0.180706 0.565903
O O4 0.585590 0.100817 0.512190
O O5 0.500000 0.258612 0.250000
O O6 0.540031 0.452525 0.304082
O O7 0.448617 0.369524 0.530589
O O8 0.527129 0.243502 0.485341
O O9 0.131837 0.021328 0.258748
O O10 0.204083 0.942406 0.324906
O O11 0.199491 0.879464 0.038970
O O12 0.250000 0.750000 0.500000
O O13 0.224675 0.523846 0.571586
O O14 0.234148 0.628767 0.281452
O O15 0.500000 0.891142 0.250000
O O16 0.500000 0.000000 0.500000
#
# Coordination Sequence:
#
# PCOD8148327 Si02
#       7
#     8   8   8   8   8   8   8
#     4  12  23  41  72 102 136 192 230 294 357 425
#     4  11  24  39  68 105 142 170 223 296 358 413
#     4  11  19  38  66 104 137 170 230 289 359 417
#     4  11  22  38  70 109 138 172 226 295 367 415
#     4  11  23  46  67  99 143 183 237 295 361 418
#     4  12  27  49  69  93 141 191 238 280 337 425
#     4  10  23  40  68  98 138 185 226 298 347 424
#
# _framework density 21.74597
#
# number of rings (size 3 to 8) (size 9 to 14) (size 15 to 20)
#    0.000    0.857    5.714    2.143    2.000    1.714 
#    0.000    0.000    0.000    0.000    0.000    0.000 
#    0.000    0.000    0.000    0.000    0.000    0.000 
#
# Total GULP energy -346957.270038 kJ/mol
# GULP energy per Si atom -12391.331073 kJ/mol
# Density = 2.169648 g / cm^3
# Si number density = 21.745970 Si / 1000 Ang^3
#
#
#
# Elastic Constant Matrix: (Units=GPa)
#
#
# Indices 1 2 3 4 5 6 
#
# 1 136.0590 56.0075 45.9399 0.0000 -1.1187 0.0000
# 2 56.0075 80.2730 50.3952 0.0000 -5.2799 0.0000
# 3 45.9399 50.3952 162.7489 0.0000 9.3894 0.0000
# 4 0.0000 0.0000 0.0000 6.4307 0.0000 5.9960
# 5 -1.1187 -5.2799 9.3894 0.0000 30.1810 0.0000
# 6 0.0000 0.0000 0.0000 5.9960 0.0000 36.4951
#
#
#
# Elastic Compliance Matrix: (Units=1/GPa)
#
#
# Indices 1 2 3 4 5 6 
#
# 1 0.010415 -0.006799 -0.000803 0.000000 -0.000554 0.000000
# 2 -0.006799 0.020463 -0.004693 0.000000 0.004788 0.000000
# 3 -0.000803 -0.004693 0.008017 0.000000 -0.003345 0.000000
# 4 0.000000 0.000000 0.000000 0.183636 0.000000 -0.030171
# 5 -0.000554 0.004788 -0.003345 0.000000 0.034991 0.000000
# 6 0.000000 0.000000 0.000000 -0.030171 0.000000 0.032358
#
#
# Mechanical properties :
#
#
# Convention : Reuss Voigt Hill
#
# Bulk Modulus (GPa) = 69.90639 75.97400 72.94019
# Shear Modulus (GPa) = 15.66227 29.73725 22.69976
#
# Velocity S-wave (km/s) = 2.68664 3.70196 3.23439
# Velocity P-wave (km/s) = 6.46843 7.29970 6.89660
#
# Compressibility (1/GPa) = 0.01430484
#
# Stress axis : x y z
#
# Youngs Moduli (GPa) = 96.01485 48.86920 124.73153
#
# Poissons Ratio (x) = 0.33228 0.10010
# Poissons Ratio (y) = 0.65283 0.58540
# Poissons Ratio (z) = 0.07706 0.22936
#
# Static dielectric constant tensor:
#      x y z
#    x 4.128880 0.000000 -0.044080 
#    y 0.000000 4.164560 0.000000 
#    z -0.044080 0.000000 4.198880 
# 
# 
# High freq. dielectric constant tensor:
#      x y z
#    x 1.867100 0.000000 0.003700 
#    y 0.000000 1.822570 0.000000 
#    z 0.003700 0.000000 1.870870 
# 
# From -- ./inp_files/69045.got.cif
#   From: 2010.06.25/outbox.cif.g09.slc.cpg/sg15_35_cif.got.tgz:69045.got - 2010.06.28 07:06:18.
