data_PCOD8148483
_publ_section_title
;
Structure prediction by ZEFSAII (Michael W. Deem and Ramdas Pophale) SiO2 
 PCOD8148483
Probable space group: C 2/C
;
_chemical_formula_sum "Si O2"
_cell_formula_units_Z 64
_cell_length_a 27.301226
_cell_length_b 15.809991
_cell_length_c 11.512684
_cell_angle_alpha 90.000000
_cell_angle_beta 37.227676
_cell_angle_gamma 90.000000
_cell_volume 3006.312351
_symmetry_space_group_name_H-M "C 2/C"
_symmetry_group_IT_number 15
_symmetry_cell_setting 'monoclinic'
loop_
_space_group_symop_operation_xyz
x,y,z
-x,y,1/2-z
-x,-y,-z
x,-y,1/2+z
1/2+x,1/2+y,z
1/2-x,1/2+y,1/2-z
1/2-x,1/2-y,-z
1/2+x,1/2-y,1/2+z
loop_
_atom_site_type_symbol
_atom_site_label
_atom_site_fract_x
_atom_site_fract_y
_atom_site_fract_z
Si Si1 0.461017 0.319667 0.625468
Si Si2 0.423706 0.240313 0.456746
Si Si3 0.219590 0.437435 0.868868
Si Si4 0.163272 0.866163 0.029754
Si Si5 0.727417 0.884342 0.270618
Si Si6 0.588329 0.186665 0.598340
Si Si7 0.831187 0.047324 0.374450
Si Si8 0.143460 0.802799 0.307102
O O1 0.450129 0.256939 0.537957
O O2 0.421382 0.272636 0.810549
O O3 0.414841 0.406394 0.690735
O O4 0.554219 0.345734 0.469627
O O5 0.407425 0.328282 0.418240
O O6 0.343018 0.184261 0.606561
O O7 0.500000 0.194480 0.250000
O O8 0.257412 0.376924 0.698504
O O9 0.187238 0.525477 0.877747
O O10 0.284130 0.463226 0.843335
O O11 0.143714 0.382860 0.058918
O O12 0.177286 0.799444 0.110018
O O13 0.142335 0.958354 0.120254
O O14 0.793344 0.858636 0.241333
O O15 0.773843 0.894350 0.061869
O O16 0.500000 0.144469 0.750000
O O17 0.628322 0.211857 0.397560
#
# Coordination Sequence:
#
# PCOD8148483 Si02
#       8
#     8   8   8   8   8   8   8   8
#     4  11  23  42  68  95 127 166 215 262 314 380
#     4  12  25  45  64  95 128 171 216 259 316 378
#     4  11  23  43  65  95 126 169 217 259 316 373
#     4  11  24  41  64  95 129 166 205 259 323 380
#     4  11  25  42  67  92 131 169 212 261 317 379
#     4  10  23  41  67  93 127 167 214 265 311 374
#     4  11  23  42  66  97 126 166 215 262 314 380
#     4  11  22  43  62  97 128 165 205 259 323 377
#
# _framework density 21.288539
#
# number of rings (size 3 to 8) (size 9 to 14) (size 15 to 20)
#    0.000    1.000    5.000    1.500    0.000    4.000 
#    4.500    0.000    0.000    4.500    0.000    0.000 
#    0.000    0.000    0.000    0.000    0.000    0.000 
#
# Total GULP energy -396647.320659 kJ/mol
# GULP energy per Si atom -12395.228771 kJ/mol
# Density = 2.124009 g / cm^3
# Si number density = 21.288539 Si / 1000 Ang^3
#
#
#
# Elastic Constant Matrix: (Units=GPa)
#
#
# Indices 1 2 3 4 5 6 
#
# 1 88.4990 23.8508 38.5781 0.0000 -6.0241 0.0000
# 2 23.8508 43.8613 33.3119 0.0000 -17.6585 0.0000
# 3 38.5781 33.3119 70.0910 0.0000 -3.8092 0.0000
# 4 0.0000 0.0000 0.0000 17.5751 0.0000 4.9222
# 5 -6.0241 -17.6585 -3.8092 0.0000 40.3400 0.0000
# 6 0.0000 0.0000 0.0000 4.9222 0.0000 7.3213
#
#
#
# Elastic Compliance Matrix: (Units=1/GPa)
#
#
# Indices 1 2 3 4 5 6 
#
# 1 0.015115 -0.002753 -0.006990 0.000000 0.000392 0.000000
# 2 -0.002753 0.046434 -0.019571 0.000000 0.018067 0.000000
# 3 -0.006990 -0.019571 0.027032 0.000000 -0.007058 0.000000
# 4 0.000000 0.000000 0.000000 0.070098 0.000000 -0.047128
# 5 0.000392 0.018067 -0.007058 0.000000 0.032090 0.000000
# 6 0.000000 0.000000 0.000000 -0.047128 0.000000 0.168273
#
#
# Mechanical properties :
#
#
# Convention : Reuss Voigt Hill
#
# Bulk Modulus (GPa) = 33.38520 43.77033 38.57776
# Shear Modulus (GPa) = 11.69168 20.16132 15.92650
#
# Velocity S-wave (km/s) = 2.34605 3.08076 2.73816
# Velocity P-wave (km/s) = 4.80155 5.76714 5.30635
#
# Compressibility (1/GPa) = 0.02995339
#
# Stress axis : x y z
#
# Youngs Moduli (GPa) = 66.15907 21.53600 36.99266
#
# Poissons Ratio (x) = 0.05928 0.25857
# Poissons Ratio (y) = 0.18212 0.72400
# Poissons Ratio (z) = 0.46244 0.42149
#
# Static dielectric constant tensor:
#      x y z
#    x 3.973410 0.000000 0.168130 
#    y 0.000000 3.608370 0.000000 
#    z 0.168130 0.000000 4.008240 
# 
# 
# High freq. dielectric constant tensor:
#      x y z
#    x 1.845140 0.000000 0.004150 
#    y 0.000000 1.815620 0.000000 
#    z 0.004150 0.000000 1.842380 
# 
# From -- ./inp_files/127282.got.cif
#   From: 2010.06.25/outbox.cif.g09.slc.cpg/sg15_64_cif.got.tgz:127282.got - 2010.06.28 07:06:18.
