data_PCOD8148641
_publ_section_title
;
Structure prediction by ZEFSAII (Michael W. Deem and Ramdas Pophale) SiO2 
 PCOD8148641
Probable space group: C 2/C
;
_chemical_formula_sum "Si O2"
_cell_formula_units_Z 40
_cell_length_a 22.654793
_cell_length_b 14.119860
_cell_length_c 4.892149
_cell_angle_alpha 90.000000
_cell_angle_beta 67.540523
_cell_angle_gamma 90.000000
_cell_volume 1446.214172
_symmetry_space_group_name_H-M "C 2/C"
_symmetry_group_IT_number 15
_symmetry_cell_setting 'monoclinic'
loop_
_space_group_symop_operation_xyz
x,y,z
-x,y,1/2-z
-x,-y,-z
x,-y,1/2+z
1/2+x,1/2+y,z
1/2-x,1/2+y,1/2-z
1/2-x,1/2-y,-z
1/2+x,1/2-y,1/2+z
loop_
_atom_site_type_symbol
_atom_site_label
_atom_site_fract_x
_atom_site_fract_y
_atom_site_fract_z
Si Si1 0.500000 0.669047 0.250000
Si Si2 0.679853 0.937779 0.913541
Si Si3 0.878388 0.937074 0.138929
Si Si4 0.500000 0.068956 0.250000
Si Si5 0.403857 0.795114 0.113669
Si Si6 0.701950 0.667621 0.138447
O O1 0.449979 0.601768 0.491963
O O2 0.465211 0.738743 0.105718
O O3 0.633994 0.850407 0.076622
O O4 0.756028 0.914223 0.793985
O O5 0.666073 0.029227 0.129913
O O6 0.827346 0.863719 0.103994
O O7 0.869070 0.964966 0.475048
O O8 0.434465 0.130470 0.347657
O O9 0.500000 0.000000 0.500000
O O10 0.354875 0.715918 0.072482
O O11 0.750000 0.750000 0.000000
#
# Coordination Sequence:
#
# PCOD8148641 Si02
#       6
#     4   8   8   4   8   8
#     4  10  23  42  65  96 136 178 224 276 337 402
#     4  11  23  44  69  98 132 175 225 280 339 406
#     4  11  23  42  66  96 132 177 226 278 335 403
#     4  12  25  44  67  96 134 180 226 276 335 406
#     4  10  23  43  67  99 137 179 226 281 343 410
#     4   9  21  43  68  99 135 176 225 283 346 407
#
# _framework density 27.658422000000002
#
# number of rings (size 3 to 8) (size 9 to 14) (size 15 to 20)
#    0.000    1.600    0.000    3.600    0.000    4.800 
#    0.000   28.000    0.000    0.000    0.000    0.000 
#    0.000    0.000    0.000    0.000    0.000    0.000 
#
# Total GULP energy -247857.155618 kJ/mol
# GULP energy per Si atom -12392.857781 kJ/mol
# Density = 2.759547 g / cm^3
# Si number density = 27.658422 Si / 1000 Ang^3
#
#
#
# Elastic Constant Matrix: (Units=GPa)
#
#
# Indices 1 2 3 4 5 6 
#
# 1 133.8982 44.5348 15.8576 0.0000 -27.8519 0.0000
# 2 44.5348 119.2882 14.3849 0.0000 -19.8943 0.0000
# 3 15.8576 14.3849 79.0798 0.0000 -8.7221 0.0000
# 4 0.0000 0.0000 0.0000 34.2043 0.0000 -13.0499
# 5 -27.8519 -19.8943 -8.7221 0.0000 39.5553 0.0000
# 6 0.0000 0.0000 0.0000 -13.0499 0.0000 54.9641
#
#
#
# Elastic Compliance Matrix: (Units=1/GPa)
#
#
# Indices 1 2 3 4 5 6 
#
# 1 0.009512 -0.002578 -0.000864 0.000000 0.005211 0.000000
# 2 -0.002578 0.009959 -0.000966 0.000000 0.002981 0.000000
# 3 -0.000864 -0.000966 0.013195 0.000000 0.001816 0.000000
# 4 0.000000 0.000000 0.000000 0.032148 0.000000 0.007633
# 5 0.005211 0.002981 0.001816 0.000000 0.030849 0.000000
# 6 0.000000 0.000000 0.000000 0.007633 0.000000 0.020006
#
#
# Mechanical properties :
#
#
# Convention : Reuss Voigt Hill
#
# Bulk Modulus (GPa) = 41.92813 53.53565 47.73189
# Shear Modulus (GPa) = 37.75450 42.91068 40.33259
#
# Velocity S-wave (km/s) = 3.69864 3.94312 3.82283
# Velocity P-wave (km/s) = 5.78205 6.33474 6.06469
#
# Compressibility (1/GPa) = 0.02385034
#
# Stress axis : x y z
#
# Youngs Moduli (GPa) = 105.13108 100.41050 75.78862
#
# Poissons Ratio (x) = 0.25886 0.06546
# Poissons Ratio (y) = 0.27103 0.07320
# Poissons Ratio (z) = 0.09081 0.09698
#
# Static dielectric constant tensor:
#      x y z
#    x 3.930360 0.000000 1.136330 
#    y 0.000000 5.862300 0.000000 
#    z 1.136330 0.000000 2.947650 
# 
# 
# High freq. dielectric constant tensor:
#      x y z
#    x 2.135690 0.000000 -0.031860 
#    y 0.000000 2.150540 0.000000 
#    z -0.031860 0.000000 2.086860 
# 
# From -- ./inp_files/15092.got.cif
#   From: 2010.06.25/outbox.cif.g09.slc.cpg/sg15_8_cif.got.tgz:15092.got - 2010.06.28 07:06:18.
