data_PCOD8148391
_publ_section_title
;
Structure prediction by ZEFSAII (Michael W. Deem and Ramdas Pophale) SiO2 
 PCOD8148391
Probable space group: C 2/C
;
_chemical_formula_sum "Si O2"
_cell_formula_units_Z 64
_cell_length_a 17.890073
_cell_length_b 14.164390
_cell_length_c 16.451200
_cell_angle_alpha 90.000000
_cell_angle_beta 130.565776
_cell_angle_gamma 90.000000
_cell_volume 3166.844720
_symmetry_space_group_name_H-M "C 2/C"
_symmetry_group_IT_number 15
_symmetry_cell_setting 'monoclinic'
loop_
_space_group_symop_operation_xyz
x,y,z
-x,y,1/2-z
-x,-y,-z
x,-y,1/2+z
1/2+x,1/2+y,z
1/2-x,1/2+y,1/2-z
1/2-x,1/2-y,-z
1/2+x,1/2-y,1/2+z
loop_
_atom_site_type_symbol
_atom_site_label
_atom_site_fract_x
_atom_site_fract_y
_atom_site_fract_z
Si Si1 0.240429 0.479459 0.476371
Si Si2 0.605566 0.357131 0.843830
Si Si3 0.391781 0.772310 0.672338
Si Si4 0.596915 0.172997 0.939572
Si Si5 0.677335 0.930076 0.773554
Si Si6 0.876520 0.372354 0.332954
Si Si7 0.707229 0.844050 0.055789
Si Si8 0.252908 0.700923 0.186989
O O1 0.339703 0.419206 0.550349
O O2 0.143173 0.417246 0.426246
O O3 0.246661 0.524782 0.391581
O O4 0.245265 0.557535 0.549004
O O5 0.500000 0.401546 0.750000
O O6 0.598982 0.251933 0.872604
O O7 0.665019 0.358441 0.802045
O O8 0.500000 0.723796 0.750000
O O9 0.403420 0.869231 0.732971
O O10 0.357045 0.787365 0.555358
O O11 0.306651 0.709962 0.654493
O O12 0.484759 0.157983 0.884175
O O13 0.655500 0.204698 0.062038
O O14 0.735948 0.858008 0.757261
O O15 0.631509 0.016281 0.691230
O O16 0.865865 0.360094 0.421409
O O17 0.793045 0.307326 0.231091
#
# Coordination Sequence:
#
# PCOD8148391 Si02
#       8
#     8   8   8   8   8   8   8   8
#     4  10  23  41  63  90 129 169 217 254 321 385
#     4  11  21  41  65  92 129 173 209 262 325 384
#     4  10  23  43  65  87 127 170 209 255 323 375
#     4  11  24  39  66  97 129 166 208 269 327 378
#     4  11  24  40  65  95 130 165 212 271 318 377
#     4  12  23  38  67  97 128 161 216 266 322 375
#     4  10  23  42  62  91 126 168 210 262 306 384
#     4  11  23  42  61  95 132 164 209 269 321 377
#
# _framework density 20.209389000000002
#
# number of rings (size 3 to 8) (size 9 to 14) (size 15 to 20)
#    0.000    1.250    2.500    4.500    5.250    1.500 
#    0.000    0.625    2.750    0.000    0.000    0.000 
#    0.000    0.000    0.000    0.000    0.000    0.000 
#
# Total GULP energy -396719.952284 kJ/mol
# GULP energy per Si atom -12397.498509 kJ/mol
# Density = 2.016339 g / cm^3
# Si number density = 20.209389 Si / 1000 Ang^3
#
#
#
# Elastic Constant Matrix: (Units=GPa)
#
#
# Indices 1 2 3 4 5 6 
#
# 1 108.3269 35.8218 63.1974 0.0000 -4.0245 0.0000
# 2 35.8218 69.8753 35.8419 0.0000 15.2847 0.0000
# 3 63.1974 35.8419 89.1011 0.0000 12.2931 0.0000
# 4 0.0000 0.0000 0.0000 24.8268 0.0000 -14.4056
# 5 -4.0245 15.2847 12.2931 0.0000 30.4801 0.0000
# 6 0.0000 0.0000 0.0000 -14.4056 0.0000 17.7098
#
#
#
# Elastic Compliance Matrix: (Units=1/GPa)
#
#
# Indices 1 2 3 4 5 6 
#
# 1 0.018683 -0.005408 -0.012485 0.000000 0.010214 0.000000
# 2 -0.005408 0.020892 -0.003202 0.000000 -0.009899 0.000000
# 3 -0.012485 -0.003202 0.022632 0.000000 -0.009170 0.000000
# 4 0.000000 0.000000 0.000000 0.076283 0.000000 0.062051
# 5 0.010214 -0.009899 -0.009170 0.000000 0.042819 0.000000
# 6 0.000000 0.000000 0.000000 0.062051 0.000000 0.106939
#
#
# Mechanical properties :
#
#
# Convention : Reuss Voigt Hill
#
# Bulk Modulus (GPa) = 49.96131 59.66949 54.81540
# Shear Modulus (GPa) = 14.83188 23.43283 19.13235
#
# Velocity S-wave (km/s) = 2.71202 3.40884 3.08020
# Velocity P-wave (km/s) = 5.88066 6.71441 6.31132
#
# Compressibility (1/GPa) = 0.02001549
#
# Stress axis : x y z
#
# Youngs Moduli (GPa) = 53.52493 47.86624 44.18508
#
# Poissons Ratio (x) = 0.25886 0.55166
# Poissons Ratio (y) = 0.28946 0.14150
# Poissons Ratio (z) = 0.66827 0.15329
#
# Static dielectric constant tensor:
#      x y z
#    x 3.727910 0.000000 -0.070560 
#    y 0.000000 3.880160 0.000000 
#    z -0.070560 0.000000 3.736720 
# 
# 
# High freq. dielectric constant tensor:
#      x y z
#    x 1.793330 0.000000 -0.011410 
#    y 0.000000 1.792470 0.000000 
#    z -0.011410 0.000000 1.787810 
# 
# From -- ./inp_files/205727.got.cif
#   From: 2010.06.25/outbox.cif.g09.slc.cpg/sg15_103_cif.got.tgz:205727.got - 2010.06.28 07:06:18.
