data_PCOD8148832
_publ_section_title
;
Structure prediction by ZEFSAII (Michael W. Deem and Ramdas Pophale) SiO2 
 PCOD8148832
Probable space group: C 2/C
;
_chemical_formula_sum "Si O2"
_cell_formula_units_Z 52
_cell_length_a 11.325283
_cell_length_b 9.742472
_cell_length_c 25.207220
_cell_angle_alpha 90.000000
_cell_angle_beta 109.022160
_cell_angle_gamma 90.000000
_cell_volume 2629.392220
_symmetry_space_group_name_H-M "C 2/C"
_symmetry_group_IT_number 15
_symmetry_cell_setting 'monoclinic'
loop_
_space_group_symop_operation_xyz
x,y,z
-x,y,1/2-z
-x,-y,-z
x,-y,1/2+z
1/2+x,1/2+y,z
1/2-x,1/2+y,1/2-z
1/2-x,1/2-y,-z
1/2+x,1/2-y,1/2+z
loop_
_atom_site_type_symbol
_atom_site_label
_atom_site_fract_x
_atom_site_fract_y
_atom_site_fract_z
Si Si1 0.166763 0.044148 0.895560
Si Si2 0.000000 0.737655 0.750000
Si Si3 0.055519 0.141186 0.986807
Si Si4 0.079607 0.930449 0.676146
Si Si5 0.303157 0.221047 0.449613
Si Si6 0.714730 0.310668 0.606277
Si Si7 0.708283 0.080319 0.843192
O O1 0.099069 0.120607 0.933691
O O2 0.233557 0.161661 0.871110
O O3 0.268561 0.933762 0.929008
O O4 0.062606 0.981168 0.841917
O O5 0.905087 0.833865 0.769987
O O6 0.916138 0.639663 0.701037
O O7 0.952430 0.261629 0.973526
O O8 0.173938 0.185948 0.039008
O O9 0.000000 0.000000 0.000000
O O10 0.092803 0.836398 0.625191
O O11 0.182108 0.054590 0.685861
O O12 0.250000 0.250000 0.500000
O O13 0.251617 0.322381 0.397095
O O14 0.817366 0.430095 0.634097
#
# Coordination Sequence:
#
# PCOD8148832 Si02
#       7
#     8   4   8   8   8   8   8
#     4  12  22  40  66  97 132 178 210 261 330 386
#     4  12  24  46  72  88 124 176 222 272 338 382
#     4  12  19  39  65  94 141 170 209 264 315 388
#     4  10  23  45  65  90 129 167 215 281 319 375
#     4  12  21  36  73  98 131 182 213 257 334 395
#     4  10  23  43  63  98 135 164 216 269 317 389
#     4  10  23  46  64  97 128 168 219 273 322 390
#
# _framework density 19.776434999999999
#
# number of rings (size 3 to 8) (size 9 to 14) (size 15 to 20)
#    0.923    0.000    7.692    0.462    0.000    1.846 
#    5.538    0.000    0.000    0.000    0.000    0.000 
#    0.000    0.000    0.000    0.000    0.000    0.000 
#
# Total GULP energy -322232.742431 kJ/mol
# GULP energy per Si atom -12393.567017 kJ/mol
# Density = 1.973142 g / cm^3
# Si number density = 19.776435 Si / 1000 Ang^3
#
#
#
# Elastic Constant Matrix: (Units=GPa)
#
#
# Indices 1 2 3 4 5 6 
#
# 1 68.9990 49.7187 25.6875 0.0000 10.1481 0.0000
# 2 49.7187 126.5686 39.8546 0.0000 1.4125 0.0000
# 3 25.6875 39.8546 85.6187 0.0000 11.9861 0.0000
# 4 0.0000 0.0000 0.0000 21.3119 0.0000 2.8335
# 5 10.1481 1.4125 11.9861 0.0000 23.8391 0.0000
# 6 0.0000 0.0000 0.0000 2.8335 0.0000 44.5273
#
#
#
# Elastic Compliance Matrix: (Units=1/GPa)
#
#
# Indices 1 2 3 4 5 6 
#
# 1 0.022136 -0.008049 -0.001766 0.000000 -0.008058 0.000000
# 2 -0.008049 0.012252 -0.003944 0.000000 0.004684 0.000000
# 3 -0.001766 -0.003944 0.014961 0.000000 -0.006536 0.000000
# 4 0.000000 0.000000 0.000000 0.047323 0.000000 -0.003011
# 5 -0.008058 0.004684 -0.006536 0.000000 0.048387 0.000000
# 6 0.000000 0.000000 0.000000 -0.003011 0.000000 0.022650
#
#
# Mechanical properties :
#
#
# Convention : Reuss Voigt Hill
#
# Bulk Modulus (GPa) = 45.80964 56.85644 51.33304
# Shear Modulus (GPa) = 24.69090 28.99737 26.84413
#
# Velocity S-wave (km/s) = 3.53725 3.83333 3.68826
# Velocity P-wave (km/s) = 6.31640 6.95734 6.64460
#
# Compressibility (1/GPa) = 0.02182946
#
# Stress axis : x y z
#
# Youngs Moduli (GPa) = 45.17591 81.61653 66.84219
#
# Poissons Ratio (x) = 0.65695 0.11806
# Poissons Ratio (y) = 0.36363 0.26363
# Poissons Ratio (z) = 0.07979 0.32190
#
# Static dielectric constant tensor:
#      x y z
#    x 3.808350 0.000000 0.056030 
#    y 0.000000 3.845300 0.000000 
#    z 0.056030 0.000000 3.577070 
# 
# 
# High freq. dielectric constant tensor:
#      x y z
#    x 1.756370 0.000000 -0.001410 
#    y 0.000000 1.772080 0.000000 
#    z -0.001410 0.000000 1.766740 
# 
# From -- ./inp_files/291223.got.cif
#   From: 2010.06.25/outbox.cif.g09.slc.cpg/sg15_146_cif.got.tgz:291223.got - 2010.06.28 07:06:18.
