data_PCOD8148707
_publ_section_title
;
Structure prediction by ZEFSAII (Michael W. Deem and Ramdas Pophale) SiO2 
 PCOD8148707
Probable space group: C 2/C
;
_chemical_formula_sum "Si O2"
_cell_formula_units_Z 56
_cell_length_a 9.118854
_cell_length_b 26.949773
_cell_length_c 10.327961
_cell_angle_alpha 90.000000
_cell_angle_beta 101.153232
_cell_angle_gamma 90.000000
_cell_volume 2490.170929
_symmetry_space_group_name_H-M "C 2/C"
_symmetry_group_IT_number 15
_symmetry_cell_setting 'monoclinic'
loop_
_space_group_symop_operation_xyz
x,y,z
-x,y,1/2-z
-x,-y,-z
x,-y,1/2+z
1/2+x,1/2+y,z
1/2-x,1/2+y,1/2-z
1/2-x,1/2-y,-z
1/2+x,1/2-y,1/2+z
loop_
_atom_site_type_symbol
_atom_site_label
_atom_site_fract_x
_atom_site_fract_y
_atom_site_fract_z
Si Si1 0.753917 0.896553 0.488255
Si Si2 0.064602 0.531008 0.391239
Si Si3 0.154630 0.999375 0.455787
Si Si4 0.945261 0.732636 0.383654
Si Si5 0.438002 0.133193 0.996117
Si Si6 0.612833 0.300522 0.886817
Si Si7 0.335377 0.406299 0.214482
O O1 0.778114 0.946710 0.578290
O O2 0.590038 0.872678 0.440163
O O3 0.869069 0.857152 0.566351
O O4 0.789195 0.913965 0.351932
O O5 0.240603 0.523679 0.416202
O O6 0.039594 0.590053 0.394014
O O7 0.000000 0.508046 0.250000
O O8 0.000000 0.500000 0.500000
O O9 0.152331 0.962322 0.334648
O O10 0.000000 0.000000 0.500000
O O11 0.769822 0.719243 0.356914
O O12 0.959384 0.772833 0.501071
O O13 0.000000 0.752064 0.250000
O O14 0.056881 0.686695 0.434306
O O15 0.285796 0.126882 0.886104
O O16 0.500000 0.295879 0.750000
O O17 0.500000 0.380416 0.250000
#
# Coordination Sequence:
#
# PCOD8148707 Si02
#       7
#     8   8   8   8   8   8   8
#     4  11  23  43  65  95 139 185 232 281 349 418
#     4  11  24  39  64  95 131 178 229 271 331 406
#     4  11  24  41  59  93 137 185 225 288 333 405
#     4  10  23  47  76 104 140 181 237 289 360 429
#     4  10  23  42  67  99 136 181 226 289 343 417
#     4  10  25  47  72 106 141 183 229 297 361 420
#     4  11  24  39  64 100 135 181 236 279 347 410
#
# _framework density 22.488417999999999
#
# number of rings (size 3 to 8) (size 9 to 14) (size 15 to 20)
#    0.000    1.429    2.857    0.857    4.000    6.286 
#    5.143    0.000    0.000    0.000    0.000    0.000 
#    0.000    0.000    0.000    0.000    0.000    0.000 
#
# Total GULP energy -346872.164386 kJ/mol
# GULP energy per Si atom -12388.291585 kJ/mol
# Density = 2.243723 g / cm^3
# Si number density = 22.488418 Si / 1000 Ang^3
#
#
#
# Elastic Constant Matrix: (Units=GPa)
#
#
# Indices 1 2 3 4 5 6 
#
# 1 113.6885 30.2262 71.1217 0.0000 8.1631 0.0000
# 2 30.2262 114.6006 52.3311 0.0000 1.5827 0.0000
# 3 71.1217 52.3311 171.1130 0.0000 2.3300 0.0000
# 4 0.0000 0.0000 0.0000 22.3304 0.0000 0.1537
# 5 8.1631 1.5827 2.3300 0.0000 44.3509 0.0000
# 6 0.0000 0.0000 0.0000 0.1537 0.0000 32.2445
#
#
#
# Elastic Compliance Matrix: (Units=1/GPa)
#
#
# Indices 1 2 3 4 5 6 
#
# 1 0.012157 -0.001028 -0.004712 0.000000 -0.001953 0.000000
# 2 -0.001028 0.010231 -0.002701 0.000000 -0.000034 0.000000
# 3 -0.004712 -0.002701 0.008622 0.000000 0.000511 0.000000
# 4 0.000000 0.000000 0.000000 0.044783 0.000000 -0.000213
# 5 -0.001953 -0.000034 0.000511 0.000000 0.022881 0.000000
# 6 0.000000 0.000000 0.000000 -0.000213 0.000000 0.031014
#
#
# Mechanical properties :
#
#
# Convention : Reuss Voigt Hill
#
# Bulk Modulus (GPa) = 70.78283 78.52892 74.65587
# Shear Modulus (GPa) = 33.05114 36.16671 34.60892
#
# Velocity S-wave (km/s) = 3.83782 4.01463 3.92722
# Velocity P-wave (km/s) = 7.15416 7.51567 7.33714
#
# Compressibility (1/GPa) = 0.01412772
#
# Stress axis : x y z
#
# Youngs Moduli (GPa) = 82.25484 97.74201 115.98458
#
# Poissons Ratio (x) = 0.10046 0.54654
# Poissons Ratio (y) = 0.08454 0.31331
# Poissons Ratio (z) = 0.38760 0.26403
#
# Static dielectric constant tensor:
#      x y z
#    x 4.316140 0.000000 0.164480 
#    y 0.000000 4.240820 0.000000 
#    z 0.164480 0.000000 3.901030 
# 
# 
# High freq. dielectric constant tensor:
#      x y z
#    x 1.900500 0.000000 0.008650 
#    y 0.000000 1.882150 0.000000 
#    z 0.008650 0.000000 1.882040 
# 
# From -- ./inp_files/81409.got.cif
#   From: 2010.06.25/outbox.cif.g09.slc.cpg/sg15_41_cif.got.tgz:81409.got - 2010.06.28 07:06:18.
