data_PCOD8148656
_publ_section_title
;
Structure prediction by ZEFSAII (Michael W. Deem and Ramdas Pophale) SiO2 
 PCOD8148656
Probable space group: C 2/C
;
_chemical_formula_sum "Si O2"
_cell_formula_units_Z 48
_cell_length_a 11.579435
_cell_length_b 7.559745
_cell_length_c 27.246102
_cell_angle_alpha 90.000000
_cell_angle_beta 94.798878
_cell_angle_gamma 90.000000
_cell_volume 2376.696895
_symmetry_space_group_name_H-M "C 2/C"
_symmetry_group_IT_number 15
_symmetry_cell_setting 'monoclinic'
loop_
_space_group_symop_operation_xyz
x,y,z
-x,y,1/2-z
-x,-y,-z
x,-y,1/2+z
1/2+x,1/2+y,z
1/2-x,1/2+y,1/2-z
1/2-x,1/2-y,-z
1/2+x,1/2-y,1/2+z
loop_
_atom_site_type_symbol
_atom_site_label
_atom_site_fract_x
_atom_site_fract_y
_atom_site_fract_z
Si Si1 0.459526 0.899120 0.569152
Si Si2 0.182326 0.579665 0.015108
Si Si3 0.846712 0.945991 0.101915
Si Si4 0.774635 0.704799 0.812394
Si Si5 0.123717 0.527140 0.776179
Si Si6 0.478644 0.222717 0.640849
O O1 0.567101 0.852971 0.538167
O O2 0.427571 0.724205 0.597994
O O3 0.349831 0.961170 0.533065
O O4 0.496220 0.050418 0.608320
O O5 0.260501 0.459844 0.053086
O O6 0.250000 0.750000 0.000000
O O7 0.774826 0.932045 0.149574
O O8 0.925855 0.120225 0.106825
O O9 0.790547 0.601053 0.762150
O O10 0.682848 0.860423 0.803475
O O11 0.896626 0.785256 0.834768
O O12 0.104952 0.678379 0.816363
O O13 0.000000 0.466492 0.750000
#
# Coordination Sequence:
#
# PCOD8148656 Si02
#       6
#     8   8   8   8   8   8
#     4  11  24  43  65  94 132 168 217 270 314 383
#     4  11  24  44  66  93 133 172 217 270 324 379
#     4  12  24  40  69  96 128 174 216 257 329 379
#     4  11  23  42  66  97 129 168 211 265 319 385
#     4  10  23  42  66  93 134 165 211 266 319 382
#     4  11  23  42  64  98 128 166 217 262 312 391
#
# _framework density 20.196096000000001
#
# number of rings (size 3 to 8) (size 9 to 14) (size 15 to 20)
#    0.000    1.000    5.000    1.500    0.000    4.667 
#    0.000    0.000    0.000    0.000    0.000    0.000 
#    0.000    0.000    0.000    0.000    0.000    0.000 
#
# Total GULP energy -297768.184974 kJ/mol
# GULP energy per Si atom -12407.007707 kJ/mol
# Density = 2.015013 g / cm^3
# Si number density = 20.196096 Si / 1000 Ang^3
#
#
#
# Elastic Constant Matrix: (Units=GPa)
#
#
# Indices 1 2 3 4 5 6 
#
# 1 83.5517 50.9985 28.6526 0.0000 -0.3161 0.0000
# 2 50.9985 113.1835 38.3216 0.0000 2.1707 0.0000
# 3 28.6526 38.3216 96.5306 0.0000 -0.2621 0.0000
# 4 0.0000 0.0000 0.0000 40.5590 0.0000 1.1429
# 5 -0.3161 2.1707 -0.2621 0.0000 44.0808 0.0000
# 6 0.0000 0.0000 0.0000 1.1429 0.0000 29.3534
#
#
#
# Elastic Compliance Matrix: (Units=1/GPa)
#
#
# Indices 1 2 3 4 5 6 
#
# 1 0.016952 -0.006866 -0.002305 0.000000 0.000446 0.000000
# 2 -0.006866 0.013001 -0.003125 0.000000 -0.000708 0.000000
# 3 -0.002305 -0.003125 0.012285 0.000000 0.000210 0.000000
# 4 0.000000 0.000000 0.000000 0.024683 0.000000 -0.000961
# 5 0.000446 -0.000708 0.000210 0.000000 0.022725 0.000000
# 6 0.000000 0.000000 0.000000 -0.000961 0.000000 0.034105
#
#
# Mechanical properties :
#
#
# Convention : Reuss Voigt Hill
#
# Bulk Modulus (GPa) = 56.67269 58.80124 57.73696
# Shear Modulus (GPa) = 32.42053 34.48486 33.45270
#
# Velocity S-wave (km/s) = 4.01095 4.13668 4.07430
# Velocity P-wave (km/s) = 7.04077 7.21072 7.12625
#
# Compressibility (1/GPa) = 0.01764518
#
# Stress axis : x y z
#
# Youngs Moduli (GPa) = 58.99074 76.91874 81.40273
#
# Poissons Ratio (x) = 0.52816 0.18760
# Poissons Ratio (y) = 0.40506 0.25438
# Poissons Ratio (z) = 0.13595 0.24037
#
# Static dielectric constant tensor:
#      x y z
#    x 3.693980 0.000000 0.001990 
#    y 0.000000 3.426120 0.000000 
#    z 0.001990 0.000000 3.930810 
# 
# 
# High freq. dielectric constant tensor:
#      x y z
#    x 1.795330 0.000000 -0.001480 
#    y 0.000000 1.779450 0.000000 
#    z -0.001480 0.000000 1.808270 
# 
# From -- ./inp_files/267779.got.cif
#   From: 2010.06.25/outbox.cif.g09.slc.cpg/sg15_134_cif.got.tgz:267779.got - 2010.06.28 07:06:18.
