data_PCOD8148955
_publ_section_title
;
Structure prediction by ZEFSAII (Michael W. Deem and Ramdas Pophale) SiO2 
 PCOD8148955
Probable space group: C 2/C
;
_chemical_formula_sum "Si O2"
_cell_formula_units_Z 36
_cell_length_a 15.992559
_cell_length_b 9.697785
_cell_length_c 12.766243
_cell_angle_alpha 90.000000
_cell_angle_beta 56.553062
_cell_angle_gamma 90.000000
_cell_volume 1652.061287
_symmetry_space_group_name_H-M "C 2/C"
_symmetry_group_IT_number 15
_symmetry_cell_setting 'monoclinic'
loop_
_space_group_symop_operation_xyz
x,y,z
-x,y,1/2-z
-x,-y,-z
x,-y,1/2+z
1/2+x,1/2+y,z
1/2-x,1/2+y,1/2-z
1/2-x,1/2-y,-z
1/2+x,1/2-y,1/2+z
loop_
_atom_site_type_symbol
_atom_site_label
_atom_site_fract_x
_atom_site_fract_y
_atom_site_fract_z
Si Si1 0.641851 0.958996 0.425339
Si Si2 0.539665 0.906880 0.826936
Si Si3 0.000000 0.924804 0.750000
Si Si4 0.642225 0.371326 0.274390
Si Si5 0.849031 0.235007 0.499924
O O1 0.558055 0.861852 0.536458
O O2 0.752598 0.899360 0.357588
O O3 0.611634 0.975860 0.324863
O O4 0.623294 0.111454 0.484673
O O5 0.500000 0.977390 0.750000
O O6 0.603326 0.772004 0.755575
O O7 0.067997 0.828853 0.631759
O O8 0.934800 0.012221 0.711164
O O9 0.658691 0.361354 0.389269
O O10 0.750000 0.250000 0.500000
#
# Coordination Sequence:
#
# PCOD8148955 Si02
#       5
#     8   8   4   8   8
#     4  10  24  44  67 100 135 177 234 274 341 413
#     4  10  23  43  68  96 131 181 222 283 339 398
#     4  12  24  46  70 102 140 178 234 284 336 410
#     4  11  24  46  68 102 137 178 230 283 342 404
#     4  11  25  43  70 102 134 185 225 282 344 403
#
# _framework density 21.790959000000001
#
# number of rings (size 3 to 8) (size 9 to 14) (size 15 to 20)
#    0.000    1.333    3.333    0.667    4.667    4.444 
#    8.000    0.000    0.000    0.000    0.000    0.000 
#    0.000    0.000    0.000    0.000    0.000    0.000 
#
# Total GULP energy -223037.238702 kJ/mol
# GULP energy per Si atom -12390.957706 kJ/mol
# Density = 2.174136 g / cm^3
# Si number density = 21.790959 Si / 1000 Ang^3
#
#
#
# Elastic Constant Matrix: (Units=GPa)
#
#
# Indices 1 2 3 4 5 6 
#
# 1 163.1783 38.6554 50.2673 0.0000 -1.0505 0.0000
# 2 38.6554 70.9687 46.1003 0.0000 -8.8892 0.0000
# 3 50.2673 46.1003 90.6058 0.0000 -17.7590 0.0000
# 4 0.0000 0.0000 0.0000 33.2696 0.0000 -7.6392
# 5 -1.0505 -8.8892 -17.7590 0.0000 54.8316 0.0000
# 6 0.0000 0.0000 0.0000 -7.6392 0.0000 8.4348
#
#
#
# Elastic Compliance Matrix: (Units=1/GPa)
#
#
# Indices 1 2 3 4 5 6 
#
# 1 0.007681 -0.002110 -0.003444 0.000000 -0.001311 0.000000
# 2 -0.002110 0.021627 -0.009774 0.000000 0.000300 0.000000
# 3 -0.003444 -0.009774 0.018790 0.000000 0.004435 0.000000
# 4 0.000000 0.000000 0.000000 0.037949 0.000000 0.034370
# 5 -0.001311 0.000300 0.004435 0.000000 0.019698 0.000000
# 6 0.000000 0.000000 0.000000 0.034370 0.000000 0.149685
#
#
# Mechanical properties :
#
#
# Convention : Reuss Voigt Hill
#
# Bulk Modulus (GPa) = 57.33916 66.08876 61.71396
# Shear Modulus (GPa) = 17.12910 31.95586 24.54248
#
# Velocity S-wave (km/s) = 2.80673 3.83361 3.35963
# Velocity P-wave (km/s) = 6.07240 7.07035 6.59029
#
# Compressibility (1/GPa) = 0.01744009
#
# Stress axis : x y z
#
# Youngs Moduli (GPa) = 130.19491 46.23864 53.21935
#
# Poissons Ratio (x) = 0.09758 0.18331
# Poissons Ratio (y) = 0.27475 0.52018
# Poissons Ratio (z) = 0.44844 0.45195
#
# Static dielectric constant tensor:
#      x y z
#    x 5.383160 0.000000 0.946900 
#    y 0.000000 3.833460 0.000000 
#    z 0.946900 0.000000 4.546400 
# 
# 
# High freq. dielectric constant tensor:
#      x y z
#    x 1.889220 0.000000 0.002360 
#    y 0.000000 1.839720 0.000000 
#    z 0.002360 0.000000 1.857220 
# 
# From -- ./inp_files/159053.got.cif
#   From: 2010.06.25/outbox.cif.g09.slc.cpg/sg15_80_cif.got.tgz:159053.got - 2010.06.28 07:06:18.
