data_PCOD8148617
_publ_section_title
;
Structure prediction by ZEFSAII (Michael W. Deem and Ramdas Pophale) SiO2 
 PCOD8148617
Probable space group: C 2/C
;
_chemical_formula_sum "Si O2"
_cell_formula_units_Z 32
_cell_length_a 10.392071
_cell_length_b 10.099643
_cell_length_c 34.335546
_cell_angle_alpha 90.000000
_cell_angle_beta 156.650122
_cell_angle_gamma 90.000000
_cell_volume 1428.319456
_symmetry_space_group_name_H-M "C 2/C"
_symmetry_group_IT_number 15
_symmetry_cell_setting 'monoclinic'
loop_
_space_group_symop_operation_xyz
x,y,z
-x,y,1/2-z
-x,-y,-z
x,-y,1/2+z
1/2+x,1/2+y,z
1/2-x,1/2+y,1/2-z
1/2-x,1/2-y,-z
1/2+x,1/2-y,1/2+z
loop_
_atom_site_type_symbol
_atom_site_label
_atom_site_fract_x
_atom_site_fract_y
_atom_site_fract_z
Si Si1 0.452838 0.952873 0.094191
Si Si2 0.186984 0.718785 0.267607
Si Si3 0.639343 0.103252 0.068756
Si Si4 0.173048 0.822076 0.564729
O O1 0.719894 0.856630 0.186204
O O2 0.586049 0.045448 0.096769
O O3 0.352851 0.045916 0.101884
O O4 0.137730 0.864025 0.994884
O O5 0.479625 0.632395 0.331553
O O6 0.000000 0.635989 0.250000
O O7 0.926603 0.758890 0.161793
O O8 0.440316 0.238499 0.004748
O O9 0.500000 0.000000 0.000000
#
# Coordination Sequence:
#
# PCOD8148617 Si02
#       4
#     8   8   8   8
#     4  10  23  44  67  94 139 174 218 283 328 392
#     4  11  24  40  66  98 130 175 225 271 329 398
#     4  11  23  41  68  96 132 179 216 272 338 391
#     4  10  23  42  65 100 134 172 226 271 330 400
#
# _framework density 22.403950999999999
#
# number of rings (size 3 to 8) (size 9 to 14) (size 15 to 20)
#    0.000    1.500    0.000    3.750    7.000    4.000 
#    0.000    0.000    0.000    0.000    0.000    0.000 
#    0.000    0.000    0.000    0.000    0.000    0.000 
#
# Total GULP energy -198312.531823 kJ/mol
# GULP energy per Si atom -12394.533239 kJ/mol
# Density = 2.235296 g / cm^3
# Si number density = 22.403951 Si / 1000 Ang^3
#
#
#
# Elastic Constant Matrix: (Units=GPa)
#
#
# Indices 1 2 3 4 5 6 
#
# 1 134.3882 49.0199 73.2468 0.0005 15.4690 -0.0009
# 2 49.0199 93.1132 56.8135 0.0002 10.7310 -0.0008
# 3 73.2468 56.8135 180.2861 0.0022 9.1797 -0.0106
# 4 0.0005 0.0002 0.0022 19.1310 0.0044 -4.6797
# 5 15.4690 10.7310 9.1797 0.0044 30.6764 0.0011
# 6 -0.0009 -0.0008 -0.0106 -4.6797 0.0011 50.8547
#
#
#
# Elastic Compliance Matrix: (Units=1/GPa)
#
#
# Indices 1 2 3 4 5 6 
#
# 1 0.010764 -0.003367 -0.003143 0.000001 -0.003309 0.000000
# 2 -0.003367 0.014719 -0.003143 0.000001 -0.002511 0.000000
# 3 -0.003143 -0.003143 0.007796 -0.000001 0.000351 0.000001
# 4 0.000001 0.000001 -0.000001 0.053475 -0.000008 0.004921
# 5 -0.003309 -0.002511 0.000351 -0.000008 0.035040 -0.000002
# 6 0.000000 0.000000 0.000001 0.004921 -0.000002 0.020117
#
#
# Mechanical properties :
#
#
# Convention : Reuss Voigt Hill
#
# Bulk Modulus (GPa) = 71.56892 85.10533 78.33713
# Shear Modulus (GPa) = 30.14328 35.37958 32.76143
#
# Velocity S-wave (km/s) = 3.67201 3.97818 3.82816
# Velocity P-wave (km/s) = 7.07053 7.69224 7.38792
#
# Compressibility (1/GPa) = 0.01397255
#
# Stress axis : x y z
#
# Youngs Moduli (GPa) = 92.90607 67.93906 128.26638
#
# Poissons Ratio (x) = 0.22876 0.40320
# Poissons Ratio (y) = 0.31283 0.40308
# Poissons Ratio (z) = 0.29204 0.21350
#
# Static dielectric constant tensor:
#      x y z
#    x 4.916270 0.000020 0.219400 
#    y 0.000020 4.317990 -0.000020 
#    z 0.219400 -0.000020 4.276970 
# 
# 
# High freq. dielectric constant tensor:
#      x y z
#    x 1.881850 0.000000 0.015030 
#    y 0.000000 1.879830 0.000000 
#    z 0.015030 0.000000 1.901160 
# 
# From -- ./inp_files/140773.got.cif
#   From: 2010.06.25/outbox.cif.g09.slc.cpg/sg15_71_cif.got.tgz:140773.got - 2010.06.28 07:06:18.
