data_PCOD8148809
_publ_section_title
;
Structure prediction by ZEFSAII (Michael W. Deem and Ramdas Pophale) SiO2 
 PCOD8148809
Probable space group: C 2/C
;
_chemical_formula_sum "Si O2"
_cell_formula_units_Z 40
_cell_length_a 15.122818
_cell_length_b 13.599443
_cell_length_c 9.160646
_cell_angle_alpha 90.000000
_cell_angle_beta 74.260567
_cell_angle_gamma 90.000000
_cell_volume 1813.355979
_symmetry_space_group_name_H-M "C 2/C"
_symmetry_group_IT_number 15
_symmetry_cell_setting 'monoclinic'
loop_
_space_group_symop_operation_xyz
x,y,z
-x,y,1/2-z
-x,-y,-z
x,-y,1/2+z
1/2+x,1/2+y,z
1/2-x,1/2+y,1/2-z
1/2-x,1/2-y,-z
1/2+x,1/2-y,1/2+z
loop_
_atom_site_type_symbol
_atom_site_label
_atom_site_fract_x
_atom_site_fract_y
_atom_site_fract_z
Si Si1 0.403301 0.048299 0.733809
Si Si2 0.857717 0.625353 0.438542
Si Si3 0.227866 0.158001 0.912764
Si Si4 0.063634 0.971847 0.603235
Si Si5 0.161258 0.835470 0.125218
O O1 0.500000 0.089892 0.750000
O O2 0.396608 0.068720 0.563972
O O3 0.321029 0.096892 0.860186
O O4 0.394186 0.931974 0.778213
O O5 0.890721 0.739675 0.418801
O O6 0.746827 0.630642 0.486217
O O7 0.196297 0.194914 0.769249
O O8 0.250000 0.250000 0.000000
O O9 0.150119 0.093531 0.024427
O O10 0.000000 0.914757 0.750000
O O11 0.093661 0.073236 0.666760
O O12 0.000000 0.000000 0.500000
#
# Coordination Sequence:
#
# PCOD8148809 Si02
#       5
#     8   8   8   8   8
#     4  11  24  44  68 103 135 184 230 285 355 427
#     4  10  23  42  73  96 142 179 232 286 354 428
#     4  11  26  44  73 102 142 188 236 300 359 423
#     4  12  25  45  74 105 144 189 245 300 366 431
#     4  10  23  45  68 104 137 188 234 293 358 428
#
# _framework density 22.058548999999999
#
# number of rings (size 3 to 8) (size 9 to 14) (size 15 to 20)
#    0.000    1.200    4.000    0.600    2.800    8.000 
#    0.000    0.000    0.000    0.000    0.000    0.000 
#    0.000    0.000    0.000    0.000    0.000    0.000 
#
# Total GULP energy -247986.967898 kJ/mol
# GULP energy per Si atom -12399.348395 kJ/mol
# Density = 2.200834 g / cm^3
# Si number density = 22.058549 Si / 1000 Ang^3
#
#
#
# Elastic Constant Matrix: (Units=GPa)
#
#
# Indices 1 2 3 4 5 6 
#
# 1 123.9666 54.0025 48.3184 0.0000 -1.6496 0.0000
# 2 54.0025 125.6655 49.9204 0.0000 4.7685 0.0000
# 3 48.3184 49.9204 111.4963 0.0000 -1.7774 0.0000
# 4 0.0000 0.0000 0.0000 28.5468 0.0000 19.5770
# 5 -1.6496 4.7685 -1.7774 0.0000 38.9641 0.0000
# 6 0.0000 0.0000 0.0000 19.5770 0.0000 15.7799
#
#
#
# Elastic Compliance Matrix: (Units=1/GPa)
#
#
# Indices 1 2 3 4 5 6 
#
# 1 0.010787 -0.003419 -0.003132 0.000000 0.000732 0.000000
# 2 -0.003419 0.010838 -0.003397 0.000000 -0.001626 0.000000
# 3 -0.003132 -0.003397 0.011860 0.000000 0.000824 0.000000
# 4 0.000000 0.000000 0.000000 0.234793 0.000000 -0.291290
# 5 0.000732 -0.001626 0.000824 0.000000 0.025932 0.000000
# 6 0.000000 0.000000 0.000000 -0.291290 0.000000 0.424754
#
#
# Mechanical properties :
#
#
# Convention : Reuss Voigt Hill
#
# Bulk Modulus (GPa) = 73.58792 73.95679 73.77236
# Shear Modulus (GPa) = 6.72596 30.58396 18.65496
#
# Velocity S-wave (km/s) = 1.74807 3.72760 2.91125
# Velocity P-wave (km/s) = 6.12430 7.21990 6.69455
#
# Compressibility (1/GPa) = 0.01358919
#
# Stress axis : x y z
#
# Youngs Moduli (GPa) = 92.70786 92.26872 84.31546
#
# Poissons Ratio (x) = 0.31546 0.26408
# Poissons Ratio (y) = 0.31696 0.28640
# Poissons Ratio (z) = 0.29037 0.31342
#
# Static dielectric constant tensor:
#      x y z
#    x 4.193200 0.000000 0.057720 
#    y 0.000000 3.981590 0.000000 
#    z 0.057720 0.000000 4.055870 
# 
# 
# High freq. dielectric constant tensor:
#      x y z
#    x 1.873160 0.000000 -0.010170 
#    y 0.000000 1.864650 0.000000 
#    z -0.010170 0.000000 1.876150 
# 
# From -- ./inp_files/37859.got.cif
#   From: 2010.06.25/outbox.cif.g09.slc.cpg/sg15_19_cif.got.tgz:37859.got - 2010.06.28 07:06:18.
