data_PCOD8148166
_publ_section_title
;
Structure prediction by ZEFSAII (Michael W. Deem and Ramdas Pophale) SiO2 
 PCOD8148166
Probable space group: C 2/C
;
_chemical_formula_sum "Si O2"
_cell_formula_units_Z 56
_cell_length_a 11.933468
_cell_length_b 20.541952
_cell_length_c 12.483522
_cell_angle_alpha 90.000000
_cell_angle_beta 65.715003
_cell_angle_gamma 90.000000
_cell_volume 2789.378368
_symmetry_space_group_name_H-M "C 2/C"
_symmetry_group_IT_number 15
_symmetry_cell_setting 'monoclinic'
loop_
_space_group_symop_operation_xyz
x,y,z
-x,y,1/2-z
-x,-y,-z
x,-y,1/2+z
1/2+x,1/2+y,z
1/2-x,1/2+y,1/2-z
1/2-x,1/2-y,-z
1/2+x,1/2-y,1/2+z
loop_
_atom_site_type_symbol
_atom_site_label
_atom_site_fract_x
_atom_site_fract_y
_atom_site_fract_z
Si Si1 0.027103 0.862176 0.857538
Si Si2 0.241852 0.433065 0.668822
Si Si3 0.630117 0.119583 0.751652
Si Si4 0.131846 0.499181 0.395868
Si Si5 0.204168 0.056071 0.981220
Si Si6 0.621789 0.811983 0.632247
Si Si7 0.639022 0.238240 0.898185
O O1 0.156618 0.898451 0.799023
O O2 0.043933 0.798108 0.923400
O O3 0.000000 0.837235 0.750000
O O4 0.925859 0.911576 0.942173
O O5 0.131976 0.456422 0.789389
O O6 0.312335 0.491760 0.583238
O O7 0.178938 0.384424 0.609417
O O8 0.500000 0.102150 0.750000
O O9 0.662969 0.073372 0.840690
O O10 0.723334 0.110406 0.615847
O O11 0.635299 0.192970 0.794189
O O12 0.229891 0.530504 0.437710
O O13 0.000000 0.500000 0.500000
O O14 0.500000 0.805688 0.750000
O O15 0.588980 0.798880 0.522084
O O16 0.720463 0.760800 0.640134
#
# Coordination Sequence:
#
# PCOD8148166 Si02
#       7
#     8   8   8   8   8   8   8
#     4  11  22  44  63  90 127 164 212 253 312 378
#     4  10  23  39  64  93 124 163 208 261 311 374
#     4  11  23  39  61  95 127 162 205 263 315 366
#     4  11  22  38  61  93 129 158 206 259 316 375
#     4  11  23  39  66  91 125 167 204 258 321 369
#     4  10  23  41  67  91 122 169 211 256 314 367
#     4  10  24  43  61  91 129 163 213 259 298 380
#
# _framework density 20.076158
#
# number of rings (size 3 to 8) (size 9 to 14) (size 15 to 20)
#    0.000    1.429    2.857    1.714    6.000    0.000 
#    0.000    1.429    0.000    0.000    0.000    0.000 
#    0.000    0.000    0.000    0.000    0.000    0.000 
#
# Total GULP energy -347128.087126 kJ/mol
# GULP energy per Si atom -12397.431683 kJ/mol
# Density = 2.003046 g / cm^3
# Si number density = 20.076158 Si / 1000 Ang^3
#
#
#
# Elastic Constant Matrix: (Units=GPa)
#
#
# Indices 1 2 3 4 5 6 
#
# 1 87.9468 44.3948 46.5592 0.0000 -0.5778 0.0000
# 2 44.3948 116.9165 51.4405 0.0000 3.5772 0.0000
# 3 46.5592 51.4405 105.9454 0.0000 -2.2000 0.0000
# 4 0.0000 0.0000 0.0000 35.3872 0.0000 4.0718
# 5 -0.5778 3.5772 -2.2000 0.0000 38.5693 0.0000
# 6 0.0000 0.0000 0.0000 4.0718 0.0000 31.8892
#
#
#
# Elastic Compliance Matrix: (Units=1/GPa)
#
#
# Indices 1 2 3 4 5 6 
#
# 1 0.016049 -0.003818 -0.005193 0.000000 0.000298 0.000000
# 2 -0.003818 0.011852 -0.004105 0.000000 -0.001391 0.000000
# 3 -0.005193 -0.004105 0.013737 0.000000 0.001087 0.000000
# 4 0.000000 0.000000 0.000000 0.028680 0.000000 -0.003662
# 5 0.000298 -0.001391 0.001087 0.000000 0.026123 0.000000
# 6 0.000000 0.000000 0.000000 -0.003662 0.000000 0.031826
#
#
# Mechanical properties :
#
#
# Convention : Reuss Voigt Hill
#
# Bulk Modulus (GPa) = 64.91617 66.17752 65.54685
# Shear Modulus (GPa) = 31.32152 32.39676 31.85914
#
# Velocity S-wave (km/s) = 3.95414 4.02144 3.98793
# Velocity P-wave (km/s) = 7.29740 7.38901 7.34335
#
# Compressibility (1/GPa) = 0.01540448
#
# Stress axis : x y z
#
# Youngs Moduli (GPa) = 62.30891 84.37520 72.79773
#
# Poissons Ratio (x) = 0.32219 0.37802
# Poissons Ratio (y) = 0.23793 0.29886
# Poissons Ratio (z) = 0.32356 0.34638
#
# Static dielectric constant tensor:
#      x y z
#    x 3.774530 0.000000 0.311470 
#    y 0.000000 3.769650 0.000000 
#    z 0.311470 0.000000 3.948260 
# 
# 
# High freq. dielectric constant tensor:
#      x y z
#    x 1.780560 0.000000 0.008030 
#    y 0.000000 1.792230 0.000000 
#    z 0.008030 0.000000 1.790610 
# 
# From -- ./inp_files/89547.got.cif
#   From: 2010.06.25/outbox.cif.g09.slc.cpg/sg15_45_cif.got.tgz:89547.got - 2010.06.28 07:06:18.
