data_PCOD8148537
_publ_section_title
;
Structure prediction by ZEFSAII (Michael W. Deem and Ramdas Pophale) SiO2 
 PCOD8148537
Probable space group: C 2/C
;
_chemical_formula_sum "Si O2"
_cell_formula_units_Z 44
_cell_length_a 24.901576
_cell_length_b 11.804121
_cell_length_c 14.998193
_cell_angle_alpha 90.000000
_cell_angle_beta 26.844016
_cell_angle_gamma 90.000000
_cell_volume 1990.755313
_symmetry_space_group_name_H-M "C 2/C"
_symmetry_group_IT_number 15
_symmetry_cell_setting 'monoclinic'
loop_
_space_group_symop_operation_xyz
x,y,z
-x,y,1/2-z
-x,-y,-z
x,-y,1/2+z
1/2+x,1/2+y,z
1/2-x,1/2+y,1/2-z
1/2-x,1/2-y,-z
1/2+x,1/2-y,1/2+z
loop_
_atom_site_type_symbol
_atom_site_label
_atom_site_fract_x
_atom_site_fract_y
_atom_site_fract_z
Si Si1 0.082982 0.105933 0.203692
Si Si2 0.000000 0.547687 0.250000
Si Si3 0.475471 0.882813 0.984427
Si Si4 0.246740 0.747867 0.349451
Si Si5 0.740268 0.488287 0.603553
Si Si6 0.388487 0.697266 0.619197
O O1 0.182913 0.015533 0.088810
O O2 0.000000 0.049432 0.250000
O O3 0.003385 0.139209 0.406044
O O4 0.146905 0.218130 0.070327
O O5 0.973060 0.616511 0.380181
O O6 0.883400 0.475641 0.395447
O O7 0.574767 0.789638 0.861898
O O8 0.345747 0.844737 0.207637
O O9 0.500000 0.000000 0.000000
O O10 0.306302 0.626605 0.280726
O O11 0.187145 0.736108 0.341741
O O12 0.696553 0.601852 0.714183
#
# Coordination Sequence:
#
# PCOD8148537 Si02
#       6
#     8   4   8   8   8   8
#     4  10  23  41  72 108 137 186 245 297 354 415
#     4  12  28  46  72 106 146 196 234 294 368 436
#     4  12  26  48  72 105 149 189 237 297 366 436
#     4  11  24  44  73 107 139 184 249 296 352 428
#     4  12  24  46  72 104 143 188 245 300 355 428
#     4  11  25  45  71 106 142 188 231 302 366 426
#
# _framework density 22.102163999999998
#
# number of rings (size 3 to 8) (size 9 to 14) (size 15 to 20)
#    0.000    0.727    3.636    3.273    6.364    0.727 
#    1.636    0.000    0.000    0.000    0.000    0.000 
#    0.000    0.000    0.000    0.000    0.000    0.000 
#
# Total GULP energy -272684.210183 kJ/mol
# GULP energy per Si atom -12394.736826 kJ/mol
# Density = 2.205186 g / cm^3
# Si number density = 22.102164 Si / 1000 Ang^3
#
#
#
# Elastic Constant Matrix: (Units=GPa)
#
#
# Indices 1 2 3 4 5 6 
#
# 1 169.1501 37.4009 52.9348 0.0000 -28.2470 0.0000
# 2 37.4009 71.3649 48.9126 0.0000 -7.9027 0.0000
# 3 52.9348 48.9126 84.6686 0.0000 -12.6195 0.0000
# 4 0.0000 0.0000 0.0000 19.0869 0.0000 -9.7034
# 5 -28.2470 -7.9027 -12.6195 0.0000 36.3135 0.0000
# 6 0.0000 0.0000 0.0000 -9.7034 0.0000 36.6729
#
#
#
# Elastic Compliance Matrix: (Units=1/GPa)
#
#
# Indices 1 2 3 4 5 6 
#
# 1 0.008127 -0.001218 -0.003664 0.000000 0.004783 0.000000
# 2 -0.001218 0.023386 -0.012794 0.000000 -0.000304 0.000000
# 3 -0.003664 -0.012794 0.021781 0.000000 0.001935 0.000000
# 4 0.000000 0.000000 0.000000 0.060535 0.000000 0.016017
# 5 0.004783 -0.000304 0.001935 0.000000 0.031865 0.000000
# 6 0.000000 0.000000 0.000000 0.016017 0.000000 0.031506
#
#
# Mechanical properties :
#
#
# Convention : Reuss Voigt Hill
#
# Bulk Modulus (GPa) = 55.73692 67.07559 61.40625
# Shear Modulus (GPa) = 22.88006 30.81036 26.84521
#
# Velocity S-wave (km/s) = 3.22094 3.73768 3.48889
# Velocity P-wave (km/s) = 6.25341 7.00292 6.63875
#
# Compressibility (1/GPa) = 0.01794143
#
# Stress axis : x y z
#
# Youngs Moduli (GPa) = 123.05171 42.76109 45.91179
#
# Poissons Ratio (x) = 0.05208 0.16824
# Poissons Ratio (y) = 0.14986 0.58738
# Poissons Ratio (z) = 0.45090 0.54707
#
# Static dielectric constant tensor:
#      x y z
#    x 4.566310 0.000000 -0.227900 
#    y 0.000000 3.652740 0.000000 
#    z -0.227900 0.000000 4.026040 
# 
# 
# High freq. dielectric constant tensor:
#      x y z
#    x 1.905770 0.000000 -0.019690 
#    y 0.000000 1.843020 0.000000 
#    z -0.019690 0.000000 1.865940 
# 
# From -- ./inp_files/151745.got.cif
#   From: 2010.06.25/outbox.cif.g09.slc.cpg/sg15_76_cif.got.tgz:151745.got - 2010.06.28 07:06:18.
