data_PCOD8148944
_publ_section_title
;
Structure prediction by ZEFSAII (Michael W. Deem and Ramdas Pophale) SiO2 
 PCOD8148944
Probable space group: C 2/C
;
_chemical_formula_sum "Si O2"
_cell_formula_units_Z 24
_cell_length_a 5.384551
_cell_length_b 12.940759
_cell_length_c 15.008757
_cell_angle_alpha 90.000000
_cell_angle_beta 118.648424
_cell_angle_gamma 90.000000
_cell_volume 917.782438
_symmetry_space_group_name_H-M "C 2/C"
_symmetry_group_IT_number 15
_symmetry_cell_setting 'monoclinic'
loop_
_space_group_symop_operation_xyz
x,y,z
-x,y,1/2-z
-x,-y,-z
x,-y,1/2+z
1/2+x,1/2+y,z
1/2-x,1/2+y,1/2-z
1/2-x,1/2-y,-z
1/2+x,1/2-y,1/2+z
loop_
_atom_site_type_symbol
_atom_site_label
_atom_site_fract_x
_atom_site_fract_y
_atom_site_fract_z
Si Si1 0.413123 0.543690 0.137002
Si Si2 0.645907 0.859680 0.015234
Si Si3 0.331339 0.749845 0.313274
O O1 0.500000 0.504725 0.250000
O O2 0.396871 0.445825 0.067162
O O3 0.628875 0.632698 0.140060
O O4 0.102410 0.597015 0.089247
O O5 0.535007 0.835178 0.097140
O O6 0.750000 0.750000 0.000000
O O7 0.500000 0.758244 0.250000
O O8 0.000000 0.772391 0.250000
#
# Coordination Sequence:
#
# PCOD8148944 Si02
#       3
#     8   8   8
#     4  10  23  43  68 105 143 184 237 293 353 423
#     4  11  23  44  73 104 142 188 238 293 355 423
#     4  11  24  47  75 107 148 191 236 291 357 425
#
# _framework density 26.149985999999998
#
# number of rings (size 3 to 8) (size 9 to 14) (size 15 to 20)
#    0.000    1.333    0.000    6.000    0.000    1.333 
#    0.000   43.333    0.000    0.000    0.000    0.000 
#    0.000    0.000    0.000    0.000    0.000    0.000 
#
# Total GULP energy -148718.464874 kJ/mol
# GULP energy per Si atom -12393.205406 kJ/mol
# Density = 2.609047 g / cm^3
# Si number density = 26.149986 Si / 1000 Ang^3
#
#
#
# Elastic Constant Matrix: (Units=GPa)
#
#
# Indices 1 2 3 4 5 6 
#
# 1 99.3366 29.9114 44.5134 0.0000 9.4863 0.0000
# 2 29.9114 145.1031 59.7327 0.0000 0.5875 0.0000
# 3 44.5134 59.7327 149.2391 0.0000 32.7038 0.0000
# 4 0.0000 0.0000 0.0000 41.8903 0.0000 -3.3655
# 5 9.4863 0.5875 32.7038 0.0000 27.3516 0.0000
# 6 0.0000 0.0000 0.0000 -3.3655 0.0000 28.7649
#
#
#
# Elastic Compliance Matrix: (Units=1/GPa)
#
#
# Indices 1 2 3 4 5 6 
#
# 1 0.011792 -0.001240 -0.002887 0.000000 -0.000611 0.000000
# 2 -0.001240 0.008945 -0.004421 0.000000 0.005524 0.000000
# 3 -0.002887 -0.004421 0.012319 0.000000 -0.013633 0.000000
# 4 0.000000 0.000000 0.000000 0.024098 0.000000 0.002820
# 5 -0.000611 0.005524 -0.013633 0.000000 0.052955 0.000000
# 6 0.000000 0.000000 0.000000 0.002820 0.000000 0.035094
#
#
# Mechanical properties :
#
#
# Convention : Reuss Voigt Hill
#
# Bulk Modulus (GPa) = 62.65573 73.55488 68.10530
# Shear Modulus (GPa) = 29.82967 36.90279 33.36623
#
# Velocity S-wave (km/s) = 3.38111 3.76067 3.57593
# Velocity P-wave (km/s) = 6.26536 6.85901 6.56889
#
# Compressibility (1/GPa) = 0.01596023
#
# Stress axis : x y z
#
# Youngs Moduli (GPa) = 84.80185 111.79814 81.17807
#
# Poissons Ratio (x) = 0.13862 0.23436
# Poissons Ratio (y) = 0.10515 0.35886
# Poissons Ratio (z) = 0.24482 0.49423
#
# Static dielectric constant tensor:
#      x y z
#    x 4.216970 0.000000 -0.142520 
#    y 0.000000 5.428270 0.000000 
#    z -0.142520 0.000000 5.626460 
# 
# 
# High freq. dielectric constant tensor:
#      x y z
#    x 1.999460 0.000000 0.007990 
#    y 0.000000 2.072080 0.000000 
#    z 0.007990 0.000000 2.077010 
# 
# From -- ./inp_files/127794.got.cif
#   From: 2010.06.25/outbox.cif.g09.slc.cpg/sg15_64_cif.got.tgz:127794.got - 2010.06.28 07:06:18.
