data_PCOD8148581
_publ_section_title
;
Structure prediction by ZEFSAII (Michael W. Deem and Ramdas Pophale) SiO2 
 PCOD8148581
Probable space group: C 2/C
;
_chemical_formula_sum "Si O2"
_cell_formula_units_Z 48
_cell_length_a 10.000349
_cell_length_b 27.232050
_cell_length_c 8.771553
_cell_angle_alpha 90.000000
_cell_angle_beta 92.684663
_cell_angle_gamma 90.000000
_cell_volume 2386.135280
_symmetry_space_group_name_H-M "C 2/C"
_symmetry_group_IT_number 15
_symmetry_cell_setting 'monoclinic'
loop_
_space_group_symop_operation_xyz
x,y,z
-x,y,1/2-z
-x,-y,-z
x,-y,1/2+z
1/2+x,1/2+y,z
1/2-x,1/2+y,1/2-z
1/2-x,1/2-y,-z
1/2+x,1/2-y,1/2+z
loop_
_atom_site_type_symbol
_atom_site_label
_atom_site_fract_x
_atom_site_fract_y
_atom_site_fract_z
Si Si1 0.399637 0.701548 0.612074
Si Si2 0.903337 0.711239 0.887408
Si Si3 0.740228 0.938710 0.540562
Si Si4 0.977367 0.384333 0.572130
Si Si5 0.246705 0.042182 0.101998
Si Si6 0.488012 0.592915 0.574057
O O1 0.500000 0.717185 0.750000
O O2 0.250396 0.705486 0.672697
O O3 0.422083 0.736757 0.470247
O O4 0.426397 0.646818 0.554657
O O5 0.000000 0.709633 0.750000
O O6 0.940131 0.667819 0.002736
O O7 0.611752 0.904843 0.502591
O O8 0.756719 0.953303 0.716922
O O9 0.866459 0.906958 0.493981
O O10 0.719571 0.986396 0.435857
O O11 0.858792 0.422860 0.534762
O O12 0.000000 0.375707 0.750000
O O13 0.103355 0.054635 0.021922
O O14 0.500000 0.576053 0.750000
#
# Coordination Sequence:
#
# PCOD8148581 Si02
#       6
#     8   8   8   8   8   8
#     4  10  24  45  64  95 131 161 207 258 308 371
#     4  11  24  42  69  96 125 165 207 256 310 372
#     4  11  24  38  65  90 125 167 210 256 314 368
#     4  10  23  42  63  92 126 165 206 260 312 368
#     4  11  22  42  61  92 126 164 211 260 309 371
#     4  11  23  41  63  91 125 166 206 260 308 366
#
# _framework density 20.116211
#
# number of rings (size 3 to 8) (size 9 to 14) (size 15 to 20)
#    0.000    1.333    1.667    3.000    4.667    3.333 
#    3.000    0.000    0.000    0.000    0.000    0.000 
#    0.000    0.000    0.000    0.000    0.000    0.000 
#
# Total GULP energy -297758.321497 kJ/mol
# GULP energy per Si atom -12406.596729 kJ/mol
# Density = 2.007043 g / cm^3
# Si number density = 20.116211 Si / 1000 Ang^3
#
#
#
# Elastic Constant Matrix: (Units=GPa)
#
#
# Indices 1 2 3 4 5 6 
#
# 1 131.5388 23.0353 32.6228 0.0000 -8.7137 0.0000
# 2 23.0353 60.1662 18.3340 0.0000 0.4281 0.0000
# 3 32.6228 18.3340 57.5812 0.0000 -2.1706 0.0000
# 4 0.0000 0.0000 0.0000 8.1174 0.0000 -7.7713
# 5 -8.7137 0.4281 -2.1706 0.0000 35.6202 0.0000
# 6 0.0000 0.0000 0.0000 -7.7713 0.0000 26.4393
#
#
#
# Elastic Compliance Matrix: (Units=1/GPa)
#
#
# Indices 1 2 3 4 5 6 
#
# 1 0.009223 -0.002189 -0.004453 0.000000 0.002011 0.000000
# 2 -0.002189 0.018938 -0.004830 0.000000 -0.001057 0.000000
# 3 -0.004453 -0.004830 0.021438 0.000000 0.000275 0.000000
# 4 0.000000 0.000000 0.000000 0.171432 0.000000 0.050389
# 5 0.002011 -0.001057 0.000275 0.000000 0.028595 0.000000
# 6 0.000000 0.000000 0.000000 0.050389 0.000000 0.052633
#
#
# Mechanical properties :
#
#
# Convention : Reuss Voigt Hill
#
# Bulk Modulus (GPa) = 37.51440 44.14116 40.82778
# Shear Modulus (GPa) = 14.96615 25.72167 20.34391
#
# Velocity S-wave (km/s) = 2.73057 3.57971 3.18357
# Velocity P-wave (km/s) = 5.35076 6.25112 5.81838
#
# Compressibility (1/GPa) = 0.02665643
#
# Stress axis : x y z
#
# Youngs Moduli (GPa) = 108.42295 52.80438 46.64689
#
# Poissons Ratio (x) = 0.11557 0.20771
# Poissons Ratio (y) = 0.23730 0.22529
# Poissons Ratio (z) = 0.48278 0.25503
#
# Static dielectric constant tensor:
#      x y z
#    x 3.948360 0.000000 0.006800 
#    y 0.000000 3.680480 0.000000 
#    z 0.006800 0.000000 3.566410 
# 
# 
# High freq. dielectric constant tensor:
#      x y z
#    x 1.805660 0.000000 0.002940 
#    y 0.000000 1.796060 0.000000 
#    z 0.002940 0.000000 1.784800 
# 
# From -- ./inp_files/26129.got.cif
#   From: 2010.06.25/outbox.cif.g09.slc.cpg/sg15_14_cif.got.tgz:26129.got - 2010.06.28 07:06:18.
