data_PCOD8148464
_publ_section_title
;
Structure prediction by ZEFSAII (Michael W. Deem and Ramdas Pophale) SiO2 
 PCOD8148464
Probable space group: C 2/C
;
_chemical_formula_sum "Si O2"
_cell_formula_units_Z 52
_cell_length_a 14.720075
_cell_length_b 13.876387
_cell_length_c 14.096105
_cell_angle_alpha 90.000000
_cell_angle_beta 115.966142
_cell_angle_gamma 90.000000
_cell_volume 2588.634987
_symmetry_space_group_name_H-M "C 2/C"
_symmetry_group_IT_number 15
_symmetry_cell_setting 'monoclinic'
loop_
_space_group_symop_operation_xyz
x,y,z
-x,y,1/2-z
-x,-y,-z
x,-y,1/2+z
1/2+x,1/2+y,z
1/2-x,1/2+y,1/2-z
1/2-x,1/2-y,-z
1/2+x,1/2-y,1/2+z
loop_
_atom_site_type_symbol
_atom_site_label
_atom_site_fract_x
_atom_site_fract_y
_atom_site_fract_z
Si Si1 0.341520 0.742347 0.790628
Si Si2 0.235674 0.419228 0.353357
Si Si3 0.396169 0.002859 0.073477
Si Si4 0.623907 0.956115 0.649783
Si Si5 0.500000 0.390292 0.250000
Si Si6 0.750663 0.830465 0.924738
Si Si7 0.589970 0.472477 0.473211
O O1 0.273182 0.682021 0.831758
O O2 0.382939 0.839578 0.858711
O O3 0.428810 0.677315 0.782512
O O4 0.261458 0.778015 0.679158
O O5 0.137517 0.410634 0.377199
O O6 0.211827 0.497524 0.257227
O O7 0.321695 0.451547 0.467640
O O8 0.515802 0.009508 0.139064
O O9 0.339349 0.093499 0.096596
O O10 0.358978 0.995323 0.948282
O O11 0.559367 0.462493 0.348203
O O12 0.750000 0.750000 0.000000
O O13 0.864290 0.870431 0.974534
O O14 0.500000 0.500000 0.500000
#
# Coordination Sequence:
#
# PCOD8148464 Si02
#       7
#     8   8   8   8   4   8   8
#     4  12  23  39  69  98 127 176 226 279 329 402
#     4  11  24  41  63  98 138 171 223 283 338 396
#     4  10  23  41  66  93 132 176 215 281 340 393
#     4  11  23  42  67  97 132 175 223 278 344 402
#     4  12  24  38  68  96 132 174 230 278 334 396
#     4  11  21  39  66  97 123 166 224 272 321 392
#     4  11  23  40  61  94 134 171 211 276 341 391
#
# _framework density 20.087807000000002
#
# number of rings (size 3 to 8) (size 9 to 14) (size 15 to 20)
#    0.000    0.923    6.154    2.308    2.154    0.615 
#    0.000    0.000    0.000    0.000    0.000    0.000 
#    0.000    0.000    0.000    0.000    0.000    0.000 
#
# Total GULP energy -322098.795665 kJ/mol
# GULP energy per Si atom -12388.415218 kJ/mol
# Density = 2.004209 g / cm^3
# Si number density = 20.087807 Si / 1000 Ang^3
#
#
#
# Elastic Constant Matrix: (Units=GPa)
#
#
# Indices 1 2 3 4 5 6 
#
# 1 115.8139 51.5134 30.0276 0.0000 -2.1373 0.0000
# 2 51.5134 89.1280 44.6304 0.0000 -2.9705 0.0000
# 3 30.0276 44.6304 124.3188 0.0000 12.2399 0.0000
# 4 0.0000 0.0000 0.0000 39.8831 0.0000 -8.2318
# 5 -2.1373 -2.9705 12.2399 0.0000 21.8570 0.0000
# 6 0.0000 0.0000 0.0000 -8.2318 0.0000 39.6672
#
#
#
# Elastic Compliance Matrix: (Units=1/GPa)
#
#
# Indices 1 2 3 4 5 6 
#
# 1 0.011653 -0.006434 -0.000562 0.000000 0.000580 0.000000
# 2 -0.006434 0.017741 -0.005282 0.000000 0.004740 0.000000
# 3 -0.000562 -0.005282 0.010744 0.000000 -0.006789 0.000000
# 4 0.000000 0.000000 0.000000 0.026195 0.000000 0.005436
# 5 0.000580 0.004740 -0.006789 0.000000 0.050255 0.000000
# 6 0.000000 0.000000 0.000000 0.005436 0.000000 0.026338
#
#
# Mechanical properties :
#
#
# Convention : Reuss Voigt Hill
#
# Bulk Modulus (GPa) = 64.17332 64.62261 64.39796
# Shear Modulus (GPa) = 28.95590 33.82074 31.38832
#
# Velocity S-wave (km/s) = 3.80078 4.10768 3.95721
# Velocity P-wave (km/s) = 7.16080 7.39846 7.28060
#
# Compressibility (1/GPa) = 0.01558280
#
# Stress axis : x y z
#
# Youngs Moduli (GPa) = 85.81579 56.36513 93.07447
#
# Poissons Ratio (x) = 0.36268 0.05228
# Poissons Ratio (y) = 0.55218 0.49159
# Poissons Ratio (z) = 0.04820 0.29770
#
# Static dielectric constant tensor:
#      x y z
#    x 4.088770 0.000000 0.128260 
#    y 0.000000 3.800130 0.000000 
#    z 0.128260 0.000000 4.002110 
# 
# 
# High freq. dielectric constant tensor:
#      x y z
#    x 1.784760 0.000000 0.000520 
#    y 0.000000 1.768170 0.000000 
#    z 0.000520 0.000000 1.804340 
# 
# From -- ./inp_files/154063.got.cif
#   From: 2010.06.25/outbox.cif.g09.slc.cpg/sg15_78_cif.got.tgz:154063.got - 2010.06.28 07:06:18.
