data_PCOD8148177
_publ_section_title
;
Structure prediction by ZEFSAII (Michael W. Deem and Ramdas Pophale) SiO2 
 PCOD8148177
Probable space group: C 2/C
;
_chemical_formula_sum "Si O2"
_cell_formula_units_Z 56
_cell_length_a 12.770624
_cell_length_b 28.693637
_cell_length_c 8.653905
_cell_angle_alpha 90.000000
_cell_angle_beta 126.104214
_cell_angle_gamma 90.000000
_cell_volume 2562.078729
_symmetry_space_group_name_H-M "C 2/C"
_symmetry_group_IT_number 15
_symmetry_cell_setting 'monoclinic'
loop_
_space_group_symop_operation_xyz
x,y,z
-x,y,1/2-z
-x,-y,-z
x,-y,1/2+z
1/2+x,1/2+y,z
1/2-x,1/2+y,1/2-z
1/2-x,1/2-y,-z
1/2+x,1/2-y,1/2+z
loop_
_atom_site_type_symbol
_atom_site_label
_atom_site_fract_x
_atom_site_fract_y
_atom_site_fract_z
Si Si1 0.266771 0.388046 0.789616
Si Si2 0.738039 0.560996 0.738331
Si Si3 0.360120 0.642733 0.687358
Si Si4 0.803233 0.297225 0.249058
Si Si5 0.517058 0.881754 0.088848
Si Si6 0.359109 0.301312 0.695966
Si Si7 0.350363 0.471733 0.663603
O O1 0.353047 0.347026 0.793151
O O2 0.331607 0.435981 0.788752
O O3 0.116348 0.385438 0.617876
O O4 0.275224 0.382198 0.980596
O O5 0.634931 0.603389 0.673314
O O6 0.880988 0.581718 0.895401
O O7 0.708848 0.520423 0.833769
O O8 0.728922 0.544898 0.553806
O O9 0.500000 0.657322 0.750000
O O10 0.296307 0.689632 0.700448
O O11 0.931885 0.328544 0.379366
O O12 0.833276 0.242522 0.286743
O O13 0.746400 0.307043 0.029800
O O14 0.500000 0.896465 0.250000
O O15 0.500000 0.294637 0.750000
O O16 0.500000 0.478093 0.750000
#
# Coordination Sequence:
#
# PCOD8148177 Si02
#       7
#     8   8   8   8   8   8   8
#     4  12  24  40  70  95 132 176 217 264 339 383
#     4  11  24  41  66  93 134 173 217 272 328 379
#     4  11  23  44  65  97 134 171 213 277 325 393
#     4  10  23  39  65  92 129 168 214 268 325 378
#     4  11  21  45  64  94 133 173 216 270 320 401
#     4  11  22  39  67  97 120 170 221 269 320 387
#     4  12  23  41  66 100 128 174 223 276 322 391
#
# _framework density 21.857251999999999
#
# number of rings (size 3 to 8) (size 9 to 14) (size 15 to 20)
#    0.000    0.857    2.857    5.143    2.000    3.429 
#    0.000    0.000    0.000    0.000    0.000    0.000 
#    0.000    0.000    0.000    0.000    0.000    0.000 
#
# Total GULP energy -347303.023589 kJ/mol
# GULP energy per Si atom -12403.679414 kJ/mol
# Density = 2.180750 g / cm^3
# Si number density = 21.857252 Si / 1000 Ang^3
#
#
#
# Elastic Constant Matrix: (Units=GPa)
#
#
# Indices 1 2 3 4 5 6 
#
# 1 142.1262 68.9093 25.7322 0.0000 3.1498 0.0000
# 2 68.9093 123.8559 10.0904 0.0000 6.1915 0.0000
# 3 25.7322 10.0904 77.1860 0.0000 4.7178 0.0000
# 4 0.0000 0.0000 0.0000 24.9178 0.0000 -12.3709
# 5 3.1498 6.1915 4.7178 0.0000 29.4853 0.0000
# 6 0.0000 0.0000 0.0000 -12.3709 0.0000 48.5313
#
#
#
# Elastic Compliance Matrix: (Units=1/GPa)
#
#
# Indices 1 2 3 4 5 6 
#
# 1 0.010161 -0.005457 -0.002704 0.000000 0.000493 0.000000
# 2 -0.005457 0.011164 0.000472 0.000000 -0.001837 0.000000
# 3 -0.002704 0.000472 0.013920 0.000000 -0.002038 0.000000
# 4 0.000000 0.000000 0.000000 0.045947 0.000000 0.011712
# 5 0.000493 -0.001837 -0.002038 0.000000 0.034574 0.000000
# 6 0.000000 0.000000 0.000000 0.011712 0.000000 0.023591
#
#
# Mechanical properties :
#
#
# Convention : Reuss Voigt Hill
#
# Bulk Modulus (GPa) = 50.33779 61.40356 55.87067
# Shear Modulus (GPa) = 30.98734 36.48262 33.73498
#
# Velocity S-wave (km/s) = 3.76934 4.08993 3.93290
# Velocity P-wave (km/s) = 6.48260 7.10334 6.80006
#
# Compressibility (1/GPa) = 0.01986579
#
# Stress axis : x y z
#
# Youngs Moduli (GPa) = 98.41905 89.57722 71.83914
#
# Poissons Ratio (x) = 0.48886 0.19426
# Poissons Ratio (y) = 0.53711 -0.03393
# Poissons Ratio (z) = 0.26613 -0.04230
#
# Static dielectric constant tensor:
#      x y z
#    x 4.078640 0.000000 -0.108840 
#    y 0.000000 4.038520 0.000000 
#    z -0.108840 0.000000 3.948990 
# 
# 
# High freq. dielectric constant tensor:
#      x y z
#    x 1.875090 0.000000 -0.003950 
#    y 0.000000 1.865960 0.000000 
#    z -0.003950 0.000000 1.850170 
# 
# From -- ./inp_files/35800.got.cif
#   From: 2010.06.25/outbox.cif.g09.slc.cpg/sg15_18_cif.got.tgz:35800.got - 2010.06.28 07:06:18.
