data_PCOD8148134
_publ_section_title
;
Structure prediction by ZEFSAII (Michael W. Deem and Ramdas Pophale) SiO2 
 PCOD8148134
Probable space group: C 2/C
;
_chemical_formula_sum "Si O2"
_cell_formula_units_Z 60
_cell_length_a 11.853083
_cell_length_b 23.061327
_cell_length_c 18.506366
_cell_angle_alpha 90.000000
_cell_angle_beta 143.498174
_cell_angle_gamma 90.000000
_cell_volume 3009.144671
_symmetry_space_group_name_H-M "C 2/C"
_symmetry_group_IT_number 15
_symmetry_cell_setting 'monoclinic'
loop_
_space_group_symop_operation_xyz
x,y,z
-x,y,1/2-z
-x,-y,-z
x,-y,1/2+z
1/2+x,1/2+y,z
1/2-x,1/2+y,1/2-z
1/2-x,1/2-y,-z
1/2+x,1/2-y,1/2+z
loop_
_atom_site_type_symbol
_atom_site_label
_atom_site_fract_x
_atom_site_fract_y
_atom_site_fract_z
Si Si1 0.855925 0.924686 0.118187
Si Si2 0.572666 0.989799 0.709796
Si Si3 0.773656 0.545863 0.455468
Si Si4 0.063915 0.055680 0.577362
Si Si5 0.388147 0.695582 0.260754
Si Si6 0.934394 0.393233 0.902091
Si Si7 0.000000 0.305740 0.250000
Si Si8 0.852497 0.862624 0.502394
O O1 0.000000 0.894899 0.250000
O O2 0.935149 0.927495 0.078196
O O3 0.662352 0.886611 0.014702
O O4 0.831232 0.990888 0.134658
O O5 0.500000 0.968463 0.750000
O O6 0.647133 0.933656 0.704329
O O7 0.394261 0.017124 0.580168
O O8 0.723906 0.041622 0.788376
O O9 0.899009 0.577112 0.460582
O O10 0.638787 0.590721 0.427756
O O11 0.055131 0.111697 0.521933
O O12 0.000000 0.000000 0.500000
O O13 0.500000 0.666283 0.250000
O O14 0.178635 0.667589 0.161136
O O15 0.369156 0.764588 0.234490
O O16 0.514016 0.688948 0.398744
O O17 0.137398 0.343163 0.372434
#
# Coordination Sequence:
#
# PCOD8148134 Si02
#       8
#     8   8   8   8   8   8   4   8
#     4  11  23  36  54  85 134 177 212 242 291 379
#     4  11  20  33  49  83 124 164 205 250 294 371
#     4  11  20  34  54  83 119 165 199 248 295 372
#     4  12  21  35  54  88 129 166 202 245 303 380
#     4  10  23  39  61  88 119 155 202 270 319 362
#     4  11  22  37  56  84 119 171 216 246 314 360
#     4  10  24  42  64  96 120 152 212 272 332 358
#     4  12  21  38  65  90 126 160 203 257 321 370
#
# _framework density 19.939221
#
# number of rings (size 3 to 8) (size 9 to 14) (size 15 to 20)
#    0.400    0.533    4.000    6.000    1.867    0.000 
#    0.000    0.000    0.000    0.800    0.000    4.667 
#    0.000    0.000    0.000    0.000    0.000    0.000 
#
# Total GULP energy -371834.869760 kJ/mol
# GULP energy per Si atom -12394.495659 kJ/mol
# Density = 1.989384 g / cm^3
# Si number density = 19.939221 Si / 1000 Ang^3
#
#
#
# Elastic Constant Matrix: (Units=GPa)
#
#
# Indices 1 2 3 4 5 6 
#
# 1 120.3444 12.4095 27.2908 0.0055 -2.4712 -0.0036
# 2 12.4095 45.1700 12.8430 0.0085 3.0328 -0.0051
# 3 27.2908 12.8430 106.9242 -0.0056 2.9939 -0.0109
# 4 0.0055 0.0085 -0.0056 17.9931 -0.0039 0.9852
# 5 -2.4712 3.0328 2.9939 -0.0039 31.4821 -0.0021
# 6 -0.0036 -0.0051 -0.0109 0.9852 -0.0021 25.0653
#
#
#
# Elastic Compliance Matrix: (Units=1/GPa)
#
#
# Indices 1 2 3 4 5 6 
#
# 1 0.009008 -0.001953 -0.002095 -0.000002 0.001094 0.000000
# 2 -0.001953 0.023465 -0.002258 -0.000012 -0.002199 0.000004
# 3 -0.002095 -0.002258 0.010184 0.000005 -0.000915 0.000003
# 4 -0.000002 -0.000012 0.000005 0.055697 0.000007 -0.002189
# 5 0.001094 -0.002199 -0.000915 0.000007 0.032149 0.000002
# 6 0.000000 0.000004 0.000003 -0.002189 0.000002 0.039982
#
#
# Mechanical properties :
#
#
# Convention : Reuss Voigt Hill
#
# Bulk Modulus (GPa) = 33.28398 41.94724 37.61561
# Shear Modulus (GPa) = 25.89162 29.56779 27.72971
#
# Velocity S-wave (km/s) = 3.60742 3.85502 3.73327
# Velocity P-wave (km/s) = 5.83783 6.39516 6.12284
#
# Compressibility (1/GPa) = 0.03004448
#
# Stress axis : x y z
#
# Youngs Moduli (GPa) = 111.00646 42.61702 98.19189
#
# Poissons Ratio (x) = 0.08321 0.20575
# Poissons Ratio (y) = 0.21675 0.22176
# Poissons Ratio (z) = 0.23260 0.09625
#
# Static dielectric constant tensor:
#      x y z
#    x 3.706750 -0.000020 0.328250 
#    y -0.000020 3.748950 -0.000010 
#    z 0.328250 -0.000010 5.875840 
# 
# 
# High freq. dielectric constant tensor:
#      x y z
#    x 1.772220 0.000000 -0.008830 
#    y 0.000000 1.735300 0.000000 
#    z -0.008830 0.000000 1.798050 
# 
# From -- ./inp_files/200945.got.cif
#   From: 2010.06.25/outbox.cif.g09.slc.cpg/sg15_101_cif.got.tgz:200945.got - 2010.06.28 07:06:18.
