data_PCOD8148417
_publ_section_title
;
Structure prediction by ZEFSAII (Michael W. Deem and Ramdas Pophale) SiO2 
 PCOD8148417
Probable space group: C 2/C
;
_chemical_formula_sum "Si O2"
_cell_formula_units_Z 28
_cell_length_a 7.368807
_cell_length_b 10.517558
_cell_length_c 17.114425
_cell_angle_alpha 90.000000
_cell_angle_beta 64.511658
_cell_angle_gamma 90.000000
_cell_volume 1197.305000
_symmetry_space_group_name_H-M "C 2/C"
_symmetry_group_IT_number 15
_symmetry_cell_setting 'monoclinic'
loop_
_space_group_symop_operation_xyz
x,y,z
-x,y,1/2-z
-x,-y,-z
x,-y,1/2+z
1/2+x,1/2+y,z
1/2-x,1/2+y,1/2-z
1/2-x,1/2-y,-z
1/2+x,1/2-y,1/2+z
loop_
_atom_site_type_symbol
_atom_site_label
_atom_site_fract_x
_atom_site_fract_y
_atom_site_fract_z
Si Si1 0.000000 0.916706 0.750000
Si Si2 0.292646 0.897730 0.980046
Si Si3 0.202219 0.702807 0.422122
Si Si4 0.098431 0.969514 0.377089
O O1 0.896045 0.832887 0.835670
O O2 0.854996 0.005459 0.723404
O O3 0.531979 0.909629 0.953970
O O4 0.241989 0.937669 0.900249
O O5 0.250000 0.750000 0.000000
O O6 0.146031 0.991856 0.059136
O O7 0.250000 0.750000 0.500000
O O8 0.120468 0.822875 0.390080
#
# Coordination Sequence:
#
# PCOD8148417 Si02
#       4
#     4   8   8   8
#     4  12  26  40  62 100 132 168 228 276 330 408
#     4   9  19  41  67  89 123 168 217 272 337 402
#     4  11  25  43  66  96 134 178 224 274 337 413
#     4  10  23  41  64  94 127 170 221 280 341 395
#
# _framework density 23.385854999999999
#
# number of rings (size 3 to 8) (size 9 to 14) (size 15 to 20)
#    0.000    1.714    0.000    5.143    0.000   14.857 
#    0.000    0.000    0.000    0.000    0.000    0.000 
#    0.000    0.000    0.000    0.000    0.000    0.000 
#
# Total GULP energy -173435.712525 kJ/mol
# GULP energy per Si atom -12388.265180 kJ/mol
# Density = 2.333263 g / cm^3
# Si number density = 23.385855 Si / 1000 Ang^3
#
#
#
# Elastic Constant Matrix: (Units=GPa)
#
#
# Indices 1 2 3 4 5 6 
#
# 1 149.8607 33.8523 60.3400 0.0000 8.2570 0.0000
# 2 33.8523 76.6553 57.5068 0.0000 5.6022 0.0000
# 3 60.3400 57.5068 178.9510 0.0000 31.2494 0.0000
# 4 0.0000 0.0000 0.0000 39.2248 0.0000 3.2489
# 5 8.2570 5.6022 31.2494 0.0000 46.5499 0.0000
# 6 0.0000 0.0000 0.0000 3.2489 0.0000 35.8756
#
#
#
# Elastic Compliance Matrix: (Units=1/GPa)
#
#
# Indices 1 2 3 4 5 6 
#
# 1 0.007944 -0.001957 -0.002090 0.000000 0.000229 0.000000
# 2 -0.001957 0.017815 -0.005382 0.000000 0.001816 0.000000
# 3 -0.002090 -0.005382 0.008886 0.000000 -0.004947 0.000000
# 4 0.000000 0.000000 0.000000 0.025687 0.000000 -0.002326
# 5 0.000229 0.001816 -0.004947 0.000000 0.024544 0.000000
# 6 0.000000 0.000000 0.000000 -0.002326 0.000000 0.028085
#
#
# Mechanical properties :
#
#
# Convention : Reuss Voigt Hill
#
# Bulk Modulus (GPa) = 63.34419 78.76279 71.05349
# Shear Modulus (GPa) = 36.47506 41.24790 38.86148
#
# Velocity S-wave (km/s) = 3.95360 4.20431 4.08088
# Velocity P-wave (km/s) = 6.92723 7.57107 7.25630
#
# Compressibility (1/GPa) = 0.01578677
#
# Stress axis : x y z
#
# Youngs Moduli (GPa) = 125.88581 56.13368 112.53506
#
# Poissons Ratio (x) = 0.10987 0.23515
# Poissons Ratio (y) = 0.24639 0.60567
# Poissons Ratio (z) = 0.26305 0.30211
#
# Static dielectric constant tensor:
#      x y z
#    x 2.984650 0.000000 -1.212720 
#    y 0.000000 4.512490 0.000000 
#    z -1.212720 0.000000 3.657710 
# 
# 
# High freq. dielectric constant tensor:
#      x y z
#    x 1.939080 0.000000 0.012900 
#    y 0.000000 1.950490 0.000000 
#    z 0.012900 0.000000 1.908250 
# 
# From -- ./inp_files/131897.got.cif
#   From: 2010.06.25/outbox.cif.g09.slc.cpg/sg15_66_cif.got.tgz:131897.got - 2010.06.28 07:06:18.
