data_PCOD8148090
_publ_section_title
;
Structure prediction by ZEFSAII (Michael W. Deem and Ramdas Pophale) SiO2 
 PCOD8148090
Probable space group: C 2/C
;
_chemical_formula_sum "Si O2"
_cell_formula_units_Z 64
_cell_length_a 30.014277
_cell_length_b 8.448653
_cell_length_c 13.829914
_cell_angle_alpha 90.000000
_cell_angle_beta 52.833142
_cell_angle_gamma 90.000000
_cell_volume 2794.650468
_symmetry_space_group_name_H-M "C 2/C"
_symmetry_group_IT_number 15
_symmetry_cell_setting 'monoclinic'
loop_
_space_group_symop_operation_xyz
x,y,z
-x,y,1/2-z
-x,-y,-z
x,-y,1/2+z
1/2+x,1/2+y,z
1/2-x,1/2+y,1/2-z
1/2-x,1/2-y,-z
1/2+x,1/2-y,1/2+z
loop_
_atom_site_type_symbol
_atom_site_label
_atom_site_fract_x
_atom_site_fract_y
_atom_site_fract_z
Si Si1 0.877757 0.395322 0.224088
Si Si2 0.609564 0.580132 0.537735
Si Si3 0.509986 0.441313 0.380884
Si Si4 0.867019 0.061206 0.311615
Si Si5 0.810650 0.420047 0.657303
Si Si6 0.396717 0.943650 0.898976
Si Si7 0.973711 0.390182 0.956808
Si Si8 0.188871 0.942536 0.289557
O O1 0.850716 0.240454 0.307207
O O2 0.832787 0.502586 0.227863
O O3 0.905038 0.499800 0.276525
O O4 0.919832 0.325636 0.087125
O O5 0.544768 0.522527 0.613016
O O6 0.646919 0.466997 0.557898
O O7 0.612161 0.755674 0.579100
O O8 0.641844 0.561348 0.394627
O O9 0.500000 0.500000 0.500000
O O10 0.566476 0.521522 0.271255
O O11 0.516080 0.249897 0.373476
O O12 0.830009 0.938995 0.297798
O O13 0.845098 0.465607 0.516318
O O14 0.812556 0.231945 0.665444
O O15 0.748272 0.477668 0.723918
O O16 0.453030 0.982891 0.887562
O O17 0.000000 0.500000 0.000000
#
# Coordination Sequence:
#
# PCOD8148090 Si02
#       8
#     8   8   8   8   8   8   8   8
#     4  11  23  43  63  96 131 171 216 268 319 384
#     4  11  24  42  65  98 129 174 216 267 319 388
#     4  11  21  41  64  91 132 171 215 260 312 383
#     4  12  24  41  67  95 132 175 217 265 323 385
#     4  11  25  44  69  96 127 169 211 275 325 389
#     4  10  23  43  63  94 134 167 217 267 321 381
#     4  10  23  38  63  91 131 171 213 265 317 373
#     4  12  24  44  70  95 128 167 217 265 332 386
#
# _framework density 22.900898000000002
#
# number of rings (size 3 to 8) (size 9 to 14) (size 15 to 20)
#    0.000    1.000    2.500    4.875    5.250    2.500 
#    2.250    5.000    0.000    0.000    0.000    0.000 
#    0.000    0.000    0.000    0.000    0.000    0.000 
#
# Total GULP energy -396568.031686 kJ/mol
# GULP energy per Si atom -12392.750990 kJ/mol
# Density = 2.284877 g / cm^3
# Si number density = 22.900898 Si / 1000 Ang^3
#
#
#
# Elastic Constant Matrix: (Units=GPa)
#
#
# Indices 1 2 3 4 5 6 
#
# 1 116.9344 12.1604 22.6759 0.0000 15.7212 0.0000
# 2 12.1604 75.1440 14.3631 0.0000 -0.7134 0.0000
# 3 22.6759 14.3631 27.7828 0.0000 4.3739 0.0000
# 4 0.0000 0.0000 0.0000 32.2406 0.0000 -1.5602
# 5 15.7212 -0.7134 4.3739 0.0000 38.0513 0.0000
# 6 0.0000 0.0000 0.0000 -1.5602 0.0000 37.9633
#
#
#
# Elastic Compliance Matrix: (Units=1/GPa)
#
#
# Indices 1 2 3 4 5 6 
#
# 1 0.010588 -0.000220 -0.007983 0.000000 -0.003461 0.000000
# 2 -0.000220 0.014823 -0.007681 0.000000 0.001252 0.000000
# 3 -0.007983 -0.007681 0.046831 0.000000 -0.002229 0.000000
# 4 0.000000 0.000000 0.000000 0.031079 0.000000 0.001277
# 5 -0.003461 0.001252 -0.002229 0.000000 0.027990 0.000000
# 6 0.000000 0.000000 0.000000 0.001277 0.000000 0.026394
#
#
# Mechanical properties :
#
#
# Convention : Reuss Voigt Hill
#
# Bulk Modulus (GPa) = 24.70706 35.36219 30.03463
# Shear Modulus (GPa) = 24.63492 33.02850 28.83171
#
# Velocity S-wave (km/s) = 3.28337 3.80180 3.55206
# Velocity P-wave (km/s) = 5.01858 5.89461 5.47415
#
# Compressibility (1/GPa) = 0.04047426
#
# Stress axis : x y z
#
# Youngs Moduli (GPa) = 94.44548 67.46089 21.35350
#
# Poissons Ratio (x) = 0.01487 0.17047
# Poissons Ratio (y) = 0.02082 0.16401
# Poissons Ratio (z) = 0.75396 0.51814
#
# Static dielectric constant tensor:
#      x y z
#    x 4.302980 0.000000 0.372360 
#    y 0.000000 4.056280 0.000000 
#    z 0.372360 0.000000 4.540610 
# 
# 
# High freq. dielectric constant tensor:
#      x y z
#    x 1.919750 0.000000 0.022580 
#    y 0.000000 1.904660 0.000000 
#    z 0.022580 0.000000 1.900580 
# 
# From -- ./inp_files/181149.got.cif
#   From: 2010.06.25/outbox.cif.g09.slc.cpg/sg15_91_cif.got.tgz:181149.got - 2010.06.28 07:06:18.
