data_PCOD8148566
_publ_section_title
;
Structure prediction by ZEFSAII (Michael W. Deem and Ramdas Pophale) SiO2 
 PCOD8148566
Probable space group: C 2/C
;
_chemical_formula_sum "Si O2"
_cell_formula_units_Z 40
_cell_length_a 27.114688
_cell_length_b 11.843537
_cell_length_c 5.260734
_cell_angle_alpha 90.000000
_cell_angle_beta 107.007138
_cell_angle_gamma 90.000000
_cell_volume 1615.519282
_symmetry_space_group_name_H-M "C 2/C"
_symmetry_group_IT_number 15
_symmetry_cell_setting 'monoclinic'
loop_
_space_group_symop_operation_xyz
x,y,z
-x,y,1/2-z
-x,-y,-z
x,-y,1/2+z
1/2+x,1/2+y,z
1/2-x,1/2+y,1/2-z
1/2-x,1/2-y,-z
1/2+x,1/2-y,1/2+z
loop_
_atom_site_type_symbol
_atom_site_label
_atom_site_fract_x
_atom_site_fract_y
_atom_site_fract_z
Si Si1 0.877381 0.232870 0.194163
Si Si2 0.060886 0.564531 0.844938
Si Si3 0.198888 0.931720 0.151877
Si Si4 0.318548 0.928572 0.310420
Si Si5 0.477634 0.626836 0.466510
O O1 0.913920 0.313168 0.080183
O O2 0.847890 0.307913 0.362663
O O3 0.915074 0.137160 0.376636
O O4 0.835749 0.178390 0.943105
O O5 0.079970 0.516385 0.600343
O O6 0.000000 0.576259 0.750000
O O7 0.258378 0.897329 0.225517
O O8 0.185341 0.978990 0.409437
O O9 0.333468 0.008132 0.568931
O O10 0.500000 0.688212 0.250000
O O11 0.500000 0.500000 0.500000
O O12 0.500000 0.689972 0.750000
#
# Coordination Sequence:
#
# PCOD8148566 Si02
#       5
#     8   8   8   8   8
#     4  12  24  41  74  95 131 184 221 265 348 392
#     4  10  23  42  62  93 129 165 220 276 320 382
#     4  10  25  43  65  98 138 172 220 280 330 399
#     4  10  23  45  67 101 135 167 224 282 328 396
#     4  10  25  43  61  90 134 169 220 270 311 392
#
# _framework density 24.759841000000002
#
# number of rings (size 3 to 8) (size 9 to 14) (size 15 to 20)
#    0.000    1.600    0.000    2.400    5.600    8.800 
#    0.000    6.000    0.000    0.000    0.000    0.000 
#    0.000    0.000    0.000    0.000    0.000    0.000 
#
# Total GULP energy -247964.677246 kJ/mol
# GULP energy per Si atom -12398.233862 kJ/mol
# Density = 2.470349 g / cm^3
# Si number density = 24.759841 Si / 1000 Ang^3
#
#
#
# Elastic Constant Matrix: (Units=GPa)
#
#
# Indices 1 2 3 4 5 6 
#
# 1 98.8522 56.9894 55.0077 0.0000 22.9349 0.0000
# 2 56.9894 111.1288 23.4905 0.0000 22.0020 0.0000
# 3 55.0077 23.4905 142.0634 0.0000 0.3081 0.0000
# 4 0.0000 0.0000 0.0000 15.9901 0.0000 21.4065
# 5 22.9349 22.0020 0.3081 0.0000 43.6871 0.0000
# 6 0.0000 0.0000 0.0000 21.4065 0.0000 57.2619
#
#
#
# Elastic Compliance Matrix: (Units=1/GPa)
#
#
# Indices 1 2 3 4 5 6 
#
# 1 0.019289 -0.007303 -0.006247 0.000000 -0.006404 0.000000
# 2 -0.007303 0.013159 0.000658 0.000000 -0.002798 0.000000
# 3 -0.006247 0.000658 0.009343 0.000000 0.002882 0.000000
# 4 0.000000 0.000000 0.000000 0.125194 0.000000 -0.046802
# 5 -0.006404 -0.002798 0.002882 0.000000 0.027641 0.000000
# 6 0.000000 0.000000 0.000000 -0.046802 0.000000 0.034960
#
#
# Mechanical properties :
#
#
# Convention : Reuss Voigt Hill
#
# Bulk Modulus (GPa) = 62.47788 69.22438 65.85113
# Shear Modulus (GPa) = 19.17883 37.82496 28.50189
#
# Velocity S-wave (km/s) = 2.78617 3.91279 3.39652
# Velocity P-wave (km/s) = 5.96981 6.95933 6.48348
#
# Compressibility (1/GPa) = 0.01600566
#
# Stress axis : x y z
#
# Youngs Moduli (GPa) = 51.84400 75.99592 107.03228
#
# Poissons Ratio (x) = 0.55501 0.66865
# Poissons Ratio (y) = 0.37863 -0.07044
# Poissons Ratio (z) = 0.32388 -0.05001
#
# Static dielectric constant tensor:
#      x y z
#    x 4.868700 0.000000 -0.133610 
#    y 0.000000 4.244190 0.000000 
#    z -0.133610 0.000000 5.598770 
# 
# 
# High freq. dielectric constant tensor:
#      x y z
#    x 2.020600 0.000000 0.014100 
#    y 0.000000 1.968660 0.000000 
#    z 0.014100 0.000000 1.986260 
# 
# From -- ./inp_files/16754.got.cif
#   From: 2010.06.25/outbox.cif.g09.slc.cpg/sg15_9_cif.got.tgz:16754.got - 2010.06.28 07:06:18.
