data_PCOD8148786
_publ_section_title
;
Structure prediction by ZEFSAII (Michael W. Deem and Ramdas Pophale) SiO2 
 PCOD8148786
Probable space group: C 2/C
;
_chemical_formula_sum "Si O2"
_cell_formula_units_Z 60
_cell_length_a 15.484451
_cell_length_b 12.701986
_cell_length_c 16.678806
_cell_angle_alpha 90.000000
_cell_angle_beta 54.298955
_cell_angle_gamma 90.000000
_cell_volume 2663.958212
_symmetry_space_group_name_H-M "C 2/C"
_symmetry_group_IT_number 15
_symmetry_cell_setting 'monoclinic'
loop_
_space_group_symop_operation_xyz
x,y,z
-x,y,1/2-z
-x,-y,-z
x,-y,1/2+z
1/2+x,1/2+y,z
1/2-x,1/2+y,1/2-z
1/2-x,1/2-y,-z
1/2+x,1/2-y,1/2+z
loop_
_atom_site_type_symbol
_atom_site_label
_atom_site_fract_x
_atom_site_fract_y
_atom_site_fract_z
Si Si1 0.373271 0.721897 0.445300
Si Si2 0.403137 0.492074 0.989899
Si Si3 0.701738 0.018659 0.703757
Si Si4 0.542623 0.166693 0.454874
Si Si5 0.837547 0.447124 0.101820
Si Si6 0.500000 0.141599 0.750000
Si Si7 0.316804 0.342173 0.423485
Si Si8 0.592479 0.188563 0.250748
O O1 0.250000 0.750000 0.500000
O O2 0.409439 0.599372 0.418577
O O3 0.401194 0.747361 0.521683
O O4 0.447380 0.786498 0.345777
O O5 0.298251 0.454493 0.094336
O O6 0.500000 0.500000 0.000000
O O7 0.392318 0.603629 0.949366
O O8 0.726578 0.060894 0.779701
O O9 0.590442 0.069470 0.738899
O O10 0.690714 0.891446 0.706910
O O11 0.421787 0.148039 0.548298
O O12 0.544939 0.213670 0.364003
O O13 0.605933 0.058632 0.431856
O O14 0.758449 0.435328 0.069548
O O15 0.250000 0.250000 0.500000
O O16 0.378328 0.295018 0.313160
O O17 0.500000 0.130911 0.250000
#
# Coordination Sequence:
#
# PCOD8148786 Si02
#       8
#     8   8   8   8   8   4   8   8
#     4  12  26  47  76 106 152 200 252 309 395 469
#     4  12  30  50  71 107 159 197 248 318 396 466
#     4  11  23  46  76 106 145 194 256 320 378 453
#     4  10  23  42  71 108 143 184 245 324 374 449
#     4  10  23  42  71 108 141 181 249 319 372 445
#     4  12  24  46  78 108 144 202 258 316 378 470
#     4  12  26  45  72 102 145 201 255 307 381 459
#     4  11  24  40  74 106 139 184 252 314 377 434
#
# _framework density 22.522877000000001
#
# number of rings (size 3 to 8) (size 9 to 14) (size 15 to 20)
#    0.000    0.800    4.667    1.600    5.600    0.000 
#    8.400    0.000    0.000    0.000    0.000    0.000 
#    0.000    0.000    0.000    0.000    0.000    0.000 
#
# Total GULP energy -371931.605419 kJ/mol
# GULP energy per Si atom -12397.720181 kJ/mol
# Density = 2.247161 g / cm^3
# Si number density = 22.522877 Si / 1000 Ang^3
#
#
#
# Elastic Constant Matrix: (Units=GPa)
#
#
# Indices 1 2 3 4 5 6 
#
# 1 132.4045 40.6653 38.6806 0.0000 15.8874 0.0000
# 2 40.6653 101.8232 41.7348 0.0000 9.1048 0.0000
# 3 38.6806 41.7348 130.1232 0.0000 10.5160 0.0000
# 4 0.0000 0.0000 0.0000 37.0186 0.0000 9.5729
# 5 15.8874 9.1048 10.5160 0.0000 40.8866 0.0000
# 6 0.0000 0.0000 0.0000 9.5729 0.0000 37.4544
#
#
#
# Elastic Compliance Matrix: (Units=1/GPa)
#
#
# Indices 1 2 3 4 5 6 
#
# 1 0.009186 -0.002771 -0.001637 0.000000 -0.002531 0.000000
# 2 -0.002771 0.012249 -0.003035 0.000000 -0.000870 0.000000
# 3 -0.001637 -0.003035 0.009231 0.000000 -0.001062 0.000000
# 4 0.000000 0.000000 0.000000 0.028925 0.000000 -0.007393
# 5 -0.002531 -0.000870 -0.001062 0.000000 0.025908 0.000000
# 6 0.000000 0.000000 0.000000 -0.007393 0.000000 0.028589
#
#
# Mechanical properties :
#
#
# Convention : Reuss Voigt Hill
#
# Bulk Modulus (GPa) = 63.37179 67.39024 65.38101
# Shear Modulus (GPa) = 37.24831 39.28994 38.26913
#
# Velocity S-wave (km/s) = 4.07110 4.18119 4.12651
# Velocity P-wave (km/s) = 7.09198 7.30038 7.19694
#
# Compressibility (1/GPa) = 0.01577989
#
# Stress axis : x y z
#
# Youngs Moduli (GPa) = 108.86471 81.63717 108.33219
#
# Poissons Ratio (x) = 0.22623 0.17736
# Poissons Ratio (y) = 0.30168 0.32875
# Poissons Ratio (z) = 0.17823 0.24774
#
# Static dielectric constant tensor:
#      x y z
#    x 4.147600 0.000000 0.092510 
#    y 0.000000 4.000170 0.000000 
#    z 0.092510 0.000000 4.189900 
# 
# 
# High freq. dielectric constant tensor:
#      x y z
#    x 1.893020 0.000000 0.009460 
#    y 0.000000 1.889780 0.000000 
#    z 0.009460 0.000000 1.891970 
# 
# From -- ./inp_files/154236.got.cif
#   From: 2010.06.25/outbox.cif.g09.slc.cpg/sg15_78_cif.got.tgz:154236.got - 2010.06.28 07:06:18.
