data_PCOD8148910
_publ_section_title
;
Structure prediction by ZEFSAII (Michael W. Deem and Ramdas Pophale) SiO2 
 PCOD8148910
Probable space group: C 2/C
;
_chemical_formula_sum "Si O2"
_cell_formula_units_Z 56
_cell_length_a 27.977491
_cell_length_b 11.579050
_cell_length_c 9.027335
_cell_angle_alpha 90.000000
_cell_angle_beta 111.656339
_cell_angle_gamma 90.000000
_cell_volume 2718.006500
_symmetry_space_group_name_H-M "C 2/C"
_symmetry_group_IT_number 15
_symmetry_cell_setting 'monoclinic'
loop_
_space_group_symop_operation_xyz
x,y,z
-x,y,1/2-z
-x,-y,-z
x,-y,1/2+z
1/2+x,1/2+y,z
1/2-x,1/2+y,1/2-z
1/2-x,1/2-y,-z
1/2+x,1/2-y,1/2+z
loop_
_atom_site_type_symbol
_atom_site_label
_atom_site_fract_x
_atom_site_fract_y
_atom_site_fract_z
Si Si1 0.947396 0.744110 0.100858
Si Si2 0.504599 0.123610 0.928846
Si Si3 0.719962 0.802364 0.102381
Si Si4 0.323623 0.372750 0.322998
Si Si5 0.147564 0.892455 0.488542
Si Si6 0.631871 0.057808 0.373322
Si Si7 0.617812 0.147674 0.051263
O O1 0.912406 0.859578 0.055873
O O2 0.915406 0.640425 0.137799
O O3 0.000000 0.767331 0.250000
O O4 0.961615 0.708379 0.948463
O O5 0.500000 0.107668 0.750000
O O6 0.559647 0.180932 0.025858
O O7 0.500000 0.000000 0.000000
O O8 0.761971 0.851332 0.266671
O O9 0.750000 0.750000 0.000000
O O10 0.683168 0.699123 0.120194
O O11 0.684774 0.908751 0.013340
O O12 0.340909 0.385809 0.173121
O O13 0.340773 0.481701 0.437727
O O14 0.350225 0.263756 0.430380
O O15 0.640668 0.066113 0.207452
O O16 0.619247 0.925784 0.400802
#
# Coordination Sequence:
#
# PCOD8148910 Si02
#       7
#     8   8   8   8   8   8   8
#     4  11  20  42  66  87 128 175 210 263 328 374
#     4  12  23  36  60  90 127 164 207 266 322 382
#     4   9  19  41  66  87 127 175 207 258 327 378
#     4  11  23  43  66  90 134 169 216 269 320 379
#     4  10  23  43  67  92 127 175 215 266 320 388
#     4  11  22  36  66  92 128 165 211 260 324 380
#     4  12  23  40  60  99 127 165 211 263 324 381
#
# _framework density 20.603335000000001
#
# number of rings (size 3 to 8) (size 9 to 14) (size 15 to 20)
#    0.000    1.143    7.143    1.286    2.000    1.143 
#    2.571    4.286    0.000    0.000    0.000    0.000 
#    0.000    0.000    0.000    0.000    0.000    0.000 
#
# Total GULP energy -347130.626347 kJ/mol
# GULP energy per Si atom -12397.522370 kJ/mol
# Density = 2.055644 g / cm^3
# Si number density = 20.603335 Si / 1000 Ang^3
#
#
#
# Elastic Constant Matrix: (Units=GPa)
#
#
# Indices 1 2 3 4 5 6 
#
# 1 107.1311 38.9368 33.1796 0.0000 31.8639 0.0000
# 2 38.9368 109.6112 50.9372 0.0000 13.7794 0.0000
# 3 33.1796 50.9372 80.3550 0.0000 10.8402 0.0000
# 4 0.0000 0.0000 0.0000 35.4457 0.0000 5.5985
# 5 31.8639 13.7794 10.8402 0.0000 41.7303 0.0000
# 6 0.0000 0.0000 0.0000 5.5985 0.0000 29.8460
#
#
#
# Elastic Compliance Matrix: (Units=1/GPa)
#
#
# Indices 1 2 3 4 5 6 
#
# 1 0.013791 -0.002392 -0.002968 0.000000 -0.008969 0.000000
# 2 -0.002392 0.013549 -0.007507 0.000000 -0.000697 0.000000
# 3 -0.002968 -0.007507 0.018435 0.000000 -0.000044 0.000000
# 4 0.000000 0.000000 0.000000 0.029074 0.000000 -0.005454
# 5 -0.008969 -0.000697 -0.000044 0.000000 0.031054 0.000000
# 6 0.000000 0.000000 0.000000 -0.005454 0.000000 0.034528
#
#
# Mechanical properties :
#
#
# Convention : Reuss Voigt Hill
#
# Bulk Modulus (GPa) = 49.89888 60.35605 55.12747
# Shear Modulus (GPa) = 28.92772 33.00732 30.96752
#
# Velocity S-wave (km/s) = 3.75110 4.00689 3.88110
# Velocity P-wave (km/s) = 6.55991 7.12494 6.84826
#
# Compressibility (1/GPa) = 0.02004053
#
# Stress axis : x y z
#
# Youngs Moduli (GPa) = 72.51266 73.80567 54.24479
#
# Poissons Ratio (x) = 0.17654 0.16100
# Poissons Ratio (y) = 0.17345 0.40722
# Poissons Ratio (z) = 0.21522 0.55406
#
# Static dielectric constant tensor:
#      x y z
#    x 5.003460 0.000000 0.620660 
#    y 0.000000 25.548950 0.000000 
#    z 0.620660 0.000000 4.003820 
# 
# 
# High freq. dielectric constant tensor:
#      x y z
#    x 1.819920 0.000000 0.016130 
#    y 0.000000 1.784510 0.000000 
#    z 0.016130 0.000000 1.797310 
# 
# From -- ./inp_files/65542.got.cif
#   From: 2010.06.25/outbox.cif.g09.slc.cpg/sg15_33_cif.got.tgz:65542.got - 2010.06.28 07:06:18.
