data_PCOD8148281
_publ_section_title
;
Structure prediction by ZEFSAII (Michael W. Deem and Ramdas Pophale) SiO2 
 PCOD8148281
Probable space group: C 2/C
;
_chemical_formula_sum "Si O2"
_cell_formula_units_Z 56
_cell_length_a 23.030206
_cell_length_b 15.275758
_cell_length_c 8.703378
_cell_angle_alpha 90.000000
_cell_angle_beta 118.936183
_cell_angle_gamma 90.000000
_cell_volume 2679.633989
_symmetry_space_group_name_H-M "C 2/C"
_symmetry_group_IT_number 15
_symmetry_cell_setting 'monoclinic'
loop_
_space_group_symop_operation_xyz
x,y,z
-x,y,1/2-z
-x,-y,-z
x,-y,1/2+z
1/2+x,1/2+y,z
1/2-x,1/2+y,1/2-z
1/2-x,1/2-y,-z
1/2+x,1/2-y,1/2+z
loop_
_atom_site_type_symbol
_atom_site_label
_atom_site_fract_x
_atom_site_fract_y
_atom_site_fract_z
Si Si1 0.829309 0.604670 0.310185
Si Si2 0.320707 0.255680 0.508867
Si Si3 0.241044 0.477132 0.044917
Si Si4 0.547825 0.739479 0.165375
Si Si5 0.667469 0.557057 0.578769
Si Si6 0.982023 0.591196 0.549181
Si Si7 0.542156 0.433693 0.454093
O O1 0.807755 0.699986 0.339433
O O2 0.803253 0.531714 0.394756
O O3 0.906859 0.602429 0.411232
O O4 0.803302 0.594087 0.102260
O O5 0.250000 0.250000 0.500000
O O6 0.379914 0.221428 0.693398
O O7 0.354793 0.347677 0.503374
O O8 0.303408 0.434008 0.212260
O O9 0.270938 0.538602 0.953059
O O10 0.500000 0.717246 0.250000
O O11 0.518042 0.821233 0.029227
O O12 0.556762 0.654128 0.069239
O O13 0.610583 0.482930 0.495912
O O14 0.000000 0.587974 0.750000
O O15 0.000000 0.500000 0.500000
O O16 0.500000 0.408186 0.250000
O O17 0.500000 0.500000 0.500000
#
# Coordination Sequence:
#
# PCOD8148281 Si02
#       7
#     8   8   8   8   8   8   8
#     4  11  22  41  67  95 128 170 214 272 329 396
#     4  12  23  40  68  97 130 174 223 272 337 400
#     4  10  23  40  65  96 128 167 219 267 333 403
#     4  11  24  44  67  99 133 174 224 274 337 406
#     4  11  23  42  64  95 131 173 216 273 339 395
#     4  11  23  42  68  95 129 175 216 270 332 392
#     4  12  25  42  68  94 131 176 223 277 333 398
#
# _framework density 20.898375000000001
#
# number of rings (size 3 to 8) (size 9 to 14) (size 15 to 20)
#    0.000    0.857    4.286    4.714    2.000    1.143 
#    0.000    1.429    0.000    0.000    0.000    0.000 
#    0.000    0.000    0.000    0.000    0.000    0.000 
#
# Total GULP energy -346951.485592 kJ/mol
# GULP energy per Si atom -12391.124485 kJ/mol
# Density = 2.085081 g / cm^3
# Si number density = 20.898375 Si / 1000 Ang^3
#
#
#
# Elastic Constant Matrix: (Units=GPa)
#
#
# Indices 1 2 3 4 5 6 
#
# 1 99.1650 40.2912 36.8592 0.0000 25.3546 0.0000
# 2 40.2912 140.9283 31.6048 0.0000 2.0809 0.0000
# 3 36.8592 31.6048 133.7680 0.0000 20.8669 0.0000
# 4 0.0000 0.0000 0.0000 45.7440 0.0000 -4.8201
# 5 25.3546 2.0809 20.8669 0.0000 34.8690 0.0000
# 6 0.0000 0.0000 0.0000 -4.8201 0.0000 38.8597
#
#
#
# Elastic Compliance Matrix: (Units=1/GPa)
#
#
# Indices 1 2 3 4 5 6 
#
# 1 0.014598 -0.003655 -0.001695 0.000000 -0.009382 0.000000
# 2 -0.003655 0.008422 -0.001455 0.000000 0.003026 0.000000
# 3 -0.001695 -0.001455 0.008913 0.000000 -0.004014 0.000000
# 4 0.000000 0.000000 0.000000 0.022150 0.000000 0.002748
# 5 -0.009382 0.003026 -0.004014 0.000000 0.037723 0.000000
# 6 0.000000 0.000000 0.000000 0.002748 0.000000 0.026074
#
#
# Mechanical properties :
#
#
# Convention : Reuss Voigt Hill
#
# Bulk Modulus (GPa) = 54.57591 65.70799 60.14195
# Shear Modulus (GPa) = 36.33765 41.56827 38.95296
#
# Velocity S-wave (km/s) = 4.17439 4.46473 4.32200
# Velocity P-wave (km/s) = 7.02892 7.62157 7.33124
#
# Compressibility (1/GPa) = 0.01832310
#
# Stress axis : x y z
#
# Youngs Moduli (GPa) = 68.50147 118.73225 112.19980
#
# Poissons Ratio (x) = 0.43395 0.19022
# Poissons Ratio (y) = 0.25036 0.16323
# Poissons Ratio (z) = 0.11614 0.17273
#
# Static dielectric constant tensor:
#      x y z
#    x 3.771180 0.000000 0.099880 
#    y 0.000000 3.898930 0.000000 
#    z 0.099880 0.000000 4.202560 
# 
# 
# High freq. dielectric constant tensor:
#      x y z
#    x 1.821970 0.000000 0.017310 
#    y 0.000000 1.821900 0.000000 
#    z 0.017310 0.000000 1.825920 
# 
# From -- ./inp_files/61996.got.cif
#   From: 2010.06.25/outbox.cif.g09.slc.cpg/sg15_31_cif.got.tgz:61996.got - 2010.06.28 07:06:18.
