data_PCOD8148315
_publ_section_title
;
Structure prediction by ZEFSAII (Michael W. Deem and Ramdas Pophale) SiO2 
 PCOD8148315
Probable space group: C 2/C
;
_chemical_formula_sum "Si O2"
_cell_formula_units_Z 56
_cell_length_a 23.720613
_cell_length_b 11.107035
_cell_length_c 29.798588
_cell_angle_alpha 90.000000
_cell_angle_beta 20.733810
_cell_angle_gamma 90.000000
_cell_volume 2779.430723
_symmetry_space_group_name_H-M "C 2/C"
_symmetry_group_IT_number 15
_symmetry_cell_setting 'monoclinic'
loop_
_space_group_symop_operation_xyz
x,y,z
-x,y,1/2-z
-x,-y,-z
x,-y,1/2+z
1/2+x,1/2+y,z
1/2-x,1/2+y,1/2-z
1/2-x,1/2-y,-z
1/2+x,1/2-y,1/2+z
loop_
_atom_site_type_symbol
_atom_site_label
_atom_site_fract_x
_atom_site_fract_y
_atom_site_fract_z
Si Si1 0.245754 0.914629 0.446161
Si Si2 0.946321 0.350770 0.655233
Si Si3 0.384453 0.012541 0.544297
Si Si4 0.899003 0.065712 0.113996
Si Si5 0.471291 0.059259 0.697746
Si Si6 0.438512 0.427565 0.171114
Si Si7 0.044631 0.716611 0.563717
O O1 0.371259 0.906964 0.392361
O O2 0.320221 0.951816 0.342749
O O3 0.184912 0.778712 0.487096
O O4 0.100334 0.005128 0.564986
O O5 0.764470 0.390925 0.785145
O O6 0.011709 0.428183 0.647967
O O7 0.969620 0.213259 0.650099
O O8 0.047944 0.377421 0.535180
O O9 0.380629 0.886911 0.521677
O O10 0.500000 0.000000 0.500000
O O11 0.201770 0.039762 0.690552
O O12 0.966956 0.184119 0.088693
O O13 0.875782 0.962792 0.168467
O O14 0.000000 0.000000 0.000000
O O15 0.432620 0.154361 0.685716
#
# Coordination Sequence:
#
# PCOD8148315 Si02
#       7
#     8   8   8   8   8   8   8
#     4  10  23  43  68  92 127 165 225 264 326 376
#     4  11  24  40  64  92 132 165 215 260 324 387
#     4  11  23  41  61  94 131 170 205 259 326 377
#     4  11  24  39  65  96 132 170 210 262 322 390
#     4  10  23  44  66  94 124 175 210 273 323 373
#     4  11  25  40  64  94 125 172 213 263 316 391
#     4  10  23  40  67  95 130 166 216 267 315 385
#
# _framework density 20.148009999999999
#
# number of rings (size 3 to 8) (size 9 to 14) (size 15 to 20)
#    0.000    1.429    1.429    3.000   12.000    0.571 
#    0.000    2.143    0.000    0.000    0.000    0.000 
#    0.000    0.000    0.000    0.000    0.000    0.000 
#
# Total GULP energy -347091.028823 kJ/mol
# GULP energy per Si atom -12396.108172 kJ/mol
# Density = 2.010215 g / cm^3
# Si number density = 20.148010 Si / 1000 Ang^3
#
#
#
# Elastic Constant Matrix: (Units=GPa)
#
#
# Indices 1 2 3 4 5 6 
#
# 1 77.4594 50.3517 39.3933 0.0130 11.0893 0.0083
# 2 50.3517 145.8995 52.3697 -0.0048 12.8418 0.0010
# 3 39.3933 52.3697 149.2263 -0.0067 15.4119 0.0136
# 4 0.0130 -0.0048 -0.0067 25.1067 -0.0111 2.5636
# 5 11.0893 12.8418 15.4119 -0.0111 36.5287 -0.0021
# 6 0.0083 0.0010 0.0136 2.5636 -0.0021 30.2041
#
#
#
# Elastic Compliance Matrix: (Units=1/GPa)
#
#
# Indices 1 2 3 4 5 6 
#
# 1 0.017888 -0.004976 -0.002714 -0.000012 -0.002536 -0.000003
# 2 -0.004976 0.009325 -0.001857 0.000003 -0.000984 0.000002
# 3 -0.002714 -0.001857 0.008278 0.000003 -0.002016 -0.000003
# 4 -0.000012 0.000003 0.000003 0.040178 0.000013 -0.003410
# 5 -0.002536 -0.000984 -0.002016 0.000013 0.029342 0.000003
# 6 -0.000003 0.000002 -0.000003 -0.003410 0.000003 0.033397
#
#
# Mechanical properties :
#
#
# Convention : Reuss Voigt Hill
#
# Bulk Modulus (GPa) = 60.99098 72.97940 66.98519
# Shear Modulus (GPa) = 30.68106 33.73260 32.20683
#
# Velocity S-wave (km/s) = 3.90652 4.09619 4.00248
# Velocity P-wave (km/s) = 7.11934 7.65976 7.39449
#
# Compressibility (1/GPa) = 0.01639587
#
# Stress axis : x y z
#
# Youngs Moduli (GPa) = 55.90392 107.24411 120.80805
#
# Poissons Ratio (x) = 0.53364 0.32786
# Poissons Ratio (y) = 0.27818 0.22436
# Poissons Ratio (z) = 0.15172 0.19917
#
# Static dielectric constant tensor:
#      x y z
#    x 3.941440 -0.000120 0.295850 
#    y -0.000120 3.836530 0.000200 
#    z 0.295850 0.000200 3.892860 
# 
# 
# High freq. dielectric constant tensor:
#      x y z
#    x 1.788990 0.000000 0.008990 
#    y 0.000000 1.797640 0.000010 
#    z 0.008990 0.000010 1.792830 
# 
# From -- ./inp_files/318760.got.cif
#   From: 2010.06.25/outbox.cif.g09.slc.cpg/sg15_160_cif.got.tgz:318760.got - 2010.06.28 07:06:18.
