data_PCOD8148096
_publ_section_title
;
Structure prediction by ZEFSAII (Michael W. Deem and Ramdas Pophale) SiO2 
 PCOD8148096
Probable space group: C 2/C
;
_chemical_formula_sum "Si O2"
_cell_formula_units_Z 24
_cell_length_a 7.689222
_cell_length_b 7.078657
_cell_length_c 19.621375
_cell_angle_alpha 90.000000
_cell_angle_beta 114.997952
_cell_angle_gamma 90.000000
_cell_volume 967.933802
_symmetry_space_group_name_H-M "C 2/C"
_symmetry_group_IT_number 15
_symmetry_cell_setting 'monoclinic'
loop_
_space_group_symop_operation_xyz
x,y,z
-x,y,1/2-z
-x,-y,-z
x,-y,1/2+z
1/2+x,1/2+y,z
1/2-x,1/2+y,1/2-z
1/2-x,1/2-y,-z
1/2+x,1/2-y,1/2+z
loop_
_atom_site_type_symbol
_atom_site_label
_atom_site_fract_x
_atom_site_fract_y
_atom_site_fract_z
Si Si1 0.328887 0.255795 0.088398
Si Si2 0.558060 0.394425 0.661793
Si Si3 0.404474 0.984653 0.799515
O O1 0.371594 0.474510 0.116492
O O2 0.180101 0.147171 0.113019
O O3 0.534660 0.145554 0.125803
O O4 0.250000 0.250000 0.000000
O O5 0.494332 0.188605 0.676253
O O6 0.677692 0.490784 0.744726
O O7 0.500000 0.883025 0.750000
#
# Coordination Sequence:
#
# PCOD8148096 Si02
#       3
#     8   8   8
#     4  11  25  42  63  99 135 175 228 289 351 412
#     4  11  23  41  68  92 134 178 229 284 343 421
#     4  10  23  38  64  94 127 175 230 281 340 414
#
# _framework density 24.795083999999999
#
# number of rings (size 3 to 8) (size 9 to 14) (size 15 to 20)
#    0.000    1.333    3.333    1.000    4.667    2.667 
#    0.000    0.000    0.000    0.000    0.000    0.000 
#    0.000    0.000    0.000    0.000    0.000    0.000 
#
# Total GULP energy -148663.166849 kJ/mol
# GULP energy per Si atom -12388.597237 kJ/mol
# Density = 2.473865 g / cm^3
# Si number density = 24.795084 Si / 1000 Ang^3
#
#
#
# Elastic Constant Matrix: (Units=GPa)
#
#
# Indices 1 2 3 4 5 6 
#
# 1 25.8627 1.4540 16.8300 0.0000 7.9742 0.0000
# 2 1.4540 145.3593 63.5905 0.0000 8.4174 0.0000
# 3 16.8300 63.5905 214.4717 0.0000 10.7111 0.0000
# 4 0.0000 0.0000 0.0000 43.5480 0.0000 2.9277
# 5 7.9742 8.4174 10.7111 0.0000 22.3298 0.0000
# 6 0.0000 0.0000 0.0000 2.9277 0.0000 33.4982
#
#
#
# Elastic Compliance Matrix: (Units=1/GPa)
#
#
# Indices 1 2 3 4 5 6 
#
# 1 0.045482 0.001907 -0.003368 0.000000 -0.015345 0.000000
# 2 0.001907 0.008064 -0.002413 0.000000 -0.002564 0.000000
# 3 -0.003368 -0.002413 0.005673 0.000000 -0.000609 0.000000
# 4 0.000000 0.000000 0.000000 0.023099 0.000000 -0.002019
# 5 -0.015345 -0.002564 -0.000609 0.000000 0.051522 0.000000
# 6 0.000000 0.000000 0.000000 -0.002019 0.000000 0.030029
#
#
# Mechanical properties :
#
#
# Convention : Reuss Voigt Hill
#
# Bulk Modulus (GPa) = 19.42826 61.04919 40.23873
# Shear Modulus (GPa) = 26.48689 40.12980 33.30834
#
# Velocity S-wave (km/s) = 3.27193 4.02737 3.66914
# Velocity P-wave (km/s) = 4.70389 6.80450 5.84926
#
# Compressibility (1/GPa) = 0.05147142
#
# Stress axis : x y z
#
# Youngs Moduli (GPa) = 21.98684 124.00221 176.28324
#
# Poissons Ratio (x) = -0.23649 0.59375
# Poissons Ratio (y) = -0.04193 0.42532
# Poissons Ratio (z) = 0.07405 0.29918
#
# Static dielectric constant tensor:
#      x y z
#    x 4.265590 0.000000 0.065450 
#    y 0.000000 4.559210 0.000000 
#    z 0.065450 0.000000 4.447000 
# 
# 
# High freq. dielectric constant tensor:
#      x y z
#    x 1.971450 0.000000 -0.004880 
#    y 0.000000 2.000070 0.000000 
#    z -0.004880 0.000000 1.981040 
# 
# From -- ./inp_files/131182.got.cif
#   From: 2010.06.25/outbox.cif.g09.slc.cpg/sg15_66_cif.got.tgz:131182.got - 2010.06.28 07:06:18.
