data_PCOD8148959
_publ_section_title
;
Structure prediction by ZEFSAII (Michael W. Deem and Ramdas Pophale) SiO2 
 PCOD8148959
Probable space group: C 2/C
;
_chemical_formula_sum "Si O2"
_cell_formula_units_Z 44
_cell_length_a 17.127395
_cell_length_b 18.028869
_cell_length_c 8.860543
_cell_angle_alpha 90.000000
_cell_angle_beta 45.511452
_cell_angle_gamma 90.000000
_cell_volume 1951.854651
_symmetry_space_group_name_H-M "C 2/C"
_symmetry_group_IT_number 15
_symmetry_cell_setting 'monoclinic'
loop_
_space_group_symop_operation_xyz
x,y,z
-x,y,1/2-z
-x,-y,-z
x,-y,1/2+z
1/2+x,1/2+y,z
1/2-x,1/2+y,1/2-z
1/2-x,1/2-y,-z
1/2+x,1/2-y,1/2+z
loop_
_atom_site_type_symbol
_atom_site_label
_atom_site_fract_x
_atom_site_fract_y
_atom_site_fract_z
Si Si1 0.292296 0.942355 0.586915
Si Si2 0.500000 0.747068 0.250000
Si Si3 0.921758 0.980651 0.471905
Si Si4 0.544328 0.137863 0.432982
Si Si5 0.183664 0.869320 0.473799
Si Si6 0.659668 0.890742 0.487935
O O1 0.400861 0.922270 0.531581
O O2 0.280061 0.883931 0.466188
O O3 0.304226 0.026361 0.510922
O O4 0.183587 0.933209 0.837401
O O5 0.486491 0.791332 0.424721
O O6 0.391424 0.698435 0.373300
O O7 0.000000 0.934757 0.250000
O O8 0.885919 0.055710 0.436048
O O9 0.000000 0.000000 0.500000
O O10 0.438919 0.101777 0.498211
O O11 0.628069 0.156400 0.180248
O O12 0.239016 0.851939 0.236158
#
# Coordination Sequence:
#
# PCOD8148959 Si02
#       6
#     8   4   8   8   8   8
#     4  11  22  40  70 101 126 167 215 280 347 382
#     4  12  26  46  64  90 138 184 232 248 318 406
#     4  11  20  37  63  97 132 160 211 278 342 384
#     4  11  25  41  64  97 134 179 211 271 319 406
#     4  11  23  42  67  96 129 178 214 275 321 398
#     4  10  23  43  68  98 132 159 223 280 338 378
#
# _framework density 22.542662
#
# number of rings (size 3 to 8) (size 9 to 14) (size 15 to 20)
#    0.000    1.091    2.727    3.818    2.545    6.545 
#    0.000    1.818    4.000    0.000    0.000    0.000 
#    0.000    0.000    0.000    0.000    0.000    0.000 
#
# Total GULP energy -272716.160887 kJ/mol
# GULP energy per Si atom -12396.189131 kJ/mol
# Density = 2.249135 g / cm^3
# Si number density = 22.542662 Si / 1000 Ang^3
#
#
#
# Elastic Constant Matrix: (Units=GPa)
#
#
# Indices 1 2 3 4 5 6 
#
# 1 96.4834 24.7759 19.2126 0.0000 11.1504 0.0000
# 2 24.7759 79.7671 62.1144 0.0000 5.9507 0.0000
# 3 19.2126 62.1144 183.4700 0.0000 10.3818 0.0000
# 4 0.0000 0.0000 0.0000 37.8833 0.0000 -4.6551
# 5 11.1504 5.9507 10.3818 0.0000 32.8518 0.0000
# 6 0.0000 0.0000 0.0000 -4.6551 0.0000 27.3996
#
#
#
# Elastic Compliance Matrix: (Units=1/GPa)
#
#
# Indices 1 2 3 4 5 6 
#
# 1 0.011615 -0.003474 0.000150 0.000000 -0.003360 0.000000
# 2 -0.003474 0.018117 -0.005754 0.000000 -0.000284 0.000000
# 3 0.000150 -0.005754 0.007460 0.000000 -0.001366 0.000000
# 4 0.000000 0.000000 0.000000 0.026960 0.000000 0.004580
# 5 -0.003360 -0.000284 -0.001366 0.000000 0.032064 0.000000
# 6 0.000000 0.000000 0.000000 0.004580 0.000000 0.037275
#
#
# Mechanical properties :
#
#
# Convention : Reuss Voigt Hill
#
# Bulk Modulus (GPa) = 52.52920 63.54736 58.03828
# Shear Modulus (GPa) = 31.64733 36.53478 34.09106
#
# Velocity S-wave (km/s) = 3.75091 4.03015 3.89304
# Velocity P-wave (km/s) = 6.48936 7.06450 6.78303
#
# Compressibility (1/GPa) = 0.01903703
#
# Stress axis : x y z
#
# Youngs Moduli (GPa) = 86.09553 55.19650 134.04738
#
# Poissons Ratio (x) = 0.19174 -0.02009
# Poissons Ratio (y) = 0.29907 0.77128
# Poissons Ratio (z) = -0.01290 0.31759
#
# Static dielectric constant tensor:
#      x y z
#    x 3.972310 0.000000 -0.528220 
#    y 0.000000 3.545420 0.000000 
#    z -0.528220 0.000000 2.718780 
# 
# 
# High freq. dielectric constant tensor:
#      x y z
#    x 1.903350 0.000000 -0.004250 
#    y 0.000000 1.830510 0.000000 
#    z -0.004250 0.000000 1.920760 
# 
# From -- ./inp_files/48879.got.cif
#   From: 2010.06.25/outbox.cif.g09.slc.cpg/sg15_25_cif.got.tgz:48879.got - 2010.06.28 07:06:18.
