data_PCOD8148498
_publ_section_title
;
Structure prediction by ZEFSAII (Michael W. Deem and Ramdas Pophale) SiO2 
 PCOD8148498
Probable space group: C 2/C
;
_chemical_formula_sum "Si O2"
_cell_formula_units_Z 56
_cell_length_a 8.134508
_cell_length_b 20.909452
_cell_length_c 15.214942
_cell_angle_alpha 90.000000
_cell_angle_beta 92.906229
_cell_angle_gamma 90.000000
_cell_volume 2584.552246
_symmetry_space_group_name_H-M "C 2/C"
_symmetry_group_IT_number 15
_symmetry_cell_setting 'monoclinic'
loop_
_space_group_symop_operation_xyz
x,y,z
-x,y,1/2-z
-x,-y,-z
x,-y,1/2+z
1/2+x,1/2+y,z
1/2-x,1/2+y,1/2-z
1/2-x,1/2-y,-z
1/2+x,1/2-y,1/2+z
loop_
_atom_site_type_symbol
_atom_site_label
_atom_site_fract_x
_atom_site_fract_y
_atom_site_fract_z
Si Si1 0.308986 0.161661 0.743136
Si Si2 0.799153 0.923881 0.103758
Si Si3 0.122634 0.457042 0.557625
Si Si4 0.944122 0.759087 0.510750
Si Si5 0.128333 0.357609 0.931967
Si Si6 0.623844 0.707634 0.184185
Si Si7 0.866689 0.886445 0.432989
O O1 0.500000 0.143965 0.750000
O O2 0.214562 0.119720 0.811655
O O3 0.275329 0.236757 0.762117
O O4 0.241834 0.144472 0.646005
O O5 0.994414 0.936378 0.094453
O O6 0.724096 0.994338 0.122215
O O7 0.712189 0.890809 0.017832
O O8 0.245276 0.419009 0.497780
O O9 0.000000 0.500000 0.500000
O O10 0.015077 0.404900 0.608801
O O11 0.750000 0.750000 0.500000
O O12 0.979419 0.830668 0.478910
O O13 0.045818 0.709592 0.454772
O O14 0.010906 0.753706 0.611449
O O15 0.257392 0.344611 0.856925
O O16 0.500000 0.672629 0.250000
#
# Coordination Sequence:
#
# PCOD8148498 Si02
#       7
#     8   8   8   8   8   8   8
#     4  11  22  40  66 101 132 168 219 280 329 390
#     4  11  22  41  69  94 132 171 226 274 329 389
#     4  10  23  41  68  90 125 179 219 271 333 398
#     4  12  21  38  68  96 135 173 217 274 342 400
#     4  11  21  41  64  97 134 175 215 269 339 407
#     4  11  23  39  65  98 141 174 213 274 342 396
#     4  12  23  40  70 100 129 170 233 276 326 401
#
# _framework density 21.667195
#
# number of rings (size 3 to 8) (size 9 to 14) (size 15 to 20)
#    0.000    0.857    4.286    5.571    0.000    0.000 
#    0.000    2.143   12.571    0.000    0.000    0.000 
#    0.000    0.000    0.000    0.000    0.000    0.000 
#
# Total GULP energy -347120.046640 kJ/mol
# GULP energy per Si atom -12397.144523 kJ/mol
# Density = 2.161788 g / cm^3
# Si number density = 21.667195 Si / 1000 Ang^3
#
#
#
# Elastic Constant Matrix: (Units=GPa)
#
#
# Indices 1 2 3 4 5 6 
#
# 1 117.2221 42.8813 14.7452 0.0000 -26.3064 0.0000
# 2 42.8813 104.7348 21.8224 0.0000 -19.1207 0.0000
# 3 14.7452 21.8224 49.0867 0.0000 -25.6326 0.0000
# 4 0.0000 0.0000 0.0000 12.9736 0.0000 2.8382
# 5 -26.3064 -19.1207 -25.6326 0.0000 42.3786 0.0000
# 6 0.0000 0.0000 0.0000 2.8382 0.0000 41.7400
#
#
#
# Elastic Compliance Matrix: (Units=1/GPa)
#
#
# Indices 1 2 3 4 5 6 
#
# 1 0.011078 -0.003738 0.001526 0.000000 0.006113 0.000000
# 2 -0.003738 0.012017 -0.003800 0.000000 0.000803 0.000000
# 3 0.001526 -0.003800 0.030991 0.000000 0.017978 0.000000
# 4 0.000000 0.000000 0.000000 0.078244 0.000000 -0.005320
# 5 0.006113 0.000803 0.017978 0.000000 0.038628 0.000000
# 6 0.000000 0.000000 0.000000 -0.005320 0.000000 0.024320
#
#
# Mechanical properties :
#
#
# Convention : Reuss Voigt Hill
#
# Bulk Modulus (GPa) = 23.77407 47.77125 35.77266
# Shear Modulus (GPa) = 22.59173 32.19142 27.39157
#
# Velocity S-wave (km/s) = 3.23254 3.85869 3.55941
# Velocity P-wave (km/s) = 4.99286 6.47674 5.78260
#
# Compressibility (1/GPa) = 0.04206263
#
# Stress axis : x y z
#
# Youngs Moduli (GPa) = 90.26879 83.21826 32.26776
#
# Poissons Ratio (x) = 0.31103 -0.04925
# Poissons Ratio (y) = 0.33739 0.12262
# Poissons Ratio (z) = -0.13777 0.31623
#
# Static dielectric constant tensor:
#      x y z
#    x 4.220760 0.000000 0.006280 
#    y 0.000000 4.435990 0.000000 
#    z 0.006280 0.000000 3.619500 
# 
# 
# High freq. dielectric constant tensor:
#      x y z
#    x 1.873550 0.000000 -0.008760 
#    y 0.000000 1.847230 0.000000 
#    z -0.008760 0.000000 1.828740 
# 
# From -- ./inp_files/136468.got.cif
#   From: 2010.06.25/outbox.cif.g09.slc.cpg/sg15_69_cif.got.tgz:136468.got - 2010.06.28 07:06:18.
