data_PCOD8148071
_publ_section_title
;
Structure prediction by ZEFSAII (Michael W. Deem and Ramdas Pophale) SiO2 
 PCOD8148071
Probable space group: C 2/C
;
_chemical_formula_sum "Si O2"
_cell_formula_units_Z 48
_cell_length_a 26.400332
_cell_length_b 13.763209
_cell_length_c 11.700224
_cell_angle_alpha 90.000000
_cell_angle_beta 34.174868
_cell_angle_gamma 90.000000
_cell_volume 2388.050857
_symmetry_space_group_name_H-M "C 2/C"
_symmetry_group_IT_number 15
_symmetry_cell_setting 'monoclinic'
loop_
_space_group_symop_operation_xyz
x,y,z
-x,y,1/2-z
-x,-y,-z
x,-y,1/2+z
1/2+x,1/2+y,z
1/2-x,1/2+y,1/2-z
1/2-x,1/2-y,-z
1/2+x,1/2-y,1/2+z
loop_
_atom_site_type_symbol
_atom_site_label
_atom_site_fract_x
_atom_site_fract_y
_atom_site_fract_z
Si Si1 0.069036 0.857132 0.807730
Si Si2 0.717941 0.751900 0.929091
Si Si3 0.886254 0.788791 0.244141
Si Si4 0.725896 0.841476 0.396644
Si Si5 0.582197 0.543071 0.658997
Si Si6 0.710941 0.549839 0.221199
O O1 0.116422 0.788587 0.624915
O O2 0.139733 0.904191 0.765264
O O3 0.031241 0.950693 0.811136
O O4 0.990702 0.791286 0.009974
O O5 0.778508 0.683320 0.731269
O O6 0.719962 0.862608 0.878633
O O7 0.750000 0.750000 0.000000
O O8 0.816224 0.784856 0.270112
O O9 0.863784 0.700254 0.372876
O O10 0.868761 0.890486 0.340183
O O11 0.731333 0.955179 0.422020
O O12 0.500000 0.600762 0.750000
O O13 0.659738 0.510732 0.428162
#
# Coordination Sequence:
#
# PCOD8148071 Si02
#       6
#     8   8   8   8   8   8
#     4  11  22  38  58  92 124 156 200 256 303 359
#     4  10  23  38  58  85 119 162 201 245 302 362
#     4  11  23  36  57  92 121 151 195 247 314 353
#     4  11  22  39  59  86 122 158 195 249 303 369
#     4  12  20  32  61  90 122 147 195 256 305 359
#     4  11  21  38  59  87 120 159 204 245 302 360
#
# _framework density 20.100075
#
# number of rings (size 3 to 8) (size 9 to 14) (size 15 to 20)
#    0.000    1.000    6.667    1.500    0.000    0.000 
#    0.000    0.833    0.000    0.000   13.000    0.000 
#    0.000    0.000    0.000    0.000    0.000    0.000 
#
# Total GULP energy -297323.036986 kJ/mol
# GULP energy per Si atom -12388.459874 kJ/mol
# Density = 2.005433 g / cm^3
# Si number density = 20.100075 Si / 1000 Ang^3
#
#
#
# Elastic Constant Matrix: (Units=GPa)
#
#
# Indices 1 2 3 4 5 6 
#
# 1 54.3589 15.6169 15.4211 0.0000 8.4461 0.0000
# 2 15.6169 116.2493 73.7062 0.0000 -3.0201 0.0000
# 3 15.4211 73.7062 124.4936 0.0000 12.3549 0.0000
# 4 0.0000 0.0000 0.0000 32.0149 0.0000 3.2045
# 5 8.4461 -3.0201 12.3549 0.0000 23.1068 0.0000
# 6 0.0000 0.0000 0.0000 3.2045 0.0000 22.2315
#
#
#
# Elastic Compliance Matrix: (Units=1/GPa)
#
#
# Indices 1 2 3 4 5 6 
#
# 1 0.020467 -0.002947 -0.000010 0.000000 -0.007861 0.000000
# 2 -0.002947 0.015189 -0.009432 0.000000 0.008106 0.000000
# 3 -0.000010 -0.009432 0.014510 0.000000 -0.008987 0.000000
# 4 0.000000 0.000000 0.000000 0.031693 0.000000 -0.004568
# 5 -0.007861 0.008106 -0.008987 0.000000 0.052015 0.000000
# 6 0.000000 0.000000 0.000000 -0.004568 0.000000 0.045640
#
#
# Mechanical properties :
#
#
# Convention : Reuss Voigt Hill
#
# Bulk Modulus (GPa) = 39.38994 56.06559 47.72776
# Shear Modulus (GPa) = 23.50121 28.16116 25.83119
#
# Velocity S-wave (km/s) = 3.42308 3.74712 3.58876
# Velocity P-wave (km/s) = 5.93825 6.83191 6.40069
#
# Compressibility (1/GPa) = 0.02538719
#
# Stress axis : x y z
#
# Youngs Moduli (GPa) = 48.85843 65.83769 68.91882
#
# Poissons Ratio (x) = 0.19405 0.00070
# Poissons Ratio (y) = 0.14400 0.65003
# Poissons Ratio (z) = 0.00050 0.62097
#
# Static dielectric constant tensor:
#      x y z
#    x 3.635760 0.000000 0.204540 
#    y 0.000000 3.856960 0.000000 
#    z 0.204540 0.000000 3.800420 
# 
# 
# High freq. dielectric constant tensor:
#      x y z
#    x 1.776740 0.000000 0.028580 
#    y 0.000000 1.771890 0.000000 
#    z 0.028580 0.000000 1.779020 
# 
# From -- ./inp_files/96444.got.cif
#   From: 2010.06.25/outbox.cif.g09.slc.cpg/sg15_49_cif.got.tgz:96444.got - 2010.06.28 07:06:18.
