data_PCOD8148034
_publ_section_title
;
Structure prediction by ZEFSAII (Michael W. Deem and Ramdas Pophale) SiO2 
 PCOD8148034
Probable space group: C 2/C
;
_chemical_formula_sum "Si O2"
_cell_formula_units_Z 60
_cell_length_a 20.039384
_cell_length_b 18.002599
_cell_length_c 8.770659
_cell_angle_alpha 90.000000
_cell_angle_beta 76.788671
_cell_angle_gamma 90.000000
_cell_volume 3080.369436
_symmetry_space_group_name_H-M "C 2/C"
_symmetry_group_IT_number 15
_symmetry_cell_setting 'monoclinic'
loop_
_space_group_symop_operation_xyz
x,y,z
-x,y,1/2-z
-x,-y,-z
x,-y,1/2+z
1/2+x,1/2+y,z
1/2-x,1/2+y,1/2-z
1/2-x,1/2-y,-z
1/2+x,1/2-y,1/2+z
loop_
_atom_site_type_symbol
_atom_site_label
_atom_site_fract_x
_atom_site_fract_y
_atom_site_fract_z
Si Si1 0.000000 0.169057 0.750000
Si Si2 0.941885 0.064929 0.029538
Si Si3 0.730437 0.397330 0.261787
Si Si4 0.793709 0.329724 0.811382
Si Si5 0.672165 0.217442 0.891664
Si Si6 0.880377 0.219282 0.608935
Si Si7 0.285469 0.465338 0.555939
Si Si8 0.428491 0.302089 0.750907
O O1 0.952893 0.219312 0.661444
O O2 0.047399 0.117017 0.621723
O O3 0.865169 0.033896 0.062375
O O4 0.943920 0.114320 0.182856
O O5 0.000000 0.000000 0.000000
O O6 0.798406 0.347189 0.231571
O O7 0.664300 0.345069 0.291338
O O8 0.736936 0.449854 0.404894
O O9 0.725619 0.447402 0.113683
O O10 0.723747 0.285786 0.874287
O O11 0.839947 0.298730 0.646914
O O12 0.765205 0.413733 0.812752
O O13 0.841748 0.316603 0.934352
O O14 0.602437 0.249955 0.862912
O O15 0.884306 0.198442 0.428734
O O16 0.500000 0.262674 0.750000
#
# Coordination Sequence:
#
# PCOD8148034 Si02
#       8
#     4   8   8   8   8   8   8   8
#     4  12  22  40  54  78 122 164 200 230 290 376
#     4  12  26  37  56  82 128 169 196 235 286 366
#     4  10  23  36  59  83 115 155 203 245 301 350
#     4   9  19  38  64  79 111 159 205 250 299 348
#     4   9  19  40  58  83 113 152 202 253 290 355
#     4  11  23  38  58  86 115 164 203 248 302 351
#     4  11  22  38  57  90 117 160 200 249 296 356
#     4  12  25  38  56  89 119 154 203 250 298 354
#
# _framework density 19.478183000000001
#
# number of rings (size 3 to 8) (size 9 to 14) (size 15 to 20)
#    0.000    1.333    4.000    2.400    2.800    3.200 
#    0.000    0.000    0.000    0.000    1.733    2.800 
#    0.000    0.000    0.000    0.000    0.000    0.000 
#
# Total GULP energy -371791.341638 kJ/mol
# GULP energy per Si atom -12393.044721 kJ/mol
# Density = 1.943385 g / cm^3
# Si number density = 19.478183 Si / 1000 Ang^3
#
#
#
# Elastic Constant Matrix: (Units=GPa)
#
#
# Indices 1 2 3 4 5 6 
#
# 1 89.8658 47.0851 20.0597 0.0000 8.6380 0.0000
# 2 47.0851 61.2481 12.5187 0.0000 -3.3099 0.0000
# 3 20.0597 12.5187 77.4959 0.0000 -8.0481 0.0000
# 4 0.0000 0.0000 0.0000 36.4143 0.0000 -5.7020
# 5 8.6380 -3.3099 -8.0481 0.0000 27.7312 0.0000
# 6 0.0000 0.0000 0.0000 -5.7020 0.0000 29.2832
#
#
#
# Elastic Compliance Matrix: (Units=1/GPa)
#
#
# Indices 1 2 3 4 5 6 
#
# 1 0.021432 -0.016197 -0.003944 0.000000 -0.009754 0.000000
# 2 -0.016197 0.029168 0.000378 0.000000 0.008636 0.000000
# 3 -0.003944 0.000378 0.014431 0.000000 0.005462 0.000000
# 4 0.000000 0.000000 0.000000 0.028325 0.000000 0.005515
# 5 -0.009754 0.008636 0.005462 0.000000 0.041715 0.000000
# 6 0.000000 0.000000 0.000000 0.005515 0.000000 0.035223
#
#
# Mechanical properties :
#
#
# Convention : Reuss Voigt Hill
#
# Bulk Modulus (GPa) = 39.20918 43.10409 41.15663
# Shear Modulus (GPa) = 22.90180 28.61548 25.75864
#
# Velocity S-wave (km/s) = 3.43267 3.83705 3.64048
# Velocity P-wave (km/s) = 5.99036 6.46591 6.23267
#
# Compressibility (1/GPa) = 0.02550423
#
# Stress axis : x y z
#
# Youngs Moduli (GPa) = 46.65887 34.28379 69.29502
#
# Poissons Ratio (x) = 0.55530 0.27331
# Poissons Ratio (y) = 0.75574 -0.02617
# Poissons Ratio (z) = 0.18403 -0.01295
#
# Static dielectric constant tensor:
#      x y z
#    x 3.527210 0.000000 -0.056910 
#    y 0.000000 3.531630 0.000000 
#    z -0.056910 0.000000 3.708320 
# 
# 
# High freq. dielectric constant tensor:
#      x y z
#    x 1.744700 0.000000 0.001790 
#    y 0.000000 1.735780 0.000000 
#    z 0.001790 0.000000 1.766110 
# 
# From -- ./inp_files/56598.got.cif
#   From: 2010.06.25/outbox.cif.g09.slc.cpg/sg15_29_cif.got.tgz:56598.got - 2010.06.28 07:06:18.
