data_PCOD8148907
_publ_section_title
;
Structure prediction by ZEFSAII (Michael W. Deem and Ramdas Pophale) SiO2 
 PCOD8148907
Probable space group: C 2/C
;
_chemical_formula_sum "Si O2"
_cell_formula_units_Z 40
_cell_length_a 18.088078
_cell_length_b 17.622058
_cell_length_c 5.376279
_cell_angle_alpha 90.000000
_cell_angle_beta 95.215836
_cell_angle_gamma 90.000000
_cell_volume 1706.588578
_symmetry_space_group_name_H-M "C 2/C"
_symmetry_group_IT_number 15
_symmetry_cell_setting 'monoclinic'
loop_
_space_group_symop_operation_xyz
x,y,z
-x,y,1/2-z
-x,-y,-z
x,-y,1/2+z
1/2+x,1/2+y,z
1/2-x,1/2+y,1/2-z
1/2-x,1/2-y,-z
1/2+x,1/2-y,1/2+z
loop_
_atom_site_type_symbol
_atom_site_label
_atom_site_fract_x
_atom_site_fract_y
_atom_site_fract_z
Si Si1 0.916164 0.967501 0.963120
Si Si2 0.778479 0.305297 0.211811
Si Si3 0.500000 0.212369 0.250000
Si Si4 0.130691 0.197940 0.954014
Si Si5 0.653870 0.958246 0.338716
Si Si6 0.000000 0.614486 0.750000
O O1 0.876737 0.004011 0.706871
O O2 0.908871 0.876258 0.937751
O O3 0.000000 0.000000 0.000000
O O4 0.851882 0.266369 0.350007
O O5 0.711121 0.325269 0.375598
O O6 0.802746 0.381734 0.087008
O O7 0.750000 0.250000 0.000000
O O8 0.427409 0.266305 0.260322
O O9 0.508551 0.164188 0.503193
O O10 0.566925 0.943007 0.312048
O O11 0.676916 0.013239 0.571167
#
# Coordination Sequence:
#
# PCOD8148907 Si02
#       6
#     8   8   4   8   8   4
#     4  10  23  43  67 103 148 185 237 299 364 426
#     4  11  27  50  73 107 150 198 249 299 369 450
#     4  12  24  43  78 113 134 196 242 304 366 427
#     4  11  26  45  76 105 150 193 246 307 364 445
#     4  12  27  48  75 107 147 193 243 306 373 435
#     4  12  24  45  72 107 150 178 246 306 366 435
#
# _framework density 23.438573999999999
#
# number of rings (size 3 to 8) (size 9 to 14) (size 15 to 20)
#    0.000    0.800    2.000    4.200    8.400    3.200 
#    0.000    0.000    0.000    0.000    0.000    0.000 
#    0.000    0.000    0.000    0.000    0.000    0.000 
#
# Total GULP energy -247895.477760 kJ/mol
# GULP energy per Si atom -12394.773888 kJ/mol
# Density = 2.338523 g / cm^3
# Si number density = 23.438574 Si / 1000 Ang^3
#
#
#
# Elastic Constant Matrix: (Units=GPa)
#
#
# Indices 1 2 3 4 5 6 
#
# 1 69.9059 45.4690 23.1725 0.0000 18.0249 0.0000
# 2 45.4690 136.9248 43.6560 0.0000 4.1764 0.0000
# 3 23.1725 43.6560 153.5473 0.0000 -7.1127 0.0000
# 4 0.0000 0.0000 0.0000 41.7447 0.0000 -6.6189
# 5 18.0249 4.1764 -7.1127 0.0000 26.6247 0.0000
# 6 0.0000 0.0000 0.0000 -6.6189 0.0000 31.3109
#
#
#
# Elastic Compliance Matrix: (Units=1/GPa)
#
#
# Indices 1 2 3 4 5 6 
#
# 1 0.023292 -0.006507 -0.002378 0.000000 -0.015383 0.000000
# 2 -0.006507 0.009945 -0.001735 0.000000 0.002382 0.000000
# 3 -0.002378 -0.001735 0.007545 0.000000 0.003897 0.000000
# 4 0.000000 0.000000 0.000000 0.024786 0.000000 0.005240
# 5 -0.015383 0.002382 0.003897 0.000000 0.048641 0.000000
# 6 0.000000 0.000000 0.000000 0.005240 0.000000 0.033045
#
#
# Mechanical properties :
#
#
# Convention : Reuss Voigt Hill
#
# Bulk Modulus (GPa) = 51.17140 64.99702 58.08421
# Shear Modulus (GPa) = 28.57000 36.47474 32.52237
#
# Velocity S-wave (km/s) = 3.49511 3.94913 3.72903
# Velocity P-wave (km/s) = 6.17796 6.97031 6.58606
#
# Compressibility (1/GPa) = 0.01954216
#
# Stress axis : x y z
#
# Youngs Moduli (GPa) = 42.93280 100.55538 132.53295
#
# Poissons Ratio (x) = 0.65436 0.31510
# Poissons Ratio (y) = 0.27938 0.22995
# Poissons Ratio (z) = 0.10207 0.17447
#
# Static dielectric constant tensor:
#      x y z
#    x 3.758540 0.000000 -0.074620 
#    y 0.000000 4.109160 0.000000 
#    z -0.074620 0.000000 4.520980 
# 
# 
# High freq. dielectric constant tensor:
#      x y z
#    x 1.927580 0.000000 0.007790 
#    y 0.000000 1.938750 0.000000 
#    z 0.007790 0.000000 1.930760 
# 
# From -- ./inp_files/9928.got.cif
#   From: 2010.06.25/outbox.cif.g09.slc.cpg/sg15_5_cif.got.tgz:9928.got - 2010.06.28 07:06:18.
