data_PCOD8148997
_publ_section_title
;
Structure prediction by ZEFSAII (Michael W. Deem and Ramdas Pophale) SiO2 
 PCOD8148997
Probable space group: C 2/C
;
_chemical_formula_sum "Si O2"
_cell_formula_units_Z 44
_cell_length_a 13.694322
_cell_length_b 21.233752
_cell_length_c 8.036166
_cell_angle_alpha 90.000000
_cell_angle_beta 57.374077
_cell_angle_gamma 90.000000
_cell_volume 1968.048607
_symmetry_space_group_name_H-M "C 2/C"
_symmetry_group_IT_number 15
_symmetry_cell_setting 'monoclinic'
loop_
_space_group_symop_operation_xyz
x,y,z
-x,y,1/2-z
-x,-y,-z
x,-y,1/2+z
1/2+x,1/2+y,z
1/2-x,1/2+y,1/2-z
1/2-x,1/2-y,-z
1/2+x,1/2-y,1/2+z
loop_
_atom_site_type_symbol
_atom_site_label
_atom_site_fract_x
_atom_site_fract_y
_atom_site_fract_z
Si Si1 0.926482 0.947043 0.978838
Si Si2 0.825786 0.467951 0.209812
Si Si3 0.628578 0.091027 0.177713
Si Si4 0.000000 0.383100 0.250000
Si Si5 0.886919 0.185894 0.452919
Si Si6 0.812853 0.684064 0.121930
O O1 0.913156 0.873720 0.053099
O O2 0.000000 0.934441 0.750000
O O3 0.797708 0.974175 0.083369
O O4 0.000000 0.000000 0.000000
O O5 0.879325 0.538680 0.165748
O O6 0.906563 0.423648 0.240524
O O7 0.809433 0.441547 0.037921
O O8 0.500000 0.113515 0.250000
O O9 0.701165 0.150992 0.182540
O O10 0.935543 0.339828 0.441515
O O11 0.827709 0.240194 0.620492
O O12 0.793925 0.164716 0.397490
O O13 0.000000 0.210564 0.250000
#
# Coordination Sequence:
#
# PCOD8148997 Si02
#       6
#     8   8   8   4   8   8
#     4  11  25  45  68  96 132 179 228 281 337 412
#     4  12  24  41  67 104 139 176 228 285 344 413
#     4  12  24  39  64 103 142 175 217 282 348 406
#     4  12  20  40  70  98 138 176 224 288 352 398
#     4  10  23  43  70  97 128 182 238 273 340 415
#     4  11  23  42  69  97 133 180 232 285 337 420
#
# _framework density 22.357171000000001
#
# number of rings (size 3 to 8) (size 9 to 14) (size 15 to 20)
#    0.000    0.727    5.455    2.727    5.091    0.000 
#    0.000    1.818    0.000    0.000    0.000    0.000 
#    0.000    0.000    0.000    0.000    0.000    0.000 
#
# Total GULP energy -272561.814285 kJ/mol
# GULP energy per Si atom -12389.173377 kJ/mol
# Density = 2.230628 g / cm^3
# Si number density = 22.357171 Si / 1000 Ang^3
#
#
#
# Elastic Constant Matrix: (Units=GPa)
#
#
# Indices 1 2 3 4 5 6 
#
# 1 133.7566 67.0430 44.1202 0.0000 -6.7576 0.0000
# 2 67.0430 161.1210 24.7817 0.0000 26.5648 0.0000
# 3 44.1202 24.7817 58.6774 0.0000 5.5977 0.0000
# 4 0.0000 0.0000 0.0000 71.7561 0.0000 -5.4277
# 5 -6.7576 26.5648 5.5977 0.0000 37.6785 0.0000
# 6 0.0000 0.0000 0.0000 -5.4277 0.0000 45.2491
#
#
#
# Elastic Compliance Matrix: (Units=1/GPa)
#
#
# Indices 1 2 3 4 5 6 
#
# 1 0.013429 -0.005531 -0.008484 0.000000 0.007568 0.000000
# 2 -0.005531 0.009692 0.000824 0.000000 -0.007947 0.000000
# 3 -0.008484 0.000824 0.023609 0.000000 -0.005610 0.000000
# 4 0.000000 0.000000 0.000000 0.014064 0.000000 0.001687
# 5 0.007568 -0.007947 -0.005610 0.000000 0.034334 0.000000
# 6 0.000000 0.000000 0.000000 0.001687 0.000000 0.022302
#
#
# Mechanical properties :
#
#
# Convention : Reuss Voigt Hill
#
# Bulk Modulus (GPa) = 49.14552 69.49387 59.31970
# Shear Modulus (GPa) = 33.20182 45.44407 39.32295
#
# Velocity S-wave (km/s) = 3.85783 4.51337 4.19842
# Velocity P-wave (km/s) = 6.47098 7.63621 7.07761
#
# Compressibility (1/GPa) = 0.02034773
#
# Stress axis : x y z
#
# Youngs Moduli (GPa) = 74.46379 103.18238 42.35750
#
# Poissons Ratio (x) = 0.57070 0.35935
# Poissons Ratio (y) = 0.41186 -0.03490
# Poissons Ratio (z) = 0.63173 -0.08501
#
# Static dielectric constant tensor:
#      x y z
#    x 4.851880 0.000000 -0.089740 
#    y 0.000000 3.834810 0.000000 
#    z -0.089740 0.000000 4.010410 
# 
# 
# High freq. dielectric constant tensor:
#      x y z
#    x 1.879130 0.000000 -0.023640 
#    y 0.000000 1.895020 0.000000 
#    z -0.023640 0.000000 1.857750 
# 
# From -- ./inp_files/40625.got.cif
#   From: 2010.06.25/outbox.cif.g09.slc.cpg/sg15_21_cif.got.tgz:40625.got - 2010.06.28 07:06:18.
