data_PCOD8148359
_publ_section_title
;
Structure prediction by ZEFSAII (Michael W. Deem and Ramdas Pophale) SiO2 
 PCOD8148359
Probable space group: C 2/C
;
_chemical_formula_sum "Si O2"
_cell_formula_units_Z 40
_cell_length_a 16.986978
_cell_length_b 10.393144
_cell_length_c 10.441942
_cell_angle_alpha 90.000000
_cell_angle_beta 94.230100
_cell_angle_gamma 90.000000
_cell_volume 1838.483151
_symmetry_space_group_name_H-M "C 2/C"
_symmetry_group_IT_number 15
_symmetry_cell_setting 'monoclinic'
loop_
_space_group_symop_operation_xyz
x,y,z
-x,y,1/2-z
-x,-y,-z
x,-y,1/2+z
1/2+x,1/2+y,z
1/2-x,1/2+y,1/2-z
1/2-x,1/2-y,-z
1/2+x,1/2-y,1/2+z
loop_
_atom_site_type_symbol
_atom_site_label
_atom_site_fract_x
_atom_site_fract_y
_atom_site_fract_z
Si Si1 0.193721 0.808894 0.731730
Si Si2 0.573983 0.671062 0.986634
Si Si3 0.822968 0.523198 0.772065
Si Si4 0.915317 0.460428 0.540652
Si Si5 0.937230 0.088501 0.131051
O O1 0.135917 0.841953 0.608576
O O2 0.222758 0.660648 0.734451
O O3 0.267242 0.904281 0.731304
O O4 0.142224 0.830651 0.853701
O O5 0.481856 0.649688 0.014601
O O6 0.583805 0.809542 0.923915
O O7 0.592623 0.558206 0.888895
O O8 0.891085 0.530669 0.670251
O O9 0.856285 0.504359 0.918403
O O10 0.000000 0.500000 0.500000
O O11 0.000000 0.097133 0.250000
#
# Coordination Sequence:
#
# PCOD8148359 Si02
#       5
#     8   8   8   8   8
#     4  10  23  41  60  91 130 163 206 256 322 374
#     4   9  20  38  64  87 126 165 204 260 315 365
#     4  11  26  42  67  93 129 171 203 265 319 371
#     4  11  24  44  65  92 126 168 217 260 313 372
#     4   9  18  36  61  92 120 163 207 257 308 375
#
# _framework density 21.757065000000001
#
# number of rings (size 3 to 8) (size 9 to 14) (size 15 to 20)
#    0.000    2.000    0.000    1.800    5.600    7.200 
#    7.200    0.000    0.000    0.000    0.000    0.000 
#    0.000    0.000    0.000    0.000    0.000    0.000 
#
# Total GULP energy -247913.445620 kJ/mol
# GULP energy per Si atom -12395.672281 kJ/mol
# Density = 2.170754 g / cm^3
# Si number density = 21.757065 Si / 1000 Ang^3
#
#
#
# Elastic Constant Matrix: (Units=GPa)
#
#
# Indices 1 2 3 4 5 6 
#
# 1 70.4922 37.5556 -0.2200 0.0000 -4.8391 0.0000
# 2 37.5556 104.8800 3.5838 0.0000 4.7315 0.0000
# 3 -0.2200 3.5838 43.6468 0.0000 -14.8412 0.0000
# 4 0.0000 0.0000 0.0000 34.6889 0.0000 -0.3326
# 5 -4.8391 4.7315 -14.8412 0.0000 15.0430 0.0000
# 6 0.0000 0.0000 0.0000 -0.3326 0.0000 36.7911
#
#
#
# Elastic Compliance Matrix: (Units=1/GPa)
#
#
# Indices 1 2 3 4 5 6 
#
# 1 0.019289 -0.007731 0.005521 0.000000 0.014083 0.000000
# 2 -0.007731 0.012995 -0.005028 0.000000 -0.011535 0.000000
# 3 0.005521 -0.005028 0.036858 0.000000 0.039722 0.000000
# 4 0.000000 0.000000 0.000000 0.028830 0.000000 0.000261
# 5 0.014083 -0.011535 0.039722 0.000000 0.113824 0.000000
# 6 0.000000 0.000000 0.000000 0.000261 0.000000 0.027183
#
#
# Mechanical properties :
#
#
# Convention : Reuss Voigt Hill
#
# Bulk Modulus (GPa) = 18.29314 33.42864 25.86089
# Shear Modulus (GPa) = 18.40416 29.17790 23.79103
#
# Velocity S-wave (km/s) = 2.91158 3.66604 3.31038
# Velocity P-wave (km/s) = 4.44176 5.77215 5.15009
#
# Compressibility (1/GPa) = 0.05466531
#
# Stress axis : x y z
#
# Youngs Moduli (GPa) = 51.84379 76.95137 27.13084
#
# Poissons Ratio (x) = 0.59490 -0.14978
# Poissons Ratio (y) = 0.40080 0.13642
# Poissons Ratio (z) = -0.28622 0.38694
#
# Static dielectric constant tensor:
#      x y z
#    x 3.906330 0.000000 -0.222810 
#    y 0.000000 4.749240 0.000000 
#    z -0.222810 0.000000 3.941820 
# 
# 
# High freq. dielectric constant tensor:
#      x y z
#    x 1.848140 0.000000 -0.011780 
#    y 0.000000 1.868130 0.000000 
#    z -0.011780 0.000000 1.843730 
# 
# From -- ./inp_files/94681.got.cif
#   From: 2010.06.25/outbox.cif.g09.slc.cpg/sg15_48_cif.got.tgz:94681.got - 2010.06.28 07:06:18.
