data_PCOD8148627
_publ_section_title
;
Structure prediction by ZEFSAII (Michael W. Deem and Ramdas Pophale) SiO2 
 PCOD8148627
Probable space group: C 2/C
;
_chemical_formula_sum "Si O2"
_cell_formula_units_Z 44
_cell_length_a 23.943918
_cell_length_b 19.528649
_cell_length_c 5.009146
_cell_angle_alpha 90.000000
_cell_angle_beta 62.665046
_cell_angle_gamma 90.000000
_cell_volume 2080.697694
_symmetry_space_group_name_H-M "C 2/C"
_symmetry_group_IT_number 15
_symmetry_cell_setting 'monoclinic'
loop_
_space_group_symop_operation_xyz
x,y,z
-x,y,1/2-z
-x,-y,-z
x,-y,1/2+z
1/2+x,1/2+y,z
1/2-x,1/2+y,1/2-z
1/2-x,1/2-y,-z
1/2+x,1/2-y,1/2+z
loop_
_atom_site_type_symbol
_atom_site_label
_atom_site_fract_x
_atom_site_fract_y
_atom_site_fract_z
Si Si1 0.000000 0.451086 0.250000
Si Si2 0.500000 0.628582 0.750000
Si Si3 0.727793 0.663147 0.277135
Si Si4 0.874975 0.047862 0.933698
Si Si5 0.192866 0.315035 0.381165
Si Si6 0.942322 0.337570 0.667004
Si Si7 0.000000 0.218580 0.250000
O O1 0.942791 0.398904 0.445580
O O2 0.000000 0.500000 0.500000
O O3 0.556638 0.581793 0.725255
O O4 0.525039 0.673031 0.442656
O O5 0.677745 0.605572 0.453124
O O6 0.779584 0.669768 0.390821
O O7 0.691282 0.734457 0.317724
O O8 0.765487 0.644139 0.925610
O O9 0.866059 0.997670 0.196312
O O10 0.121569 0.341753 0.526155
O O11 0.000000 0.344134 0.750000
O O12 0.944832 0.266538 0.492541
#
# Coordination Sequence:
#
# PCOD8148627 Si02
#       7
#     4   4   8   8   8   8   4
#     4  11  24  43  62  89 132 173 206 260 336 397
#     4  12  24  42  66 100 132 180 216 270 330 384
#     4  10  23  42  65  93 130 173 213 267 318 395
#     4  12  25  44  67  94 137 177 225 266 316 388
#     4  10  23  42  68  95 126 167 215 268 342 375
#     4  11  24  41  69 102 134 162 218 286 330 392
#     4  11  24  37  64 103 138 161 214 276 336 381
#
# _framework density 21.146754999999999
#
# number of rings (size 3 to 8) (size 9 to 14) (size 15 to 20)
#    0.000    1.091    1.818    3.818    5.091    2.909 
#    0.000    5.455    0.000    0.000    0.000    0.000 
#    0.000    0.000    0.000    0.000    0.000    0.000 
#
# Total GULP energy -272732.150137 kJ/mol
# GULP energy per Si atom -12396.915915 kJ/mol
# Density = 2.109862 g / cm^3
# Si number density = 21.146755 Si / 1000 Ang^3
#
#
#
# Elastic Constant Matrix: (Units=GPa)
#
#
# Indices 1 2 3 4 5 6 
#
# 1 79.5501 35.8743 42.7407 0.0000 -10.8989 0.0000
# 2 35.8743 108.3722 48.2527 0.0000 -7.1905 0.0000
# 3 42.7407 48.2527 134.1313 0.0000 -1.6349 0.0000
# 4 0.0000 0.0000 0.0000 34.9264 0.0000 -1.2093
# 5 -10.8989 -7.1905 -1.6349 0.0000 50.3728 0.0000
# 6 0.0000 0.0000 0.0000 -1.2093 0.0000 29.9463
#
#
#
# Elastic Compliance Matrix: (Units=1/GPa)
#
#
# Indices 1 2 3 4 5 6 
#
# 1 0.016742 -0.003554 -0.004020 0.000000 0.002985 0.000000
# 2 -0.003554 0.011847 -0.003119 0.000000 0.000821 0.000000
# 3 -0.004020 -0.003119 0.009846 0.000000 -0.000995 0.000000
# 4 0.000000 0.000000 0.000000 0.028672 0.000000 0.001158
# 5 0.002985 0.000821 -0.000995 0.000000 0.020583 0.000000
# 6 0.000000 0.000000 0.000000 0.001158 0.000000 0.033440
#
#
# Mechanical properties :
#
#
# Convention : Reuss Voigt Hill
#
# Bulk Modulus (GPa) = 58.65506 63.97655 61.31581
# Shear Modulus (GPa) = 33.73809 36.06150 34.89979
#
# Velocity S-wave (km/s) = 3.99861 4.13400 4.06687
# Velocity P-wave (km/s) = 7.00827 7.28738 7.14919
#
# Compressibility (1/GPa) = 0.01704883
#
# Stress axis : x y z
#
# Youngs Moduli (GPa) = 59.72902 84.40651 101.56017
#
# Poissons Ratio (x) = 0.30001 0.40826
# Poissons Ratio (y) = 0.21229 0.31681
# Poissons Ratio (z) = 0.24010 0.26330
#
# Static dielectric constant tensor:
#      x y z
#    x 3.577400 0.000000 0.147210 
#    y 0.000000 4.197300 0.000000 
#    z 0.147210 0.000000 4.119880 
# 
# 
# High freq. dielectric constant tensor:
#      x y z
#    x 1.809510 0.000000 0.014840 
#    y 0.000000 1.833780 0.000000 
#    z 0.014840 0.000000 1.855300 
# 
# From -- ./inp_files/17144.got.cif
#   From: 2010.06.25/outbox.cif.g09.slc.cpg/sg15_9_cif.got.tgz:17144.got - 2010.06.28 07:06:18.
