data_PCOD8148722
_publ_section_title
;
Structure prediction by ZEFSAII (Michael W. Deem and Ramdas Pophale) SiO2 
 PCOD8148722
Probable space group: C 2/C
;
_chemical_formula_sum "Si O2"
_cell_formula_units_Z 60
_cell_length_a 22.597909
_cell_length_b 10.253732
_cell_length_c 20.041237
_cell_angle_alpha 90.000000
_cell_angle_beta 140.716526
_cell_angle_gamma 90.000000
_cell_volume 2940.265829
_symmetry_space_group_name_H-M "C 2/C"
_symmetry_group_IT_number 15
_symmetry_cell_setting 'monoclinic'
loop_
_space_group_symop_operation_xyz
x,y,z
-x,y,1/2-z
-x,-y,-z
x,-y,1/2+z
1/2+x,1/2+y,z
1/2-x,1/2+y,1/2-z
1/2-x,1/2-y,-z
1/2+x,1/2-y,1/2+z
loop_
_atom_site_type_symbol
_atom_site_label
_atom_site_fract_x
_atom_site_fract_y
_atom_site_fract_z
Si Si1 0.344828 0.467679 0.707953
Si Si2 0.475445 0.227413 0.132525
Si Si3 0.710408 0.885767 0.992221
Si Si4 0.833039 0.314402 0.254683
Si Si5 0.546871 0.305165 0.532159
Si Si6 0.500000 0.453247 0.250000
Si Si7 0.411424 0.997588 0.714761
Si Si8 0.637744 0.562296 0.630070
O O1 0.268810 0.546959 0.600845
O O2 0.311564 0.323966 0.700480
O O3 0.430484 0.454107 0.730626
O O4 0.370325 0.552940 0.795799
O O5 0.388432 0.132870 0.059472
O O6 0.452122 0.359687 0.152916
O O7 0.564873 0.150922 0.240623
O O8 0.491748 0.248218 0.069494
O O9 0.686874 0.985838 0.911351
O O10 0.750000 0.750000 0.000000
O O11 0.904707 0.302039 0.378940
O O12 0.890472 0.407687 0.256870
O O13 0.735486 0.376096 0.193227
O O14 0.626425 0.416284 0.591026
O O15 0.450081 0.360313 0.479309
O O16 0.500000 0.053337 0.750000
#
# Coordination Sequence:
#
# PCOD8148722 Si02
#       8
#     8   8   8   8   8   4   8   8
#     4  11  24  41  65  99 133 176 229 274 339 400
#     4  11  20  39  67  92 125 169 217 282 335 385
#     4  11  21  37  63  96 120 167 221 277 331 388
#     4  11  26  44  65  99 138 185 219 281 342 408
#     4  10  23  42  68  93 130 181 219 277 335 397
#     4  12  20  40  64  94 128 168 218 282 320 390
#     4  10  24  42  60  97 136 164 224 280 339 406
#     4  10  23  43  63  97 134 171 234 272 326 418
#
# _framework density 20.406317999999999
#
# number of rings (size 3 to 8) (size 9 to 14) (size 15 to 20)
#    0.000    1.333    4.667    0.800    2.800    5.333 
#    0.000    0.000    0.000    0.000    0.000    0.000 
#    0.000    0.000    0.000    0.000    0.000    0.000 
#
# Total GULP energy -371752.287639 kJ/mol
# GULP energy per Si atom -12391.742921 kJ/mol
# Density = 2.035987 g / cm^3
# Si number density = 20.406318 Si / 1000 Ang^3
#
#
#
# Elastic Constant Matrix: (Units=GPa)
#
#
# Indices 1 2 3 4 5 6 
#
# 1 102.1755 39.7606 32.8120 0.0000 3.6472 0.0000
# 2 39.7606 68.0306 26.7834 0.0000 0.6795 0.0000
# 3 32.8120 26.7834 99.1232 0.0000 5.5610 0.0000
# 4 0.0000 0.0000 0.0000 31.8858 0.0000 -6.6495
# 5 3.6472 0.6795 5.5610 0.0000 29.5858 0.0000
# 6 0.0000 0.0000 0.0000 -6.6495 0.0000 33.3471
#
#
#
# Elastic Compliance Matrix: (Units=1/GPa)
#
#
# Indices 1 2 3 4 5 6 
#
# 1 0.013255 -0.006750 -0.002507 0.000000 -0.001008 0.000000
# 2 -0.006750 0.019892 -0.003195 0.000000 0.000976 0.000000
# 3 -0.002507 -0.003195 0.011886 0.000000 -0.001852 0.000000
# 4 0.000000 0.000000 0.000000 0.032723 0.000000 0.006525
# 5 -0.001008 0.000976 -0.001852 0.000000 0.034250 0.000000
# 6 0.000000 0.000000 0.000000 0.006525 0.000000 0.031289
#
#
# Mechanical properties :
#
#
# Convention : Reuss Voigt Hill
#
# Bulk Modulus (GPa) = 49.68172 52.00458 50.84315
# Shear Modulus (GPa) = 28.58643 30.29529 29.44086
#
# Velocity S-wave (km/s) = 3.74687 3.85724 3.80245
# Velocity P-wave (km/s) = 6.56641 6.73629 6.65189
#
# Compressibility (1/GPa) = 0.02012813
#
# Stress axis : x y z
#
# Youngs Moduli (GPa) = 75.44452 50.27056 84.13442
#
# Poissons Ratio (x) = 0.33931 0.21095
# Poissons Ratio (y) = 0.50922 0.26885
# Poissons Ratio (z) = 0.18917 0.16064
#
# Static dielectric constant tensor:
#      x y z
#    x 3.694320 0.000000 -0.013820 
#    y 0.000000 3.769380 0.000000 
#    z -0.013820 0.000000 4.111550 
# 
# 
# High freq. dielectric constant tensor:
#      x y z
#    x 1.793730 0.000000 -0.004380 
#    y 0.000000 1.783340 0.000000 
#    z -0.004380 0.000000 1.813540 
# 
# From -- ./inp_files/255186.got.cif
#   From: 2010.06.25/outbox.cif.g09.slc.cpg/sg15_128_cif.got.tgz:255186.got - 2010.06.28 07:06:18.
