data_PCOD8148300
_publ_section_title
;
Structure prediction by ZEFSAII (Michael W. Deem and Ramdas Pophale) SiO2 
 PCOD8148300
Probable space group: C 2/C
;
_chemical_formula_sum "Si O2"
_cell_formula_units_Z 64
_cell_length_a 18.516410
_cell_length_b 8.593241
_cell_length_c 27.522957
_cell_angle_alpha 90.000000
_cell_angle_beta 43.031656
_cell_angle_gamma 90.000000
_cell_volume 2988.473252
_symmetry_space_group_name_H-M "C 2/C"
_symmetry_group_IT_number 15
_symmetry_cell_setting 'monoclinic'
loop_
_space_group_symop_operation_xyz
x,y,z
-x,y,1/2-z
-x,-y,-z
x,-y,1/2+z
1/2+x,1/2+y,z
1/2-x,1/2+y,1/2-z
1/2-x,1/2-y,-z
1/2+x,1/2-y,1/2+z
loop_
_atom_site_type_symbol
_atom_site_label
_atom_site_fract_x
_atom_site_fract_y
_atom_site_fract_z
Si Si1 0.269326 0.319678 0.426334
Si Si2 0.409097 0.276840 0.550856
Si Si3 0.609982 0.062739 0.847670
Si Si4 0.620381 0.552917 0.187067
Si Si5 0.118875 0.439622 0.573490
Si Si6 0.277235 0.795909 0.431668
Si Si7 0.272975 0.703502 0.277973
Si Si8 0.126703 0.124540 0.920721
O O1 0.177875 0.211186 0.448962
O O2 0.324891 0.389848 0.351846
O O3 0.205410 0.454889 0.487365
O O4 0.358453 0.234594 0.416063
O O5 0.395308 0.130356 0.594547
O O6 0.405208 0.447683 0.577023
O O7 0.523965 0.262836 0.468528
O O8 0.649769 0.212625 0.798076
O O9 0.497923 0.986165 0.887237
O O10 0.692234 0.924102 0.796514
O O11 0.500000 0.515728 0.250000
O O12 0.649576 0.668925 0.129575
O O13 0.651122 0.609859 0.224429
O O14 0.147539 0.553577 0.603288
O O15 0.250000 0.750000 0.500000
O O16 0.174271 0.841549 0.450951
O O17 0.208691 0.833151 0.338719
#
# Coordination Sequence:
#
# PCOD8148300 Si02
#       8
#     8   8   8   8   8   8   8   8
#     4  11  23  44  66  96 137 166 224 278 332 403
#     4  11  22  42  69  96 127 174 222 276 336 397
#     4  12  25  43  70  98 134 179 225 278 338 401
#     4  11  24  42  64  94 130 177 217 267 340 403
#     4  11  24  41  67 102 129 174 220 277 335 396
#     4  11  20  39  64  94 134 167 216 277 326 400
#     4  11  25  44  64  95 135 173 221 279 333 407
#     4  10  23  40  66  96 128 174 220 273 337 403
#
# _framework density 21.415617000000001
#
# number of rings (size 3 to 8) (size 9 to 14) (size 15 to 20)
#    0.000    1.000    3.750    3.000    1.750    2.000 
#    2.250    0.625    0.000    0.000    0.000    0.000 
#    0.000    0.000    0.000    0.000    0.000    0.000 
#
# Total GULP energy -396515.138199 kJ/mol
# GULP energy per Si atom -12391.098069 kJ/mol
# Density = 2.136687 g / cm^3
# Si number density = 21.415617 Si / 1000 Ang^3
#
#
#
# Elastic Constant Matrix: (Units=GPa)
#
#
# Indices 1 2 3 4 5 6 
#
# 1 42.1202 24.3033 27.6238 -0.0004 32.7700 0.0079
# 2 24.3033 65.2281 17.2556 -0.0013 -4.7729 0.0014
# 3 27.6238 17.2556 71.5701 0.0000 -5.3620 0.0019
# 4 -0.0004 -0.0013 0.0000 22.9885 -0.0004 -12.6126
# 5 32.7700 -4.7729 -5.3620 -0.0004 0.4358 -0.0054
# 6 0.0079 0.0014 0.0019 -12.6126 -0.0054 27.4869
#
#
#
# Elastic Compliance Matrix: (Units=1/GPa)
#
#
# Indices 1 2 3 4 5 6 
#
# 1 0.000127 0.001548 0.001661 0.000005 0.027804 0.000007
# 2 0.001548 0.015404 -0.005000 -0.000001 -0.009198 -0.000003
# 3 0.001661 -0.005000 0.013784 -0.000003 -0.010046 -0.000004
# 4 0.000005 -0.000001 -0.000003 0.058136 -0.000009 0.026676
# 5 0.027804 -0.009198 -0.010046 -0.000009 -0.020448 -0.000015
# 6 0.000007 -0.000003 -0.000004 0.026676 -0.000015 0.048622
#
#
# Mechanical properties :
#
#
# Convention : Reuss Voigt Hill
#
# Bulk Modulus (GPa) = 38.86255 35.25377 37.05816
# Shear Modulus (GPa) = 39.12767 17.49795 28.31281
#
# Velocity S-wave (km/s) = 4.27905 2.86154 3.63996
# Velocity P-wave (km/s) = 6.52686 5.23596 5.91672
#
# Compressibility (1/GPa) = 0.02573171
#
# Stress axis : x y z
#
# Youngs Moduli (GPa) = 7848.48179 64.91853 72.54639
#
# Poissons Ratio (x) = -0.10047 -0.12048
# Poissons Ratio (y) = -12.14688 0.36276
# Poissons Ratio (z) = -13.03430 0.32462
#
# Static dielectric constant tensor:
#      x y z
#    x 4.475590 -0.000010 0.156980 
#    y -0.000010 4.032340 0.000000 
#    z 0.156980 0.000000 4.016270 
# 
# 
# High freq. dielectric constant tensor:
#      x y z
#    x 1.844560 0.000000 -0.006580 
#    y 0.000000 1.849970 0.000000 
#    z -0.006580 0.000000 1.835640 
# 
# From -- ./inp_files/315672.got.cif
#   From: 2010.06.25/outbox.cif.g09.slc.cpg/sg15_158_cif.got.tgz:315672.got - 2010.06.28 07:06:18.
