data_PCOD8148883
_publ_section_title
;
Structure prediction by ZEFSAII (Michael W. Deem and Ramdas Pophale) SiO2 
 PCOD8148883
Probable space group: C 2/C
;
_chemical_formula_sum "Si O2"
_cell_formula_units_Z 48
_cell_length_a 17.163994
_cell_length_b 15.236888
_cell_length_c 17.244674
_cell_angle_alpha 90.000000
_cell_angle_beta 148.494963
_cell_angle_gamma 90.000000
_cell_volume 2356.769002
_symmetry_space_group_name_H-M "C 2/C"
_symmetry_group_IT_number 15
_symmetry_cell_setting 'monoclinic'
loop_
_space_group_symop_operation_xyz
x,y,z
-x,y,1/2-z
-x,-y,-z
x,-y,1/2+z
1/2+x,1/2+y,z
1/2-x,1/2+y,1/2-z
1/2-x,1/2-y,-z
1/2+x,1/2-y,1/2+z
loop_
_atom_site_type_symbol
_atom_site_label
_atom_site_fract_x
_atom_site_fract_y
_atom_site_fract_z
Si Si1 0.708852 0.417805 0.360960
Si Si2 0.125856 0.089165 0.966645
Si Si3 0.183626 0.247970 0.126763
Si Si4 0.290421 0.083684 0.638867
Si Si5 0.628062 0.090650 0.967281
Si Si6 0.626267 0.747923 0.571144
O O1 0.551453 0.425799 0.183254
O O2 0.686607 0.396468 0.432085
O O3 0.809171 0.342445 0.408126
O O4 0.797243 0.508394 0.426482
O O5 0.171058 0.175742 0.050305
O O6 0.203613 0.007559 0.075067
O O7 0.329695 0.231442 0.302580
O O8 0.051837 0.242515 0.078071
O O9 0.451111 0.075283 0.815263
O O10 0.305157 0.106479 0.561041
O O11 0.194813 0.156951 0.600667
O O12 0.676331 0.175784 0.055884
#
# Coordination Sequence:
#
# PCOD8148883 Si02
#       6
#     8   8   8   8   8   8
#     4  10  23  43  66  92 121 164 211 254 303 363
#     4  10  23  43  66  91 123 163 210 255 303 364
#     4  12  25  42  61  93 129 165 204 251 313 368
#     4  10  23  43  66  92 121 164 211 254 303 363
#     4  10  23  43  66  91 123 163 210 255 303 364
#     4  12  25  42  61  93 129 165 204 251 313 368
#
# _framework density 20.366866999999999
#
# number of rings (size 3 to 8) (size 9 to 14) (size 15 to 20)
#    0.000    1.333    3.333    1.000    4.667    2.667 
#    0.000    0.000    0.000    0.000    0.000    0.000 
#    0.000    0.000    0.000    0.000    0.000    0.000 
#
# Total GULP energy -297728.105305 kJ/mol
# GULP energy per Si atom -12405.337721 kJ/mol
# Density = 2.032051 g / cm^3
# Si number density = 20.366867 Si / 1000 Ang^3
#
#
#
# Elastic Constant Matrix: (Units=GPa)
#
#
# Indices 1 2 3 4 5 6 
#
# 1 63.0679 37.5814 21.3217 -0.0043 15.8051 0.0014
# 2 37.5814 88.7787 35.1709 -0.0121 6.0730 0.0027
# 3 21.3217 35.1709 74.9839 -0.0090 -1.3823 0.0027
# 4 -0.0043 -0.0121 -0.0090 33.3870 -0.0028 5.9159
# 5 15.8051 6.0730 -1.3823 -0.0028 33.6615 0.0011
# 6 0.0014 0.0027 0.0027 5.9159 0.0011 21.4670
#
#
#
# Elastic Compliance Matrix: (Units=1/GPa)
#
#
# Indices 1 2 3 4 5 6 
#
# 1 0.024479 -0.008400 -0.003207 -0.000002 -0.010110 0.000001
# 2 -0.008400 0.016979 -0.005563 0.000004 0.000653 -0.000002
# 3 -0.003207 -0.005563 0.016917 0.000003 0.003204 -0.000002
# 4 -0.000002 0.000004 0.000003 0.031489 0.000003 -0.008678
# 5 -0.010110 0.000653 0.003204 0.000003 0.034468 -0.000002
# 6 0.000001 -0.000002 -0.000002 -0.008678 -0.000002 0.048975
#
#
# Mechanical properties :
#
#
# Convention : Reuss Voigt Hill
#
# Bulk Modulus (GPa) = 41.60790 46.10873 43.85831
# Shear Modulus (GPa) = 23.18456 26.55355 24.86905
#
# Velocity S-wave (km/s) = 3.37760 3.61468 3.49815
# Velocity P-wave (km/s) = 5.97365 6.33320 6.15605
#
# Compressibility (1/GPa) = 0.02403390
#
# Stress axis : x y z
#
# Youngs Moduli (GPa) = 40.85051 58.89486 59.11329
#
# Poissons Ratio (x) = 0.49475 0.18957
# Poissons Ratio (y) = 0.34316 0.32887
# Poissons Ratio (z) = 0.13100 0.32766
#
# Static dielectric constant tensor:
#      x y z
#    x 3.635020 0.000000 0.041090 
#    y 0.000000 3.672190 0.000000 
#    z 0.041090 0.000000 3.887370 
# 
# 
# High freq. dielectric constant tensor:
#      x y z
#    x 1.798990 0.000000 -0.000030 
#    y 0.000000 1.803280 0.000000 
#    z -0.000030 0.000000 1.808230 
# 
# From -- ./inp_files/66405.got.cif
#   From: 2010.06.25/outbox.cif.g09.slc.cpg/sg15_34_cif.got.tgz:66405.got - 2010.06.28 07:06:18.
