data_PCOD8148494
_publ_section_title
;
Structure prediction by ZEFSAII (Michael W. Deem and Ramdas Pophale) SiO2 
 PCOD8148494
Probable space group: C 2/C
;
_chemical_formula_sum "Si O2"
_cell_formula_units_Z 36
_cell_length_a 5.181894
_cell_length_b 23.881322
_cell_length_c 14.833119
_cell_angle_alpha 90.000000
_cell_angle_beta 61.874910
_cell_angle_gamma 90.000000
_cell_volume 1618.858238
_symmetry_space_group_name_H-M "C 2/C"
_symmetry_group_IT_number 15
_symmetry_cell_setting 'monoclinic'
loop_
_space_group_symop_operation_xyz
x,y,z
-x,y,1/2-z
-x,-y,-z
x,-y,1/2+z
1/2+x,1/2+y,z
1/2-x,1/2+y,1/2-z
1/2-x,1/2-y,-z
1/2+x,1/2-y,1/2+z
loop_
_atom_site_type_symbol
_atom_site_label
_atom_site_fract_x
_atom_site_fract_y
_atom_site_fract_z
Si Si1 0.703237 0.313194 0.977565
Si Si2 0.833416 0.015332 0.437502
Si Si3 0.140905 0.141732 0.128547
Si Si4 0.500000 0.437391 0.250000
Si Si5 0.689165 0.332078 0.292615
O O1 0.539369 0.317222 0.908394
O O2 0.016191 0.343488 0.923483
O O3 0.750000 0.250000 0.000000
O O4 0.486384 0.341333 0.086099
O O5 0.892682 0.079400 0.403506
O O6 0.500000 0.000000 0.500000
O O7 0.000000 0.000000 0.500000
O O8 0.953858 0.976627 0.340674
O O9 0.000000 0.147136 0.250000
O O10 0.758915 0.393417 0.235431
O O11 0.500000 0.296448 0.250000
O O12 0.000000 0.300568 0.250000
#
# Coordination Sequence:
#
# PCOD8148494 Si02
#       5
#     8   8   8   4   8
#     4  12  27  48  74 102 140 189 242 297 358 406
#     4  12  26  42  71 103 144 188 227 281 354 420
#     4  12  26  49  71 107 146 184 238 295 350 432
#     4  10  24  42  68  98 140 178 232 266 358 412
#     4  10  23  41  68 101 137 175 237 285 339 417
#
# _framework density 22.237895000000002
#
# number of rings (size 3 to 8) (size 9 to 14) (size 15 to 20)
#    0.667    0.000    1.111    6.667    6.222    2.667 
#    0.000    0.000    0.000    0.000    0.000    0.000 
#    0.000    0.000    0.000    0.000    0.000    0.000 
#
# Total GULP energy -223036.050410 kJ/mol
# GULP energy per Si atom -12390.891689 kJ/mol
# Density = 2.218728 g / cm^3
# Si number density = 22.237895 Si / 1000 Ang^3
#
#
#
# Elastic Constant Matrix: (Units=GPa)
#
#
# Indices 1 2 3 4 5 6 
#
# 1 207.8440 24.5182 95.5221 0.0000 4.2773 0.0000
# 2 24.5182 93.4059 28.9897 0.0000 13.9376 0.0000
# 3 95.5221 28.9897 170.8420 0.0000 21.2013 0.0000
# 4 0.0000 0.0000 0.0000 15.2482 0.0000 2.1126
# 5 4.2773 13.9376 21.2013 0.0000 44.8824 0.0000
# 6 0.0000 0.0000 0.0000 2.1126 0.0000 31.1649
#
#
#
# Elastic Compliance Matrix: (Units=1/GPa)
#
#
# Indices 1 2 3 4 5 6 
#
# 1 0.006584 -0.000779 -0.003720 0.000000 0.001371 0.000000
# 2 -0.000779 0.011726 -0.001181 0.000000 -0.003009 0.000000
# 3 -0.003720 -0.001181 0.008545 0.000000 -0.003315 0.000000
# 4 0.000000 0.000000 0.000000 0.066203 0.000000 -0.004488
# 5 0.001371 -0.003009 -0.003315 0.000000 0.024650 0.000000
# 6 0.000000 0.000000 0.000000 -0.004488 0.000000 0.032392
#
#
# Mechanical properties :
#
#
# Convention : Reuss Voigt Hill
#
# Bulk Modulus (GPa) = 64.52879 85.57242 75.05060
# Shear Modulus (GPa) = 30.00765 39.79656 34.90210
#
# Velocity S-wave (km/s) = 3.67739 4.23494 3.96597
# Velocity P-wave (km/s) = 6.86378 7.90423 7.40231
#
# Compressibility (1/GPa) = 0.01549696
#
# Stress axis : x y z
#
# Youngs Moduli (GPa) = 151.87464 85.28139 117.02931
#
# Poissons Ratio (x) = 0.06640 0.43530
# Poissons Ratio (y) = 0.11824 0.13821
# Poissons Ratio (z) = 0.56491 0.10072
#
# Static dielectric constant tensor:
#      x y z
#    x 4.221750 0.000000 0.183500 
#    y 0.000000 4.085930 0.000000 
#    z 0.183500 0.000000 4.198150 
# 
# 
# High freq. dielectric constant tensor:
#      x y z
#    x 1.893120 0.000000 0.013290 
#    y 0.000000 1.876140 0.000000 
#    z 0.013290 0.000000 1.891860 
# 
# From -- ./inp_files/128976.got.cif
#   From: 2010.06.25/outbox.cif.g09.slc.cpg/sg15_65_cif.got.tgz:128976.got - 2010.06.28 07:06:18.
