data_PCOD8148675
_publ_section_title
;
Structure prediction by ZEFSAII (Michael W. Deem and Ramdas Pophale) SiO2 
 PCOD8148675
Probable space group: C 2/C
;
_chemical_formula_sum "Si O2"
_cell_formula_units_Z 56
_cell_length_a 12.415820
_cell_length_b 14.339914
_cell_length_c 14.592326
_cell_angle_alpha 90.000000
_cell_angle_beta 92.377582
_cell_angle_gamma 90.000000
_cell_volume 2595.807300
_symmetry_space_group_name_H-M "C 2/C"
_symmetry_group_IT_number 15
_symmetry_cell_setting 'monoclinic'
loop_
_space_group_symop_operation_xyz
x,y,z
-x,y,1/2-z
-x,-y,-z
x,-y,1/2+z
1/2+x,1/2+y,z
1/2-x,1/2+y,1/2-z
1/2-x,1/2-y,-z
1/2+x,1/2-y,1/2+z
loop_
_atom_site_type_symbol
_atom_site_label
_atom_site_fract_x
_atom_site_fract_y
_atom_site_fract_z
Si Si1 0.878511 0.495848 0.027693
Si Si2 0.074734 0.155755 0.340426
Si Si3 0.171140 0.678073 0.382575
Si Si4 0.223105 0.693336 0.908304
Si Si5 0.875569 0.823863 0.256067
Si Si6 0.604957 0.674058 0.022618
Si Si7 0.690050 0.466365 0.389668
O O1 0.863186 0.570911 0.108637
O O2 0.844553 0.397455 0.068464
O O3 0.808663 0.519649 0.935277
O O4 0.000000 0.500000 0.000000
O O5 0.153868 0.244059 0.335405
O O6 0.000000 0.148723 0.250000
O O7 0.007706 0.170475 0.430343
O O8 0.143485 0.062346 0.350924
O O9 0.140199 0.717776 0.281382
O O10 0.299204 0.687183 0.400888
O O11 0.104838 0.737939 0.454909
O O12 0.335025 0.668354 0.859643
O O13 0.250000 0.750000 0.000000
O O14 0.801935 0.893694 0.193642
O O15 0.000000 0.854880 0.250000
O O16 0.616088 0.577564 0.967048
#
# Coordination Sequence:
#
# PCOD8148675 Si02
#       7
#     8   8   8   8   8   8   8
#     4  11  24  44  73 100 142 190 234 290 368 431
#     4  12  24  40  68  97 138 179 230 293 360 409
#     4   9  20  40  65  97 131 180 232 277 340 433
#     4  12  28  46  67 103 149 185 240 295 349 441
#     4  11  26  43  70 101 141 183 234 296 360 417
#     4   9  19  38  66  94 130 173 222 281 346 410
#     4  10  23  42  66  99 131 172 240 288 348 427
#
# _framework density 21.573249000000001
#
# number of rings (size 3 to 8) (size 9 to 14) (size 15 to 20)
#    0.000    1.429    1.429    3.429    6.000    6.857 
#    0.000    0.714    0.000    0.000    0.000    0.000 
#    0.000    0.000    0.000    0.000    0.000    0.000 
#
# Total GULP energy -347281.591844 kJ/mol
# GULP energy per Si atom -12402.913994 kJ/mol
# Density = 2.152415 g / cm^3
# Si number density = 21.573249 Si / 1000 Ang^3
#
#
#
# Elastic Constant Matrix: (Units=GPa)
#
#
# Indices 1 2 3 4 5 6 
#
# 1 114.3653 48.1965 49.9431 0.0000 -11.8859 0.0000
# 2 48.1965 155.5935 38.9546 0.0000 5.7812 0.0000
# 3 49.9431 38.9546 92.2980 0.0000 -5.8566 0.0000
# 4 0.0000 0.0000 0.0000 29.7441 0.0000 2.4037
# 5 -11.8859 5.7812 -5.8566 0.0000 38.9923 0.0000
# 6 0.0000 0.0000 0.0000 2.4037 0.0000 24.0970
#
#
#
# Elastic Compliance Matrix: (Units=1/GPa)
#
#
# Indices 1 2 3 4 5 6 
#
# 1 0.012617 -0.002661 -0.005487 0.000000 0.003416 0.000000
# 2 -0.002661 0.007840 -0.002013 0.000000 -0.002276 0.000000
# 3 -0.005487 -0.002013 0.014706 0.000000 0.000835 0.000000
# 4 0.000000 0.000000 0.000000 0.033893 0.000000 -0.003381
# 5 0.003416 -0.002276 0.000835 0.000000 0.027150 0.000000
# 6 0.000000 0.000000 0.000000 -0.003381 0.000000 0.041836
#
#
# Mechanical properties :
#
#
# Convention : Reuss Voigt Hill
#
# Bulk Modulus (GPa) = 67.38662 70.71611 69.05137
# Shear Modulus (GPa) = 30.61620 33.57753 32.09686
#
# Velocity S-wave (km/s) = 3.77128 3.94946 3.86140
# Velocity P-wave (km/s) = 7.08995 7.32450 7.20818
#
# Compressibility (1/GPa) = 0.01483974
#
# Stress axis : x y z
#
# Youngs Moduli (GPa) = 79.26017 127.55134 67.99865
#
# Poissons Ratio (x) = 0.33946 0.37311
# Poissons Ratio (y) = 0.21094 0.13690
# Poissons Ratio (z) = 0.43490 0.25679
#
# Static dielectric constant tensor:
#      x y z
#    x 3.884160 0.000000 0.083730 
#    y 0.000000 4.160390 0.000000 
#    z 0.083730 0.000000 3.808250 
# 
# 
# High freq. dielectric constant tensor:
#      x y z
#    x 1.847070 0.000000 0.003660 
#    y 0.000000 1.857160 0.000000 
#    z 0.003660 0.000000 1.840420 
# 
# From -- ./inp_files/144273.got.cif
#   From: 2010.06.25/outbox.cif.g09.slc.cpg/sg15_73_cif.got.tgz:144273.got - 2010.06.28 07:06:18.
