data_PCOD8148795
_publ_section_title
;
Structure prediction by ZEFSAII (Michael W. Deem and Ramdas Pophale) SiO2 
 PCOD8148795
Probable space group: C 2/C
;
_chemical_formula_sum "Si O2"
_cell_formula_units_Z 40
_cell_length_a 15.365063
_cell_length_b 11.328086
_cell_length_c 10.898427
_cell_angle_alpha 90.000000
_cell_angle_beta 78.820256
_cell_angle_gamma 90.000000
_cell_volume 1860.947963
_symmetry_space_group_name_H-M "C 2/C"
_symmetry_group_IT_number 15
_symmetry_cell_setting 'monoclinic'
loop_
_space_group_symop_operation_xyz
x,y,z
-x,y,1/2-z
-x,-y,-z
x,-y,1/2+z
1/2+x,1/2+y,z
1/2-x,1/2+y,1/2-z
1/2-x,1/2-y,-z
1/2+x,1/2-y,1/2+z
loop_
_atom_site_type_symbol
_atom_site_label
_atom_site_fract_x
_atom_site_fract_y
_atom_site_fract_z
Si Si1 0.857150 0.023907 0.864974
Si Si2 0.513130 0.126670 0.436829
Si Si3 0.870720 0.289022 0.812506
Si Si4 0.310552 0.403675 0.632516
Si Si5 0.504896 0.678069 0.117648
O O1 0.892936 0.150024 0.807106
O O2 0.802455 0.976147 0.762001
O O3 0.940539 0.942773 0.879302
O O4 0.796641 0.027207 0.005865
O O5 0.584337 0.134975 0.308419
O O6 0.413497 0.158881 0.423699
O O7 0.551180 0.225392 0.519668
O O8 0.500000 0.000000 0.500000
O O9 0.764844 0.303894 0.841032
O O10 0.407697 0.348971 0.592226
O O11 0.500000 0.742155 0.250000
#
# Coordination Sequence:
#
# PCOD8148795 Si02
#       5
#     8   8   8   8   8
#     4  11  23  44  73 103 138 174 233 290 349 411
#     4  11  26  44  65  94 144 185 232 271 359 418
#     4  11  26  43  70  98 133 188 228 289 345 412
#     4  11  24  41  70 103 136 172 230 293 344 404
#     4  10  23  42  72 102 132 178 226 288 344 412
#
# _framework density 21.494422
#
# number of rings (size 3 to 8) (size 9 to 14) (size 15 to 20)
#    0.000    1.200    2.000    2.400   14.000    0.000 
#    3.600    5.000    0.000    0.000    0.000    0.000 
#    0.000    0.000    0.000    0.000    0.000    0.000 
#
# Total GULP energy -247773.981147 kJ/mol
# GULP energy per Si atom -12388.699057 kJ/mol
# Density = 2.144550 g / cm^3
# Si number density = 21.494422 Si / 1000 Ang^3
#
#
#
# Elastic Constant Matrix: (Units=GPa)
#
#
# Indices 1 2 3 4 5 6 
#
# 1 87.3414 53.0655 31.6025 0.0000 -6.3047 0.0000
# 2 53.0655 159.1875 60.6247 0.0000 6.1498 0.0000
# 3 31.6025 60.6247 144.8591 0.0000 20.1159 0.0000
# 4 0.0000 0.0000 0.0000 39.6460 0.0000 5.8981
# 5 -6.3047 6.1498 20.1159 0.0000 26.6317 0.0000
# 6 0.0000 0.0000 0.0000 5.8981 0.0000 28.1858
#
#
#
# Elastic Compliance Matrix: (Units=1/GPa)
#
#
# Indices 1 2 3 4 5 6 
#
# 1 0.015535 -0.004514 -0.002408 0.000000 0.006539 0.000000
# 2 -0.004514 0.008797 -0.002532 0.000000 -0.001188 0.000000
# 3 -0.002408 -0.002532 0.009481 0.000000 -0.007146 0.000000
# 4 0.000000 0.000000 0.000000 0.026034 0.000000 -0.005448
# 5 0.006539 -0.001188 -0.007146 0.000000 0.044769 0.000000
# 6 0.000000 0.000000 0.000000 -0.005448 0.000000 0.036619
#
#
# Mechanical properties :
#
#
# Convention : Reuss Voigt Hill
#
# Bulk Modulus (GPa) = 67.09328 75.77483 71.43405
# Shear Modulus (GPa) = 30.28265 35.29905 32.79085
#
# Velocity S-wave (km/s) = 3.75755 4.05686 3.91007
# Velocity P-wave (km/s) = 7.07867 7.56795 7.32740
#
# Compressibility (1/GPa) = 0.01490462
#
# Stress axis : x y z
#
# Youngs Moduli (GPa) = 64.36942 113.67725 105.47933
#
# Poissons Ratio (x) = 0.51317 0.25399
# Poissons Ratio (y) = 0.29058 0.26705
# Poissons Ratio (z) = 0.15500 0.28780
#
# Static dielectric constant tensor:
#      x y z
#    x 3.796250 0.000000 0.312090 
#    y 0.000000 3.700880 0.000000 
#    z 0.312090 0.000000 4.358160 
# 
# 
# High freq. dielectric constant tensor:
#      x y z
#    x 1.831160 0.000000 0.018160 
#    y 0.000000 1.832430 0.000000 
#    z 0.018160 0.000000 1.870220 
# 
# From -- ./inp_files/94513.got.cif
#   From: 2010.06.25/outbox.cif.g09.slc.cpg/sg15_48_cif.got.tgz:94513.got - 2010.06.28 07:06:18.
