data_PCOD8148746
_publ_section_title
;
Structure prediction by ZEFSAII (Michael W. Deem and Ramdas Pophale) SiO2 
 PCOD8148746
Probable space group: C 2/C
;
_chemical_formula_sum "Si O2"
_cell_formula_units_Z 56
_cell_length_a 10.676788
_cell_length_b 16.233329
_cell_length_c 14.296404
_cell_angle_alpha 90.000000
_cell_angle_beta 92.764709
_cell_angle_gamma 90.000000
_cell_volume 2474.965931
_symmetry_space_group_name_H-M "C 2/C"
_symmetry_group_IT_number 15
_symmetry_cell_setting 'monoclinic'
loop_
_space_group_symop_operation_xyz
x,y,z
-x,y,1/2-z
-x,-y,-z
x,-y,1/2+z
1/2+x,1/2+y,z
1/2-x,1/2+y,1/2-z
1/2-x,1/2-y,-z
1/2+x,1/2-y,1/2+z
loop_
_atom_site_type_symbol
_atom_site_label
_atom_site_fract_x
_atom_site_fract_y
_atom_site_fract_z
Si Si1 0.204342 0.007385 0.323590
Si Si2 0.000000 0.301764 0.250000
Si Si3 0.360504 0.194733 0.048627
Si Si4 0.903896 0.787286 0.403053
Si Si5 0.000000 0.894333 0.250000
Si Si6 0.660790 0.685257 0.389314
Si Si7 0.611859 0.048521 0.324322
Si Si8 0.570299 0.921492 0.104631
O O1 0.152070 0.097088 0.342583
O O2 0.276309 0.005274 0.227085
O O3 0.084533 0.949167 0.321226
O O4 0.303340 0.975351 0.405198
O O5 0.073570 0.247634 0.328491
O O6 0.090249 0.364744 0.197633
O O7 0.454131 0.256460 0.101654
O O8 0.320000 0.126644 0.123770
O O9 0.250000 0.250000 0.000000
O O10 0.445081 0.143242 0.978970
O O11 0.803619 0.715029 0.385988
O O12 0.882256 0.826341 0.504754
O O13 0.900579 0.847957 0.314172
O O14 0.500000 0.077264 0.250000
O O15 0.551694 0.981667 0.394721
#
# Coordination Sequence:
#
# PCOD8148746 Si02
#       8
#     8   4   8   8   4   8   8   8
#     4  11  24  43  65 103 129 184 216 282 335 408
#     4  12  21  44  71 102 126 182 224 288 323 412
#     4  12  26  41  66 104 136 176 230 285 335 402
#     4  11  26  46  67 104 136 186 217 287 341 409
#     4  12  27  42  69  94 150 176 222 270 361 398
#     4  11  26  44  75  97 143 173 238 271 348 403
#     4  10  23  42  69  96 131 176 228 279 334 394
#     4  11  22  44  69  94 135 173 236 279 335 391
#
# _framework density 22.626571999999999
#
# number of rings (size 3 to 8) (size 9 to 14) (size 15 to 20)
#    0.000    0.857    3.571    4.286    5.000    2.857 
#    0.000    0.000    0.000    0.000    0.000    0.000 
#    0.000    0.000    0.000    0.000    0.000    0.000 
#
# Total GULP energy -347054.078941 kJ/mol
# GULP energy per Si atom -12394.788534 kJ/mol
# Density = 2.257507 g / cm^3
# Si number density = 22.626572 Si / 1000 Ang^3
#
#
#
# Elastic Constant Matrix: (Units=GPa)
#
#
# Indices 1 2 3 4 5 6 
#
# 1 75.5539 33.3112 17.3586 0.0000 1.1090 0.0000
# 2 33.3112 120.0488 29.0605 0.0000 -0.0566 0.0000
# 3 17.3586 29.0605 71.1106 0.0000 -3.9505 0.0000
# 4 0.0000 0.0000 0.0000 38.5214 0.0000 6.3778
# 5 1.1090 -0.0566 -3.9505 0.0000 30.8860 0.0000
# 6 0.0000 0.0000 0.0000 6.3778 0.0000 30.8660
#
#
#
# Elastic Compliance Matrix: (Units=1/GPa)
#
#
# Indices 1 2 3 4 5 6 
#
# 1 0.015416 -0.003724 -0.002289 0.000000 -0.000853 0.000000
# 2 -0.003724 0.010151 -0.003254 0.000000 -0.000264 0.000000
# 3 -0.002289 -0.003254 0.016069 0.000000 0.002132 0.000000
# 4 0.000000 0.000000 0.000000 0.026879 0.000000 -0.005554
# 5 -0.000853 -0.000264 0.002132 0.000000 0.032680 0.000000
# 6 0.000000 0.000000 0.000000 -0.005554 0.000000 0.033546
#
#
# Mechanical properties :
#
#
# Convention : Reuss Voigt Hill
#
# Bulk Modulus (GPa) = 43.28433 47.35265 45.31849
# Shear Modulus (GPa) = 31.06073 32.52020 31.79046
#
# Velocity S-wave (km/s) = 3.70909 3.79523 3.75241
# Velocity P-wave (km/s) = 6.12491 6.33864 6.23269
#
# Compressibility (1/GPa) = 0.02310305
#
# Stress axis : x y z
#
# Youngs Moduli (GPa) = 64.86846 98.51402 62.22991
#
# Poissons Ratio (x) = 0.36686 0.14242
# Poissons Ratio (y) = 0.24157 0.20249
# Poissons Ratio (z) = 0.14846 0.32056
#
# Static dielectric constant tensor:
#      x y z
#    x 3.862540 0.000000 -0.002980 
#    y 0.000000 4.194990 0.000000 
#    z -0.002980 0.000000 4.322910 
# 
# 
# High freq. dielectric constant tensor:
#      x y z
#    x 1.878800 0.000000 -0.001960 
#    y 0.000000 1.904820 0.000000 
#    z -0.001960 0.000000 1.895160 
# 
# From -- ./inp_files/144299.got.cif
#   From: 2010.06.25/outbox.cif.g09.slc.cpg/sg15_73_cif.got.tgz:144299.got - 2010.06.28 07:06:18.
