data_PCOD8148454
_publ_section_title
;
Structure prediction by ZEFSAII (Michael W. Deem and Ramdas Pophale) SiO2 
 PCOD8148454
Probable space group: C 2/C
;
_chemical_formula_sum "Si O2"
_cell_formula_units_Z 56
_cell_length_a 17.633035
_cell_length_b 19.215236
_cell_length_c 9.002924
_cell_angle_alpha 90.000000
_cell_angle_beta 122.509972
_cell_angle_gamma 90.000000
_cell_volume 2572.393509
_symmetry_space_group_name_H-M "C 2/C"
_symmetry_group_IT_number 15
_symmetry_cell_setting 'monoclinic'
loop_
_space_group_symop_operation_xyz
x,y,z
-x,y,1/2-z
-x,-y,-z
x,-y,1/2+z
1/2+x,1/2+y,z
1/2-x,1/2+y,1/2-z
1/2-x,1/2-y,-z
1/2+x,1/2-y,1/2+z
loop_
_atom_site_type_symbol
_atom_site_label
_atom_site_fract_x
_atom_site_fract_y
_atom_site_fract_z
Si Si1 0.145198 0.759001 0.047734
Si Si2 0.911172 0.907338 0.103420
Si Si3 0.021525 0.266589 0.936649
Si Si4 0.642134 0.489080 0.713896
Si Si5 0.772935 0.909844 0.436072
Si Si6 0.916293 0.646287 0.745733
Si Si7 0.289090 0.703372 0.411333
O O1 0.184549 0.833727 0.046747
O O2 0.222427 0.709450 0.202284
O O3 0.064251 0.771388 0.078686
O O4 0.111544 0.718355 0.867214
O O5 0.000000 0.860473 0.250000
O O6 0.916490 0.966092 0.235251
O O7 0.924567 0.941627 0.955310
O O8 0.809833 0.873235 0.001017
O O9 0.000000 0.293295 0.750000
O O10 0.048104 0.335628 0.053530
O O11 0.108208 0.216948 0.031379
O O12 0.701231 0.537116 0.666927
O O13 0.702777 0.436853 0.874957
O O14 0.665308 0.906217 0.322705
O O15 0.000000 0.609735 0.750000
O O16 0.250000 0.750000 0.500000
#
# Coordination Sequence:
#
# PCOD8148454 Si02
#       7
#     8   8   8   8   8   8   8
#     4  11  23  41  67  95 134 167 202 267 331 386
#     4  11  24  42  62  92 132 167 217 263 304 384
#     4  11  23  38  59 102 131 163 207 250 332 389
#     4  10  25  42  65  89 120 182 220 253 313 368
#     4  11  22  45  65  90 129 169 216 265 312 382
#     4  10  23  41  66 100 128 163 209 265 332 393
#     4  12  23  37  64  97 130 167 206 264 331 374
#
# _framework density 21.769608999999999
#
# number of rings (size 3 to 8) (size 9 to 14) (size 15 to 20)
#    0.000    1.143    2.857    3.000    4.000    0.000 
#    0.000    1.429    0.000    0.000    0.000    0.000 
#    0.000    0.000    0.000    0.000    0.000    0.000 
#
# Total GULP energy -347031.258144 kJ/mol
# GULP energy per Si atom -12393.973505 kJ/mol
# Density = 2.172006 g / cm^3
# Si number density = 21.769609 Si / 1000 Ang^3
#
#
#
# Elastic Constant Matrix: (Units=GPa)
#
#
# Indices 1 2 3 4 5 6 
#
# 1 112.5629 18.0425 57.9570 0.0000 14.2946 0.0000
# 2 18.0425 63.3961 41.6510 0.0000 4.6667 0.0000
# 3 57.9570 41.6510 153.4874 0.0000 -1.9370 0.0000
# 4 0.0000 0.0000 0.0000 24.1679 0.0000 3.7701
# 5 14.2946 4.6667 -1.9370 0.0000 42.4049 0.0000
# 6 0.0000 0.0000 0.0000 3.7701 0.0000 25.8046
#
#
#
# Elastic Compliance Matrix: (Units=1/GPa)
#
#
# Indices 1 2 3 4 5 6 
#
# 1 0.011717 -0.000108 -0.004447 0.000000 -0.004141 0.000000
# 2 -0.000108 0.019435 -0.005263 0.000000 -0.002343 0.000000
# 3 -0.004447 -0.005263 0.009654 0.000000 0.002519 0.000000
# 4 0.000000 0.000000 0.000000 0.042342 0.000000 -0.006186
# 5 -0.004141 -0.002343 0.002519 0.000000 0.025351 0.000000
# 6 0.000000 0.000000 0.000000 -0.006186 0.000000 0.039657
#
#
# Mechanical properties :
#
#
# Convention : Reuss Voigt Hill
#
# Bulk Modulus (GPa) = 47.23647 62.74973 54.99310
# Shear Modulus (GPa) = 28.59625 32.59522 30.59573
#
# Velocity S-wave (km/s) = 3.62827 3.87367 3.75298
# Velocity P-wave (km/s) = 6.26881 6.99243 6.64048
#
# Compressibility (1/GPa) = 0.02117008
#
# Stress axis : x y z
#
# Youngs Moduli (GPa) = 85.34644 51.45477 103.57988
#
# Poissons Ratio (x) = 0.00556 0.46065
# Poissons Ratio (y) = 0.00921 0.54510
# Poissons Ratio (z) = 0.37956 0.27079
#
# Static dielectric constant tensor:
#      x y z
#    x 4.183460 0.000000 0.162690 
#    y 0.000000 3.846410 0.000000 
#    z 0.162690 0.000000 4.527470 
# 
# 
# High freq. dielectric constant tensor:
#      x y z
#    x 1.862960 0.000000 -0.003380 
#    y 0.000000 1.826390 0.000000 
#    z -0.003380 0.000000 1.884080 
# 
# From -- ./inp_files/50356.got.cif
#   From: 2010.06.25/outbox.cif.g09.slc.cpg/sg15_26_cif.got.tgz:50356.got - 2010.06.28 07:06:18.
