data_PCOD8148711
_publ_section_title
;
Structure prediction by ZEFSAII (Michael W. Deem and Ramdas Pophale) SiO2 
 PCOD8148711
Probable space group: C 2/C
;
_chemical_formula_sum "Si O2"
_cell_formula_units_Z 64
_cell_length_a 26.960045
_cell_length_b 11.820642
_cell_length_c 14.723956
_cell_angle_alpha 90.000000
_cell_angle_beta 142.368336
_cell_angle_gamma 90.000000
_cell_volume 2865.041001
_symmetry_space_group_name_H-M "C 2/C"
_symmetry_group_IT_number 15
_symmetry_cell_setting 'monoclinic'
loop_
_space_group_symop_operation_xyz
x,y,z
-x,y,1/2-z
-x,-y,-z
x,-y,1/2+z
1/2+x,1/2+y,z
1/2-x,1/2+y,1/2-z
1/2-x,1/2-y,-z
1/2+x,1/2-y,1/2+z
loop_
_atom_site_type_symbol
_atom_site_label
_atom_site_fract_x
_atom_site_fract_y
_atom_site_fract_z
Si Si1 0.540435 0.892484 0.598694
Si Si2 0.651034 0.011601 0.409678
Si Si3 0.829178 0.041855 0.725793
Si Si4 0.091256 0.272843 0.363823
Si Si5 0.585929 0.523426 0.324803
Si Si6 0.819414 0.098707 0.389681
Si Si7 0.158728 0.727331 0.153774
Si Si8 0.928199 0.688588 0.081004
O O1 0.616557 0.920055 0.774228
O O2 0.572287 0.815717 0.563813
O O3 0.467276 0.827512 0.540054
O O4 0.500000 0.000000 0.500000
O O5 0.747695 0.017590 0.551569
O O6 0.611119 0.069973 0.441257
O O7 0.630382 0.879056 0.369259
O O8 0.816910 0.163981 0.752544
O O9 0.901843 0.039420 0.755341
O O10 0.844608 0.949939 0.827508
O O11 0.091464 0.156448 0.306901
O O12 0.144142 0.240974 0.528750
O O13 0.000000 0.311530 0.250000
O O14 0.500000 0.494287 0.250000
O O15 0.657267 0.489900 0.498121
O O16 0.723681 0.125235 0.254050
O O17 0.860640 0.217369 0.472525
O O18 0.000000 0.732862 0.250000
#
# Coordination Sequence:
#
# PCOD8148711 Si02
#       8
#     8   8   8   8   8   8   8   8
#     4  11  25  41  69 106 134 184 239 292 357 421
#     4  11  22  44  71 102 141 179 236 299 358 420
#     4  12  27  45  73 108 140 194 238 291 374 428
#     4  11  23  46  69  98 146 187 228 297 359 420
#     4  11  28  47  69 103 146 190 240 297 354 429
#     4  12  25  46  73 102 145 186 235 299 355 431
#     4  12  25  45  73 103 146 185 240 301 357 429
#     4  10  23  42  68 101 136 181 235 295 345 420
#
# _framework density 22.338248
#
# number of rings (size 3 to 8) (size 9 to 14) (size 15 to 20)
#    0.000    0.750    3.750    3.750    5.250    5.000 
#    2.250    0.000    0.000    0.000    0.000    0.000 
#    0.000    0.000    0.000    0.000    0.000    0.000 
#
# Total GULP energy -396793.204629 kJ/mol
# GULP energy per Si atom -12399.787645 kJ/mol
# Density = 2.228740 g / cm^3
# Si number density = 22.338248 Si / 1000 Ang^3
#
#
#
# Elastic Constant Matrix: (Units=GPa)
#
#
# Indices 1 2 3 4 5 6 
#
# 1 100.0365 13.8515 1.8586 0.0000 -0.0984 0.0000
# 2 13.8515 82.1498 3.6158 0.0000 6.6516 0.0000
# 3 1.8586 3.6158 59.0326 0.0000 6.0477 0.0000
# 4 0.0000 0.0000 0.0000 39.7571 0.0000 1.0398
# 5 -0.0984 6.6516 6.0477 0.0000 29.1442 0.0000
# 6 0.0000 0.0000 0.0000 1.0398 0.0000 26.3254
#
#
#
# Elastic Compliance Matrix: (Units=1/GPa)
#
#
# Indices 1 2 3 4 5 6 
#
# 1 0.010245 -0.001755 -0.000265 0.000000 0.000490 0.000000
# 2 -0.001755 0.012716 -0.000435 0.000000 -0.002818 0.000000
# 3 -0.000265 -0.000435 0.017333 0.000000 -0.003498 0.000000
# 4 0.000000 0.000000 0.000000 0.025179 0.000000 -0.000994
# 5 0.000490 -0.002818 -0.003498 0.000000 0.035683 0.000000
# 6 0.000000 0.000000 0.000000 -0.000994 0.000000 0.038025
#
#
# Mechanical properties :
#
#
# Convention : Reuss Voigt Hill
#
# Bulk Modulus (GPa) = 28.26220 31.09675 29.67947
# Shear Modulus (GPa) = 32.07458 33.83822 32.95640
#
# Velocity S-wave (km/s) = 3.79338 3.89628 3.84518
# Velocity P-wave (km/s) = 5.64498 5.84743 5.74709
#
# Compressibility (1/GPa) = 0.03538296
#
# Stress axis : x y z
#
# Youngs Moduli (GPa) = 97.61024 78.63999 57.69283
#
# Poissons Ratio (x) = 0.13805 0.01530
# Poissons Ratio (y) = 0.17135 0.02509
# Poissons Ratio (z) = 0.02589 0.03420
#
# Static dielectric constant tensor:
#      x y z
#    x 3.837720 0.000000 0.123660 
#    y 0.000000 3.755510 0.000000 
#    z 0.123660 0.000000 4.114260 
# 
# 
# High freq. dielectric constant tensor:
#      x y z
#    x 1.872750 0.000000 0.002230 
#    y 0.000000 1.887780 0.000000 
#    z 0.002230 0.000000 1.886380 
# 
# From -- ./inp_files/177846.got.cif
#   From: 2010.06.25/outbox.cif.g09.slc.cpg/sg15_89_cif.got.tgz:177846.got - 2010.06.28 07:06:18.
