data_PCOD8148986
_publ_section_title
;
Structure prediction by ZEFSAII (Michael W. Deem and Ramdas Pophale) SiO2 
 PCOD8148986
Probable space group: C 2/C
;
_chemical_formula_sum "Si O2"
_cell_formula_units_Z 60
_cell_length_a 14.299260
_cell_length_b 19.896295
_cell_length_c 14.509746
_cell_angle_alpha 90.000000
_cell_angle_beta 137.650183
_cell_angle_gamma 90.000000
_cell_volume 2780.887023
_symmetry_space_group_name_H-M "C 2/C"
_symmetry_group_IT_number 15
_symmetry_cell_setting 'monoclinic'
loop_
_space_group_symop_operation_xyz
x,y,z
-x,y,1/2-z
-x,-y,-z
x,-y,1/2+z
1/2+x,1/2+y,z
1/2-x,1/2+y,1/2-z
1/2-x,1/2-y,-z
1/2+x,1/2-y,1/2+z
loop_
_atom_site_type_symbol
_atom_site_label
_atom_site_fract_x
_atom_site_fract_y
_atom_site_fract_z
Si Si1 0.324163 0.942591 0.973965
Si Si2 0.845575 0.070426 0.617025
Si Si3 0.406108 0.763494 0.360883
Si Si4 0.000000 0.502390 0.750000
Si Si5 0.227064 0.707386 0.072588
Si Si6 0.212122 0.887125 0.229253
Si Si7 0.207548 0.533172 0.257062
Si Si8 0.398200 0.640786 0.470973
O O1 0.254412 0.870861 0.937432
O O2 0.363547 0.955585 0.895166
O O3 0.231312 0.000180 0.954858
O O4 0.458985 0.947512 0.136519
O O5 0.779463 0.107940 0.654868
O O6 0.839276 0.123116 0.528725
O O7 0.000000 0.047226 0.750000
O O8 0.353725 0.722818 0.233708
O O9 0.570537 0.776440 0.492634
O O10 0.332874 0.834923 0.296363
O O11 0.356765 0.716911 0.411536
O O12 0.891066 0.453725 0.725092
O O13 0.250000 0.750000 0.000000
O O14 0.236215 0.957495 0.195531
O O15 0.064291 0.861541 0.086157
O O16 0.334373 0.585898 0.354118
#
# Coordination Sequence:
#
# PCOD8148986 Si02
#       8
#     8   8   8   4   8   8   8   8
#     4  11  24  43  66 100 135 175 226 285 344 412
#     4   9  21  42  71 100 131 173 229 287 342 402
#     4  12  25  46  69  98 138 185 226 284 348 412
#     4  12  24  38  68  98 136 170 220 280 356 408
#     4  12  28  45  66  97 140 183 230 275 346 423
#     4  10  23  43  69  99 138 180 226 287 342 411
#     4  11  23  43  68 100 136 177 230 291 341 408
#     4  11  21  44  69  99 135 177 234 281 349 410
#
# _framework density 21.575851
#
# number of rings (size 3 to 8) (size 9 to 14) (size 15 to 20)
#    0.000    1.067    4.000    2.000    3.733    2.667 
#    2.400    0.000    4.400    0.000    0.000    0.000 
#    0.000    0.000    0.000    0.000    0.000    0.000 
#
# Total GULP energy -371763.292851 kJ/mol
# GULP energy per Si atom -12392.109762 kJ/mol
# Density = 2.152674 g / cm^3
# Si number density = 21.575851 Si / 1000 Ang^3
#
#
#
# Elastic Constant Matrix: (Units=GPa)
#
#
# Indices 1 2 3 4 5 6 
#
# 1 84.6175 14.4192 9.8457 0.0000 -14.9952 0.0000
# 2 14.4192 103.8509 6.8110 0.0000 -6.1797 0.0000
# 3 9.8457 6.8110 89.2814 -0.0001 -17.6651 0.0000
# 4 0.0000 0.0000 -0.0001 35.3887 0.0000 -7.9580
# 5 -14.9952 -6.1797 -17.6651 0.0000 29.5508 0.0000
# 6 0.0000 0.0000 0.0000 -7.9580 0.0000 32.5704
#
#
#
# Elastic Compliance Matrix: (Units=1/GPa)
#
#
# Indices 1 2 3 4 5 6 
#
# 1 0.013199 -0.001449 -0.000090 0.000000 0.006341 0.000000
# 2 -0.001449 0.009921 -0.000377 0.000000 0.001114 0.000000
# 3 -0.000090 -0.000377 0.012719 0.000000 0.007479 0.000000
# 4 0.000000 0.000000 0.000000 0.029900 0.000000 0.007306
# 5 0.006341 0.001114 0.007479 0.000000 0.041761 0.000000
# 6 0.000000 0.000000 0.000000 0.007306 0.000000 0.032488
#
#
# Mechanical properties :
#
#
# Convention : Reuss Voigt Hill
#
# Bulk Modulus (GPa) = 31.24365 37.76686 34.50526
# Shear Modulus (GPa) = 32.36445 35.94689 34.15567
#
# Velocity S-wave (km/s) = 3.87723 4.08618 3.98307
# Velocity P-wave (km/s) = 5.87844 6.30910 6.09758
#
# Compressibility (1/GPa) = 0.03200650
#
# Stress axis : x y z
#
# Youngs Moduli (GPa) = 75.76330 100.79194 78.62285
#
# Poissons Ratio (x) = 0.14609 0.00711
# Poissons Ratio (y) = 0.10981 0.02961
# Poissons Ratio (z) = 0.00685 0.03796
#
# Static dielectric constant tensor:
#      x y z
#    x 3.892100 0.000000 -0.155800 
#    y 0.000000 3.938370 0.000000 
#    z -0.155800 0.000000 4.496040 
# 
# 
# High freq. dielectric constant tensor:
#      x y z
#    x 1.834760 0.000000 -0.006730 
#    y 0.000000 1.846270 0.000000 
#    z -0.006730 0.000000 1.867720 
# 
# From -- ./inp_files/156396.got.cif
#   From: 2010.06.25/outbox.cif.g09.slc.cpg/sg15_79_cif.got.tgz:156396.got - 2010.06.28 07:06:18.
