data_PCOD8148690
_publ_section_title
;
Structure prediction by ZEFSAII (Michael W. Deem and Ramdas Pophale) SiO2 
 PCOD8148690
Probable space group: C 2/C
;
_chemical_formula_sum "Si O2"
_cell_formula_units_Z 60
_cell_length_a 24.154977
_cell_length_b 15.004983
_cell_length_c 7.748763
_cell_angle_alpha 90.000000
_cell_angle_beta 90.309316
_cell_angle_gamma 90.000000
_cell_volume 2808.459628
_symmetry_space_group_name_H-M "C 2/C"
_symmetry_group_IT_number 15
_symmetry_cell_setting 'monoclinic'
loop_
_space_group_symop_operation_xyz
x,y,z
-x,y,1/2-z
-x,-y,-z
x,-y,1/2+z
1/2+x,1/2+y,z
1/2-x,1/2+y,1/2-z
1/2-x,1/2-y,-z
1/2+x,1/2-y,1/2+z
loop_
_atom_site_type_symbol
_atom_site_label
_atom_site_fract_x
_atom_site_fract_y
_atom_site_fract_z
Si Si1 0.383215 0.426095 0.209004
Si Si2 0.364823 0.381318 0.579395
Si Si3 0.816206 0.170586 0.420538
Si Si4 0.500000 0.346216 0.250000
Si Si5 0.469940 0.262389 0.584281
Si Si6 0.550982 0.060233 0.939023
Si Si7 0.693946 0.124952 0.507012
Si Si8 0.634260 0.021609 0.208822
O O1 0.345466 0.402421 0.380210
O O2 0.386672 0.529663 0.168884
O O3 0.445782 0.405973 0.264451
O O4 0.363787 0.374037 0.038120
O O5 0.318106 0.347415 0.713610
O O6 0.409102 0.302629 0.572174
O O7 0.759710 0.126609 0.486321
O O8 0.824477 0.275519 0.448288
O O9 0.505923 0.284222 0.416804
O O10 0.500000 0.304849 0.750000
O O11 0.471228 0.157017 0.601592
O O12 0.574561 0.015944 0.767015
O O13 0.609729 0.071894 0.042876
O O14 0.500000 0.000000 0.000000
O O15 0.663517 0.093185 0.332313
O O16 0.677835 0.056546 0.659670
#
# Coordination Sequence:
#
# PCOD8148690 Si02
#       8
#     8   8   8   4   8   8   8   8
#     4  11  24  41  66  96 133 178 224 276 336 407
#     4  11  24  40  66  97 131 177 223 281 331 406
#     4  11  24  47  68 100 133 176 229 283 338 412
#     4  10  26  38  62  94 128 174 216 270 334 400
#     4  11  24  39  61  94 132 175 219 277 330 403
#     4  11  23  40  64  97 129 178 225 269 341 405
#     4  10  25  44  70  97 132 177 221 284 348 395
#     4  10  23  42  67  93 136 171 220 284 330 415
#
# _framework density 21.364024000000001
#
# number of rings (size 3 to 8) (size 9 to 14) (size 15 to 20)
#    0.000    1.333    1.333    2.800    8.400    3.200 
#    2.400    1.333    0.000    0.000    0.000    0.000 
#    0.000    0.000    0.000    0.000    0.000    0.000 
#
# Total GULP energy -371742.906226 kJ/mol
# GULP energy per Si atom -12391.430208 kJ/mol
# Density = 2.131540 g / cm^3
# Si number density = 21.364024 Si / 1000 Ang^3
#
#
#
# Elastic Constant Matrix: (Units=GPa)
#
#
# Indices 1 2 3 4 5 6 
#
# 1 62.3124 27.7652 23.6936 0.0000 -8.1384 0.0000
# 2 27.7652 100.1722 31.5952 0.0000 -5.0694 0.0000
# 3 23.6936 31.5952 119.2567 0.0000 -11.1134 0.0000
# 4 0.0000 0.0000 0.0000 73.0303 0.0000 29.0642
# 5 -8.1384 -5.0694 -11.1134 0.0000 35.2071 0.0000
# 6 0.0000 0.0000 0.0000 29.0642 0.0000 54.1611
#
#
#
# Elastic Compliance Matrix: (Units=1/GPa)
#
#
# Indices 1 2 3 4 5 6 
#
# 1 0.019339 -0.004455 -0.002375 0.000000 0.003079 0.000000
# 2 -0.004455 0.011935 -0.002280 0.000000 -0.000031 0.000000
# 3 -0.002375 -0.002280 0.009664 0.000000 0.002173 0.000000
# 4 0.000000 0.000000 0.000000 0.017411 0.000000 -0.009343
# 5 0.003079 -0.000031 0.002173 0.000000 0.029797 0.000000
# 6 0.000000 0.000000 0.000000 -0.009343 0.000000 0.023477
#
#
# Mechanical properties :
#
#
# Convention : Reuss Voigt Hill
#
# Bulk Modulus (GPa) = 44.01884 49.76104 46.88994
# Shear Modulus (GPa) = 36.38613 45.72550 41.05581
#
# Velocity S-wave (km/s) = 4.13140 4.63136 4.38851
# Velocity P-wave (km/s) = 6.58839 7.20707 6.90466
#
# Compressibility (1/GPa) = 0.02271755
#
# Stress axis : x y z
#
# Youngs Moduli (GPa) = 51.71025 83.78584 103.48101
#
# Poissons Ratio (x) = 0.37329 0.24575
# Poissons Ratio (y) = 0.23038 0.23591
# Poissons Ratio (z) = 0.12280 0.19101
#
# Static dielectric constant tensor:
#      x y z
#    x 3.555400 0.000000 0.218030 
#    y 0.000000 3.588430 0.000000 
#    z 0.218030 0.000000 2.286690 
# 
# 
# High freq. dielectric constant tensor:
#      x y z
#    x 1.824760 0.000000 -0.003430 
#    y 0.000000 1.843470 0.000000 
#    z -0.003430 0.000000 1.860650 
# 
# From -- ./inp_files/61547.got.cif
#   From: 2010.06.25/outbox.cif.g09.slc.cpg/sg15_31_cif.got.tgz:61547.got - 2010.06.28 07:06:18.
