data_PCOD8148458
_publ_section_title
;
Structure prediction by ZEFSAII (Michael W. Deem and Ramdas Pophale) SiO2 
 PCOD8148458
Probable space group: C 2/C
;
_chemical_formula_sum "Si O2"
_cell_formula_units_Z 48
_cell_length_a 12.999192
_cell_length_b 14.030299
_cell_length_c 21.644883
_cell_angle_alpha 90.000000
_cell_angle_beta 144.602305
_cell_angle_gamma 90.000000
_cell_volume 2286.669267
_symmetry_space_group_name_H-M "C 2/C"
_symmetry_group_IT_number 15
_symmetry_cell_setting 'monoclinic'
loop_
_space_group_symop_operation_xyz
x,y,z
-x,y,1/2-z
-x,-y,-z
x,-y,1/2+z
1/2+x,1/2+y,z
1/2-x,1/2+y,1/2-z
1/2-x,1/2-y,-z
1/2+x,1/2-y,1/2+z
loop_
_atom_site_type_symbol
_atom_site_label
_atom_site_fract_x
_atom_site_fract_y
_atom_site_fract_z
Si Si1 0.003315 0.315830 0.471696
Si Si2 0.086602 0.320433 0.932187
Si Si3 0.867744 0.114126 0.982007
Si Si4 0.105447 0.814159 0.240621
Si Si5 0.144417 0.965995 0.159054
Si Si6 0.052417 0.469115 0.398125
O O1 0.009244 0.317866 0.548432
O O2 0.806395 0.297976 0.354079
O O3 0.118829 0.227807 0.503147
O O4 0.066645 0.414618 0.471135
O O5 0.146553 0.428581 0.950639
O O6 0.945137 0.288516 0.811925
O O7 0.250000 0.250000 0.000000
O O8 0.883559 0.089708 0.918042
O O9 0.669726 0.087750 0.906377
O O10 0.026037 0.062421 0.098365
O O11 0.064644 0.899107 0.173168
O O12 0.000000 0.841615 0.250000
O O13 0.351986 0.984725 0.275371
#
# Coordination Sequence:
#
# PCOD8148458 Si02
#       6
#     8   8   8   8   8   8
#     4  11  24  42  65  95 136 174 216 274 333 397
#     4  12  23  41  66  98 129 176 221 275 332 386
#     4  11  22  42  68  94 134 176 219 272 336 397
#     4  11  22  39  66  97 133 168 228 276 327 390
#     4  10  23  41  66 101 132 169 225 278 327 395
#     4  11  25  41  67  98 134 174 220 273 333 396
#
# _framework density 20.991229000000001
#
# number of rings (size 3 to 8) (size 9 to 14) (size 15 to 20)
#    0.000    1.000    3.333    3.500    2.333    1.333 
#    0.000    0.000    0.000    0.000    0.000    0.000 
#    0.000    0.000    0.000    0.000    0.000    0.000 
#
# Total GULP energy -297558.191816 kJ/mol
# GULP energy per Si atom -12398.257992 kJ/mol
# Density = 2.094345 g / cm^3
# Si number density = 20.991229 Si / 1000 Ang^3
#
#
#
# Elastic Constant Matrix: (Units=GPa)
#
#
# Indices 1 2 3 4 5 6 
#
# 1 123.6627 52.3234 45.9622 0.0000 -17.4055 0.0000
# 2 52.3234 140.6521 36.1184 0.0000 1.4926 0.0000
# 3 45.9622 36.1184 65.2847 -0.0003 -3.6539 -0.0001
# 4 0.0000 0.0000 -0.0003 27.7710 0.0000 0.4548
# 5 -17.4055 1.4926 -3.6539 0.0000 31.3071 0.0000
# 6 0.0000 0.0000 -0.0001 0.4548 0.0000 33.5890
#
#
#
# Elastic Compliance Matrix: (Units=1/GPa)
#
#
# Indices 1 2 3 4 5 6 
#
# 1 0.012913 -0.003067 -0.007030 0.000000 0.006505 0.000000
# 2 -0.003067 0.009043 -0.002983 0.000000 -0.002485 0.000000
# 3 -0.007030 -0.002983 0.021849 0.000000 -0.001216 0.000000
# 4 0.000000 0.000000 0.000000 0.036017 0.000000 -0.000488
# 5 0.006505 -0.002485 -0.001216 0.000000 0.035535 0.000000
# 6 0.000000 0.000000 0.000000 -0.000488 0.000000 0.029778
#
#
# Mechanical properties :
#
#
# Convention : Reuss Voigt Hill
#
# Bulk Modulus (GPa) = 56.67338 66.48970 61.58154
# Shear Modulus (GPa) = 28.22062 31.54645 29.88354
#
# Velocity S-wave (km/s) = 3.67058 3.88085 3.77718
# Velocity P-wave (km/s) = 6.70980 7.19897 6.95868
#
# Compressibility (1/GPa) = 0.01764497
#
# Stress axis : x y z
#
# Youngs Moduli (GPa) = 77.44305 110.58141 45.76929
#
# Poissons Ratio (x) = 0.33920 0.32175
# Poissons Ratio (y) = 0.23755 0.13651
# Poissons Ratio (z) = 0.54441 0.32982
#
# Static dielectric constant tensor:
#      x y z
#    x 3.832000 0.000000 -0.071440 
#    y 0.000000 5.774530 0.000000 
#    z -0.071440 0.000000 3.905490 
# 
# 
# High freq. dielectric constant tensor:
#      x y z
#    x 1.829020 0.000000 -0.001540 
#    y 0.000000 1.828820 0.000000 
#    z -0.001540 0.000000 1.825170 
# 
# From -- ./inp_files/144383.got.cif
#   From: 2010.06.25/outbox.cif.g09.slc.cpg/sg15_73_cif.got.tgz:144383.got - 2010.06.28 07:06:18.
