data_PCOD8148993
_publ_section_title
;
Structure prediction by ZEFSAII (Michael W. Deem and Ramdas Pophale) SiO2 
 PCOD8148993
Probable space group: C 2/C
;
_chemical_formula_sum "Si O2"
_cell_formula_units_Z 40
_cell_length_a 12.711982
_cell_length_b 8.777761
_cell_length_c 12.729677
_cell_angle_alpha 90.000000
_cell_angle_beta 104.644658
_cell_angle_gamma 90.000000
_cell_volume 1374.266461
_symmetry_space_group_name_H-M "C 2/C"
_symmetry_group_IT_number 15
_symmetry_cell_setting 'monoclinic'
loop_
_space_group_symop_operation_xyz
x,y,z
-x,y,1/2-z
-x,-y,-z
x,-y,1/2+z
1/2+x,1/2+y,z
1/2-x,1/2+y,1/2-z
1/2-x,1/2-y,-z
1/2+x,1/2-y,1/2+z
loop_
_atom_site_type_symbol
_atom_site_label
_atom_site_fract_x
_atom_site_fract_y
_atom_site_fract_z
Si Si1 0.697655 0.057946 0.850200
Si Si2 0.033404 0.673386 0.402268
Si Si3 0.070520 0.987982 0.143847
Si Si4 0.638951 0.382826 0.886688
Si Si5 0.657571 0.943887 0.107268
O O1 0.825801 0.025970 0.908346
O O2 0.660396 0.203706 0.907529
O O3 0.699356 0.115392 0.729195
O O4 0.615307 0.915649 0.841974
O O5 0.105209 0.694912 0.527436
O O6 0.989812 0.828616 0.342302
O O7 0.929348 0.574497 0.400127
O O8 0.109689 0.072413 0.259416
O O9 0.968784 0.085066 0.068100
O O10 0.746109 0.483864 0.941660
#
# Coordination Sequence:
#
# PCOD8148993 Si02
#       5
#     8   8   8   8   8
#     4  11  24  46  76  95 141 195 221 293 360 401
#     4  11  24  46  73 102 143 187 231 290 347 421
#     4  10  24  43  66 106 137 176 241 284 337 428
#     4  10  23  43  70 106 137 179 242 286 341 422
#     4  10  24  44  72 106 140 183 240 280 352 421
#
# _framework density 29.106437
#
# number of rings (size 3 to 8) (size 9 to 14) (size 15 to 20)
#    0.000    1.600    2.000    0.600   11.200    3.200 
#    0.000    2.000    0.000    0.000    0.000    0.000 
#    0.000    0.000    0.000    0.000    0.000    0.000 
#
# Total GULP energy -247917.087065 kJ/mol
# GULP energy per Si atom -12395.854353 kJ/mol
# Density = 2.904019 g / cm^3
# Si number density = 29.106437 Si / 1000 Ang^3
#
#
#
# Elastic Constant Matrix: (Units=GPa)
#
#
# Indices 1 2 3 4 5 6 
#
# 1 273.9828 67.0258 30.3826 0.0000 22.7629 0.0000
# 2 67.0258 99.3298 1.6746 0.0000 3.2739 0.0000
# 3 30.3826 1.6746 82.6099 0.0000 18.7369 0.0000
# 4 0.0000 0.0000 0.0000 22.5339 0.0000 5.5727
# 5 22.7629 3.2739 18.7369 0.0000 42.7541 0.0000
# 6 0.0000 0.0000 0.0000 5.5727 0.0000 51.7448
#
#
#
# Elastic Compliance Matrix: (Units=1/GPa)
#
#
# Indices 1 2 3 4 5 6 
#
# 1 0.004687 -0.003085 -0.001276 0.000000 -0.001700 0.000000
# 2 -0.003085 0.012124 0.000807 0.000000 0.000361 0.000000
# 3 -0.001276 0.000807 0.013788 0.000000 -0.005425 0.000000
# 4 0.000000 0.000000 0.000000 0.045592 0.000000 -0.004910
# 5 -0.001700 0.000361 -0.005425 0.000000 0.026645 0.000000
# 6 0.000000 0.000000 0.000000 -0.004910 0.000000 0.019854
#
#
# Mechanical properties :
#
#
# Convention : Reuss Voigt Hill
#
# Bulk Modulus (GPa) = 42.56785 72.67650 57.62217
# Shear Modulus (GPa) = 36.32942 47.19586 41.76264
#
# Velocity S-wave (km/s) = 3.53676 4.03114 3.79202
# Velocity P-wave (km/s) = 5.59776 6.83303 6.24600
#
# Compressibility (1/GPa) = 0.02349191
#
# Stress axis : x y z
#
# Youngs Moduli (GPa) = 213.33793 82.48129 72.52439
#
# Poissons Ratio (x) = 0.25449 0.09252
# Poissons Ratio (y) = 0.65824 -0.05854
# Poissons Ratio (z) = 0.27217 -0.06658
#
# Static dielectric constant tensor:
#      x y z
#    x 6.261720 0.000000 0.364530 
#    y 0.000000 4.885660 0.000000 
#    z 0.364530 0.000000 5.971720 
# 
# 
# High freq. dielectric constant tensor:
#      x y z
#    x 2.213240 0.000000 0.007590 
#    y 0.000000 2.155600 0.000000 
#    z 0.007590 0.000000 2.225430 
# 
# From -- ./inp_files/202830.got.cif
#   From: 2010.06.25/outbox.cif.g09.slc.cpg/sg15_102_cif.got.tgz:202830.got - 2010.06.28 07:06:18.
