data_PCOD8148424
_publ_section_title
;
Structure prediction by ZEFSAII (Michael W. Deem and Ramdas Pophale) SiO2 
 PCOD8148424
Probable space group: C 2/C
;
_chemical_formula_sum "Si O2"
_cell_formula_units_Z 48
_cell_length_a 28.245171
_cell_length_b 8.898773
_cell_length_c 15.267354
_cell_angle_alpha 90.000000
_cell_angle_beta 28.807199
_cell_angle_gamma 90.000000
_cell_volume 1849.108483
_symmetry_space_group_name_H-M "C 2/C"
_symmetry_group_IT_number 15
_symmetry_cell_setting 'monoclinic'
loop_
_space_group_symop_operation_xyz
x,y,z
-x,y,1/2-z
-x,-y,-z
x,-y,1/2+z
1/2+x,1/2+y,z
1/2-x,1/2+y,1/2-z
1/2-x,1/2-y,-z
1/2+x,1/2-y,1/2+z
loop_
_atom_site_type_symbol
_atom_site_label
_atom_site_fract_x
_atom_site_fract_y
_atom_site_fract_z
Si Si1 0.509857 0.675701 0.348615
Si Si2 0.663201 0.564454 0.620341
Si Si3 0.321821 0.465333 0.095648
Si Si4 0.948160 0.677575 0.125133
Si Si5 0.660053 0.252007 0.821326
Si Si6 0.843538 0.393058 0.349431
O O1 0.562738 0.527058 0.300093
O O2 0.425432 0.628311 0.415617
O O3 0.453895 0.757224 0.518546
O O4 0.594478 0.797016 0.178187
O O5 0.694833 0.557447 0.466801
O O6 0.643062 0.735575 0.680192
O O7 0.752176 0.489921 0.533269
O O8 0.328043 0.575761 0.168373
O O9 0.232049 0.353589 0.261432
O O10 0.920077 0.501482 0.172735
O O11 0.047490 0.704034 0.019681
O O12 0.691153 0.231174 0.667890
#
# Coordination Sequence:
#
# PCOD8148424 Si02
#       6
#     8   8   8   8   8   8
#     4  11  22  41  68  95 129 173 217 269 322 392
#     4  11  23  43  65  98 134 175 216 270 333 390
#     4  11  25  41  68  95 137 175 219 276 336 390
#     4  11  23  43  72  95 130 173 226 268 324 396
#     4  10  23  41  64  96 127 172 221 269 327 393
#     4  10  24  42  68  99 128 168 228 270 319 397
#
# _framework density 25.958454
#
# number of rings (size 3 to 8) (size 9 to 14) (size 15 to 20)
#    0.000    1.333    1.667    4.000    9.333    0.000 
#    0.000    0.000    7.333    0.000    0.000    0.000 
#    0.000    0.000    0.000    0.000    0.000    0.000 
#
# Total GULP energy -297543.283708 kJ/mol
# GULP energy per Si atom -12397.636821 kJ/mol
# Density = 2.589937 g / cm^3
# Si number density = 25.958454 Si / 1000 Ang^3
#
#
#
# Elastic Constant Matrix: (Units=GPa)
#
#
# Indices 1 2 3 4 5 6 
#
# 1 68.8003 33.9521 22.1190 0.0000 -22.3158 0.0000
# 2 33.9521 96.7989 4.1222 -0.0001 -14.9527 0.0000
# 3 22.1190 4.1222 72.5315 0.0000 -27.9875 0.0000
# 4 0.0000 -0.0001 0.0000 50.8153 0.0000 -2.0609
# 5 -22.3158 -14.9527 -27.9875 0.0000 41.6156 0.0000
# 6 0.0000 0.0000 0.0000 -2.0609 0.0000 39.8313
#
#
#
# Elastic Compliance Matrix: (Units=1/GPa)
#
#
# Indices 1 2 3 4 5 6 
#
# 1 0.020822 -0.006129 -0.003434 0.000000 0.006654 0.000000
# 2 -0.006129 0.012821 0.002228 0.000000 0.002818 0.000000
# 3 -0.003434 0.002228 0.019320 0.000000 0.011952 0.000000
# 4 0.000000 0.000000 0.000000 0.019720 0.000000 0.001020
# 5 0.006654 0.002818 0.011952 0.000000 0.036648 0.000000
# 6 0.000000 0.000000 0.000000 0.001020 0.000000 0.025159
#
#
# Mechanical properties :
#
#
# Convention : Reuss Voigt Hill
#
# Bulk Modulus (GPa) = 26.11510 39.83525 32.97518
# Shear Modulus (GPa) = 30.87877 38.31495 34.59686
#
# Velocity S-wave (km/s) = 3.45272 3.84606 3.65468
# Velocity P-wave (km/s) = 5.09679 5.92469 5.52626
#
# Compressibility (1/GPa) = 0.03829202
#
# Stress axis : x y z
#
# Youngs Moduli (GPa) = 48.02703 77.99730 51.76091
#
# Poissons Ratio (x) = 0.47806 0.17774
# Poissons Ratio (y) = 0.29436 -0.11532
# Poissons Ratio (z) = 0.16492 -0.17378
#
# Static dielectric constant tensor:
#      x y z
#    x 4.323760 0.000000 -0.534320 
#    y 0.000000 4.809490 0.000000 
#    z -0.534320 0.000000 4.821640 
# 
# 
# High freq. dielectric constant tensor:
#      x y z
#    x 2.004530 0.000000 -0.026060 
#    y 0.000000 2.053810 0.000000 
#    z -0.026060 0.000000 2.059460 
# 
# From -- ./inp_files/224518.got.cif
#   From: 2010.06.25/outbox.cif.g09.slc.cpg/sg15_113_cif.got.tgz:224518.got - 2010.06.28 07:06:18.
