data_PCOD8148803
_publ_section_title
;
Structure prediction by ZEFSAII (Michael W. Deem and Ramdas Pophale) SiO2 
 PCOD8148803
Probable space group: C 2/C
;
_chemical_formula_sum "Si O2"
_cell_formula_units_Z 40
_cell_length_a 17.070498
_cell_length_b 14.288705
_cell_length_c 14.470887
_cell_angle_alpha 90.000000
_cell_angle_beta 29.576999
_cell_angle_gamma 90.000000
_cell_volume 1742.220046
_symmetry_space_group_name_H-M "C 2/C"
_symmetry_group_IT_number 15
_symmetry_cell_setting 'monoclinic'
loop_
_space_group_symop_operation_xyz
x,y,z
-x,y,1/2-z
-x,-y,-z
x,-y,1/2+z
1/2+x,1/2+y,z
1/2-x,1/2+y,1/2-z
1/2-x,1/2-y,-z
1/2+x,1/2-y,1/2+z
loop_
_atom_site_type_symbol
_atom_site_label
_atom_site_fract_x
_atom_site_fract_y
_atom_site_fract_z
Si Si1 0.106061 0.874535 0.354340
Si Si2 0.703243 0.003451 0.204620
Si Si3 0.747957 0.309235 0.757615
Si Si4 0.845544 0.002343 0.867223
Si Si5 0.573554 0.875750 0.078583
O O1 0.230888 0.789278 0.212332
O O2 0.092770 0.916681 0.264993
O O3 0.936748 0.834120 0.560931
O O4 0.160646 0.950693 0.374928
O O5 0.656522 0.101553 0.299556
O O6 0.554621 0.934128 0.348334
O O7 0.755045 0.039275 0.050481
O O8 0.846842 0.290405 0.559902
O O9 0.000000 0.948296 0.750000
O O10 0.728094 0.938970 0.930939
O O11 0.500000 0.838382 0.250000
#
# Coordination Sequence:
#
# PCOD8148803 Si02
#       5
#     8   8   8   8   8
#     4  12  26  43  72 104 137 186 227 282 347 407
#     4  11  23  45  71  97 140 182 229 285 340 407
#     4  12  24  43  69  99 142 176 228 284 340 406
#     4  11  22  43  68 101 137 181 229 272 340 408
#     4  10  23  42  73 100 133 182 233 283 344 400
#
# _framework density 22.959212999999998
#
# number of rings (size 3 to 8) (size 9 to 14) (size 15 to 20)
#    0.000    0.800    4.000    3.600    2.800    0.800 
#    0.000   10.000    0.000    0.000    0.000    0.000 
#    0.000    0.000    0.000    0.000    0.000    0.000 
#
# Total GULP energy -247777.841274 kJ/mol
# GULP energy per Si atom -12388.892064 kJ/mol
# Density = 2.290696 g / cm^3
# Si number density = 22.959213 Si / 1000 Ang^3
#
#
#
# Elastic Constant Matrix: (Units=GPa)
#
#
# Indices 1 2 3 4 5 6 
#
# 1 112.2454 28.2773 40.5733 -0.0001 -9.5477 0.0003
# 2 28.2773 59.5300 19.6722 -0.0005 10.0037 0.0010
# 3 40.5733 19.6722 112.7093 -0.0006 6.5106 0.0010
# 4 -0.0001 -0.0005 -0.0006 17.8599 0.0000 -6.3765
# 5 -9.5477 10.0037 6.5106 0.0000 37.5939 -0.0002
# 6 0.0003 0.0010 0.0010 -6.3765 -0.0002 23.3228
#
#
#
# Elastic Compliance Matrix: (Units=1/GPa)
#
#
# Indices 1 2 3 4 5 6 
#
# 1 0.012027 -0.005353 -0.003691 0.000000 0.005118 0.000000
# 2 -0.005353 0.020907 -0.001335 0.000000 -0.006692 -0.000001
# 3 -0.003691 -0.001335 0.010573 0.000000 -0.002413 0.000000
# 4 0.000000 0.000000 0.000000 0.062048 0.000000 0.016964
# 5 0.005118 -0.006692 -0.002413 0.000000 0.030099 0.000001
# 6 0.000000 -0.000001 0.000000 0.016964 0.000001 0.047515
#
#
# Mechanical properties :
#
#
# Convention : Reuss Voigt Hill
#
# Bulk Modulus (GPa) = 43.95938 51.28115 47.62027
# Shear Modulus (GPa) = 23.63943 28.81943 26.22943
#
# Velocity S-wave (km/s) = 3.21226 3.54679 3.38366
# Velocity P-wave (km/s) = 5.73990 6.25757 6.00432
#
# Compressibility (1/GPa) = 0.02274827
#
# Stress axis : x y z
#
# Youngs Moduli (GPa) = 83.14475 47.83093 94.57608
#
# Poissons Ratio (x) = 0.25606 0.34907
# Poissons Ratio (y) = 0.44511 0.12630
# Poissons Ratio (z) = 0.30687 0.06387
#
# Static dielectric constant tensor:
#      x y z
#    x 4.560800 0.000000 0.085170 
#    y 0.000000 3.937720 0.000000 
#    z 0.085170 0.000000 4.373440 
# 
# 
# High freq. dielectric constant tensor:
#      x y z
#    x 1.918690 0.000000 -0.000640 
#    y 0.000000 1.876810 0.000000 
#    z -0.000640 0.000000 1.934360 
# 
# From -- ./inp_files/46913.got.cif
#   From: 2010.06.25/outbox.cif.g09.slc.cpg/sg15_24_cif.got.tgz:46913.got - 2010.06.28 07:06:18.
