data_PCOD8148370
_publ_section_title
;
Structure prediction by ZEFSAII (Michael W. Deem and Ramdas Pophale) SiO2 
 PCOD8148370
Probable space group: C 2/C
;
_chemical_formula_sum "Si O2"
_cell_formula_units_Z 60
_cell_length_a 20.436968
_cell_length_b 16.594759
_cell_length_c 9.465854
_cell_angle_alpha 90.000000
_cell_angle_beta 72.291884
_cell_angle_gamma 90.000000
_cell_volume 3058.202115
_symmetry_space_group_name_H-M "C 2/C"
_symmetry_group_IT_number 15
_symmetry_cell_setting 'monoclinic'
loop_
_space_group_symop_operation_xyz
x,y,z
-x,y,1/2-z
-x,-y,-z
x,-y,1/2+z
1/2+x,1/2+y,z
1/2-x,1/2+y,1/2-z
1/2-x,1/2-y,-z
1/2+x,1/2-y,1/2+z
loop_
_atom_site_type_symbol
_atom_site_label
_atom_site_fract_x
_atom_site_fract_y
_atom_site_fract_z
Si Si1 0.067930 0.949917 0.924770
Si Si2 0.650311 0.540659 0.094454
Si Si3 0.000000 0.652943 0.250000
Si Si4 0.361700 0.908904 0.750557
Si Si5 0.303509 0.263151 0.341184
Si Si6 0.300794 0.973446 0.512226
Si Si7 0.558429 0.693377 0.614269
Si Si8 0.736692 0.329893 0.422135
O O1 0.089582 0.956316 0.748172
O O2 0.058498 0.854839 0.966654
O O3 0.128901 0.982351 0.982173
O O4 0.000000 0.000000 0.000000
O O5 0.722108 0.505773 0.111327
O O6 0.664573 0.630511 0.022963
O O7 0.944191 0.597701 0.208965
O O8 0.962041 0.711812 0.390785
O O9 0.327363 0.821515 0.759647
O O10 0.346324 0.959252 0.620503
O O11 0.333091 0.952326 0.907999
O O12 0.250000 0.250000 0.500000
O O13 0.368095 0.313604 0.356808
O O14 0.266311 0.313223 0.242485
O O15 0.298293 0.893742 0.413116
O O16 0.500000 0.650772 0.750000
O O17 0.750000 0.250000 0.500000
#
# Coordination Sequence:
#
# PCOD8148370 Si02
#       8
#     8   8   4   8   8   8   8   8
#     4  12  24  40  59  92 128 179 220 265 321 393
#     4  10  25  37  62  90 133 164 216 269 325 381
#     4   8  22  44  64  90 126 168 214 272 320 396
#     4  11  22  43  62  97 123 170 207 268 327 386
#     4  11  24  37  70  92 126 169 221 264 327 390
#     4  10  24  38  66  94 131 157 217 266 328 388
#     4   9  22  39  61  89 125 168 214 268 317 394
#     4  10  23  41  61  95 132 167 199 274 331 373
#
# _framework density 19.619371000000001
#
# number of rings (size 3 to 8) (size 9 to 14) (size 15 to 20)
#    1.200    0.533    1.333    2.000   11.200    0.533 
#    0.000    0.000    0.000    0.000    0.000    0.000 
#    0.000    0.000    0.000    0.000    0.000    0.000 
#
# Total GULP energy -371857.364058 kJ/mol
# GULP energy per Si atom -12395.245469 kJ/mol
# Density = 1.957472 g / cm^3
# Si number density = 19.619371 Si / 1000 Ang^3
#
#
#
# Elastic Constant Matrix: (Units=GPa)
#
#
# Indices 1 2 3 4 5 6 
#
# 1 116.1614 23.3874 36.8483 0.0000 -1.1727 0.0000
# 2 23.3874 60.0848 21.1923 0.0000 -1.5005 0.0000
# 3 36.8483 21.1923 111.0322 0.0000 -1.0961 0.0000
# 4 0.0000 0.0000 0.0000 40.5139 0.0000 4.7150
# 5 -1.1727 -1.5005 -1.0961 0.0000 22.9157 0.0000
# 6 0.0000 0.0000 0.0000 4.7150 0.0000 30.4968
#
#
#
# Elastic Compliance Matrix: (Units=1/GPa)
#
#
# Indices 1 2 3 4 5 6 
#
# 1 0.010086 -0.002939 -0.002784 0.000000 0.000191 0.000000
# 2 -0.002939 0.018724 -0.002589 0.000000 0.000952 0.000000
# 3 -0.002784 -0.002589 0.010426 0.000000 0.000187 0.000000
# 4 0.000000 0.000000 0.000000 0.025135 0.000000 -0.003886
# 5 0.000191 0.000952 0.000187 0.000000 0.043719 0.000000
# 6 0.000000 0.000000 0.000000 -0.003886 0.000000 0.033391
#
#
# Mechanical properties :
#
#
# Convention : Reuss Voigt Hill
#
# Bulk Modulus (GPa) = 44.22523 50.01493 47.12008
# Shear Modulus (GPa) = 30.18540 32.50866 31.34703
#
# Velocity S-wave (km/s) = 3.92669 4.07500 4.00153
# Velocity P-wave (km/s) = 6.56880 6.90571 6.73936
#
# Compressibility (1/GPa) = 0.02261153
#
# Stress axis : x y z
#
# Youngs Moduli (GPa) = 99.15171 53.40734 95.91018
#
# Poissons Ratio (x) = 0.15696 0.26704
# Poissons Ratio (y) = 0.29140 0.24832
# Poissons Ratio (z) = 0.27607 0.13827
#
# Static dielectric constant tensor:
#      x y z
#    x 3.611120 0.000000 0.008340 
#    y 0.000000 3.576790 0.000000 
#    z 0.008340 0.000000 3.352350 
# 
# 
# High freq. dielectric constant tensor:
#      x y z
#    x 1.764150 0.000000 0.003790 
#    y 0.000000 1.765520 0.000000 
#    z 0.003790 0.000000 1.746020 
# 
# From -- ./inp_files/56545.got.cif
#   From: 2010.06.25/outbox.cif.g09.slc.cpg/sg15_29_cif.got.tgz:56545.got - 2010.06.28 07:06:18.
