data_PCOD8148500
_publ_section_title
;
Structure prediction by ZEFSAII (Michael W. Deem and Ramdas Pophale) SiO2 
 PCOD8148500
Probable space group: C 2/C
;
_chemical_formula_sum "Si O2"
_cell_formula_units_Z 48
_cell_length_a 19.288416
_cell_length_b 9.429574
_cell_length_c 19.154666
_cell_angle_alpha 90.000000
_cell_angle_beta 40.389642
_cell_angle_gamma 90.000000
_cell_volume 2257.492464
_symmetry_space_group_name_H-M "C 2/C"
_symmetry_group_IT_number 15
_symmetry_cell_setting 'monoclinic'
loop_
_space_group_symop_operation_xyz
x,y,z
-x,y,1/2-z
-x,-y,-z
x,-y,1/2+z
1/2+x,1/2+y,z
1/2-x,1/2+y,1/2-z
1/2-x,1/2-y,-z
1/2+x,1/2-y,1/2+z
loop_
_atom_site_type_symbol
_atom_site_label
_atom_site_fract_x
_atom_site_fract_y
_atom_site_fract_z
Si Si1 0.393943 0.343999 0.122550
Si Si2 0.868397 0.091089 0.045995
Si Si3 0.221502 0.854987 0.148467
Si Si4 0.823743 0.961250 0.942366
Si Si5 0.405877 0.153206 0.874140
Si Si6 0.594119 0.923987 0.969162
O O1 0.337879 0.481595 0.131009
O O2 0.367107 0.342553 0.224209
O O3 0.352735 0.204643 0.114626
O O4 0.521881 0.335079 0.014999
O O5 0.774183 0.200515 0.100800
O O6 0.890586 0.002741 0.959049
O O7 0.162483 0.911448 0.124221
O O8 0.311735 0.965547 0.097962
O O9 0.874777 0.814078 0.876803
O O10 0.698486 0.943664 0.058008
O O11 0.500000 0.101942 0.750000
O O12 0.443869 0.132962 0.925468
O O13 0.500000 0.000000 0.000000
#
# Coordination Sequence:
#
# PCOD8148500 Si02
#       6
#     8   8   8   8   8   8
#     4  11  24  40  66  94 127 173 208 265 326 376
#     4  11  23  43  61  93 131 162 213 268 316 381
#     4  11  24  40  66  94 126 170 210 265 323 376
#     4  10  23  43  61  95 129 162 219 265 309 390
#     4  10  23  41  68  93 126 175 211 262 322 379
#     4  11  22  45  64  95 134 162 218 263 310 388
#
# _framework density 21.262530000000002
#
# number of rings (size 3 to 8) (size 9 to 14) (size 15 to 20)
#    0.000    1.333    3.333    1.500    2.333    2.667 
#    0.000    0.000    0.000    0.000    0.000    0.000 
#    0.000    0.000    0.000    0.000    0.000    0.000 
#
# Total GULP energy -297613.480673 kJ/mol
# GULP energy per Si atom -12400.561695 kJ/mol
# Density = 2.121414 g / cm^3
# Si number density = 21.262530 Si / 1000 Ang^3
#
#
#
# Elastic Constant Matrix: (Units=GPa)
#
#
# Indices 1 2 3 4 5 6 
#
# 1 83.5021 14.9806 12.5009 0.0000 15.8747 0.0000
# 2 14.9806 93.7452 24.7833 -0.0001 8.0830 0.0001
# 3 12.5009 24.7833 98.8410 0.0000 23.6421 0.0000
# 4 0.0000 -0.0001 0.0000 20.5631 0.0000 7.5278
# 5 15.8747 8.0830 23.6421 0.0000 27.5479 0.0000
# 6 0.0000 0.0001 0.0000 7.5278 0.0000 44.2898
#
#
#
# Elastic Compliance Matrix: (Units=1/GPa)
#
#
# Indices 1 2 3 4 5 6 
#
# 1 0.013688 -0.001658 0.000572 0.000000 -0.007893 0.000000
# 2 -0.001658 0.011653 -0.002671 0.000000 -0.000171 0.000000
# 3 0.000572 -0.002671 0.013346 0.000000 -0.011000 0.000000
# 4 0.000000 0.000000 0.000000 0.051857 0.000000 -0.008814
# 5 -0.007893 -0.000171 -0.011000 0.000000 0.050339 0.000000
# 6 0.000000 0.000000 0.000000 -0.008814 0.000000 0.024077
#
#
# Mechanical properties :
#
#
# Convention : Reuss Voigt Hill
#
# Bulk Modulus (GPa) = 32.07918 42.29086 37.18502
# Shear Modulus (GPa) = 27.34265 33.40173 30.37219
#
# Velocity S-wave (km/s) = 3.58991 3.96778 3.78357
# Velocity P-wave (km/s) = 5.68359 6.39719 6.05092
#
# Compressibility (1/GPa) = 0.03117286
#
# Stress axis : x y z
#
# Youngs Moduli (GPa) = 73.05672 85.81377 74.93072
#
# Poissons Ratio (x) = 0.14229 -0.04289
# Poissons Ratio (y) = 0.12114 0.20016
# Poissons Ratio (z) = -0.04182 0.22923
#
# Static dielectric constant tensor:
#      x y z
#    x 1.002280 -0.000010 1.230610 
#    y -0.000010 4.826610 0.000000 
#    z 1.230610 0.000000 3.195450 
# 
# 
# High freq. dielectric constant tensor:
#      x y z
#    x 1.840880 0.000000 0.010150 
#    y 0.000000 1.845400 0.000000 
#    z 0.010150 0.000000 1.816140 
# 
# From -- ./inp_files/251792.got.cif
#   From: 2010.06.25/outbox.cif.g09.slc.cpg/sg15_126_cif.got.tgz:251792.got - 2010.06.28 07:06:18.
