data_PCOD8148513
_publ_section_title
;
Structure prediction by ZEFSAII (Michael W. Deem and Ramdas Pophale) SiO2 
 PCOD8148513
Probable space group: C 2/C
;
_chemical_formula_sum "Si O2"
_cell_formula_units_Z 56
_cell_length_a 18.266902
_cell_length_b 16.052525
_cell_length_c 16.534851
_cell_angle_alpha 90.000000
_cell_angle_beta 30.961287
_cell_angle_gamma 90.000000
_cell_volume 2494.360016
_symmetry_space_group_name_H-M "C 2/C"
_symmetry_group_IT_number 15
_symmetry_cell_setting 'monoclinic'
loop_
_space_group_symop_operation_xyz
x,y,z
-x,y,1/2-z
-x,-y,-z
x,-y,1/2+z
1/2+x,1/2+y,z
1/2-x,1/2+y,1/2-z
1/2-x,1/2-y,-z
1/2+x,1/2-y,1/2+z
loop_
_atom_site_type_symbol
_atom_site_label
_atom_site_fract_x
_atom_site_fract_y
_atom_site_fract_z
Si Si1 0.644255 0.085022 0.539875
Si Si2 0.923474 0.422964 0.111927
Si Si3 0.000000 0.273050 0.250000
Si Si4 0.975721 0.686130 0.123457
Si Si5 0.156192 0.170263 0.411690
Si Si6 0.500000 0.062025 0.250000
Si Si7 0.876372 0.013208 0.552390
Si Si8 0.424245 0.637479 0.193809
O O1 0.499914 0.093474 0.624186
O O2 0.637304 0.168147 0.601394
O O3 0.784983 0.085678 0.352602
O O4 0.634170 0.999552 0.602527
O O5 0.757842 0.441627 0.280339
O O6 0.000000 0.500000 0.000000
O O7 0.940770 0.346517 0.034401
O O8 0.046092 0.218148 0.282033
O O9 0.813774 0.708217 0.256054
O O10 0.974874 0.620663 0.197236
O O11 0.059180 0.772423 0.062896
O O12 0.090397 0.166869 0.384422
O O13 0.165668 0.077713 0.442179
O O14 0.941634 0.074349 0.422159
O O15 0.000000 0.000000 0.500000
#
# Coordination Sequence:
#
# PCOD8148513 Si02
#       8
#     8   8   4   8   8   4   8   8
#     4  11  23  45  70 101 139 181 234 278 344 429
#     4  12  20  43  75  97 130 180 236 278 334 414
#     4  11  26  40  63 106 152 176 213 290 358 423
#     4  12  26  43  71 100 138 181 230 287 342 408
#     4  11  25  44  67 101 132 178 238 281 332 409
#     4  11  26  42  69 102 132 188 227 276 354 405
#     4  10  23  41  69 103 130 173 234 288 337 397
#     4  11  24  43  69 101 138 181 226 285 352 406
#
# _framework density 22.450648000000001
#
# number of rings (size 3 to 8) (size 9 to 14) (size 15 to 20)
#    0.000    0.857    4.286    2.143    4.000    5.143 
#    0.000    0.714    0.000    0.000    0.000    0.000 
#    0.000    0.000    0.000    0.000    0.000    0.000 
#
# Total GULP energy -347150.525649 kJ/mol
# GULP energy per Si atom -12398.233059 kJ/mol
# Density = 2.239955 g / cm^3
# Si number density = 22.450648 Si / 1000 Ang^3
#
#
#
# Elastic Constant Matrix: (Units=GPa)
#
#
# Indices 1 2 3 4 5 6 
#
# 1 57.7929 48.7232 43.9353 0.0012 3.9158 -0.0006
# 2 48.7232 135.5810 68.1381 0.0020 2.2989 -0.0014
# 3 43.9353 68.1381 157.1716 0.0032 -23.4186 -0.0030
# 4 0.0012 0.0020 0.0032 46.3736 -0.0023 4.7611
# 5 3.9158 2.2989 -23.4186 -0.0023 38.8970 0.0016
# 6 -0.0006 -0.0014 -0.0030 4.7611 0.0016 32.6554
#
#
#
# Elastic Compliance Matrix: (Units=1/GPa)
#
#
# Indices 1 2 3 4 5 6 
#
# 1 0.027955 -0.007149 -0.005571 0.000000 -0.005746 0.000000
# 2 -0.007149 0.011664 -0.003355 0.000000 -0.001990 0.000000
# 3 -0.005571 -0.003355 0.010423 0.000000 0.007034 0.000000
# 4 0.000000 0.000000 0.000000 0.021892 0.000001 -0.003192
# 5 -0.005746 -0.001990 0.007034 0.000001 0.030640 -0.000001
# 6 0.000000 0.000000 0.000000 -0.003192 -0.000001 0.031088
#
#
# Mechanical properties :
#
#
# Convention : Reuss Voigt Hill
#
# Bulk Modulus (GPa) = 55.89219 74.68209 65.28714
# Shear Modulus (GPa) = 29.10774 36.23511 32.67143
#
# Velocity S-wave (km/s) = 3.60463 4.02181 3.81892
# Velocity P-wave (km/s) = 6.50185 7.40971 6.97058
#
# Compressibility (1/GPa) = 0.01789159
#
# Stress axis : x y z
#
# Youngs Moduli (GPa) = 35.77216 85.73047 95.94613
#
# Poissons Ratio (x) = 0.61285 0.53456
# Poissons Ratio (y) = 0.25572 0.32190
# Poissons Ratio (z) = 0.19930 0.28763
#
# Static dielectric constant tensor:
#      x y z
#    x 3.699760 -0.000020 0.071960 
#    y -0.000020 5.269190 0.000070 
#    z 0.071960 0.000070 2.995980 
# 
# 
# High freq. dielectric constant tensor:
#      x y z
#    x 1.865780 0.000000 -0.004050 
#    y 0.000000 1.902120 0.000000 
#    z -0.004050 0.000000 1.890940 
# 
# From -- ./inp_files/215753.got.cif
#   From: 2010.06.25/outbox.cif.g09.slc.cpg/sg15_108_cif.got.tgz:215753.got - 2010.06.28 07:06:18.
