data_PCOD8148054
_publ_section_title
;
Structure prediction by ZEFSAII (Michael W. Deem and Ramdas Pophale) SiO2 
 PCOD8148054
Probable space group: C 2/C
;
_chemical_formula_sum "Si O2"
_cell_formula_units_Z 64
_cell_length_a 17.467207
_cell_length_b 21.657320
_cell_length_c 17.563017
_cell_angle_alpha 90.000000
_cell_angle_beta 29.748664
_cell_angle_gamma 90.000000
_cell_volume 3296.710324
_symmetry_space_group_name_H-M "C 2/C"
_symmetry_group_IT_number 15
_symmetry_cell_setting 'monoclinic'
loop_
_space_group_symop_operation_xyz
x,y,z
-x,y,1/2-z
-x,-y,-z
x,-y,1/2+z
1/2+x,1/2+y,z
1/2-x,1/2+y,1/2-z
1/2-x,1/2-y,-z
1/2+x,1/2-y,1/2+z
loop_
_atom_site_type_symbol
_atom_site_label
_atom_site_fract_x
_atom_site_fract_y
_atom_site_fract_z
Si Si1 0.323316 0.989775 0.566670
Si Si2 0.350623 0.749387 0.841086
Si Si3 0.014010 0.041192 0.413521
Si Si4 0.655614 0.520893 0.568028
Si Si5 0.519862 0.095210 0.457483
Si Si6 0.261577 0.124520 0.366775
Si Si7 0.506194 0.670861 0.490867
Si Si8 0.809048 0.292012 0.169123
O O1 0.170837 0.982697 0.745340
O O2 0.439705 0.936942 0.496193
O O3 0.281527 0.986921 0.513232
O O4 0.389001 0.057404 0.526794
O O5 0.500000 0.718603 0.750000
O O6 0.376102 0.819601 0.789895
O O7 0.274677 0.709648 0.840179
O O8 0.250000 0.750000 0.000000
O O9 0.010775 0.114799 0.427353
O O10 0.000000 0.000000 0.500000
O O11 0.879253 0.026724 0.469685
O O12 0.500000 0.539572 0.750000
O O13 0.743029 0.578828 0.453965
O O14 0.668226 0.096957 0.272737
O O15 0.451063 0.161003 0.540130
O O16 0.087140 0.148390 0.499494
O O17 0.326682 0.689233 0.655481
O O18 0.611865 0.728253 0.371122
#
# Coordination Sequence:
#
# PCOD8148054 Si02
#       8
#     8   8   8   8   8   8   8   8
#     4  10  23  38  61  90 122 164 202 261 310 363
#     4  11  23  37  51  81 124 164 196 244 292 354
#     4  11  19  40  64  91 122 160 207 256 312 371
#     4  10  23  37  60  94 122 158 203 256 314 361
#     4  11  22  41  61  88 126 165 209 252 308 364
#     4  11  22  37  59  86 126 167 203 247 299 374
#     4  11  22  39  64  88 122 161 208 253 299 373
#     4  11  24  39  60  91 118 166 210 246 307 366
#
# _framework density 19.413291999999998
#
# number of rings (size 3 to 8) (size 9 to 14) (size 15 to 20)
#    0.000    1.250    2.500    4.500    5.250    1.500 
#    0.000    0.000    0.000    0.750    0.000    0.000 
#    0.000    0.000    0.000    0.000    0.000    0.000 
#
# Total GULP energy -396512.496987 kJ/mol
# GULP energy per Si atom -12391.015531 kJ/mol
# Density = 1.936911 g / cm^3
# Si number density = 19.413292 Si / 1000 Ang^3
#
#
#
# Elastic Constant Matrix: (Units=GPa)
#
#
# Indices 1 2 3 4 5 6 
#
# 1 115.4784 47.2976 21.9110 0.0055 -4.5706 0.0058
# 2 47.2976 107.6112 30.5538 0.0023 0.8285 0.0196
# 3 21.9110 30.5538 86.3922 -0.0072 -0.4453 0.0357
# 4 0.0055 0.0023 -0.0072 28.5901 0.0172 1.7366
# 5 -4.5706 0.8285 -0.4453 0.0172 23.1785 -0.0210
# 6 0.0058 0.0196 0.0357 1.7366 -0.0210 24.2378
#
#
#
# Elastic Compliance Matrix: (Units=1/GPa)
#
#
# Indices 1 2 3 4 5 6 
#
# 1 0.010782 -0.004428 -0.001157 -0.000004 0.002262 0.000005
# 2 -0.004428 0.012153 -0.003182 0.000000 -0.001369 -0.000005
# 3 -0.001157 -0.003182 0.012995 0.000005 0.000135 -0.000016
# 4 -0.000004 0.000000 0.000005 0.035130 -0.000029 -0.002517
# 5 0.002262 -0.001369 0.000135 -0.000029 0.043641 0.000040
# 6 0.000005 -0.000005 -0.000016 -0.002517 0.000040 0.041438
#
#
# Mechanical properties :
#
#
# Convention : Reuss Voigt Hill
#
# Bulk Modulus (GPa) = 54.36014 56.55630 55.45822
# Shear Modulus (GPa) = 27.80785 29.18257 28.49521
#
# Velocity S-wave (km/s) = 3.78883 3.88135 3.83537
# Velocity P-wave (km/s) = 6.87041 7.02015 6.94569
#
# Compressibility (1/GPa) = 0.01839583
#
# Stress axis : x y z
#
# Youngs Moduli (GPa) = 92.74450 82.28458 76.95486
#
# Poissons Ratio (x) = 0.36436 0.08903
# Poissons Ratio (y) = 0.41067 0.24488
# Poissons Ratio (z) = 0.10730 0.26184
#
# Static dielectric constant tensor:
#      x y z
#    x 3.827650 -0.000640 -0.104240 
#    y -0.000640 3.440730 0.000270 
#    z -0.104240 0.000270 3.575070 
# 
# 
# High freq. dielectric constant tensor:
#      x y z
#    x 1.743390 0.000000 -0.014290 
#    y 0.000000 1.753700 0.000000 
#    z -0.014290 0.000000 1.760880 
# 
# From -- ./inp_files/211956.got.cif
#   From: 2010.06.25/outbox.cif.g09.slc.cpg/sg15_106_cif.got.tgz:211956.got - 2010.06.28 07:06:18.
