data_PCOD8148365
_publ_section_title
;
Structure prediction by ZEFSAII (Michael W. Deem and Ramdas Pophale) SiO2 
 PCOD8148365
Probable space group: C 2/C
;
_chemical_formula_sum "Si O2"
_cell_formula_units_Z 40
_cell_length_a 20.499600
_cell_length_b 5.393722
_cell_length_c 13.224417
_cell_angle_alpha 90.000000
_cell_angle_beta 64.839422
_cell_angle_gamma 90.000000
_cell_volume 1323.477440
_symmetry_space_group_name_H-M "C 2/C"
_symmetry_group_IT_number 15
_symmetry_cell_setting 'monoclinic'
loop_
_space_group_symop_operation_xyz
x,y,z
-x,y,1/2-z
-x,-y,-z
x,-y,1/2+z
1/2+x,1/2+y,z
1/2-x,1/2+y,1/2-z
1/2-x,1/2-y,-z
1/2+x,1/2-y,1/2+z
loop_
_atom_site_type_symbol
_atom_site_label
_atom_site_fract_x
_atom_site_fract_y
_atom_site_fract_z
Si Si1 0.903691 0.378016 0.895196
Si Si2 0.222786 0.421885 0.905635
Si Si3 0.394597 0.423817 0.579441
Si Si4 0.768061 0.578726 0.324863
Si Si5 0.062949 0.582694 0.348905
O O1 0.881435 0.383580 0.787273
O O2 0.986029 0.454815 0.847011
O O3 0.850305 0.577904 0.981425
O O4 0.893130 0.109301 0.956947
O O5 0.187946 0.423972 0.811433
O O6 0.271320 0.669226 0.890574
O O7 0.269692 0.171268 0.894550
O O8 0.312729 0.437177 0.672691
O O9 0.430639 0.168511 0.593037
O O10 0.560409 0.335358 0.416358
#
# Coordination Sequence:
#
# PCOD8148365 Si02
#       5
#     8   8   8   8   8
#     4  10  23  41  61  86 122 157 192 243 291 344
#     4   9  18  34  58  83 112 154 192 235 292 339
#     4  11  22  40  61  86 119 156 193 244 292 340
#     4   9  18  34  58  85 111 149 198 236 285 349
#     4  11  25  38  60  91 118 154 201 235 288 356
#
# _framework density 30.223407000000002
#
# number of rings (size 3 to 8) (size 9 to 14) (size 15 to 20)
#    0.000    2.000    0.000    3.600    0.000   11.200 
#    0.000    2.000    0.000    0.000    0.000    0.000 
#    0.000    0.000    0.000    0.000    0.000    0.000 
#
# Total GULP energy -247846.066002 kJ/mol
# GULP energy per Si atom -12392.303300 kJ/mol
# Density = 3.015462 g / cm^3
# Si number density = 30.223407 Si / 1000 Ang^3
#
#
#
# Elastic Constant Matrix: (Units=GPa)
#
#
# Indices 1 2 3 4 5 6 
#
# 1 102.1730 49.5302 40.7826 -0.0005 25.4836 -0.0007
# 2 49.5302 269.1847 69.7423 -0.0040 -3.4999 -0.0088
# 3 40.7826 69.7423 162.6963 0.0010 24.0790 0.0013
# 4 -0.0005 -0.0040 0.0010 32.4087 -0.0004 -7.1521
# 5 25.4836 -3.4999 24.0790 -0.0004 39.8305 -0.0007
# 6 -0.0007 -0.0088 0.0013 -7.1521 -0.0007 28.9190
#
#
#
# Elastic Compliance Matrix: (Units=1/GPa)
#
#
# Indices 1 2 3 4 5 6 
#
# 1 0.013357 -0.002252 -0.001196 0.000000 -0.008021 -0.000001
# 2 -0.002252 0.004653 -0.001871 0.000001 0.002981 0.000002
# 3 -0.001196 -0.001871 0.007863 -0.000001 -0.004153 -0.000001
# 4 0.000000 0.000001 -0.000001 0.032637 0.000001 0.008072
# 5 -0.008021 0.002981 -0.004153 0.000001 0.033011 0.000002
# 6 -0.000001 0.000002 -0.000001 0.008072 0.000002 0.036576
#
#
# Mechanical properties :
#
#
# Convention : Reuss Voigt Hill
#
# Bulk Modulus (GPa) = 65.63975 94.90714 80.27344
# Shear Modulus (GPa) = 34.76756 45.16490 39.96623
#
# Velocity S-wave (km/s) = 3.39536 3.86990 3.64037
# Velocity P-wave (km/s) = 6.09399 7.17204 6.65488
#
# Compressibility (1/GPa) = 0.01523467
#
# Stress axis : x y z
#
# Youngs Moduli (GPa) = 74.86777 214.92069 127.18046
#
# Poissons Ratio (x) = 0.48404 0.15206
# Poissons Ratio (y) = 0.16862 0.23798
# Poissons Ratio (z) = 0.08951 0.40215
#
# Static dielectric constant tensor:
#      x y z
#    x 6.474600 0.000000 -0.117570 
#    y 0.000000 5.821360 0.000000 
#    z -0.117570 0.000000 6.272720 
# 
# 
# High freq. dielectric constant tensor:
#      x y z
#    x 2.285930 0.000000 -0.012110 
#    y 0.000000 2.231590 0.000000 
#    z -0.012110 0.000000 2.259750 
# 
# From -- ./inp_files/179580.got.cif
#   From: 2010.06.25/outbox.cif.g09.slc.cpg/sg15_90_cif.got.tgz:179580.got - 2010.06.28 07:06:18.
