data_PCOD8148019
_publ_section_title
;
Structure prediction by ZEFSAII (Michael W. Deem and Ramdas Pophale) SiO2 
 PCOD8148019
Probable space group: C 2/C
;
_chemical_formula_sum "Si O2"
_cell_formula_units_Z 44
_cell_length_a 26.279785
_cell_length_b 17.700328
_cell_length_c 10.656738
_cell_angle_alpha 90.000000
_cell_angle_beta 22.421637
_cell_angle_gamma 90.000000
_cell_volume 1890.733390
_symmetry_space_group_name_H-M "C 2/C"
_symmetry_group_IT_number 15
_symmetry_cell_setting 'monoclinic'
loop_
_space_group_symop_operation_xyz
x,y,z
-x,y,1/2-z
-x,-y,-z
x,-y,1/2+z
1/2+x,1/2+y,z
1/2-x,1/2+y,1/2-z
1/2-x,1/2-y,-z
1/2+x,1/2-y,1/2+z
loop_
_atom_site_type_symbol
_atom_site_label
_atom_site_fract_x
_atom_site_fract_y
_atom_site_fract_z
Si Si1 0.237682 0.128450 0.769451
Si Si2 0.161897 0.906992 0.925765
Si Si3 0.500000 0.457696 0.750000
Si Si4 0.867745 0.190301 0.246368
Si Si5 0.158253 0.230245 0.594256
Si Si6 0.919766 0.506457 0.811739
O O1 0.292967 0.212242 0.623471
O O2 0.365509 0.075317 0.474962
O O3 0.165737 0.129455 0.068912
O O4 0.123906 0.097588 0.928373
O O5 0.097127 0.857180 0.959726
O O6 0.302243 0.934982 0.551569
O O7 0.188519 0.855463 0.985418
O O8 0.072159 0.979596 0.177012
O O9 0.750000 0.250000 0.500000
O O10 0.000381 0.237996 0.981466
O O11 0.250000 0.250000 0.500000
O O12 0.000000 0.536995 0.750000
O O13 0.000000 0.500000 0.500000
#
# Coordination Sequence:
#
# PCOD8148019 Si02
#       6
#     8   8   4   8   8   8
#     4  11  26  44  74 106 145 189 253 304 376 447
#     4  11  24  47  74 102 145 199 250 305 379 456
#     4  10  22  50  68 108 144 192 246 304 374 456
#     4  12  25  45  75 105 148 197 247 314 376 454
#     4  12  27  45  73 106 146 195 250 312 368 450
#     4  11  27  46  72 110 152 197 250 317 387 457
#
# _framework density 23.271394000000001
#
# number of rings (size 3 to 8) (size 9 to 14) (size 15 to 20)
#    0.000    0.727    3.636    2.182    7.636    0.727 
#    4.909    0.000    0.000    0.000    0.000    0.000 
#    0.000    0.000    0.000    0.000    0.000    0.000 
#
# Total GULP energy -272550.883812 kJ/mol
# GULP energy per Si atom -12388.676537 kJ/mol
# Density = 2.321843 g / cm^3
# Si number density = 23.271394 Si / 1000 Ang^3
#
#
#
# Elastic Constant Matrix: (Units=GPa)
#
#
# Indices 1 2 3 4 5 6 
#
# 1 119.9971 27.6996 64.2578 0.0000 -4.7009 0.0000
# 2 27.6996 118.5758 65.1315 -0.0001 -8.9566 0.0000
# 3 64.2578 65.1315 157.5217 -0.0002 -10.7373 0.0000
# 4 0.0000 -0.0001 -0.0002 58.2695 -0.0002 -8.9418
# 5 -4.7009 -8.9566 -10.7373 -0.0002 46.3297 0.0001
# 6 0.0000 0.0000 0.0000 -8.9418 0.0001 27.6455
#
#
#
# Elastic Compliance Matrix: (Units=1/GPa)
#
#
# Indices 1 2 3 4 5 6 
#
# 1 0.010665 -0.000128 -0.004293 0.000000 0.000062 0.000000
# 2 -0.000128 0.010967 -0.004408 0.000000 0.001085 0.000000
# 3 -0.004293 -0.004408 0.009992 0.000000 0.001028 0.000000
# 4 0.000000 0.000000 0.000000 0.018058 0.000000 0.005841
# 5 0.000062 0.001085 0.001028 0.000000 0.022039 0.000000
# 6 0.000000 0.000000 0.000000 0.005841 0.000000 0.038061
#
#
# Mechanical properties :
#
#
# Convention : Reuss Voigt Hill
#
# Bulk Modulus (GPa) = 71.61075 78.91917 75.26496
# Shear Modulus (GPa) = 37.85137 42.38265 40.11701
#
# Velocity S-wave (km/s) = 4.03739 4.27222 4.15646
# Velocity P-wave (km/s) = 7.25071 7.63688 7.44630
#
# Compressibility (1/GPa) = 0.01396438
#
# Stress axis : x y z
#
# Youngs Moduli (GPa) = 93.76887 91.18509 100.07715
#
# Poissons Ratio (x) = 0.01172 0.42963
# Poissons Ratio (y) = 0.01205 0.44115
# Poissons Ratio (z) = 0.40255 0.40195
#
# Static dielectric constant tensor:
#      x y z
#    x 4.226820 0.000000 -0.183660 
#    y 0.000000 4.652700 0.000000 
#    z -0.183660 0.000000 4.460740 
# 
# 
# High freq. dielectric constant tensor:
#      x y z
#    x 1.901170 0.000000 -0.022520 
#    y 0.000000 1.935110 0.000000 
#    z -0.022520 0.000000 1.938550 
# 
# From -- ./inp_files/127265.got.cif
#   From: 2010.06.25/outbox.cif.g09.slc.cpg/sg15_64_cif.got.tgz:127265.got - 2010.06.28 07:06:18.
