data_PCOD8148331
_publ_section_title
;
Structure prediction by ZEFSAII (Michael W. Deem and Ramdas Pophale) SiO2 
 PCOD8148331
Probable space group: C 2/C
;
_chemical_formula_sum "Si O2"
_cell_formula_units_Z 52
_cell_length_a 25.971347
_cell_length_b 9.291376
_cell_length_c 18.023148
_cell_angle_alpha 90.000000
_cell_angle_beta 145.252209
_cell_angle_gamma 90.000000
_cell_volume 2478.868056
_symmetry_space_group_name_H-M "C 2/C"
_symmetry_group_IT_number 15
_symmetry_cell_setting 'monoclinic'
loop_
_space_group_symop_operation_xyz
x,y,z
-x,y,1/2-z
-x,-y,-z
x,-y,1/2+z
1/2+x,1/2+y,z
1/2-x,1/2+y,1/2-z
1/2-x,1/2-y,-z
1/2+x,1/2-y,1/2+z
loop_
_atom_site_type_symbol
_atom_site_label
_atom_site_fract_x
_atom_site_fract_y
_atom_site_fract_z
Si Si1 0.468927 0.208131 0.004607
Si Si2 0.380737 0.515788 0.435811
Si Si3 0.300843 0.954761 0.364898
Si Si4 0.299127 0.696063 0.467025
Si Si5 0.568098 0.200401 0.974184
Si Si6 0.500000 0.935913 0.250000
Si Si7 0.113628 0.344686 0.803793
O O1 0.529925 0.186104 0.150368
O O2 0.448420 0.379464 0.969901
O O3 0.374772 0.124415 0.901060
O O4 0.517965 0.146117 0.989585
O O5 0.294149 0.470690 0.286953
O O6 0.358262 0.603123 0.482580
O O7 0.427009 0.370654 0.516721
O O8 0.283081 0.858042 0.416558
O O9 0.336550 0.116901 0.422301
O O10 0.202993 0.613740 0.362664
O O11 0.354266 0.705659 0.609931
O O12 0.511183 0.163979 0.834415
O O13 0.414080 0.035471 0.168330
#
# Coordination Sequence:
#
# PCOD8148331 Si02
#       7
#     8   8   8   8   8   4   8
#     4  11  23  41  70  90 123 177 220 257 314 387
#     4  11  24  40  61  97 134 162 213 266 320 377
#     4  11  21  41  64  95 126 169 214 264 311 383
#     4  10  23  40  69  92 127 171 211 270 313 378
#     4  12  24  40  64  97 127 169 208 268 321 377
#     4  12  24  40  64  94 134 160 220 262 322 382
#     4  11  21  44  69  93 121 170 227 256 314 384
#
# _framework density 20.977315999999998
#
# number of rings (size 3 to 8) (size 9 to 14) (size 15 to 20)
#    0.000    0.923    3.077    5.538    2.154    1.231 
#    0.000    2.308    0.000    0.000    0.000    0.000 
#    0.000    0.000    0.000    0.000    0.000    0.000 
#
# Total GULP energy -322301.900360 kJ/mol
# GULP energy per Si atom -12396.226937 kJ/mol
# Density = 2.092957 g / cm^3
# Si number density = 20.977316 Si / 1000 Ang^3
#
#
#
# Elastic Constant Matrix: (Units=GPa)
#
#
# Indices 1 2 3 4 5 6 
#
# 1 92.3506 15.9121 26.4234 0.0000 -10.3466 0.0000
# 2 15.9121 78.1286 18.6334 0.0000 -3.5682 0.0000
# 3 26.4234 18.6334 109.6804 0.0000 -13.0712 0.0000
# 4 0.0000 0.0000 0.0000 24.0553 0.0000 0.4159
# 5 -10.3466 -3.5682 -13.0712 0.0000 28.1653 0.0000
# 6 0.0000 0.0000 0.0000 0.4159 0.0000 21.1786
#
#
#
# Elastic Compliance Matrix: (Units=1/GPa)
#
#
# Indices 1 2 3 4 5 6 
#
# 1 0.012135 -0.001792 -0.002239 0.000000 0.003192 0.000000
# 2 -0.001792 0.013617 -0.001857 0.000000 0.000205 0.000000
# 3 -0.002239 -0.001857 0.010423 0.000000 0.003779 0.000000
# 4 0.000000 0.000000 0.000000 0.041585 0.000000 -0.000817
# 5 0.003192 0.000205 0.003779 0.000000 0.038457 0.000000
# 6 0.000000 0.000000 0.000000 -0.000817 0.000000 0.047233
#
#
# Mechanical properties :
#
#
# Convention : Reuss Voigt Hill
#
# Bulk Modulus (GPa) = 40.98528 44.67748 42.83138
# Shear Modulus (GPa) = 27.26900 29.29257 28.28079
#
# Velocity S-wave (km/s) = 3.60936 3.74089 3.67571
# Velocity P-wave (km/s) = 6.07868 6.32481 6.20296
#
# Compressibility (1/GPa) = 0.02439900
#
# Stress axis : x y z
#
# Youngs Moduli (GPa) = 82.40499 73.43958 95.94479
#
# Poissons Ratio (x) = 0.13159 0.21479
# Poissons Ratio (y) = 0.14765 0.17819
# Poissons Ratio (z) = 0.18448 0.13639
#
# Static dielectric constant tensor:
#      x y z
#    x 4.073760 0.000000 0.040330 
#    y 0.000000 3.921870 0.000000 
#    z 0.040330 0.000000 3.759440 
# 
# 
# High freq. dielectric constant tensor:
#      x y z
#    x 1.832370 0.000000 -0.001020 
#    y 0.000000 1.814830 0.000000 
#    z -0.001020 0.000000 1.823100 
# 
# From -- ./inp_files/221939.got.cif
#   From: 2010.06.25/outbox.cif.g09.slc.cpg/sg15_111_cif.got.tgz:221939.got - 2010.06.28 07:06:18.
