data_PCOD8148693
_publ_section_title
;
Structure prediction by ZEFSAII (Michael W. Deem and Ramdas Pophale) SiO2 
 PCOD8148693
Probable space group: C 2/C
;
_chemical_formula_sum "Si O2"
_cell_formula_units_Z 52
_cell_length_a 6.401342
_cell_length_b 16.896543
_cell_length_c 26.105172
_cell_angle_alpha 90.000000
_cell_angle_beta 61.754156
_cell_angle_gamma 90.000000
_cell_volume 2487.335775
_symmetry_space_group_name_H-M "C 2/C"
_symmetry_group_IT_number 15
_symmetry_cell_setting 'monoclinic'
loop_
_space_group_symop_operation_xyz
x,y,z
-x,y,1/2-z
-x,-y,-z
x,-y,1/2+z
1/2+x,1/2+y,z
1/2-x,1/2+y,1/2-z
1/2-x,1/2-y,-z
1/2+x,1/2-y,1/2+z
loop_
_atom_site_type_symbol
_atom_site_label
_atom_site_fract_x
_atom_site_fract_y
_atom_site_fract_z
Si Si1 0.752184 0.921428 0.808258
Si Si2 0.709261 0.778797 0.342662
Si Si3 0.507073 0.659210 0.598572
Si Si4 0.500000 0.833102 0.750000
Si Si5 0.946242 0.424912 0.369966
Si Si6 0.264025 0.310264 0.906258
Si Si7 0.495914 0.911068 0.018475
O O1 0.567593 0.884334 0.790663
O O2 0.795726 0.863654 0.851208
O O3 0.000000 0.942535 0.750000
O O4 0.598586 0.996580 0.844258
O O5 0.594042 0.853719 0.327617
O O6 0.513941 0.726613 0.395920
O O7 0.922518 0.810174 0.353224
O O8 0.783017 0.723328 0.287850
O O9 0.411105 0.736380 0.581059
O O10 0.734020 0.625297 0.542363
O O11 0.317976 0.585182 0.623834
O O12 0.917414 0.406602 0.433439
O O13 0.178221 0.363075 0.962783
O O14 0.500000 0.000000 0.000000
#
# Coordination Sequence:
#
# PCOD8148693 Si02
#       7
#     8   8   8   4   8   8   8
#     4  12  25  44  67 100 134 176 225 284 345 406
#     4  10  23  42  67  94 131 174 229 276 332 407
#     4  10  23  43  66  96 133 176 221 274 335 405
#     4  12  24  42  68  96 124 182 222 280 344 402
#     4  10  25  45  65  99 135 176 222 277 343 405
#     4  11  22  43  68  97 134 174 228 275 336 411
#     4  11  23  41  69 100 138 176 220 281 338 401
#
# _framework density 20.905904
#
# number of rings (size 3 to 8) (size 9 to 14) (size 15 to 20)
#    0.000    1.231    4.615    0.462    1.077   11.077 
#    0.000    0.000    0.000    0.000    0.000    0.000 
#    0.000    0.000    0.000    0.000    0.000    0.000 
#
# Total GULP energy -322175.093717 kJ/mol
# GULP energy per Si atom -12391.349758 kJ/mol
# Density = 2.085832 g / cm^3
# Si number density = 20.905904 Si / 1000 Ang^3
#
#
#
# Elastic Constant Matrix: (Units=GPa)
#
#
# Indices 1 2 3 4 5 6 
#
# 1 116.0408 41.8349 42.6736 -0.0001 -8.3222 -0.0003
# 2 41.8349 127.4846 50.9087 0.0000 -12.8617 0.0000
# 3 42.6736 50.9087 102.2047 -0.0005 -7.2326 -0.0008
# 4 -0.0001 0.0000 -0.0005 145.1322 0.0003 141.9869
# 5 -8.3222 -12.8617 -7.2326 0.0003 27.7334 0.0005
# 6 -0.0003 0.0000 -0.0008 141.9869 0.0005 244.5932
#
#
#
# Elastic Compliance Matrix: (Units=1/GPa)
#
#
# Indices 1 2 3 4 5 6 
#
# 1 0.010680 -0.002026 -0.003352 0.000000 0.001391 0.000000
# 2 -0.002026 0.010488 -0.004154 0.000000 0.003173 0.000000
# 3 -0.003352 -0.004154 0.013290 0.000000 0.000534 0.000000
# 4 0.000000 0.000000 0.000000 0.015947 0.000000 -0.009257
# 5 0.001391 0.003173 0.000534 0.000000 0.038086 0.000000
# 6 0.000000 0.000000 0.000000 -0.009257 0.000000 0.009462
#
#
# Mechanical properties :
#
#
# Convention : Reuss Voigt Hill
#
# Bulk Modulus (GPa) = 64.95238 68.50716 66.72977
# Shear Modulus (GPa) = 40.93398 97.51262 69.22330
#
# Velocity S-wave (km/s) = 4.42974 6.83702 5.76053
# Velocity P-wave (km/s) = 7.56967 9.75535 8.73117
#
# Compressibility (1/GPa) = 0.01539589
#
# Stress axis : x y z
#
# Youngs Moduli (GPa) = 93.62890 95.35023 75.24206
#
# Poissons Ratio (x) = 0.19318 0.25220
# Poissons Ratio (y) = 0.18969 0.31252
# Poissons Ratio (z) = 0.31382 0.39604
#
# Static dielectric constant tensor:
#      x y z
#    x 3.981370 0.000010 0.110810 
#    y 0.000010 1.738650 0.000000 
#    z 0.110810 0.000000 3.922090 
# 
# 
# High freq. dielectric constant tensor:
#      x y z
#    x 1.822350 0.000000 -0.012460 
#    y 0.000000 1.837730 0.000000 
#    z -0.012460 0.000000 1.814490 
# 
# From -- ./inp_files/285970.got.cif
#   From: 2010.06.25/outbox.cif.g09.slc.cpg/sg15_143_cif.got.tgz:285970.got - 2010.06.28 07:06:18.
