data_PCOD8148817
_publ_section_title
;
Structure prediction by ZEFSAII (Michael W. Deem and Ramdas Pophale) SiO2 
 PCOD8148817
Probable space group: C 2/C
;
_chemical_formula_sum "Si O2"
_cell_formula_units_Z 52
_cell_length_a 16.704869
_cell_length_b 13.775655
_cell_length_c 12.455720
_cell_angle_alpha 90.000000
_cell_angle_beta 116.635425
_cell_angle_gamma 90.000000
_cell_volume 2562.135185
_symmetry_space_group_name_H-M "C 2/C"
_symmetry_group_IT_number 15
_symmetry_cell_setting 'monoclinic'
loop_
_space_group_symop_operation_xyz
x,y,z
-x,y,1/2-z
-x,-y,-z
x,-y,1/2+z
1/2+x,1/2+y,z
1/2-x,1/2+y,1/2-z
1/2-x,1/2-y,-z
1/2+x,1/2-y,1/2+z
loop_
_atom_site_type_symbol
_atom_site_label
_atom_site_fract_x
_atom_site_fract_y
_atom_site_fract_z
Si Si1 0.076220 0.616566 0.973584
Si Si2 0.500000 0.411801 0.750000
Si Si3 0.753543 0.643577 0.953797
Si Si4 0.103343 0.834090 0.007778
Si Si5 0.579759 0.597079 0.726991
Si Si6 0.616098 0.062593 0.630885
Si Si7 0.222806 0.544582 0.902626
O O1 0.134582 0.577682 0.911161
O O2 0.971068 0.619328 0.876255
O O3 0.112775 0.720074 0.034432
O O4 0.086471 0.545545 0.080834
O O5 0.463640 0.345485 0.632530
O O6 0.577937 0.480768 0.746866
O O7 0.673919 0.638741 0.820375
O O8 0.846156 0.625130 0.946408
O O9 0.750000 0.750000 0.000000
O O10 0.743845 0.562403 0.041309
O O11 0.064176 0.883892 0.091432
O O12 0.197961 0.879276 0.030853
O O13 0.500000 0.646380 0.750000
O O14 0.696389 0.046881 0.762606
#
# Coordination Sequence:
#
# PCOD8148817 Si02
#       7
#     8   4   8   8   8   8   8
#     4  10  25  42  63  98 126 174 214 259 325 382
#     4  10  24  40  66  94 132 174 206 276 328 378
#     4  11  24  42  65  98 125 169 218 262 323 383
#     4  12  23  43  68  97 129 171 219 271 325 385
#     4  10  23  43  60  95 134 168 216 263 329 381
#     4  10  23  44  63  92 135 170 210 265 318 384
#     4  11  22  43  67  93 133 163 216 272 314 388
#
# _framework density 20.295573000000001
#
# number of rings (size 3 to 8) (size 9 to 14) (size 15 to 20)
#    0.462    0.923    3.077    1.385    6.462    0.000 
#    0.000    0.000    0.000    0.000    0.000    0.000 
#    0.000    0.000    0.000    0.000    0.000    0.000 
#
# Total GULP energy -322394.699051 kJ/mol
# GULP energy per Si atom -12399.796117 kJ/mol
# Density = 2.024938 g / cm^3
# Si number density = 20.295573 Si / 1000 Ang^3
#
#
#
# Elastic Constant Matrix: (Units=GPa)
#
#
# Indices 1 2 3 4 5 6 
#
# 1 112.5630 47.1132 35.5731 0.0000 2.8008 0.0000
# 2 47.1132 143.0765 37.6928 0.0000 0.0637 0.0000
# 3 35.5731 37.6928 119.1419 0.0000 2.6954 0.0000
# 4 0.0000 0.0000 0.0000 20.9674 0.0000 0.1702
# 5 2.8008 0.0637 2.6954 0.0000 33.1605 0.0000
# 6 0.0000 0.0000 0.0000 0.1702 0.0000 24.6492
#
#
#
# Elastic Compliance Matrix: (Units=1/GPa)
#
#
# Indices 1 2 3 4 5 6 
#
# 1 0.010871 -0.002977 -0.002288 0.000000 -0.000727 0.000000
# 2 -0.002977 0.008441 -0.001790 0.000000 0.000381 0.000000
# 3 -0.002288 -0.001790 0.009656 0.000000 -0.000588 0.000000
# 4 0.000000 0.000000 0.000000 0.047696 0.000000 -0.000329
# 5 -0.000727 0.000381 -0.000588 0.000000 0.030265 0.000000
# 6 0.000000 0.000000 0.000000 -0.000329 0.000000 0.040572
#
#
# Mechanical properties :
#
#
# Convention : Reuss Voigt Hill
#
# Bulk Modulus (GPa) = 67.30068 68.39331 67.84700
# Shear Modulus (GPa) = 30.01885 32.71557 31.36721
#
# Velocity S-wave (km/s) = 3.85006 4.01927 3.93557
# Velocity P-wave (km/s) = 7.27985 7.43715 7.35892
#
# Compressibility (1/GPa) = 0.01485869
#
# Stress axis : x y z
#
# Youngs Moduli (GPa) = 91.98946 118.47061 103.56160
#
# Poissons Ratio (x) = 0.35264 0.23691
# Poissons Ratio (y) = 0.27382 0.18541
# Poissons Ratio (z) = 0.21044 0.21210
#
# Static dielectric constant tensor:
#      x y z
#    x 3.707290 0.000000 -0.008430 
#    y 0.000000 3.585700 0.000000 
#    z -0.008430 0.000000 3.645440 
# 
# 
# High freq. dielectric constant tensor:
#      x y z
#    x 1.799750 0.000000 0.001410 
#    y 0.000000 1.784760 0.000000 
#    z 0.001410 0.000000 1.794930 
# 
# From -- ./inp_files/105463.got.cif
#   From: 2010.06.25/outbox.cif.g09.slc.cpg/sg15_53_cif.got.tgz:105463.got - 2010.06.28 07:06:18.
