data_PCOD8148375
_publ_section_title
;
Structure prediction by ZEFSAII (Michael W. Deem and Ramdas Pophale) SiO2 
 PCOD8148375
Probable space group: C 2/C
;
_chemical_formula_sum "Si O2"
_cell_formula_units_Z 48
_cell_length_a 18.572883
_cell_length_b 20.516683
_cell_length_c 9.314333
_cell_angle_alpha 90.000000
_cell_angle_beta 140.011490
_cell_angle_gamma 90.000000
_cell_volume 2280.877254
_symmetry_space_group_name_H-M "C 2/C"
_symmetry_group_IT_number 15
_symmetry_cell_setting 'monoclinic'
loop_
_space_group_symop_operation_xyz
x,y,z
-x,y,1/2-z
-x,-y,-z
x,-y,1/2+z
1/2+x,1/2+y,z
1/2-x,1/2+y,1/2-z
1/2-x,1/2-y,-z
1/2+x,1/2-y,1/2+z
loop_
_atom_site_type_symbol
_atom_site_label
_atom_site_fract_x
_atom_site_fract_y
_atom_site_fract_z
Si Si1 0.605954 0.368372 0.820578
Si Si2 0.741265 0.877081 0.971398
Si Si3 0.684699 0.829804 0.192359
Si Si4 0.504904 0.066451 0.092113
Si Si5 0.579259 0.486086 0.252531
Si Si6 0.105047 0.810331 0.514514
O O1 0.500000 0.343120 0.750000
O O2 0.626544 0.445061 0.882753
O O3 0.583978 0.357784 0.617611
O O4 0.715234 0.329792 0.039968
O O5 0.732478 0.836818 0.104599
O O6 0.788613 0.833158 0.915426
O O7 0.817326 0.939718 0.124568
O O8 0.620297 0.898075 0.729694
O O9 0.597850 0.886274 0.103622
O O10 0.622603 0.761050 0.107064
O O11 0.500000 0.047477 0.250000
O O12 0.500000 0.000000 0.000000
O O13 0.500000 0.451480 0.250000
O O14 0.500000 0.500000 0.000000
O O15 0.000000 0.810072 0.250000
#
# Coordination Sequence:
#
# PCOD8148375 Si02
#       6
#     8   8   8   8   8   8
#     4  11  24  41  64  93 127 161 200 258 318 381
#     4  11  22  39  65  91 122 166 210 260 316 377
#     4  11  24  43  61  89 127 166 211 261 312 375
#     4  10  23  41  62  90 125 169 215 262 315 376
#     4  11  21  36  59  92 123 154 199 256 317 372
#     4  12  24  42  65  93 123 164 212 257 316 381
#
# _framework density 21.044533999999999
#
# number of rings (size 3 to 8) (size 9 to 14) (size 15 to 20)
#    0.000    1.000    0.000    9.000    0.000    6.667 
#    0.000    0.833    0.000    0.000    0.000    0.000 
#    0.000    0.000    0.000    0.000    0.000    0.000 
#
# Total GULP energy -297746.495320 kJ/mol
# GULP energy per Si atom -12406.103972 kJ/mol
# Density = 2.099664 g / cm^3
# Si number density = 21.044534 Si / 1000 Ang^3
#
#
#
# Elastic Constant Matrix: (Units=GPa)
#
#
# Indices 1 2 3 4 5 6 
#
# 1 107.6404 29.0760 32.4891 0.0000 15.7145 0.0000
# 2 29.0760 92.2623 23.4926 0.0000 9.4275 0.0000
# 3 32.4891 23.4926 124.8761 0.0000 17.0063 0.0000
# 4 0.0000 0.0000 0.0000 32.6551 0.0000 -2.5659
# 5 15.7145 9.4275 17.0063 0.0000 27.7183 0.0000
# 6 0.0000 0.0000 0.0000 -2.5659 0.0000 33.8458
#
#
#
# Elastic Compliance Matrix: (Units=1/GPa)
#
#
# Indices 1 2 3 4 5 6 
#
# 1 0.011180 -0.002616 -0.001827 0.000000 -0.004328 0.000000
# 2 -0.002616 0.012197 -0.001365 0.000000 -0.001828 0.000000
# 3 -0.001827 -0.001365 0.009314 0.000000 -0.004214 0.000000
# 4 0.000000 0.000000 0.000000 0.030807 0.000000 0.002336
# 5 -0.004328 -0.001828 -0.004214 0.000000 0.041738 0.000000
# 6 0.000000 0.000000 0.000000 0.002336 0.000000 0.029723
#
#
# Mechanical properties :
#
#
# Convention : Reuss Voigt Hill
#
# Bulk Modulus (GPa) = 47.44947 54.98822 51.21884
# Shear Modulus (GPa) = 32.55193 34.82526 33.68860
#
# Velocity S-wave (km/s) = 3.93722 4.07238 4.00537
# Velocity P-wave (km/s) = 6.57762 6.94972 6.76623
#
# Compressibility (1/GPa) = 0.02107505
#
# Stress axis : x y z
#
# Youngs Moduli (GPa) = 89.44460 81.98446 107.36427
#
# Poissons Ratio (x) = 0.21446 0.19618
# Poissons Ratio (y) = 0.23398 0.14657
# Poissons Ratio (z) = 0.16344 0.11192
#
# Static dielectric constant tensor:
#      x y z
#    x 3.935740 0.000000 0.046310 
#    y 0.000000 3.944910 0.000000 
#    z 0.046310 0.000000 3.914630 
# 
# 
# High freq. dielectric constant tensor:
#      x y z
#    x 1.832770 0.000000 0.003650 
#    y 0.000000 1.831960 0.000000 
#    z 0.003650 0.000000 1.829950 
# 
# From -- ./inp_files/57985.got.cif
#   From: 2010.06.25/outbox.cif.g09.slc.cpg/sg15_29_cif.got.tgz:57985.got - 2010.06.28 07:06:18.
