data_PCOD8148172
_publ_section_title
;
Structure prediction by ZEFSAII (Michael W. Deem and Ramdas Pophale) SiO2 
 PCOD8148172
Probable space group: C 2/C
;
_chemical_formula_sum "Si O2"
_cell_formula_units_Z 48
_cell_length_a 17.562447
_cell_length_b 5.413293
_cell_length_c 22.147149
_cell_angle_alpha 90.000000
_cell_angle_beta 89.528373
_cell_angle_gamma 90.000000
_cell_volume 2105.472993
_symmetry_space_group_name_H-M "C 2/C"
_symmetry_group_IT_number 15
_symmetry_cell_setting 'monoclinic'
loop_
_space_group_symop_operation_xyz
x,y,z
-x,y,1/2-z
-x,-y,-z
x,-y,1/2+z
1/2+x,1/2+y,z
1/2-x,1/2+y,1/2-z
1/2-x,1/2-y,-z
1/2+x,1/2-y,1/2+z
loop_
_atom_site_type_symbol
_atom_site_label
_atom_site_fract_x
_atom_site_fract_y
_atom_site_fract_z
Si Si1 0.805844 0.461466 0.812457
Si Si2 0.344044 0.770127 0.196888
Si Si3 0.069562 0.927256 0.216453
Si Si4 0.575544 0.054285 0.916872
Si Si5 0.415860 0.262046 0.892978
Si Si6 0.586402 0.543888 0.984505
O O1 0.721081 0.393272 0.836065
O O2 0.796363 0.573820 0.745932
O O3 0.860121 0.229593 0.805101
O O4 0.843716 0.637988 0.861536
O O5 0.407860 0.620249 0.232063
O O6 0.387627 0.946070 0.149784
O O7 0.000000 0.778364 0.250000
O O8 0.041348 0.060016 0.155100
O O9 0.482779 0.074769 0.915179
O O10 0.613785 0.289675 0.952179
O O11 0.598304 0.790201 0.944389
O O12 0.376800 0.406900 0.949677
O O13 0.500000 0.500000 0.000000
#
# Coordination Sequence:
#
# PCOD8148172 Si02
#       6
#     8   8   8   8   8   8
#     4  11  25  39  65  91 137 176 213 278 341 408
#     4  11  24  43  60  98 133 178 220 267 352 398
#     4  11  23  39  66  95 130 165 222 282 326 405
#     4  11  24  41  72  97 134 174 227 280 326 403
#     4  10  23  39  64  96 125 172 225 274 333 393
#     4  10  23  42  67 101 132 174 222 285 336 381
#
# _framework density 22.797726999999998
#
# number of rings (size 3 to 8) (size 9 to 14) (size 15 to 20)
#    0.000    1.333    3.333    2.000   11.667    0.000 
#    0.000    1.667    0.000    0.000    0.000    0.000 
#    0.000    0.000    0.000    0.000    0.000    0.000 
#
# Total GULP energy -297396.764766 kJ/mol
# GULP energy per Si atom -12391.531865 kJ/mol
# Density = 2.274584 g / cm^3
# Si number density = 22.797727 Si / 1000 Ang^3
#
#
#
# Elastic Constant Matrix: (Units=GPa)
#
#
# Indices 1 2 3 4 5 6 
#
# 1 36.6328 -0.3758 30.0669 0.0000 -0.2480 0.0000
# 2 -0.3758 103.5280 44.2923 0.0000 3.1711 0.0000
# 3 30.0669 44.2923 122.8154 0.0000 15.3215 0.0000
# 4 0.0000 0.0000 0.0000 17.4752 0.0000 -1.4667
# 5 -0.2480 3.1711 15.3215 0.0000 20.2874 0.0000
# 6 0.0000 0.0000 0.0000 -1.4667 0.0000 19.0651
#
#
#
# Elastic Compliance Matrix: (Units=1/GPa)
#
#
# Indices 1 2 3 4 5 6 
#
# 1 0.037279 0.005012 -0.012026 0.000000 0.008755 0.000000
# 2 0.005012 0.012135 -0.005933 0.000000 0.002646 0.000000
# 3 -0.012026 -0.005933 0.014495 0.000000 -0.010166 0.000000
# 4 0.000000 0.000000 0.000000 0.057596 0.000000 0.004431
# 5 0.008755 0.002646 -0.010166 0.000000 0.056663 0.000000
# 6 0.000000 0.000000 0.000000 0.004431 0.000000 0.052793
#
#
# Mechanical properties :
#
#
# Convention : Reuss Voigt Hill
#
# Bulk Modulus (GPa) = 26.30605 45.66032 35.98318
# Shear Modulus (GPa) = 18.55102 23.96505 21.25803
#
# Velocity S-wave (km/s) = 2.85568 3.24574 3.05694
# Velocity P-wave (km/s) = 4.73678 5.84110 5.31768
#
# Compressibility (1/GPa) = 0.03801407
#
# Stress axis : x y z
#
# Youngs Moduli (GPa) = 26.82440 82.40694 68.99100
#
# Poissons Ratio (x) = -0.41306 0.82971
# Poissons Ratio (y) = -0.13445 0.40936
# Poissons Ratio (z) = 0.32260 0.48896
#
# Static dielectric constant tensor:
#      x y z
#    x 3.946840 0.000000 0.700990 
#    y 0.000000 4.437810 0.000000 
#    z 0.700990 0.000000 6.486960 
# 
# 
# High freq. dielectric constant tensor:
#      x y z
#    x 1.872840 0.000000 0.001900 
#    y 0.000000 1.895190 0.000000 
#    z 0.001900 0.000000 1.913090 
# 
# From -- ./inp_files/275666.got.cif
#   From: 2010.06.25/outbox.cif.g09.slc.cpg/sg15_138_cif.got.tgz:275666.got - 2010.06.28 07:06:18.
