data_PCOD8148392
_publ_section_title
;
Structure prediction by ZEFSAII (Michael W. Deem and Ramdas Pophale) SiO2 
 PCOD8148392
Probable space group: C 2/C
;
_chemical_formula_sum "Si O2"
_cell_formula_units_Z 52
_cell_length_a 12.732564
_cell_length_b 27.640767
_cell_length_c 8.453944
_cell_angle_alpha 90.000000
_cell_angle_beta 58.500260
_cell_angle_gamma 90.000000
_cell_volume 2536.835572
_symmetry_space_group_name_H-M "C 2/C"
_symmetry_group_IT_number 15
_symmetry_cell_setting 'monoclinic'
loop_
_space_group_symop_operation_xyz
x,y,z
-x,y,1/2-z
-x,-y,-z
x,-y,1/2+z
1/2+x,1/2+y,z
1/2-x,1/2+y,1/2-z
1/2-x,1/2-y,-z
1/2+x,1/2-y,1/2+z
loop_
_atom_site_type_symbol
_atom_site_label
_atom_site_fract_x
_atom_site_fract_y
_atom_site_fract_z
Si Si1 0.498527 0.904701 0.572625
Si Si2 0.384322 0.379838 0.748284
Si Si3 0.752696 0.802913 0.068737
Si Si4 0.771288 0.937572 0.334887
Si Si5 0.762065 0.461821 0.789250
Si Si6 0.000000 0.651076 0.750000
Si Si7 0.438806 0.345981 0.140743
O O1 0.500000 0.878778 0.750000
O O2 0.635450 0.917780 0.417223
O O3 0.409824 0.951881 0.665950
O O4 0.454441 0.876249 0.448121
O O5 0.500000 0.401735 0.750000
O O6 0.295823 0.424266 0.786078
O O7 0.437254 0.351752 0.557027
O O8 0.307967 0.340708 0.903480
O O9 0.613050 0.816388 0.221499
O O10 0.841494 0.806102 0.153277
O O11 0.750000 0.750000 0.000000
O O12 0.796000 0.952104 0.494735
O O13 0.871293 0.898028 0.205632
O O14 0.778957 0.984221 0.217738
O O15 0.500000 0.325453 0.250000
#
# Coordination Sequence:
#
# PCOD8148392 Si02
#       7
#     8   8   8   8   8   4   8
#     4  10  23  42  62  97 136 181 230 291 345 405
#     4  10  23  41  63  90 133 170 214 275 332 397
#     4  11  26  46  74 103 129 171 230 283 355 420
#     4  11  24  38  62  97 132 183 234 274 338 407
#     4  11  23  39  61  92 137 176 232 281 332 396
#     4  12  22  42  82  94 138 180 224 290 356 404
#     4  11  23  45  66  95 139 179 218 279 343 408
#
# _framework density 20.497976999999999
#
# number of rings (size 3 to 8) (size 9 to 14) (size 15 to 20)
#    0.000    1.231    4.615    0.462    9.692    1.231 
#    0.000    1.538    0.000    0.000    0.000    0.000 
#    0.000    0.000    0.000    0.000    0.000    0.000 
#
# Total GULP energy -322135.706703 kJ/mol
# GULP energy per Si atom -12389.834873 kJ/mol
# Density = 2.045132 g / cm^3
# Si number density = 20.497977 Si / 1000 Ang^3
#
#
#
# Elastic Constant Matrix: (Units=GPa)
#
#
# Indices 1 2 3 4 5 6 
#
# 1 129.0487 45.3578 36.4081 0.0000 8.4808 0.0000
# 2 45.3578 75.9363 7.5716 0.0000 7.2686 0.0000
# 3 36.4081 7.5716 68.9838 0.0000 9.7616 0.0000
# 4 0.0000 0.0000 0.0000 20.2329 0.0000 10.4515
# 5 8.4808 7.2686 9.7616 0.0000 43.9588 0.0000
# 6 0.0000 0.0000 0.0000 10.4515 0.0000 31.0786
#
#
#
# Elastic Compliance Matrix: (Units=1/GPa)
#
#
# Indices 1 2 3 4 5 6 
#
# 1 0.011487 -0.006328 -0.005371 0.000000 0.000023 0.000000
# 2 -0.006328 0.016962 0.001757 0.000000 -0.001974 0.000000
# 3 -0.005371 0.001757 0.017585 0.000000 -0.003159 0.000000
# 4 0.000000 0.000000 0.000000 0.059815 0.000000 -0.020115
# 5 0.000023 -0.001974 -0.003159 0.000000 0.023772 0.000000
# 6 0.000000 0.000000 0.000000 -0.020115 0.000000 0.038941
#
#
# Mechanical properties :
#
#
# Convention : Reuss Voigt Hill
#
# Bulk Modulus (GPa) = 38.23970 50.29375 44.26672
# Shear Modulus (GPa) = 25.35957 31.36281 28.36119
#
# Velocity S-wave (km/s) = 3.52116 3.91582 3.72373
# Velocity P-wave (km/s) = 5.93526 6.71075 6.33488
#
# Compressibility (1/GPa) = 0.02615084
#
# Stress axis : x y z
#
# Youngs Moduli (GPa) = 87.05461 58.95364 56.86599
#
# Poissons Ratio (x) = 0.37306 0.30544
# Poissons Ratio (y) = 0.55088 -0.09993
# Poissons Ratio (z) = 0.46760 -0.10360
#
# Static dielectric constant tensor:
#      x y z
#    x 4.659670 0.000000 -0.267510 
#    y 0.000000 3.402270 0.000000 
#    z -0.267510 0.000000 4.244320 
# 
# 
# High freq. dielectric constant tensor:
#      x y z
#    x 1.826390 0.000000 -0.000550 
#    y 0.000000 1.762010 0.000000 
#    z -0.000550 0.000000 1.816680 
# 
# From -- ./inp_files/33499.got.cif
#   From: 2010.06.25/outbox.cif.g09.slc.cpg/sg15_17_cif.got.tgz:33499.got - 2010.06.28 07:06:18.
