data_PCOD8148794
_publ_section_title
;
Structure prediction by ZEFSAII (Michael W. Deem and Ramdas Pophale) SiO2 
 PCOD8148794
Probable space group: C 2/C
;
_chemical_formula_sum "Si O2"
_cell_formula_units_Z 56
_cell_length_a 18.229879
_cell_length_b 25.726623
_cell_length_c 9.778063
_cell_angle_alpha 90.000000
_cell_angle_beta 32.858894
_cell_angle_gamma 90.000000
_cell_volume 2488.150966
_symmetry_space_group_name_H-M "C 2/C"
_symmetry_group_IT_number 15
_symmetry_cell_setting 'monoclinic'
loop_
_space_group_symop_operation_xyz
x,y,z
-x,y,1/2-z
-x,-y,-z
x,-y,1/2+z
1/2+x,1/2+y,z
1/2-x,1/2+y,1/2-z
1/2-x,1/2-y,-z
1/2+x,1/2-y,1/2+z
loop_
_atom_site_type_symbol
_atom_site_label
_atom_site_fract_x
_atom_site_fract_y
_atom_site_fract_z
Si Si1 0.559403 0.212137 0.296183
Si Si2 0.866897 0.468993 0.252301
Si Si3 0.985772 0.104892 0.433397
Si Si4 0.320352 0.396579 0.632399
Si Si5 0.362462 0.676213 0.826762
Si Si6 0.808278 0.009550 0.718494
Si Si7 0.014748 0.633905 0.582960
O O1 0.500000 0.190013 0.250000
O O2 0.535278 0.274343 0.342038
O O3 0.478070 0.179513 0.535850
O O4 0.714765 0.198971 0.073098
O O5 0.778649 0.498017 0.507886
O O6 0.781432 0.458266 0.249538
O O7 0.907550 0.412828 0.245208
O O8 0.000000 0.500000 0.000000
O O9 0.872826 0.143919 0.669799
O O10 0.940114 0.045519 0.539714
O O11 0.000000 0.114529 0.250000
O O12 0.125218 0.117593 0.298967
O O13 0.399257 0.361407 0.397466
O O14 0.352468 0.457686 0.567919
O O15 0.163858 0.389961 0.842419
O O16 0.000000 0.662658 0.750000
#
# Coordination Sequence:
#
# PCOD8148794 Si02
#       7
#     8   8   8   8   8   8   8
#     4  10  23  42  72 101 126 166 237 281 339 403
#     4  12  23  41  64  96 136 174 220 271 343 400
#     4  12  27  41  64  96 137 176 230 274 326 400
#     4  11  22  45  66  89 136 180 222 263 335 401
#     4  10  24  46  68  96 131 183 219 280 343 397
#     4  12  25  41  66  98 135 183 222 272 325 405
#     4  11  23  41  67  99 132 174 213 284 346 400
#
# _framework density 22.506674
#
# number of rings (size 3 to 8) (size 9 to 14) (size 15 to 20)
#    0.000    0.857    2.857    3.857    4.000    1.714 
#    0.000    0.000    0.000    6.857    0.000    0.000 
#    0.000    0.000    0.000    0.000    0.000    0.000 
#
# Total GULP energy -346983.324165 kJ/mol
# GULP energy per Si atom -12392.261577 kJ/mol
# Density = 2.245545 g / cm^3
# Si number density = 22.506674 Si / 1000 Ang^3
#
#
#
# Elastic Constant Matrix: (Units=GPa)
#
#
# Indices 1 2 3 4 5 6 
#
# 1 117.5082 42.3046 33.3598 0.0153 35.8184 -0.0016
# 2 42.3046 129.8106 40.9156 0.0074 31.6162 -0.0008
# 3 33.3598 40.9156 80.8373 0.0585 40.3537 -0.0057
# 4 0.0153 0.0074 0.0585 295.2631 -0.0213 -13.1323
# 5 35.8184 31.6162 40.3537 -0.0213 46.9578 0.0021
# 6 -0.0016 -0.0008 -0.0057 -13.1323 0.0021 35.1757
#
#
#
# Elastic Compliance Matrix: (Units=1/GPa)
#
#
# Indices 1 2 3 4 5 6 
#
# 1 0.011476 -0.001914 -0.000071 -0.000001 -0.007404 0.000001
# 2 -0.001914 0.009895 -0.002840 0.000000 -0.002762 0.000000
# 3 -0.000071 -0.002840 0.022514 -0.000006 -0.017381 0.000003
# 4 -0.000001 0.000000 -0.000006 0.003444 0.000007 0.001286
# 5 -0.007404 -0.002762 -0.017381 0.000007 0.043739 -0.000003
# 6 0.000001 0.000000 0.000003 0.001286 -0.000003 0.028909
#
#
# Mechanical properties :
#
#
# Convention : Reuss Voigt Hill
#
# Bulk Modulus (GPa) = 29.21009 62.36847 45.78928
# Shear Modulus (GPa) = 35.45108 89.58439 62.51773
#
# Velocity S-wave (km/s) = 3.97310 6.31584 5.27615
# Velocity P-wave (km/s) = 5.83558 8.99765 7.58326
#
# Compressibility (1/GPa) = 0.03423475
#
# Stress axis : x y z
#
# Youngs Moduli (GPa) = 87.13667 101.05991 44.41699
#
# Poissons Ratio (x) = 0.19347 0.00316
# Poissons Ratio (y) = 0.16682 0.12613
# Poissons Ratio (z) = 0.00619 0.28699
#
# Static dielectric constant tensor:
#      x y z
#    x 4.375150 0.000000 0.017880 
#    y 0.000000 4.326220 0.000000 
#    z 0.017880 0.000000 4.049940 
# 
# 
# High freq. dielectric constant tensor:
#      x y z
#    x 1.908950 0.000000 -0.001840 
#    y 0.000000 1.882860 0.000000 
#    z -0.001840 0.000000 1.878870 
# 
# From -- ./inp_files/52306.got.cif
#   From: 2010.06.25/outbox.cif.g09.slc.cpg/sg15_27_cif.got.tgz:52306.got - 2010.06.28 07:06:18.
