data_PCOD8148663
_publ_section_title
;
Structure prediction by ZEFSAII (Michael W. Deem and Ramdas Pophale) SiO2 
 PCOD8148663
Probable space group: C 2/C
;
_chemical_formula_sum "Si O2"
_cell_formula_units_Z 52
_cell_length_a 13.974422
_cell_length_b 20.216813
_cell_length_c 11.361288
_cell_angle_alpha 90.000000
_cell_angle_beta 130.109726
_cell_angle_gamma 90.000000
_cell_volume 2454.871921
_symmetry_space_group_name_H-M "C 2/C"
_symmetry_group_IT_number 15
_symmetry_cell_setting 'monoclinic'
loop_
_space_group_symop_operation_xyz
x,y,z
-x,y,1/2-z
-x,-y,-z
x,-y,1/2+z
1/2+x,1/2+y,z
1/2-x,1/2+y,1/2-z
1/2-x,1/2-y,-z
1/2+x,1/2-y,1/2+z
loop_
_atom_site_type_symbol
_atom_site_label
_atom_site_fract_x
_atom_site_fract_y
_atom_site_fract_z
Si Si1 0.693053 0.337421 0.072546
Si Si2 0.657986 0.923957 0.140052
Si Si3 0.000000 0.268582 0.750000
Si Si4 0.776783 0.190280 0.166508
Si Si5 0.953724 0.175797 0.505590
Si Si6 0.627271 0.930437 0.653204
Si Si7 0.788497 0.373168 0.563835
O O1 0.807143 0.381248 0.216024
O O2 0.701327 0.258157 0.094799
O O3 0.570354 0.365493 0.043417
O O4 0.684846 0.345269 0.925438
O O5 0.696009 0.001217 0.175047
O O6 0.509237 0.922582 0.008736
O O7 0.728447 0.893591 0.084318
O O8 0.985097 0.227903 0.857560
O O9 0.131252 0.306307 0.865807
O O10 0.894187 0.209480 0.341999
O O11 0.699321 0.134837 0.172216
O O12 0.852187 0.132827 0.496585
O O13 0.631557 0.927727 0.799634
#
# Coordination Sequence:
#
# PCOD8148663 Si02
#       7
#     8   8   4   8   8   8   8
#     4  11  24  40  66  95 130 179 219 258 329 388
#     4  11  23  41  68  95 130 166 221 270 319 398
#     4  12  20  36  66  96 128 164 212 266 332 380
#     4  10  24  42  63  94 134 172 217 270 315 386
#     4  11  22  39  62  93 133 168 207 267 324 389
#     4  10  23  42  66  95 129 168 214 272 328 373
#     4  11  22  39  62  96 125 165 214 269 326 380
#
# _framework density 21.182369000000001
#
# number of rings (size 3 to 8) (size 9 to 14) (size 15 to 20)
#    0.000    1.231    1.538    4.615    4.308    0.615 
#    0.000    3.077    6.769    0.000    0.000    0.000 
#    0.000    0.000    0.000    0.000    0.000    0.000 
#
# Total GULP energy -322187.997564 kJ/mol
# GULP energy per Si atom -12391.846060 kJ/mol
# Density = 2.113416 g / cm^3
# Si number density = 21.182369 Si / 1000 Ang^3
#
#
#
# Elastic Constant Matrix: (Units=GPa)
#
#
# Indices 1 2 3 4 5 6 
#
# 1 93.7441 17.9914 29.6203 0.0000 -5.7757 0.0000
# 2 17.9914 85.7999 22.9918 0.0000 -3.3417 0.0000
# 3 29.6203 22.9918 106.3863 0.0000 -27.9266 0.0000
# 4 0.0000 0.0000 0.0000 21.2645 0.0000 2.1610
# 5 -5.7757 -3.3417 -27.9266 0.0000 37.3063 0.0000
# 6 0.0000 0.0000 0.0000 2.1610 0.0000 10.9432
#
#
#
# Elastic Compliance Matrix: (Units=1/GPa)
#
#
# Indices 1 2 3 4 5 6 
#
# 1 0.011941 -0.001691 -0.003128 0.000000 -0.000645 0.000000
# 2 -0.001691 0.012648 -0.002531 0.000000 -0.001024 0.000000
# 3 -0.003128 -0.002531 0.013231 0.000000 0.009193 0.000000
# 4 0.000000 0.000000 0.000000 0.047990 0.000000 -0.009477
# 5 -0.000645 -0.001024 0.009193 0.000000 0.033496 0.000000
# 6 0.000000 0.000000 0.000000 -0.009477 0.000000 0.093252
#
#
# Mechanical properties :
#
#
# Convention : Reuss Voigt Hill
#
# Bulk Modulus (GPa) = 43.25497 47.45969 45.35733
# Shear Modulus (GPa) = 21.27982 28.25792 24.76887
#
# Velocity S-wave (km/s) = 3.17298 3.65640 3.42324
# Velocity P-wave (km/s) = 5.82137 6.34662 6.08966
#
# Compressibility (1/GPa) = 0.02311873
#
# Stress axis : x y z
#
# Youngs Moduli (GPa) = 83.74821 79.06374 75.57943
#
# Poissons Ratio (x) = 0.13367 0.23644
# Poissons Ratio (y) = 0.14159 0.19133
# Poissons Ratio (z) = 0.26200 0.20015
#
# Static dielectric constant tensor:
#      x y z
#    x 3.875970 0.000000 -0.317990 
#    y 0.000000 3.706490 0.000000 
#    z -0.317990 0.000000 4.369210 
# 
# 
# High freq. dielectric constant tensor:
#      x y z
#    x 1.831410 0.000000 -0.012790 
#    y 0.000000 1.804700 0.000000 
#    z -0.012790 0.000000 1.851890 
# 
# From -- ./inp_files/99842.got.cif
#   From: 2010.06.25/outbox.cif.g09.slc.cpg/sg15_50_cif.got.tgz:99842.got - 2010.06.28 07:06:18.
