data_PCOD8148787
_publ_section_title
;
Structure prediction by ZEFSAII (Michael W. Deem and Ramdas Pophale) SiO2 
 PCOD8148787
Probable space group: C 2/C
;
_chemical_formula_sum "Si O2"
_cell_formula_units_Z 44
_cell_length_a 19.931065
_cell_length_b 16.717827
_cell_length_c 5.416848
_cell_angle_alpha 90.000000
_cell_angle_beta 83.251087
_cell_angle_gamma 90.000000
_cell_volume 1792.409116
_symmetry_space_group_name_H-M "C 2/C"
_symmetry_group_IT_number 15
_symmetry_cell_setting 'monoclinic'
loop_
_space_group_symop_operation_xyz
x,y,z
-x,y,1/2-z
-x,-y,-z
x,-y,1/2+z
1/2+x,1/2+y,z
1/2-x,1/2+y,1/2-z
1/2-x,1/2-y,-z
1/2+x,1/2-y,1/2+z
loop_
_atom_site_type_symbol
_atom_site_label
_atom_site_fract_x
_atom_site_fract_y
_atom_site_fract_z
Si Si1 0.000000 0.171770 0.750000
Si Si2 0.376965 0.045100 0.416137
Si Si3 0.694839 0.742268 0.228435
Si Si4 0.613031 0.450024 0.304689
Si Si5 0.560013 0.804575 0.386206
Si Si6 0.739744 0.383146 0.034759
O O1 0.942942 0.118083 0.645045
O O2 0.034965 0.225630 0.531168
O O3 0.414720 0.129964 0.426543
O O4 0.294829 0.049755 0.440439
O O5 0.399517 0.993319 0.646523
O O6 0.620257 0.772381 0.179140
O O7 0.693476 0.649928 0.326867
O O8 0.715222 0.806224 0.425742
O O9 0.750000 0.750000 0.000000
O O10 0.604209 0.505360 0.546578
O O11 0.689148 0.413104 0.272194
O O12 0.500000 0.842441 0.250000
#
# Coordination Sequence:
#
# PCOD8148787 Si02
#       6
#     4   8   8   8   8   8
#     4  12  28  48  72 106 154 200 262 302 378 466
#     4  11  27  49  74 111 153 194 254 319 384 456
#     4  10  23  42  74 110 150 191 262 316 379 450
#     4  12  28  47  74 109 153 199 246 313 388 456
#     4  11  28  46  78 109 150 212 254 319 380 460
#     4  10  23  42  71 111 143 200 244 321 378 459
#
# _framework density 24.547964
#
# number of rings (size 3 to 8) (size 9 to 14) (size 15 to 20)
#    0.000    1.091    1.818    1.636   15.273    0.727 
#    0.000    0.000    0.000    0.000    0.000    0.000 
#    0.000    0.000    0.000    0.000    0.000    0.000 
#
# Total GULP energy -272652.359616 kJ/mol
# GULP energy per Si atom -12393.289073 kJ/mol
# Density = 2.449209 g / cm^3
# Si number density = 24.547964 Si / 1000 Ang^3
#
#
#
# Elastic Constant Matrix: (Units=GPa)
#
#
# Indices 1 2 3 4 5 6 
#
# 1 129.1242 46.7343 20.6582 0.0000 -9.1437 0.0000
# 2 46.7343 111.1717 42.0908 0.0000 -0.3646 0.0000
# 3 20.6582 42.0908 105.4077 0.0000 -2.3452 0.0000
# 4 0.0000 0.0000 0.0000 33.3843 0.0000 -13.2964
# 5 -9.1437 -0.3646 -2.3452 0.0000 35.5618 0.0000
# 6 0.0000 0.0000 0.0000 -13.2964 0.0000 39.7253
#
#
#
# Elastic Compliance Matrix: (Units=1/GPa)
#
#
# Indices 1 2 3 4 5 6 
#
# 1 0.009334 -0.003821 -0.000251 0.000000 0.002344 0.000000
# 2 -0.003821 0.012162 -0.004133 0.000000 -0.001130 0.000000
# 3 -0.000251 -0.004133 0.011201 0.000000 0.000632 0.000000
# 4 0.000000 0.000000 0.000000 0.034562 0.000000 0.011568
# 5 0.002344 -0.001130 0.000632 0.000000 0.028753 0.000000
# 6 0.000000 0.000000 0.000000 0.011568 0.000000 0.029045
#
#
# Mechanical properties :
#
#
# Convention : Reuss Voigt Hill
#
# Bulk Modulus (GPa) = 61.40114 62.74115 62.07115
# Shear Modulus (GPa) = 34.03797 37.48229 35.76013
#
# Velocity S-wave (km/s) = 3.72773 3.91180 3.82087
# Velocity P-wave (km/s) = 6.60265 6.78358 6.69373
#
# Compressibility (1/GPa) = 0.01628634
#
# Stress axis : x y z
#
# Youngs Moduli (GPa) = 107.14027 82.22099 89.28064
#
# Poissons Ratio (x) = 0.31415 0.02244
# Poissons Ratio (y) = 0.40936 0.36899
# Poissons Ratio (z) = 0.02693 0.33981
#
# Static dielectric constant tensor:
#      x y z
#    x 4.940630 0.000000 0.034280 
#    y 0.000000 5.442410 0.000000 
#    z 0.034280 0.000000 4.013090 
# 
# 
# High freq. dielectric constant tensor:
#      x y z
#    x 1.990640 0.000000 -0.011570 
#    y 0.000000 1.986850 0.000000 
#    z -0.011570 0.000000 1.956710 
# 
# From -- ./inp_files/12874.got.cif
#   From: 2010.06.25/outbox.cif.g09.slc.cpg/sg15_7_cif.got.tgz:12874.got - 2010.06.28 07:06:18.
