data_PCOD8148042
_publ_section_title
;
Structure prediction by ZEFSAII (Michael W. Deem and Ramdas Pophale) SiO2 
 PCOD8148042
Probable space group: C 2/C
;
_chemical_formula_sum "Si O2"
_cell_formula_units_Z 64
_cell_length_a 14.542952
_cell_length_b 29.903041
_cell_length_c 8.711880
_cell_angle_alpha 90.000000
_cell_angle_beta 132.282586
_cell_angle_gamma 90.000000
_cell_volume 2802.948015
_symmetry_space_group_name_H-M "C 2/C"
_symmetry_group_IT_number 15
_symmetry_cell_setting 'monoclinic'
loop_
_space_group_symop_operation_xyz
x,y,z
-x,y,1/2-z
-x,-y,-z
x,-y,1/2+z
1/2+x,1/2+y,z
1/2-x,1/2+y,1/2-z
1/2-x,1/2-y,-z
1/2+x,1/2-y,1/2+z
loop_
_atom_site_type_symbol
_atom_site_label
_atom_site_fract_x
_atom_site_fract_y
_atom_site_fract_z
Si Si1 0.909276 0.295186 0.003138
Si Si2 0.376509 0.729584 0.711055
Si Si3 0.237317 0.093409 0.647651
Si Si4 0.521637 0.126382 0.452556
Si Si5 0.944778 0.866400 0.342665
Si Si6 0.147181 0.486404 0.389194
Si Si7 0.183320 0.563375 0.221800
Si Si8 0.813520 0.859433 0.723649
O O1 0.000000 0.290675 0.250000
O O2 0.890494 0.247506 0.901328
O O3 0.775981 0.316688 0.897681
O O4 0.968694 0.326124 0.940474
O O5 0.500000 0.741373 0.750000
O O6 0.250000 0.750000 0.500000
O O7 0.358425 0.675931 0.699324
O O8 0.125189 0.093617 0.645338
O O9 0.300483 0.045428 0.688230
O O10 0.185144 0.113834 0.432868
O O11 0.337008 0.126209 0.836366
O O12 0.500000 0.119452 0.250000
O O13 0.452496 0.085172 0.460854
O O14 0.000000 0.888315 0.250000
O O15 0.049883 0.844293 0.572296
O O16 0.187078 0.537125 0.388756
O O17 0.211788 0.472625 0.620464
O O18 0.000000 0.483526 0.250000
O O19 0.276062 0.605494 0.318536
#
# Coordination Sequence:
#
# PCOD8148042 Si02
#       8
#     8   8   8   8   8   8   8   8
#     4  11  22  40  69 102 132 169 221 281 339 407
#     4  11  26  46  69 100 141 178 225 289 346 405
#     4  11  24  41  65  94 132 180 223 279 339 398
#     4  11  23  36  61  98 133 171 220 273 346 401
#     4  11  26  46  68  93 129 183 233 272 331 410
#     4  11  21  38  60 101 140 168 217 285 344 404
#     4  10  23  36  64  95 139 174 215 273 350 400
#     4  10  23  45  64  94 140 177 222 275 338 408
#
# _framework density 22.833103000000001
#
# number of rings (size 3 to 8) (size 9 to 14) (size 15 to 20)
#    0.000    1.250    2.500    3.000    8.750    1.000 
#    0.000    2.500    0.000    0.000    0.000    0.000 
#    0.000    0.000    0.000    0.000    0.000    0.000 
#
# Total GULP energy -396616.716691 kJ/mol
# GULP energy per Si atom -12394.272397 kJ/mol
# Density = 2.278113 g / cm^3
# Si number density = 22.833103 Si / 1000 Ang^3
#
#
#
# Elastic Constant Matrix: (Units=GPa)
#
#
# Indices 1 2 3 4 5 6 
#
# 1 121.7022 39.3455 21.8026 0.0000 -3.8111 0.0000
# 2 39.3455 70.4195 5.4575 0.0000 -12.4339 0.0000
# 3 21.8026 5.4575 87.7396 0.0000 7.3258 0.0000
# 4 0.0000 0.0000 0.0000 28.7098 0.0000 -2.6280
# 5 -3.8111 -12.4339 7.3258 0.0000 34.9325 0.0000
# 6 0.0000 0.0000 0.0000 -2.6280 0.0000 -33.6114
#
#
#
# Elastic Compliance Matrix: (Units=1/GPa)
#
#
# Indices 1 2 3 4 5 6 
#
# 1 0.010457 -0.005750 -0.002204 0.000000 -0.000444 0.000000
# 2 -0.005750 0.018490 -0.000222 0.000000 0.006001 0.000000
# 3 -0.002204 -0.000222 0.012199 0.000000 -0.002878 0.000000
# 4 0.000000 0.000000 0.000000 0.034584 0.000000 -0.002704
# 5 -0.000444 0.006001 -0.002878 0.000000 0.031318 0.000000
# 6 0.000000 0.000000 0.000000 -0.002704 0.000000 -0.029540
#
#
# Mechanical properties :
#
#
# Convention : Reuss Voigt Hill
#
# Bulk Modulus (GPa) = 40.33266 45.89693 43.11480
# Shear Modulus (GPa) = 48.96045 20.22322 34.59184
#
# Velocity S-wave (km/s) = 4.63566 2.97930 3.89651
# Velocity P-wave (km/s) = 6.80844 5.65505 6.25837
#
# Compressibility (1/GPa) = 0.02479380
#
# Stress axis : x y z
#
# Youngs Moduli (GPa) = 95.63345 54.08320 81.97347
#
# Poissons Ratio (x) = 0.31098 0.18064
# Poissons Ratio (y) = 0.54989 0.01822
# Poissons Ratio (z) = 0.21075 0.01202
#
# Static dielectric constant tensor:
#      x y z
#    x 4.264260 0.000000 -0.054930 
#    y 0.000000 3.971300 0.000000 
#    z -0.054930 0.000000 3.960310 
# 
# 
# High freq. dielectric constant tensor:
#      x y z
#    x 1.901330 0.000000 -0.011070 
#    y 0.000000 1.887720 0.000000 
#    z -0.011070 0.000000 1.899610 
# 
# From -- ./inp_files/44894.got.cif
#   From: 2010.06.25/outbox.cif.g09.slc.cpg/sg15_23_cif.got.tgz:44894.got - 2010.06.28 07:06:18.
