data_PCOD8148056
_publ_section_title
;
Structure prediction by ZEFSAII (Michael W. Deem and Ramdas Pophale) SiO2 
 PCOD8148056
Probable space group: C 2/C
;
_chemical_formula_sum "Si O2"
_cell_formula_units_Z 64
_cell_length_a 23.741153
_cell_length_b 16.215069
_cell_length_c 11.079919
_cell_angle_alpha 90.000000
_cell_angle_beta 44.471229
_cell_angle_gamma 90.000000
_cell_volume 2988.112622
_symmetry_space_group_name_H-M "C 2/C"
_symmetry_group_IT_number 15
_symmetry_cell_setting 'monoclinic'
loop_
_space_group_symop_operation_xyz
x,y,z
-x,y,1/2-z
-x,-y,-z
x,-y,1/2+z
1/2+x,1/2+y,z
1/2-x,1/2+y,1/2-z
1/2-x,1/2-y,-z
1/2+x,1/2-y,1/2+z
loop_
_atom_site_type_symbol
_atom_site_label
_atom_site_fract_x
_atom_site_fract_y
_atom_site_fract_z
Si Si1 0.505351 0.609772 0.880642
Si Si2 0.483466 0.918975 0.952322
Si Si3 0.238809 0.868473 0.283670
Si Si4 0.630176 0.080745 0.083195
Si Si5 0.020409 0.263156 0.404921
Si Si6 0.219594 0.578417 0.518828
Si Si7 0.630166 0.777214 0.024383
Si Si8 0.368596 0.504933 0.684783
O O1 0.500000 0.638164 0.750000
O O2 0.590739 0.566727 0.780016
O O3 0.494832 0.689441 0.980105
O O4 0.435776 0.543928 0.009092
O O5 0.422681 0.953370 0.945847
O O6 0.566695 0.878100 0.772520
O O7 0.442615 0.844561 0.088605
O O8 0.500000 0.000000 0.000000
O O9 0.282999 0.887902 0.341596
O O10 0.192788 0.783323 0.366111
O O11 0.179353 0.943119 0.342065
O O12 0.302984 0.857635 0.075328
O O13 0.670775 0.006025 0.091920
O O14 0.938720 0.295797 0.467605
O O15 0.087267 0.234175 0.205600
O O16 0.178739 0.641475 0.487659
O O17 0.311261 0.560614 0.339141
#
# Coordination Sequence:
#
# PCOD8148056 Si02
#       8
#     8   8   8   8   8   8   8   8
#     4  11  23  42  67  95 130 171 217 273 334 400
#     4  11  22  41  62  89 126 173 217 268 325 394
#     4  11  21  40  63  94 128 164 214 271 328 386
#     4  10  23  37  61  90 125 166 209 267 323 392
#     4  11  24  41  66  97 129 173 224 274 328 393
#     4  11  22  39  64  93 127 169 221 263 326 396
#     4  11  23  41  65  96 129 170 221 279 320 386
#     4  10  23  42  65  96 127 171 218 270 331 393
#
# _framework density 21.418201
#
# number of rings (size 3 to 8) (size 9 to 14) (size 15 to 20)
#    0.000    1.250    1.250    4.875    1.750    5.000 
#    0.000    0.625    0.000    0.000    0.000    0.000 
#    0.000    0.000    0.000    0.000    0.000    0.000 
#
# Total GULP energy -396752.054447 kJ/mol
# GULP energy per Si atom -12398.501701 kJ/mol
# Density = 2.136945 g / cm^3
# Si number density = 21.418201 Si / 1000 Ang^3
#
#
#
# Elastic Constant Matrix: (Units=GPa)
#
#
# Indices 1 2 3 4 5 6 
#
# 1 78.8120 9.4063 21.9956 0.0000 -2.1631 0.0000
# 2 9.4063 61.5921 20.7766 0.0000 0.1129 0.0000
# 3 21.9956 20.7766 92.6007 0.0000 -7.4303 0.0000
# 4 0.0000 0.0000 0.0000 21.2818 0.0000 -1.3946
# 5 -2.1631 0.1129 -7.4303 0.0000 34.0539 0.0000
# 6 0.0000 0.0000 0.0000 -1.3946 0.0000 40.2634
#
#
#
# Elastic Compliance Matrix: (Units=1/GPa)
#
#
# Indices 1 2 3 4 5 6 
#
# 1 0.013656 -0.001079 -0.002984 0.000000 0.000220 0.000000
# 2 -0.001079 0.017680 -0.003787 0.000000 -0.000953 0.000000
# 3 -0.002984 -0.003787 0.012563 0.000000 0.002564 0.000000
# 4 0.000000 0.000000 0.000000 0.047095 0.000000 0.001631
# 5 0.000220 -0.000953 0.002564 0.000000 0.029942 0.000000
# 6 0.000000 0.000000 0.000000 0.001631 0.000000 0.024893
#
#
# Mechanical properties :
#
#
# Convention : Reuss Voigt Hill
#
# Bulk Modulus (GPa) = 35.46258 37.48463 36.47361
# Shear Modulus (GPa) = 29.25183 31.17489 30.21336
#
# Velocity S-wave (km/s) = 3.69961 3.81928 3.75992
# Velocity P-wave (km/s) = 5.90277 6.08182 5.99296
#
# Compressibility (1/GPa) = 0.02819874
#
# Stress axis : x y z
#
# Youngs Moduli (GPa) = 73.22756 56.56153 79.59731
#
# Poissons Ratio (x) = 0.06105 0.23751
# Poissons Ratio (y) = 0.07904 0.30143
# Poissons Ratio (z) = 0.21850 0.21419
#
# Static dielectric constant tensor:
#      x y z
#    x 4.082040 0.000000 -0.109650 
#    y 0.000000 3.621810 0.000000 
#    z -0.109650 0.000000 4.201310 
# 
# 
# High freq. dielectric constant tensor:
#      x y z
#    x 1.856650 0.000000 -0.008470 
#    y 0.000000 1.822660 0.000000 
#    z -0.008470 0.000000 1.852910 
# 
# From -- ./inp_files/123524.got.cif
#   From: 2010.06.25/outbox.cif.g09.slc.cpg/sg15_62_cif.got.tgz:123524.got - 2010.06.28 07:06:18.
