data_PCOD8148114
_publ_section_title
;
Structure prediction by ZEFSAII (Michael W. Deem and Ramdas Pophale) SiO2 
 PCOD8148114
Probable space group: C 2/C
;
_chemical_formula_sum "Si O2"
_cell_formula_units_Z 64
_cell_length_a 14.529780
_cell_length_b 11.377121
_cell_length_c 17.419842
_cell_angle_alpha 90.000000
_cell_angle_beta 88.217427
_cell_angle_gamma 90.000000
_cell_volume 2878.229415
_symmetry_space_group_name_H-M "C 2/C"
_symmetry_group_IT_number 15
_symmetry_cell_setting 'monoclinic'
loop_
_space_group_symop_operation_xyz
x,y,z
-x,y,1/2-z
-x,-y,-z
x,-y,1/2+z
1/2+x,1/2+y,z
1/2-x,1/2+y,1/2-z
1/2-x,1/2-y,-z
1/2+x,1/2-y,1/2+z
loop_
_atom_site_type_symbol
_atom_site_label
_atom_site_fract_x
_atom_site_fract_y
_atom_site_fract_z
Si Si1 0.470953 0.258172 0.834641
Si Si2 0.170570 0.156727 0.799512
Si Si3 0.410593 0.852676 0.791166
Si Si4 0.362425 0.510795 0.343003
Si Si5 0.607493 0.722594 0.457760
Si Si6 0.502330 0.662455 0.601652
Si Si7 0.160375 0.430566 0.118119
Si Si8 0.736150 0.060085 0.978708
O O1 0.500000 0.216089 0.750000
O O2 0.390199 0.354759 0.828632
O O3 0.564397 0.299949 0.875080
O O4 0.432730 0.145282 0.882571
O O5 0.159490 0.289181 0.766407
O O6 0.103971 0.143826 0.875183
O O7 0.272127 0.143439 0.829330
O O8 0.149616 0.055550 0.737622
O O9 0.500000 0.914521 0.750000
O O10 0.448865 0.747780 0.840324
O O11 0.353765 0.942654 0.843095
O O12 0.447529 0.461893 0.390396
O O13 0.270869 0.495592 0.397544
O O14 0.519003 0.713931 0.516615
O O15 0.654042 0.850426 0.461295
O O16 0.682931 0.624231 0.475918
O O17 0.197748 0.453227 0.031498
#
# Coordination Sequence:
#
# PCOD8148114 Si02
#       8
#     8   8   8   8   8   8   8   8
#     4  12  29  44  63 100 142 178 221 281 346 395
#     4  10  23  38  71  95 134 172 228 277 329 395
#     4   9  19  42  63  90 126 173 225 265 326 404
#     4  10  23  43  66  99 133 172 225 279 340 389
#     4  10  23  45  71  97 135 176 229 271 337 404
#     4   9  18  42  70  94 117 178 224 271 323 395
#     4  12  26  41  64 102 134 175 222 276 342 394
#     4  10  24  44  73  98 129 182 228 276 331 407
#
# _framework density 22.235892
#
# number of rings (size 3 to 8) (size 9 to 14) (size 15 to 20)
#    0.000    1.750    1.250    2.250   10.500    2.000 
#    0.000    0.000    0.000    0.000    0.000    0.000 
#    0.000    0.000    0.000    0.000    0.000    0.000 
#
# Total GULP energy -396779.132744 kJ/mol
# GULP energy per Si atom -12399.347898 kJ/mol
# Density = 2.218528 g / cm^3
# Si number density = 22.235892 Si / 1000 Ang^3
#
#
#
# Elastic Constant Matrix: (Units=GPa)
#
#
# Indices 1 2 3 4 5 6 
#
# 1 77.7167 30.5963 44.6367 0.0000 -10.2774 0.0000
# 2 30.5963 74.6674 16.6228 0.0000 -20.3886 0.0000
# 3 44.6367 16.6228 102.4132 0.0000 -20.5062 0.0000
# 4 0.0000 0.0000 0.0000 48.8860 0.0000 0.7195
# 5 -10.2774 -20.3886 -20.5062 0.0000 38.7049 0.0000
# 6 0.0000 0.0000 0.0000 0.7195 0.0000 35.2216
#
#
#
# Elastic Compliance Matrix: (Units=1/GPa)
#
#
# Indices 1 2 3 4 5 6 
#
# 1 0.019956 -0.007125 -0.008090 0.000000 -0.002740 0.000000
# 2 -0.007125 0.018277 0.001888 0.000000 0.008736 0.000000
# 3 -0.008090 0.001888 0.014267 0.000000 0.006405 0.000000
# 4 0.000000 0.000000 0.000000 0.020462 0.000000 -0.000418
# 5 -0.002740 0.008736 0.006405 0.000000 0.033104 0.000000
# 6 0.000000 0.000000 0.000000 -0.000418 0.000000 0.028400
#
#
# Mechanical properties :
#
#
# Convention : Reuss Voigt Hill
#
# Bulk Modulus (GPa) = 38.69015 48.72324 43.70669
# Shear Modulus (GPa) = 29.45746 35.42526 32.44136
#
# Velocity S-wave (km/s) = 3.64369 3.99577 3.82378
# Velocity P-wave (km/s) = 5.92787 6.57630 6.26048
#
# Compressibility (1/GPa) = 0.02584637
#
# Stress axis : x y z
#
# Youngs Moduli (GPa) = 50.10911 54.71224 70.09420
#
# Poissons Ratio (x) = 0.38981 0.56708
# Poissons Ratio (y) = 0.35701 -0.13233
# Poissons Ratio (z) = 0.40540 -0.10329
#
# Static dielectric constant tensor:
#      x y z
#    x 3.454350 0.000000 0.298130 
#    y 0.000000 3.851690 0.000000 
#    z 0.298130 0.000000 3.305960 
# 
# 
# High freq. dielectric constant tensor:
#      x y z
#    x 1.871920 0.000000 -0.015350 
#    y 0.000000 1.867540 0.000000 
#    z -0.015350 0.000000 1.874660 
# 
# From -- ./inp_files/204454.got.cif
#   From: 2010.06.25/outbox.cif.g09.slc.cpg/sg15_103_cif.got.tgz:204454.got - 2010.06.28 07:06:18.
