data_PCOD8148219
_publ_section_title
;
Structure prediction by ZEFSAII (Michael W. Deem and Ramdas Pophale) SiO2 
 PCOD8148219
Probable space group: C 2/C
;
_chemical_formula_sum "Si O2"
_cell_formula_units_Z 48
_cell_length_a 20.571362
_cell_length_b 24.738576
_cell_length_c 14.993522
_cell_angle_alpha 90.000000
_cell_angle_beta 162.331451
_cell_angle_gamma 90.000000
_cell_volume 2315.871829
_symmetry_space_group_name_H-M "C 2/C"
_symmetry_group_IT_number 15
_symmetry_cell_setting 'monoclinic'
loop_
_space_group_symop_operation_xyz
x,y,z
-x,y,1/2-z
-x,-y,-z
x,-y,1/2+z
1/2+x,1/2+y,z
1/2-x,1/2+y,1/2-z
1/2-x,1/2-y,-z
1/2+x,1/2-y,1/2+z
loop_
_atom_site_type_symbol
_atom_site_label
_atom_site_fract_x
_atom_site_fract_y
_atom_site_fract_z
Si Si1 0.084067 0.179467 0.458803
Si Si2 0.481179 0.452955 0.359267
Si Si3 0.414052 0.728040 0.408599
Si Si4 0.339714 0.082408 0.209252
Si Si5 0.173437 0.065859 0.652661
Si Si6 0.775429 0.802259 0.908639
O O1 0.296164 0.214763 0.743570
O O2 0.131624 0.116568 0.534793
O O3 0.916580 0.198045 0.316454
O O4 0.000000 0.188630 0.250000
O O5 0.703188 0.425170 0.621084
O O6 0.529971 0.516480 0.430786
O O7 0.399720 0.423416 0.341856
O O8 0.290089 0.446108 0.039439
O O9 0.647208 0.745901 0.751223
O O10 0.308503 0.689063 0.344625
O O11 0.571474 0.054285 0.516820
O O12 0.353375 0.147396 0.215863
O O13 0.000000 0.795130 0.250000
#
# Coordination Sequence:
#
# PCOD8148219 Si02
#       6
#     8   8   8   8   8   8
#     4  11  23  40  65  87 124 168 215 257 313 371
#     4  10  23  40  64  90 129 162 206 267 315 379
#     4  10  23  40  60  93 129 164 207 261 309 378
#     4  11  21  40  67  91 127 165 203 260 330 375
#     4  11  23  42  64  94 123 167 214 259 319 379
#     4  11  20  38  62  94 129 164 202 254 325 380
#
# _framework density 20.726535999999999
#
# number of rings (size 3 to 8) (size 9 to 14) (size 15 to 20)
#    0.000    1.333    3.333    3.000    2.333    0.000 
#    0.000    0.000    0.000    0.000    0.000    0.000 
#    0.000    0.000    0.000    0.000    0.000    0.000 
#
# Total GULP energy -297522.912363 kJ/mol
# GULP energy per Si atom -12396.788015 kJ/mol
# Density = 2.067936 g / cm^3
# Si number density = 20.726536 Si / 1000 Ang^3
#
#
#
# Elastic Constant Matrix: (Units=GPa)
#
#
# Indices 1 2 3 4 5 6 
#
# 1 96.2503 20.6275 41.0433 0.0033 -4.4644 0.0002
# 2 20.6275 75.8077 33.7354 -0.0002 -12.6111 0.0000
# 3 41.0433 33.7354 87.5373 0.0087 -5.3492 -0.0002
# 4 0.0033 -0.0002 0.0087 -4.8539 0.0029 0.7081
# 5 -4.4644 -12.6111 -5.3492 0.0029 28.5707 0.0001
# 6 0.0002 0.0000 -0.0002 0.7081 0.0001 34.1202
#
#
#
# Elastic Compliance Matrix: (Units=1/GPa)
#
#
# Indices 1 2 3 4 5 6 
#
# 1 0.013057 -0.000905 -0.005739 -0.000001 0.000566 0.000000
# 2 -0.000905 0.017050 -0.005761 -0.000008 0.006306 0.000000
# 3 -0.005739 -0.005761 0.016311 0.000025 -0.000386 0.000000
# 4 -0.000001 -0.000008 0.000025 -0.205399 0.000022 0.004263
# 5 0.000566 0.006306 -0.000386 0.000022 0.037801 -0.000001
# 6 0.000000 0.000000 0.000000 0.004263 -0.000001 0.029220
#
#
# Mechanical properties :
#
#
# Convention : Reuss Voigt Hill
#
# Bulk Modulus (GPa) = 46.27749 50.04529 48.16139
# Shear Modulus (GPa) = -83.40574 22.51335 -30.44619
#
# Velocity S-wave (km/s) = -6.35046 3.29934 -3.83684
# Velocity P-wave (km/s) = 5.60313 6.22191 1.91273
#
# Compressibility (1/GPa) = 0.02160878
#
# Stress axis : x y z
#
# Youngs Moduli (GPa) = 76.58828 58.64972 61.30802
#
# Poissons Ratio (x) = 0.05307 0.35182
# Poissons Ratio (y) = 0.06930 0.35322
# Poissons Ratio (z) = 0.43951 0.33790
#
# Static dielectric constant tensor:
#      x y z
#    x 4.023280 0.000000 0.145480 
#    y 0.000000 3.654130 0.000000 
#    z 0.145480 0.000000 3.617210 
# 
# 
# High freq. dielectric constant tensor:
#      x y z
#    x 1.822900 0.000000 0.006400 
#    y 0.000000 1.810850 0.000000 
#    z 0.006400 0.000000 1.801180 
# 
# From -- ./inp_files/169707.got.cif
#   From: 2010.06.25/outbox.cif.g09.slc.cpg/sg15_85_cif.got.tgz:169707.got - 2010.06.28 07:06:18.
