data_PCOD8148515
_publ_section_title
;
Structure prediction by ZEFSAII (Michael W. Deem and Ramdas Pophale) SiO2 
 PCOD8148515
Probable space group: C 2/C
;
_chemical_formula_sum "Si O2"
_cell_formula_units_Z 64
_cell_length_a 25.983814
_cell_length_b 10.815784
_cell_length_c 13.535511
_cell_angle_alpha 90.000000
_cell_angle_beta 43.106636
_cell_angle_gamma 90.000000
_cell_volume 2599.465496
_symmetry_space_group_name_H-M "C 2/C"
_symmetry_group_IT_number 15
_symmetry_cell_setting 'monoclinic'
loop_
_space_group_symop_operation_xyz
x,y,z
-x,y,1/2-z
-x,-y,-z
x,-y,1/2+z
1/2+x,1/2+y,z
1/2-x,1/2+y,1/2-z
1/2-x,1/2-y,-z
1/2+x,1/2-y,1/2+z
loop_
_atom_site_type_symbol
_atom_site_label
_atom_site_fract_x
_atom_site_fract_y
_atom_site_fract_z
Si Si1 0.670883 0.165389 0.728234
Si Si2 0.569554 0.014453 0.006091
Si Si3 0.942786 0.922587 0.752128
Si Si4 0.669557 0.014380 0.045972
Si Si5 0.452705 0.803462 0.730184
Si Si6 0.668329 0.542072 0.241234
Si Si7 0.332249 0.611589 0.578459
Si Si8 0.950174 0.750774 0.023310
O O1 0.601484 0.124987 0.893384
O O2 0.663430 0.093126 0.635995
O O3 0.671617 0.312270 0.711891
O O4 0.744753 0.128965 0.685168
O O5 0.543217 0.897230 0.979878
O O6 0.496143 0.066321 0.161000
O O7 0.629669 0.965977 0.002563
O O8 0.904902 0.007530 0.719549
O O9 0.000000 0.988847 0.750000
O O10 0.985863 0.809214 0.637102
O O11 0.872191 0.879619 0.916923
O O12 0.633088 0.148866 0.126264
O O13 0.758234 0.031941 0.898834
O O14 0.500000 0.731074 0.750000
O O15 0.456543 0.712738 0.630040
O O16 0.654865 0.516493 0.376974
O O17 0.366940 0.715672 0.601728
#
# Coordination Sequence:
#
# PCOD8148515 Si02
#       8
#     8   8   8   8   8   8   8   8
#     4  12  24  41  73 104 145 191 237 301 366 418
#     4  11  23  41  71 110 143 179 236 312 361 417
#     4  10  25  43  71 100 133 187 240 289 354 417
#     4  11  23  39  69 105 139 186 237 289 370 420
#     4  10  23  41  69 108 149 181 234 305 371 416
#     4  12  25  44  68 103 146 190 245 291 347 452
#     4  11  26  45  68 105 141 192 242 295 359 427
#     4  11  23  43  70 101 141 186 243 299 353 425
#
# _framework density 24.620446000000001
#
# number of rings (size 3 to 8) (size 9 to 14) (size 15 to 20)
#    0.000    1.000    3.750    2.250    5.250    4.500 
#    0.000    5.000    0.000    1.500    0.000    0.000 
#    0.000    0.000    0.000    0.000    0.000    0.000 
#
# Total GULP energy -396489.057964 kJ/mol
# GULP energy per Si atom -12390.283061 kJ/mol
# Density = 2.456441 g / cm^3
# Si number density = 24.620446 Si / 1000 Ang^3
#
#
#
# Elastic Constant Matrix: (Units=GPa)
#
#
# Indices 1 2 3 4 5 6 
#
# 1 154.1851 16.9538 46.5941 0.0000 9.6904 0.0000
# 2 16.9538 64.5322 37.7616 0.0000 5.7142 0.0000
# 3 46.5941 37.7616 119.6474 0.0000 4.9956 0.0000
# 4 0.0000 0.0000 0.0000 24.4619 0.0000 0.9507
# 5 9.6904 5.7142 4.9956 0.0000 49.2842 0.0000
# 6 0.0000 0.0000 0.0000 0.9507 0.0000 17.0511
#
#
#
# Elastic Compliance Matrix: (Units=1/GPa)
#
#
# Indices 1 2 3 4 5 6 
#
# 1 0.007420 -0.000226 -0.002770 0.000000 -0.001152 0.000000
# 2 -0.000226 0.019140 -0.005887 0.000000 -0.001578 0.000000
# 3 -0.002770 -0.005887 0.011291 0.000000 0.000083 0.000000
# 4 0.000000 0.000000 0.000000 0.040969 0.000000 -0.002284
# 5 -0.001152 -0.001578 0.000083 0.000000 0.020692 0.000000
# 6 0.000000 0.000000 0.000000 -0.002284 0.000000 0.058775
#
#
# Mechanical properties :
#
#
# Convention : Reuss Voigt Hill
#
# Bulk Modulus (GPa) = 49.78885 60.10928 54.94907
# Shear Modulus (GPa) = 27.36021 33.96312 30.66167
#
# Velocity S-wave (km/s) = 3.33720 3.71815 3.53281
# Velocity P-wave (km/s) = 5.92585 6.54983 6.24564
#
# Compressibility (1/GPa) = 0.02008482
#
# Stress axis : x y z
#
# Youngs Moduli (GPa) = 134.76910 52.24669 88.56587
#
# Poissons Ratio (x) = 0.01183 0.24533
# Poissons Ratio (y) = 0.03052 0.52135
# Poissons Ratio (z) = 0.37331 0.30756
#
# Static dielectric constant tensor:
#      x y z
#    x 5.215410 0.000000 0.045900 
#    y 0.000000 3.837020 0.000000 
#    z 0.045900 0.000000 4.582180 
# 
# 
# High freq. dielectric constant tensor:
#      x y z
#    x 2.021310 0.000000 0.002750 
#    y 0.000000 1.939760 0.000000 
#    z 0.002750 0.000000 1.985210 
# 
# From -- ./inp_files/177820.got.cif
#   From: 2010.06.25/outbox.cif.g09.slc.cpg/sg15_89_cif.got.tgz:177820.got - 2010.06.28 07:06:18.
