data_PCOD8148764
_publ_section_title
;
Structure prediction by ZEFSAII (Michael W. Deem and Ramdas Pophale) SiO2 
 PCOD8148764
Probable space group: C 2/C
;
_chemical_formula_sum "Si O2"
_cell_formula_units_Z 48
_cell_length_a 15.574621
_cell_length_b 11.929307
_cell_length_c 10.851738
_cell_angle_alpha 90.000000
_cell_angle_beta 95.374503
_cell_angle_gamma 90.000000
_cell_volume 2007.328837
_symmetry_space_group_name_H-M "C 2/C"
_symmetry_group_IT_number 15
_symmetry_cell_setting 'monoclinic'
loop_
_space_group_symop_operation_xyz
x,y,z
-x,y,1/2-z
-x,-y,-z
x,-y,1/2+z
1/2+x,1/2+y,z
1/2-x,1/2+y,1/2-z
1/2-x,1/2-y,-z
1/2+x,1/2-y,1/2+z
loop_
_atom_site_type_symbol
_atom_site_label
_atom_site_fract_x
_atom_site_fract_y
_atom_site_fract_z
Si Si1 0.190645 0.354389 0.698370
Si Si2 0.170138 0.602871 0.685684
Si Si3 0.622890 0.591589 0.257252
Si Si4 0.362935 0.647748 0.669436
Si Si5 0.455052 0.736613 0.449876
Si Si6 0.856153 0.269996 0.060064
O O1 0.142161 0.472828 0.686625
O O2 0.281085 0.375730 0.783668
O O3 0.129470 0.264286 0.756073
O O4 0.209092 0.301830 0.562063
O O5 0.263110 0.617095 0.633630
O O6 0.106087 0.658076 0.580981
O O7 0.167398 0.657024 0.821758
O O8 0.600487 0.459698 0.250769
O O9 0.548761 0.653729 0.169308
O O10 0.632330 0.638981 0.398887
O O11 0.420992 0.661573 0.557339
O O12 0.548116 0.794128 0.481105
#
# Coordination Sequence:
#
# PCOD8148764 Si02
#       6
#     8   8   8   8   8   8
#     4  11  24  40  69 100 126 169 227 266 311 385
#     4  10  23  42  70  92 128 177 216 268 317 383
#     4  10  23  42  70  92 128 177 216 268 317 383
#     4  11  24  40  69 100 126 169 227 266 311 385
#     4  11  24  45  65  94 136 173 210 266 335 380
#     4  11  24  45  65  94 136 173 210 266 335 380
#
# _framework density 23.912374
#
# number of rings (size 3 to 8) (size 9 to 14) (size 15 to 20)
#    0.000    1.333    3.333    3.000    4.667    4.667 
#    6.000    0.000    0.000    0.000    0.000    0.000 
#    0.000    0.000    0.000    0.000    0.000    0.000 
#
# Total GULP energy -297417.988335 kJ/mol
# GULP energy per Si atom -12392.416181 kJ/mol
# Density = 2.385795 g / cm^3
# Si number density = 23.912374 Si / 1000 Ang^3
#
#
#
# Elastic Constant Matrix: (Units=GPa)
#
#
# Indices 1 2 3 4 5 6 
#
# 1 49.4369 -13.5590 3.8852 0.0000 -12.0023 0.0000
# 2 -13.5590 153.6658 13.5985 0.0000 -5.5196 0.0000
# 3 3.8852 13.5985 71.5307 0.0000 -16.4871 0.0000
# 4 0.0000 0.0000 0.0000 28.3631 0.0000 -2.8534
# 5 -12.0023 -5.5196 -16.4871 0.0000 34.8063 0.0000
# 6 0.0000 0.0000 0.0000 -2.8534 0.0000 12.7732
#
#
#
# Elastic Compliance Matrix: (Units=1/GPa)
#
#
# Indices 1 2 3 4 5 6 
#
# 1 0.022870 0.002296 0.000250 0.000000 0.008369 0.000000
# 2 0.002296 0.006858 -0.001117 0.000000 0.001350 0.000000
# 3 0.000250 -0.001117 0.015893 0.000000 0.007437 0.000000
# 4 0.000000 0.000000 0.000000 0.036068 0.000000 0.008057
# 5 0.008369 0.001350 0.007437 0.000000 0.035353 0.000000
# 6 0.000000 0.000000 0.000000 0.008057 0.000000 0.080089
#
#
# Mechanical properties :
#
#
# Convention : Reuss Voigt Hill
#
# Bulk Modulus (GPa) = 20.62734 31.38696 26.00715
# Shear Modulus (GPa) = 23.76073 33.23577 28.49825
#
# Velocity S-wave (km/s) = 3.15565 3.73218 3.45596
# Velocity P-wave (km/s) = 4.68215 5.63263 5.17924
#
# Compressibility (1/GPa) = 0.04847935
#
# Stress axis : x y z
#
# Youngs Moduli (GPa) = 43.72578 145.82309 62.92061
#
# Poissons Ratio (x) = -0.33487 -0.01574
# Poissons Ratio (y) = -0.10041 0.07030
# Poissons Ratio (z) = -0.01094 0.16292
#
# Static dielectric constant tensor:
#      x y z
#    x 4.406680 0.000000 -0.036250 
#    y 0.000000 4.506490 0.000000 
#    z -0.036250 0.000000 3.970720 
# 
# 
# High freq. dielectric constant tensor:
#      x y z
#    x 1.961370 0.000000 -0.006060 
#    y 0.000000 1.955160 0.000000 
#    z -0.006060 0.000000 1.921870 
# 
# From -- ./inp_files/103767.got.cif
#   From: 2010.06.25/outbox.cif.g09.slc.cpg/sg15_52_cif.got.tgz:103767.got - 2010.06.28 07:06:18.
