data_PCOD8148207
_publ_section_title
;
Structure prediction by ZEFSAII (Michael W. Deem and Ramdas Pophale) SiO2 
 PCOD8148207
Probable space group: C 2/C
;
_chemical_formula_sum "Si O2"
_cell_formula_units_Z 44
_cell_length_a 19.470745
_cell_length_b 19.952102
_cell_length_c 8.981024
_cell_angle_alpha 90.000000
_cell_angle_beta 144.369155
_cell_angle_gamma 90.000000
_cell_volume 2032.535797
_symmetry_space_group_name_H-M "C 2/C"
_symmetry_group_IT_number 15
_symmetry_cell_setting 'monoclinic'
loop_
_space_group_symop_operation_xyz
x,y,z
-x,y,1/2-z
-x,-y,-z
x,-y,1/2+z
1/2+x,1/2+y,z
1/2-x,1/2+y,1/2-z
1/2-x,1/2-y,-z
1/2+x,1/2-y,1/2+z
loop_
_atom_site_type_symbol
_atom_site_label
_atom_site_fract_x
_atom_site_fract_y
_atom_site_fract_z
Si Si1 0.266268 0.912387 0.433300
Si Si2 0.275726 0.541079 0.961393
Si Si3 0.000000 0.018333 0.750000
Si Si4 0.540543 0.321474 0.983314
Si Si5 0.340033 0.371319 0.819176
Si Si6 0.178451 0.697901 0.280368
O O1 0.140275 0.873631 0.216323
O O2 0.361751 0.859816 0.671343
O O3 0.277547 0.973026 0.568685
O O4 0.289786 0.939074 0.308345
O O5 0.418379 0.531182 0.203993
O O6 0.254238 0.602703 0.036312
O O7 0.904850 0.062473 0.494658
O O8 0.574835 0.242538 0.027261
O O9 0.500000 0.346376 0.750000
O O10 0.436639 0.320903 0.922176
O O11 0.261403 0.333938 0.800487
O O12 0.250000 0.750000 0.500000
#
# Coordination Sequence:
#
# PCOD8148207 Si02
#       6
#     8   8   4   8   8   8
#     4  11  20  35  52  88 123 153 185 238 296 370
#     4  12  20  30  57  87 124 152 179 238 318 372
#     4  12  18  28  52  90 126 150 172 228 312 380
#     4  11  22  38  58  84 121 163 204 241 281 355
#     4  12  21  35  59  87 122 158 190 239 302 352
#     4  10  23  40  54  79 125 162 206 238 280 356
#
# _framework density 21.647836000000002
#
# number of rings (size 3 to 8) (size 9 to 14) (size 15 to 20)
#    0.000    0.727    7.273    2.727    0.000    0.727 
#    0.000    0.000    0.000    0.000    0.000    5.091 
#    0.000    0.182    0.000    0.000    0.000    0.000 
#
# Total GULP energy -272555.641259 kJ/mol
# GULP energy per Si atom -12388.892785 kJ/mol
# Density = 2.159856 g / cm^3
# Si number density = 21.647836 Si / 1000 Ang^3
#
#
#
# Elastic Constant Matrix: (Units=GPa)
#
#
# Indices 1 2 3 4 5 6 
#
# 1 81.7302 56.5261 34.8252 0.0000 -38.3535 0.0000
# 2 56.5261 127.0580 37.9316 0.0000 -24.1628 0.0000
# 3 34.8252 37.9316 45.2065 0.0000 -25.6563 0.0000
# 4 0.0000 0.0000 0.0000 32.4586 0.0000 -11.4723
# 5 -38.3535 -24.1628 -25.6563 0.0000 30.9718 0.0000
# 6 0.0000 0.0000 0.0000 -11.4723 0.0000 40.3549
#
#
#
# Elastic Compliance Matrix: (Units=1/GPa)
#
#
# Indices 1 2 3 4 5 6 
#
# 1 0.036222 -0.009292 0.002331 0.000000 0.039537 0.000000
# 2 -0.009292 0.012931 -0.008487 0.000000 -0.008448 0.000000
# 3 0.002331 -0.008487 0.047798 0.000000 0.035860 0.000000
# 4 0.000000 0.000000 0.000000 0.034250 0.000000 0.009737
# 5 0.039537 -0.008448 0.035860 0.000000 0.104362 0.000000
# 6 0.000000 0.000000 0.000000 0.009737 0.000000 0.027548
#
#
# Mechanical properties :
#
#
# Convention : Reuss Voigt Hill
#
# Bulk Modulus (GPa) = 15.13867 56.95118 36.04493
# Shear Modulus (GPa) = 15.82155 29.07119 22.44637
#
# Velocity S-wave (km/s) = 2.70638 3.66856 3.22357
# Velocity P-wave (km/s) = 4.09564 6.65654 5.52647
#
# Compressibility (1/GPa) = 0.06605598
#
# Stress axis : x y z
#
# Youngs Moduli (GPa) = 27.60771 77.33235 20.92134
#
# Poissons Ratio (x) = 0.71854 -0.04877
# Poissons Ratio (y) = 0.25652 0.17756
# Poissons Ratio (z) = -0.06436 0.65632
#
# Static dielectric constant tensor:
#      x y z
#    x 3.724600 0.000000 -0.440630 
#    y 0.000000 5.185020 0.000000 
#    z -0.440630 0.000000 3.977210 
# 
# 
# High freq. dielectric constant tensor:
#      x y z
#    x 1.824240 0.000000 -0.054570 
#    y 0.000000 1.871310 0.000000 
#    z -0.054570 0.000000 1.818670 
# 
# From -- ./inp_files/39332.got.cif
#   From: 2010.06.25/outbox.cif.g09.slc.cpg/sg15_20_cif.got.tgz:39332.got - 2010.06.28 07:06:18.
