data_PCOD8148309
_publ_section_title
;
Structure prediction by ZEFSAII (Michael W. Deem and Ramdas Pophale) SiO2 
 PCOD8148309
Probable space group: C 2/C
;
_chemical_formula_sum "Si O2"
_cell_formula_units_Z 60
_cell_length_a 9.542179
_cell_length_b 17.174817
_cell_length_c 20.769519
_cell_angle_alpha 90.000000
_cell_angle_beta 122.228311
_cell_angle_gamma 90.000000
_cell_volume 2879.389516
_symmetry_space_group_name_H-M "C 2/C"
_symmetry_group_IT_number 15
_symmetry_cell_setting 'monoclinic'
loop_
_space_group_symop_operation_xyz
x,y,z
-x,y,1/2-z
-x,-y,-z
x,-y,1/2+z
1/2+x,1/2+y,z
1/2-x,1/2+y,1/2-z
1/2-x,1/2-y,-z
1/2+x,1/2-y,1/2+z
loop_
_atom_site_type_symbol
_atom_site_label
_atom_site_fract_x
_atom_site_fract_y
_atom_site_fract_z
Si Si1 0.500000 0.076615 0.750000
Si Si2 0.438319 0.374633 0.501851
Si Si3 0.528839 0.956932 0.643010
Si Si4 0.620698 0.491829 0.831930
Si Si5 0.987328 0.828224 0.842933
Si Si6 0.299050 0.461336 0.010923
Si Si7 0.889881 0.702892 0.279751
Si Si8 0.735553 0.204607 0.846232
O O1 0.661696 0.131371 0.788879
O O2 0.492285 0.026408 0.683422
O O3 0.476739 0.321561 0.572705
O O4 0.604744 0.392865 0.502622
O O5 0.353372 0.454665 0.500316
O O6 0.310662 0.323362 0.431110
O O7 0.395614 0.953949 0.552436
O O8 0.519686 0.877204 0.680028
O O9 0.707084 0.966525 0.655965
O O10 0.500000 0.534800 0.750000
O O11 0.519533 0.415437 0.827406
O O12 0.659663 0.546858 0.902806
O O13 0.796605 0.808983 0.788577
O O14 0.095501 0.768512 0.827691
O O15 0.883738 0.759502 0.339896
O O16 0.000000 0.741253 0.250000
#
# Coordination Sequence:
#
# PCOD8148309 Si02
#       8
#     4   8   8   8   8   8   8   8
#     4  12  26  40  72 100 142 172 236 278 348 398
#     4  10  23  40  67  93 132 181 226 278 345 414
#     4  12  23  42  68 102 133 181 227 283 339 416
#     4  11  22  39  68  97 131 179 227 277 340 419
#     4  11  21  43  70  96 126 182 230 278 338 417
#     4  10  23  41  62  98 142 171 225 288 350 400
#     4  12  24  42  71  98 138 178 235 277 346 414
#     4  12  23  46  66  99 135 180 228 286 339 416
#
# _framework density 20.83775
#
# number of rings (size 3 to 8) (size 9 to 14) (size 15 to 20)
#    0.000    0.800    6.000    1.600    1.867    0.000 
#    2.400    2.667    0.000    0.000    0.000    0.000 
#    0.000    0.000    0.000    0.000    0.000    0.000 
#
# Total GULP energy -372061.124419 kJ/mol
# GULP energy per Si atom -12402.037481 kJ/mol
# Density = 2.079032 g / cm^3
# Si number density = 20.837750 Si / 1000 Ang^3
#
#
#
# Elastic Constant Matrix: (Units=GPa)
#
#
# Indices 1 2 3 4 5 6 
#
# 1 103.3405 5.2486 37.5935 0.0000 -6.2811 0.0000
# 2 5.2486 58.8779 20.6563 0.0000 -12.3574 0.0000
# 3 37.5935 20.6563 157.4791 0.0000 -4.3528 0.0000
# 4 0.0000 0.0000 0.0000 16.2369 0.0000 4.6993
# 5 -6.2811 -12.3574 -4.3528 0.0000 38.3455 0.0000
# 6 0.0000 0.0000 0.0000 4.6993 0.0000 8.1138
#
#
#
# Elastic Compliance Matrix: (Units=1/GPa)
#
#
# Indices 1 2 3 4 5 6 
#
# 1 0.010682 0.000264 -0.002542 0.000000 0.001546 0.000000
# 2 0.000264 0.019042 -0.002397 0.000000 0.005908 0.000000
# 3 -0.002542 -0.002397 0.007261 0.000000 -0.000365 0.000000
# 4 0.000000 0.000000 0.000000 0.073991 0.000000 -0.042853
# 5 0.001546 0.005908 -0.000365 0.000000 0.028194 0.000000
# 6 0.000000 0.000000 0.000000 -0.042853 0.000000 0.148066
#
#
# Mechanical properties :
#
#
# Convention : Reuss Voigt Hill
#
# Bulk Modulus (GPa) = 36.18661 49.63270 42.90966
# Shear Modulus (GPa) = 16.35068 29.61916 22.98492
#
# Velocity S-wave (km/s) = 2.80423 3.77426 3.32481
# Velocity P-wave (km/s) = 5.28096 6.54704 5.94778
#
# Compressibility (1/GPa) = 0.02763453
#
# Stress axis : x y z
#
# Youngs Moduli (GPa) = 93.61512 52.51610 137.71738
#
# Poissons Ratio (x) = -0.01387 0.35007
# Poissons Ratio (y) = -0.02472 0.33017
# Poissons Ratio (z) = 0.23796 0.12590
#
# Static dielectric constant tensor:
#      x y z
#    x 3.806930 0.000000 -0.133760 
#    y 0.000000 3.671660 0.000000 
#    z -0.133760 0.000000 4.154890 
# 
# 
# High freq. dielectric constant tensor:
#      x y z
#    x 1.817580 0.000000 -0.002100 
#    y 0.000000 1.796580 0.000000 
#    z -0.002100 0.000000 1.837210 
# 
# From -- ./inp_files/233073.got.cif
#   From: 2010.06.25/outbox.cif.g09.slc.cpg/sg15_117_cif.got.tgz:233073.got - 2010.06.28 07:06:18.
