data_PCOD8148001
_publ_section_title
;
Structure prediction by ZEFSAII (Michael W. Deem and Ramdas Pophale) SiO2 
 PCOD8148001
Probable space group: C 2/C
;
_chemical_formula_sum "Si O2"
_cell_formula_units_Z 56
_cell_length_a 14.550840
_cell_length_b 16.743122
_cell_length_c 13.518062
_cell_angle_alpha 90.000000
_cell_angle_beta 122.749107
_cell_angle_gamma 90.000000
_cell_volume 2769.870319
_symmetry_space_group_name_H-M "C 2/C"
_symmetry_group_IT_number 15
_symmetry_cell_setting 'monoclinic'
loop_
_space_group_symop_operation_xyz
x,y,z
-x,y,1/2-z
-x,-y,-z
x,-y,1/2+z
1/2+x,1/2+y,z
1/2-x,1/2+y,1/2-z
1/2-x,1/2-y,-z
1/2+x,1/2-y,1/2+z
loop_
_atom_site_type_symbol
_atom_site_label
_atom_site_fract_x
_atom_site_fract_y
_atom_site_fract_z
Si Si1 0.302278 0.040859 0.183281
Si Si2 0.015421 0.719300 0.475750
Si Si3 0.269988 0.523390 0.057792
Si Si4 0.128634 0.159079 0.170990
Si Si5 0.898993 0.446110 0.410923
Si Si6 0.000000 0.931021 0.750000
Si Si7 0.500000 0.155202 0.250000
Si Si8 0.779631 0.702690 0.419730
O O1 0.214217 0.088986 0.196075
O O2 0.392628 0.101261 0.194171
O O3 0.362076 0.972278 0.280712
O O4 0.237486 0.993270 0.062290
O O5 0.894009 0.732839 0.444343
O O6 0.088337 0.796080 0.548462
O O7 0.065962 0.645317 0.564619
O O8 0.014024 0.709663 0.356080
O O9 0.201612 0.455495 0.072964
O O10 0.395881 0.514790 0.163566
O O11 0.218472 0.608792 0.054558
O O12 0.024321 0.123137 0.167770
O O13 0.189401 0.219433 0.282228
O O14 0.000000 0.500000 0.500000
O O15 0.750000 0.750000 0.500000
#
# Coordination Sequence:
#
# PCOD8148001 Si02
#       8
#     8   8   8   8   8   4   4   8
#     4  12  23  42  67  97 132 174 214 284 331 388
#     4  12  24  41  69  98 129 179 220 271 334 397
#     4  11  22  41  68  94 129 174 218 274 333 388
#     4  11  24  45  64  91 137 175 218 269 335 393
#     4  12  20  42  66  97 132 167 222 277 332 390
#     4  10  22  48  68  90 138 176 216 278 330 400
#     4  12  22  42  66  94 138 168 218 278 332 384
#     4  11  23  44  64  99 133 169 220 275 332 393
#
# _framework density 20.217552999999999
#
# number of rings (size 3 to 8) (size 9 to 14) (size 15 to 20)
#    0.000    0.571    8.571    1.714    2.000    1.143 
#    0.000    0.714    0.000    0.000    0.000    0.000 
#    0.000    0.000    0.000    0.000    0.000    0.000 
#
# Total GULP energy -347239.977608 kJ/mol
# GULP energy per Si atom -12401.427772 kJ/mol
# Density = 2.017154 g / cm^3
# Si number density = 20.217553 Si / 1000 Ang^3
#
#
#
# Elastic Constant Matrix: (Units=GPa)
#
#
# Indices 1 2 3 4 5 6 
#
# 1 123.1226 20.4382 45.2012 0.0000 1.1159 0.0000
# 2 20.4382 37.4454 33.8051 0.0000 -0.9046 0.0000
# 3 45.2012 33.8051 164.1456 0.0000 -6.3502 0.0000
# 4 0.0000 0.0000 0.0000 33.5021 0.0000 1.7089
# 5 1.1159 -0.9046 -6.3502 0.0000 37.9276 0.0000
# 6 0.0000 0.0000 0.0000 1.7089 0.0000 23.1030
#
#
#
# Elastic Compliance Matrix: (Units=1/GPa)
#
#
# Indices 1 2 3 4 5 6 
#
# 1 0.009397 -0.003422 -0.001909 0.000000 -0.000678 0.000000
# 2 -0.003422 0.034055 -0.006075 0.000000 -0.000104 0.000000
# 3 -0.001909 -0.006075 0.007917 0.000000 0.001237 0.000000
# 4 0.000000 0.000000 0.000000 0.029962 0.000000 -0.002216
# 5 -0.000678 -0.000104 0.001237 0.000000 0.026591 0.000000
# 6 0.000000 0.000000 0.000000 -0.002216 0.000000 0.043448
#
#
# Mechanical properties :
#
#
# Convention : Reuss Voigt Hill
#
# Bulk Modulus (GPa) = 35.01804 58.17806 46.59805
# Shear Modulus (GPa) = 27.21802 33.92448 30.57125
#
# Velocity S-wave (km/s) = 3.67312 4.10075 3.89281
# Velocity P-wave (km/s) = 5.94536 7.15961 6.58055
#
# Compressibility (1/GPa) = 0.02855671
#
# Stress axis : x y z
#
# Youngs Moduli (GPa) = 106.41629 29.36390 126.31156
#
# Poissons Ratio (x) = 0.10048 0.24115
# Poissons Ratio (y) = 0.36414 0.76738
# Poissons Ratio (z) = 0.20317 0.17840
#
# Static dielectric constant tensor:
#      x y z
#    x 3.916220 0.000000 0.086250 
#    y 0.000000 3.733530 0.000000 
#    z 0.086250 0.000000 4.094010 
# 
# 
# High freq. dielectric constant tensor:
#      x y z
#    x 1.805680 0.000000 0.000190 
#    y 0.000000 1.761390 0.000000 
#    z 0.000190 0.000000 1.805190 
# 
# From -- ./inp_files/98865.got.cif
#   From: 2010.06.25/outbox.cif.g09.slc.cpg/sg15_50_cif.got.tgz:98865.got - 2010.06.28 07:06:18.
