data_PCOD8148673
_publ_section_title
;
Structure prediction by ZEFSAII (Michael W. Deem and Ramdas Pophale) SiO2 
 PCOD8148673
Probable space group: C 2/C
;
_chemical_formula_sum "Si O2"
_cell_formula_units_Z 48
_cell_length_a 11.076074
_cell_length_b 22.013030
_cell_length_c 10.037206
_cell_angle_alpha 90.000000
_cell_angle_beta 66.663986
_cell_angle_gamma 90.000000
_cell_volume 2247.059917
_symmetry_space_group_name_H-M "C 2/C"
_symmetry_group_IT_number 15
_symmetry_cell_setting 'monoclinic'
loop_
_space_group_symop_operation_xyz
x,y,z
-x,y,1/2-z
-x,-y,-z
x,-y,1/2+z
1/2+x,1/2+y,z
1/2-x,1/2+y,1/2-z
1/2-x,1/2-y,-z
1/2+x,1/2-y,1/2+z
loop_
_atom_site_type_symbol
_atom_site_label
_atom_site_fract_x
_atom_site_fract_y
_atom_site_fract_z
Si Si1 0.891759 0.825589 0.399061
Si Si2 0.887474 0.704473 0.542030
Si Si3 0.500000 0.133240 0.250000
Si Si4 0.013709 0.070530 0.463181
Si Si5 0.500000 0.846407 0.250000
Si Si6 0.223453 0.563337 0.562207
Si Si7 0.276422 0.952196 0.737039
O O1 0.873331 0.776805 0.526074
O O2 0.752359 0.830001 0.385176
O O3 0.935601 0.891691 0.431475
O O4 0.000000 0.800786 0.250000
O O5 0.971339 0.675145 0.388001
O O6 0.959538 0.697803 0.649673
O O7 0.625340 0.093139 0.232541
O O8 0.128271 0.076166 0.301658
O O9 0.868764 0.093846 0.485553
O O10 0.000000 0.000000 0.500000
O O11 0.379582 0.885966 0.354167
O O12 0.218835 0.513932 0.680977
O O13 0.184533 0.535440 0.434160
#
# Coordination Sequence:
#
# PCOD8148673 Si02
#       7
#     8   8   4   8   4   8   8
#     4  11  23  45  73 100 130 183 230 275 338 411
#     4  11  25  44  71 102 135 175 226 284 341 408
#     4  12  21  44  70  96 133 176 224 280 340 414
#     4  10  23  42  66  98 132 175 223 277 331 399
#     4  12  25  44  64 102 139 172 218 288 342 396
#     4  11  25  41  65  98 136 180 225 280 340 401
#     4  11  24  41  66  97 135 177 228 279 338 408
#
# _framework density 21.361246999999999
#
# number of rings (size 3 to 8) (size 9 to 14) (size 15 to 20)
#    0.000    1.000    4.167    2.000    2.333    6.667 
#    3.000    1.667    0.000    0.000    0.000    0.000 
#    0.000    0.000    0.000    0.000    0.000    0.000 
#
# Total GULP energy -297565.874997 kJ/mol
# GULP energy per Si atom -12398.578125 kJ/mol
# Density = 2.131263 g / cm^3
# Si number density = 21.361247 Si / 1000 Ang^3
#
#
#
# Elastic Constant Matrix: (Units=GPa)
#
#
# Indices 1 2 3 4 5 6 
#
# 1 129.5104 47.8598 43.6660 0.0000 -4.3430 0.0000
# 2 47.8598 84.5091 22.9383 0.0000 6.7600 0.0000
# 3 43.6660 22.9383 116.4474 0.0000 13.0247 0.0000
# 4 0.0000 0.0000 0.0000 27.6208 0.0000 6.8913
# 5 -4.3430 6.7600 13.0247 0.0000 42.7969 0.0000
# 6 0.0000 0.0000 0.0000 6.8913 0.0000 28.7485
#
#
#
# Elastic Compliance Matrix: (Units=1/GPa)
#
#
# Indices 1 2 3 4 5 6 
#
# 1 0.011017 -0.005565 -0.003373 0.000000 0.003024 0.000000
# 2 -0.005565 0.015380 -0.000629 0.000000 -0.002803 0.000000
# 3 -0.003373 -0.000629 0.010356 0.000000 -0.003395 0.000000
# 4 0.000000 0.000000 0.000000 0.038508 0.000000 -0.009231
# 5 0.003024 -0.002803 -0.003395 0.000000 0.025149 0.000000
# 6 0.000000 0.000000 0.000000 -0.009231 0.000000 0.036997
#
#
# Mechanical properties :
#
#
# Convention : Reuss Voigt Hill
#
# Bulk Modulus (GPa) = 56.76188 62.15499 59.45844
# Shear Modulus (GPa) = 30.78564 34.23345 32.50954
#
# Velocity S-wave (km/s) = 3.80042 4.00759 3.90538
# Velocity P-wave (km/s) = 6.77404 7.11158 6.94486
#
# Compressibility (1/GPa) = 0.01761746
#
# Stress axis : x y z
#
# Youngs Moduli (GPa) = 90.77153 65.02021 96.56230
#
# Poissons Ratio (x) = 0.36186 0.32570
# Poissons Ratio (y) = 0.50518 0.06075
# Poissons Ratio (z) = 0.30617 0.04091
#
# Static dielectric constant tensor:
#      x y z
#    x 3.564390 0.000000 -0.070510 
#    y 0.000000 3.643670 0.000000 
#    z -0.070510 0.000000 3.875890 
# 
# 
# High freq. dielectric constant tensor:
#      x y z
#    x 1.857020 0.000000 -0.014250 
#    y 0.000000 1.823590 0.000000 
#    z -0.014250 0.000000 1.843600 
# 
# From -- ./inp_files/32560.got.cif
#   From: 2010.06.25/outbox.cif.g09.slc.cpg/sg15_17_cif.got.tgz:32560.got - 2010.06.28 07:06:18.
