data_PCOD8148124
_publ_section_title
;
Structure prediction by ZEFSAII (Michael W. Deem and Ramdas Pophale) SiO2 
 PCOD8148124
Probable space group: C 2/C
;
_chemical_formula_sum "Si O2"
_cell_formula_units_Z 60
_cell_length_a 16.746827
_cell_length_b 21.195713
_cell_length_c 8.865917
_cell_angle_alpha 90.000000
_cell_angle_beta 62.582876
_cell_angle_gamma 90.000000
_cell_volume 2793.570185
_symmetry_space_group_name_H-M "C 2/C"
_symmetry_group_IT_number 15
_symmetry_cell_setting 'monoclinic'
loop_
_space_group_symop_operation_xyz
x,y,z
-x,y,1/2-z
-x,-y,-z
x,-y,1/2+z
1/2+x,1/2+y,z
1/2-x,1/2+y,1/2-z
1/2-x,1/2-y,-z
1/2+x,1/2-y,1/2+z
loop_
_atom_site_type_symbol
_atom_site_label
_atom_site_fract_x
_atom_site_fract_y
_atom_site_fract_z
Si Si1 0.550706 0.551360 0.862728
Si Si2 0.794766 0.041763 0.237012
Si Si3 0.359482 0.763841 0.520910
Si Si4 0.503133 0.311044 0.425792
Si Si5 0.429674 0.946448 0.089167
Si Si6 0.170049 0.181206 0.229799
Si Si7 0.317571 0.016380 0.432455
Si Si8 0.000000 0.349080 0.250000
O O1 0.500000 0.555307 0.750000
O O2 0.651537 0.523509 0.772937
O O3 0.542889 0.620695 0.944344
O O4 0.500000 0.500000 0.000000
O O5 0.843435 0.105841 0.243678
O O6 0.708659 0.034526 0.417624
O O7 0.765326 0.049119 0.086195
O O8 0.426502 0.743213 0.593803
O O9 0.271190 0.793668 0.680416
O O10 0.340511 0.701997 0.434865
O O11 0.409195 0.810852 0.362838
O O12 0.500000 0.309312 0.250000
O O13 0.407672 0.293287 0.589098
O O14 0.364475 0.971216 0.273972
O O15 0.480201 0.886137 0.111820
O O16 0.500000 0.000000 0.000000
O O17 0.378999 0.932577 0.971585
#
# Coordination Sequence:
#
# PCOD8148124 Si02
#       8
#     8   8   8   8   8   8   8   4
#     4  11  23  38  66 101 135 182 218 277 353 411
#     4  11  23  40  65 102 139 175 223 281 346 420
#     4  11  26  47  73  98 129 196 242 282 338 411
#     4  11  25  47  67 102 146 176 234 292 347 421
#     4  11  21  41  66  93 136 173 215 287 348 406
#     4  11  24  46  71  96 136 183 242 287 338 412
#     4  10  23  39  59 101 135 172 215 272 362 406
#     4  12  22  44  72 100 132 176 248 278 340 430
#
# _framework density 21.477892000000001
#
# number of rings (size 3 to 8) (size 9 to 14) (size 15 to 20)
#    0.000    1.067    4.000    1.600    7.467    0.533 
#    4.800    0.000    0.000    0.000    0.000    0.000 
#    0.000    0.000    0.000    0.000    0.000    0.000 
#
# Total GULP energy -371655.836966 kJ/mol
# GULP energy per Si atom -12388.527899 kJ/mol
# Density = 2.142901 g / cm^3
# Si number density = 21.477892 Si / 1000 Ang^3
#
#
#
# Elastic Constant Matrix: (Units=GPa)
#
#
# Indices 1 2 3 4 5 6 
#
# 1 132.4919 44.7615 42.6481 0.0000 0.3345 0.0000
# 2 44.7615 89.3154 26.1936 0.0000 -1.1289 0.0000
# 3 42.6481 26.1936 97.6377 0.0000 -9.4727 0.0000
# 4 0.0000 0.0000 0.0000 33.2541 0.0000 3.1643
# 5 0.3345 -1.1289 -9.4727 0.0000 43.6306 0.0000
# 6 0.0000 0.0000 0.0000 3.1643 0.0000 25.8054
#
#
#
# Elastic Compliance Matrix: (Units=1/GPa)
#
#
# Indices 1 2 3 4 5 6 
#
# 1 0.009999 -0.004033 -0.003374 0.000000 -0.000914 0.000000
# 2 -0.004033 0.013786 -0.001940 0.000000 -0.000034 0.000000
# 3 -0.003374 -0.001940 0.012497 0.000000 0.002689 0.000000
# 4 0.000000 0.000000 0.000000 0.030427 0.000000 -0.003731
# 5 -0.000914 -0.000034 0.002689 0.000000 0.023510 0.000000
# 6 0.000000 0.000000 0.000000 -0.003731 0.000000 0.039209
#
#
# Mechanical properties :
#
#
# Convention : Reuss Voigt Hill
#
# Bulk Modulus (GPa) = 56.85873 60.73905 58.79889
# Shear Modulus (GPa) = 32.47103 34.26080 33.36592
#
# Velocity S-wave (km/s) = 3.89245 3.99829 3.94572
# Velocity P-wave (km/s) = 6.83609 7.04672 6.94220
#
# Compressibility (1/GPa) = 0.01758745
#
# Stress axis : x y z
#
# Youngs Moduli (GPa) = 100.01486 72.53754 80.01865
#
# Poissons Ratio (x) = 0.29254 0.26999
# Poissons Ratio (y) = 0.40335 0.15524
# Poissons Ratio (z) = 0.33746 0.14073
#
# Static dielectric constant tensor:
#      x y z
#    x 3.729890 0.000000 0.463190 
#    y 0.000000 3.578580 0.000000 
#    z 0.463190 0.000000 3.644560 
# 
# 
# High freq. dielectric constant tensor:
#      x y z
#    x 1.852930 0.000000 -0.007260 
#    y 0.000000 1.825740 0.000000 
#    z -0.007260 0.000000 1.852250 
# 
# From -- ./inp_files/50627.got.cif
#   From: 2010.06.25/outbox.cif.g09.slc.cpg/sg15_26_cif.got.tgz:50627.got - 2010.06.28 07:06:18.
