data_PCOD8148379
_publ_section_title
;
Structure prediction by ZEFSAII (Michael W. Deem and Ramdas Pophale) SiO2 
 PCOD8148379
Probable space group: C 2/C
;
_chemical_formula_sum "Si O2"
_cell_formula_units_Z 40
_cell_length_a 10.556760
_cell_length_b 23.685672
_cell_length_c 8.034059
_cell_angle_alpha 90.000000
_cell_angle_beta 89.560369
_cell_angle_gamma 90.000000
_cell_volume 2008.808749
_symmetry_space_group_name_H-M "C 2/C"
_symmetry_group_IT_number 15
_symmetry_cell_setting 'monoclinic'
loop_
_space_group_symop_operation_xyz
x,y,z
-x,y,1/2-z
-x,-y,-z
x,-y,1/2+z
1/2+x,1/2+y,z
1/2-x,1/2+y,1/2-z
1/2-x,1/2-y,-z
1/2+x,1/2-y,1/2+z
loop_
_atom_site_type_symbol
_atom_site_label
_atom_site_fract_x
_atom_site_fract_y
_atom_site_fract_z
Si Si1 0.000000 0.605523 0.750000
Si Si2 0.645519 0.172379 0.013919
Si Si3 0.742617 0.920206 0.730818
Si Si4 0.000000 0.141519 0.250000
Si Si5 0.422861 0.298709 0.418674
Si Si6 0.637069 0.021947 0.550044
O O1 0.119119 0.565104 0.704035
O O2 0.960464 0.645404 0.600459
O O3 0.659542 0.133588 0.176757
O O4 0.591872 0.231732 0.074590
O O5 0.781085 0.175390 0.916652
O O6 0.885395 0.901641 0.751365
O O7 0.729700 0.970549 0.596123
O O8 0.695390 0.941357 0.905800
O O9 0.002408 0.180380 0.416404
O O10 0.500000 0.315914 0.250000
O O11 0.500000 0.000000 0.500000
#
# Coordination Sequence:
#
# PCOD8148379 Si02
#       6
#     4   8   8   4   8   8
#     4  12  23  36  64  90 126 160 205 256 318 376
#     4  10  23  41  62  94 123 161 211 255 315 377
#     4  11  23  42  63  91 127 165 206 264 311 379
#     4  10  25  46  64  90 130 168 221 250 316 380
#     4  10  23  44  64  92 128 164 211 263 305 381
#     4  12  22  38  61  93 124 157 206 260 310 370
#
# _framework density 19.912298
#
# number of rings (size 3 to 8) (size 9 to 14) (size 15 to 20)
#    0.000    1.200    4.000    0.600    5.600    0.800 
#    0.000    4.000    0.000    0.000    0.000    0.000 
#    0.000    0.000    0.000    0.000    0.000    0.000 
#
# Total GULP energy -247980.896777 kJ/mol
# GULP energy per Si atom -12399.044839 kJ/mol
# Density = 1.986698 g / cm^3
# Si number density = 19.912298 Si / 1000 Ang^3
#
#
#
# Elastic Constant Matrix: (Units=GPa)
#
#
# Indices 1 2 3 4 5 6 
#
# 1 91.8256 52.1590 46.7218 0.0000 15.2187 0.0000
# 2 52.1590 139.3632 61.6464 0.0000 4.6274 0.0000
# 3 46.7218 61.6464 136.4460 0.0000 -7.7408 0.0000
# 4 0.0000 0.0000 0.0000 33.9779 0.0000 3.4199
# 5 15.2187 4.6274 -7.7408 0.0000 31.1689 0.0000
# 6 0.0000 0.0000 0.0000 3.4199 0.0000 30.7147
#
#
#
# Elastic Compliance Matrix: (Units=1/GPa)
#
#
# Indices 1 2 3 4 5 6 
#
# 1 0.016921 -0.004073 -0.004451 0.000000 -0.008762 0.000000
# 2 -0.004073 0.010124 -0.003197 0.000000 -0.000308 0.000000
# 3 -0.004451 -0.003197 0.010597 0.000000 0.005280 0.000000
# 4 0.000000 0.000000 0.000000 0.029764 0.000000 -0.003314
# 5 -0.008762 -0.000308 0.005280 0.000000 0.037719 0.000000
# 6 0.000000 0.000000 0.000000 -0.003314 0.000000 0.032927
#
#
# Mechanical properties :
#
#
# Convention : Reuss Voigt Hill
#
# Bulk Modulus (GPa) = 70.42217 76.52099 73.47158
# Shear Modulus (GPa) = 30.07936 32.97947 31.52942
#
# Velocity S-wave (km/s) = 3.89085 4.07410 3.98353
# Velocity P-wave (km/s) = 7.45841 7.78740 7.62468
#
# Compressibility (1/GPa) = 0.01420007
#
# Stress axis : x y z
#
# Youngs Moduli (GPa) = 59.09913 98.77221 94.36747
#
# Poissons Ratio (x) = 0.40231 0.42002
# Poissons Ratio (y) = 0.24072 0.30169
# Poissons Ratio (z) = 0.26304 0.31577
#
# Static dielectric constant tensor:
#      x y z
#    x 3.381790 0.000000 0.220630 
#    y 0.000000 3.903990 0.000000 
#    z 0.220630 0.000000 3.656240 
# 
# 
# High freq. dielectric constant tensor:
#      x y z
#    x 1.766040 0.000000 0.006080 
#    y 0.000000 1.796140 0.000000 
#    z 0.006080 0.000000 1.782400 
# 
# From -- ./inp_files/23550.got.cif
#   From: 2010.06.25/outbox.cif.g09.slc.cpg/sg15_12_cif.got.tgz:23550.got - 2010.06.28 07:06:18.
