data_PCOD8148549
_publ_section_title
;
Structure prediction by ZEFSAII (Michael W. Deem and Ramdas Pophale) SiO2 
 PCOD8148549
Probable space group: C 2/C
;
_chemical_formula_sum "Si O2"
_cell_formula_units_Z 44
_cell_length_a 9.779664
_cell_length_b 10.931624
_cell_length_c 25.411496
_cell_angle_alpha 90.000000
_cell_angle_beta 51.469900
_cell_angle_gamma 90.000000
_cell_volume 2125.208983
_symmetry_space_group_name_H-M "C 2/C"
_symmetry_group_IT_number 15
_symmetry_cell_setting 'monoclinic'
loop_
_space_group_symop_operation_xyz
x,y,z
-x,y,1/2-z
-x,-y,-z
x,-y,1/2+z
1/2+x,1/2+y,z
1/2-x,1/2+y,1/2-z
1/2-x,1/2-y,-z
1/2+x,1/2-y,1/2+z
loop_
_atom_site_type_symbol
_atom_site_label
_atom_site_fract_x
_atom_site_fract_y
_atom_site_fract_z
Si Si1 0.462125 0.057040 0.155074
Si Si2 0.000000 0.679851 0.250000
Si Si3 0.187493 0.939108 0.460535
Si Si4 0.523778 0.235611 0.440037
Si Si5 0.261858 0.430170 0.453887
Si Si6 0.831420 0.087170 0.819266
O O1 0.414053 0.097473 0.225557
O O2 0.404111 0.164036 0.128318
O O3 0.666387 0.020794 0.104268
O O4 0.343781 0.939845 0.171004
O O5 0.146788 0.765275 0.186504
O O6 0.176217 0.802336 0.438098
O O7 0.240296 0.945000 0.510196
O O8 0.000000 0.000000 0.500000
O O9 0.394971 0.338352 0.449507
O O10 0.427877 0.135883 0.500469
O O11 0.317663 0.464398 0.381734
O O12 0.000000 0.025836 0.750000
#
# Coordination Sequence:
#
# PCOD8148549 Si02
#       6
#     8   4   8   8   8   8
#     4  11  22  41  61  86 119 158 201 245 297 353
#     4  10  24  42  62  78 120 168 196 244 300 340
#     4   9  20  33  64  96 116 153 195 242 301 359
#     4   9  17  35  62  91 118 153 187 245 304 346
#     4   9  17  36  60  84 125 152 190 241 298 352
#     4  10  23  42  58  86 119 159 205 243 284 355
#
# _framework density 20.703845999999999
#
# number of rings (size 3 to 8) (size 9 to 14) (size 15 to 20)
#    0.545    1.818    1.818    1.091    0.000    7.273 
#    3.273    1.818    0.000    0.000    0.000    0.000 
#    0.000    0.000    0.000    0.000    0.000    0.000 
#
# Total GULP energy -272593.764627 kJ/mol
# GULP energy per Si atom -12390.625665 kJ/mol
# Density = 2.065672 g / cm^3
# Si number density = 20.703846 Si / 1000 Ang^3
#
#
#
# Elastic Constant Matrix: (Units=GPa)
#
#
# Indices 1 2 3 4 5 6 
#
# 1 108.4356 59.2206 56.8042 0.0000 18.6693 0.0000
# 2 59.2206 67.2957 19.2063 0.0000 15.3679 0.0000
# 3 56.8042 19.2063 102.3491 0.0000 32.5858 0.0000
# 4 0.0000 0.0000 0.0000 6.8392 0.0000 8.3367
# 5 18.6693 15.3679 32.5858 0.0000 42.6771 0.0000
# 6 0.0000 0.0000 0.0000 8.3367 0.0000 35.2836
#
#
#
# Elastic Compliance Matrix: (Units=1/GPa)
#
#
# Indices 1 2 3 4 5 6 
#
# 1 0.025953 -0.020575 -0.012270 0.000000 0.005425 0.000000
# 2 -0.020575 0.032695 0.008147 0.000000 -0.008993 0.000000
# 3 -0.012270 0.008147 0.018862 0.000000 -0.011968 0.000000
# 4 0.000000 0.000000 0.000000 0.205363 0.000000 -0.048523
# 5 0.005425 -0.008993 -0.011968 0.000000 0.033435 0.000000
# 6 0.000000 0.000000 0.000000 -0.048523 0.000000 0.039807
#
#
# Mechanical properties :
#
#
# Convention : Reuss Voigt Hill
#
# Bulk Modulus (GPa) = 35.57005 60.94919 48.25962
# Shear Modulus (GPa) = 12.05164 26.48327 19.26745
#
# Velocity S-wave (km/s) = 2.41529 3.58040 3.05392
# Velocity P-wave (km/s) = 4.99958 6.82604 5.98292
#
# Compressibility (1/GPa) = 0.02811354
#
# Stress axis : x y z
#
# Youngs Moduli (GPa) = 38.53163 30.58594 53.01716
#
# Poissons Ratio (x) = 0.62932 0.65051
# Poissons Ratio (y) = 0.79281 -0.43196
# Poissons Ratio (z) = 0.47278 -0.24920
#
# Static dielectric constant tensor:
#      x y z
#    x 3.799980 0.000000 0.143980 
#    y 0.000000 3.843660 0.000000 
#    z 0.143980 0.000000 3.668020 
# 
# 
# High freq. dielectric constant tensor:
#      x y z
#    x 1.805090 0.000000 0.013710 
#    y 0.000000 1.791860 0.000000 
#    z 0.013710 0.000000 1.799980 
# 
# From -- ./inp_files/263031.got.cif
#   From: 2010.06.25/outbox.cif.g09.slc.cpg/sg15_132_cif.got.tgz:263031.got - 2010.06.28 07:06:18.
