data_PCOD8148625
_publ_section_title
;
Structure prediction by ZEFSAII (Michael W. Deem and Ramdas Pophale) SiO2 
 PCOD8148625
Probable space group: C 2/C
;
_chemical_formula_sum "Si O2"
_cell_formula_units_Z 48
_cell_length_a 17.111652
_cell_length_b 9.668185
_cell_length_c 18.443854
_cell_angle_alpha 90.000000
_cell_angle_beta 52.445407
_cell_angle_gamma 90.000000
_cell_volume 2419.008434
_symmetry_space_group_name_H-M "C 2/C"
_symmetry_group_IT_number 15
_symmetry_cell_setting 'monoclinic'
loop_
_space_group_symop_operation_xyz
x,y,z
-x,y,1/2-z
-x,-y,-z
x,-y,1/2+z
1/2+x,1/2+y,z
1/2-x,1/2+y,1/2-z
1/2-x,1/2-y,-z
1/2+x,1/2-y,1/2+z
loop_
_atom_site_type_symbol
_atom_site_label
_atom_site_fract_x
_atom_site_fract_y
_atom_site_fract_z
Si Si1 0.991603 0.557252 0.894393
Si Si2 0.802737 0.277061 0.658693
Si Si3 0.293096 0.369667 0.524514
Si Si4 0.810383 0.511554 0.281632
Si Si5 0.720682 0.110113 0.483604
Si Si6 0.023612 0.281304 0.512051
O O1 0.072421 0.516745 0.788973
O O2 0.959493 0.427573 0.960921
O O3 0.031648 0.686274 0.921111
O O4 0.886721 0.590271 0.918058
O O5 0.777851 0.379241 0.738713
O O6 0.782007 0.375976 0.601568
O O7 0.915720 0.224005 0.593487
O O8 0.740962 0.137027 0.698064
O O9 0.250000 0.250000 0.500000
O O10 0.213913 0.415379 0.629254
O O11 0.301890 0.497137 0.463055
O O12 0.395878 0.330003 0.505333
O O13 0.750000 0.250000 0.500000
#
# Coordination Sequence:
#
# PCOD8148625 Si02
#       6
#     8   8   8   8   8   8
#     4   9  19  39  66  86 124 167 214 246 316 389
#     4  10  23  42  65  92 126 168 218 257 317 384
#     4  12  24  39  65  94 126 166 212 262 318 377
#     4  11  23  40  66  92 123 166 213 260 306 385
#     4  11  22  43  62  92 128 166 208 267 324 375
#     4   9  19  39  64  91 119 171 206 255 314 386
#
# _framework density 19.842842000000001
#
# number of rings (size 3 to 8) (size 9 to 14) (size 15 to 20)
#    0.000    1.667    3.333    2.000    2.333    1.333 
#    3.000    0.000    0.000    0.000    0.000    0.000 
#    0.000    0.000    0.000    0.000    0.000    0.000 
#
# Total GULP energy -297364.740883 kJ/mol
# GULP energy per Si atom -12390.197537 kJ/mol
# Density = 1.979768 g / cm^3
# Si number density = 19.842842 Si / 1000 Ang^3
#
#
#
# Elastic Constant Matrix: (Units=GPa)
#
#
# Indices 1 2 3 4 5 6 
#
# 1 92.5651 45.7913 31.3162 0.0000 -5.4431 0.0000
# 2 45.7913 124.5029 42.3126 0.0000 -1.2553 0.0000
# 3 31.3162 42.3126 97.9401 0.0000 2.9219 0.0000
# 4 0.0000 0.0000 0.0000 33.0572 0.0000 2.5132
# 5 -5.4431 -1.2553 2.9219 0.0000 29.7045 0.0000
# 6 0.0000 0.0000 0.0000 2.5132 0.0000 51.3048
#
#
#
# Elastic Compliance Matrix: (Units=1/GPa)
#
#
# Indices 1 2 3 4 5 6 
#
# 1 0.013949 -0.004174 -0.002736 0.000000 0.002649 0.000000
# 2 -0.004174 0.010682 -0.003281 0.000000 0.000009 0.000000
# 3 -0.002736 -0.003281 0.012558 0.000000 -0.001875 0.000000
# 4 0.000000 0.000000 0.000000 0.030364 0.000000 -0.001487
# 5 0.002649 0.000009 -0.001875 0.000000 0.034335 0.000000
# 6 0.000000 0.000000 0.000000 -0.001487 0.000000 0.019564
#
#
# Mechanical properties :
#
#
# Convention : Reuss Voigt Hill
#
# Bulk Modulus (GPa) = 59.49295 61.53870 60.51583
# Shear Modulus (GPa) = 33.91272 35.85249 34.88260
#
# Velocity S-wave (km/s) = 4.13857 4.25528 4.19733
# Velocity P-wave (km/s) = 7.27215 7.43126 7.35214
#
# Compressibility (1/GPa) = 0.01680871
#
# Stress axis : x y z
#
# Youngs Moduli (GPa) = 71.68740 93.61452 79.62773
#
# Poissons Ratio (x) = 0.39074 0.21787
# Poissons Ratio (y) = 0.29922 0.26123
# Poissons Ratio (z) = 0.19614 0.30711
#
# Static dielectric constant tensor:
#      x y z
#    x 3.775840 0.000000 -0.179450 
#    y 0.000000 3.654960 0.000000 
#    z -0.179450 0.000000 3.524890 
# 
# 
# High freq. dielectric constant tensor:
#      x y z
#    x 1.780340 0.000000 0.003000 
#    y 0.000000 1.777850 0.000000 
#    z 0.003000 0.000000 1.763980 
# 
# From -- ./inp_files/247286.got.cif
#   From: 2010.06.25/outbox.cif.g09.slc.cpg/sg15_124_cif.got.tgz:247286.got - 2010.06.28 07:06:18.
