data_PCOD8148234
_publ_section_title
;
Structure prediction by ZEFSAII (Michael W. Deem and Ramdas Pophale) SiO2 
 PCOD8148234
Probable space group: C 2/C
;
_chemical_formula_sum "Si O2"
_cell_formula_units_Z 56
_cell_length_a 11.417033
_cell_length_b 26.240188
_cell_length_c 15.183516
_cell_angle_alpha 90.000000
_cell_angle_beta 144.748904
_cell_angle_gamma 90.000000
_cell_volume 2625.363151
_symmetry_space_group_name_H-M "C 2/C"
_symmetry_group_IT_number 15
_symmetry_cell_setting 'monoclinic'
loop_
_space_group_symop_operation_xyz
x,y,z
-x,y,1/2-z
-x,-y,-z
x,-y,1/2+z
1/2+x,1/2+y,z
1/2-x,1/2+y,1/2-z
1/2-x,1/2-y,-z
1/2+x,1/2-y,1/2+z
loop_
_atom_site_type_symbol
_atom_site_label
_atom_site_fract_x
_atom_site_fract_y
_atom_site_fract_z
Si Si1 0.230159 0.030994 0.905381
Si Si2 0.209808 0.366330 0.352231
Si Si3 0.711239 0.631307 0.404443
Si Si4 0.465974 0.946943 0.379116
Si Si5 0.157978 0.697519 0.164741
Si Si6 0.554123 0.698211 0.996009
Si Si7 0.136304 0.371041 0.914679
O O1 0.306908 0.033908 0.852433
O O2 0.000000 0.012214 0.750000
O O3 0.234639 0.083737 0.962099
O O4 0.373545 0.991605 0.048037
O O5 0.328276 0.367440 0.515863
O O6 0.152528 0.422564 0.277749
O O7 0.349299 0.335881 0.369983
O O8 0.000000 0.337280 0.250000
O O9 0.500000 0.605218 0.250000
O O10 0.747821 0.684884 0.374376
O O11 0.902302 0.597414 0.494887
O O12 0.344616 0.704196 0.346345
O O13 0.015608 0.651035 0.106250
O O14 0.016013 0.746856 0.079522
O O15 0.710008 0.673096 0.023127
O O16 0.000000 0.391823 0.750000
#
# Coordination Sequence:
#
# PCOD8148234 Si02
#       7
#     8   8   8   8   8   8   8
#     4  11  22  41  70 100 132 170 222 268 339 399
#     4  10  23  40  62  92 130 167 217 264 327 384
#     4  11  21  41  65  91 133 171 216 271 328 384
#     4  10  23  41  65  99 133 170 217 275 329 401
#     4  11  24  40  64  97 130 176 220 274 328 395
#     4  11  24  41  64  95 132 171 226 271 334 389
#     4  10  23  43  65  95 134 170 219 277 329 396
#
# _framework density 21.330383000000001
#
# number of rings (size 3 to 8) (size 9 to 14) (size 15 to 20)
#    0.000    1.429    2.857    1.714    4.000    4.000 
#    0.000    0.000    0.000   16.286    0.000    0.000 
#    0.000    0.000    0.000    0.000    0.000    0.000 
#
# Total GULP energy -346937.365994 kJ/mol
# GULP energy per Si atom -12390.620214 kJ/mol
# Density = 2.128183 g / cm^3
# Si number density = 21.330383 Si / 1000 Ang^3
#
#
#
# Elastic Constant Matrix: (Units=GPa)
#
#
# Indices 1 2 3 4 5 6 
#
# 1 82.0677 18.6244 32.1059 0.0000 0.8118 0.0000
# 2 18.6244 89.9009 39.0322 0.0000 -11.4082 0.0000
# 3 32.1059 39.0322 104.8413 0.0000 -2.4740 0.0000
# 4 0.0000 0.0000 0.0000 32.7203 0.0000 2.3713
# 5 0.8118 -11.4082 -2.4740 0.0000 34.3283 0.0000
# 6 0.0000 0.0000 0.0000 2.3713 0.0000 24.9229
#
#
#
# Elastic Compliance Matrix: (Units=1/GPa)
#
#
# Indices 1 2 3 4 5 6 
#
# 1 0.013995 -0.001387 -0.003794 0.000000 -0.001065 0.000000
# 2 -0.001387 0.013996 -0.004683 0.000000 0.004346 0.000000
# 3 -0.003794 -0.004683 0.012430 0.000000 -0.000571 0.000000
# 4 0.000000 0.000000 0.000000 0.030774 0.000000 -0.002928
# 5 -0.001065 0.004346 -0.000571 0.000000 0.030559 0.000000
# 6 0.000000 0.000000 0.000000 -0.002928 0.000000 0.040402
#
#
# Mechanical properties :
#
#
# Convention : Reuss Voigt Hill
#
# Bulk Modulus (GPa) = 48.32938 50.70387 49.51663
# Shear Modulus (GPa) = 29.62390 30.86412 30.24401
#
# Velocity S-wave (km/s) = 3.73072 3.80801 3.76957
# Velocity P-wave (km/s) = 6.42374 6.56940 6.49698
#
# Compressibility (1/GPa) = 0.02069135
#
# Stress axis : x y z
#
# Youngs Moduli (GPa) = 71.45513 71.45132 80.44862
#
# Poissons Ratio (x) = 0.09910 0.30526
# Poissons Ratio (y) = 0.09911 0.37676
# Poissons Ratio (z) = 0.27113 0.33462
#
# Static dielectric constant tensor:
#      x y z
#    x 3.882460 0.000000 0.010380 
#    y 0.000000 3.757570 0.000000 
#    z 0.010380 0.000000 3.991030 
# 
# 
# High freq. dielectric constant tensor:
#      x y z
#    x 1.845890 0.000000 0.010160 
#    y 0.000000 1.817710 0.000000 
#    z 0.010160 0.000000 1.846020 
# 
# From -- ./inp_files/148557.got.cif
#   From: 2010.06.25/outbox.cif.g09.slc.cpg/sg15_75_cif.got.tgz:148557.got - 2010.06.28 07:06:18.
