data_PCOD8148877
_publ_section_title
;
Structure prediction by ZEFSAII (Michael W. Deem and Ramdas Pophale) SiO2 
 PCOD8148877
Probable space group: C 2/C
;
_chemical_formula_sum "Si O2"
_cell_formula_units_Z 36
_cell_length_a 29.906136
_cell_length_b 7.660802
_cell_length_c 15.049059
_cell_angle_alpha 90.000000
_cell_angle_beta 149.159790
_cell_angle_gamma 90.000000
_cell_volume 1767.506754
_symmetry_space_group_name_H-M "C 2/C"
_symmetry_group_IT_number 15
_symmetry_cell_setting 'monoclinic'
loop_
_space_group_symop_operation_xyz
x,y,z
-x,y,1/2-z
-x,-y,-z
x,-y,1/2+z
1/2+x,1/2+y,z
1/2-x,1/2+y,1/2-z
1/2-x,1/2-y,-z
1/2+x,1/2-y,1/2+z
loop_
_atom_site_type_symbol
_atom_site_label
_atom_site_fract_x
_atom_site_fract_y
_atom_site_fract_z
Si Si1 0.004846 0.135633 0.587417
Si Si2 0.171244 0.685503 0.305903
Si Si3 0.500000 0.585912 0.250000
Si Si4 0.833821 0.637097 0.811134
Si Si5 0.335963 0.791577 0.903010
O O1 0.913751 0.233022 0.440841
O O2 0.080283 0.276561 0.699330
O O3 0.028168 0.035510 0.716985
O O4 0.000000 0.000000 0.500000
O O5 0.250000 0.750000 0.500000
O O6 0.176954 0.475798 0.298461
O O7 0.174896 0.783898 0.216225
O O8 0.580692 0.708645 0.409326
O O9 0.747938 0.750783 0.680697
O O10 0.848014 0.501725 0.917496
#
# Coordination Sequence:
#
# PCOD8148877 Si02
#       5
#     8   8   4   8   8
#     4  12  24  44  68  98 138 179 228 280 337 409
#     4  10  23  43  67  98 137 174 228 277 341 402
#     4  12  24  44  70  98 136 182 228 288 338 398
#     4  10  23  44  67  97 137 177 225 276 341 406
#     4  10  23  43  65  99 133 173 231 269 345 396
#
# _framework density 20.367674000000001
#
# number of rings (size 3 to 8) (size 9 to 14) (size 15 to 20)
#    1.333    0.000    2.222    3.333    3.111    0.889 
#    4.000    2.222    0.000    0.000    0.000    0.000 
#    0.000    0.000    0.000    0.000    0.000    0.000 
#
# Total GULP energy -223152.415335 kJ/mol
# GULP energy per Si atom -12397.356407 kJ/mol
# Density = 2.032132 g / cm^3
# Si number density = 20.367674 Si / 1000 Ang^3
#
#
#
# Elastic Constant Matrix: (Units=GPa)
#
#
# Indices 1 2 3 4 5 6 
#
# 1 120.0393 57.0403 70.7225 0.0000 21.6582 0.0000
# 2 57.0403 118.2383 57.5841 0.0000 11.3842 0.0000
# 3 70.7225 57.5841 160.8488 0.0000 18.0513 0.0000
# 4 0.0000 0.0000 0.0000 27.7142 0.0000 4.6642
# 5 21.6582 11.3842 18.0513 0.0000 50.9260 0.0000
# 6 0.0000 0.0000 0.0000 4.6642 0.0000 53.0059
#
#
#
# Elastic Compliance Matrix: (Units=1/GPa)
#
#
# Indices 1 2 3 4 5 6 
#
# 1 0.013225 -0.004131 -0.003966 0.000000 -0.003295 0.000000
# 2 -0.004131 0.011586 -0.002331 0.000000 -0.000007 0.000000
# 3 -0.003966 -0.002331 0.008902 0.000000 -0.000948 0.000000
# 4 0.000000 0.000000 0.000000 0.036625 0.000000 -0.003223
# 5 -0.003295 -0.000007 -0.000948 0.000000 0.021375 0.000000
# 6 0.000000 0.000000 0.000000 -0.003223 0.000000 0.019149
#
#
# Mechanical properties :
#
#
# Convention : Reuss Voigt Hill
#
# Bulk Modulus (GPa) = 77.77938 85.53558 81.65748
# Shear Modulus (GPa) = 36.76389 40.58119 38.67254
#
# Velocity S-wave (km/s) = 4.25315 4.46851 4.36216
# Velocity P-wave (km/s) = 7.89871 8.28917 8.09629
#
# Compressibility (1/GPa) = 0.01285688
#
# Stress axis : x y z
#
# Youngs Moduli (GPa) = 75.61600 86.30974 112.34035
#
# Poissons Ratio (x) = 0.35655 0.44554
# Poissons Ratio (y) = 0.31238 0.26183
# Poissons Ratio (z) = 0.29989 0.20116
#
# Static dielectric constant tensor:
#      x y z
#    x 3.897960 0.000000 0.092820 
#    y 0.000000 3.826520 0.000000 
#    z 0.092820 0.000000 3.621940 
# 
# 
# High freq. dielectric constant tensor:
#      x y z
#    x 1.805100 0.000000 0.013210 
#    y 0.000000 1.796270 0.000000 
#    z 0.013210 0.000000 1.794560 
# 
# From -- ./inp_files/150340.got.cif
#   From: 2010.06.25/outbox.cif.g09.slc.cpg/sg15_76_cif.got.tgz:150340.got - 2010.06.28 07:06:18.
