data_PCOD8148272
_publ_section_title
;
Structure prediction by ZEFSAII (Michael W. Deem and Ramdas Pophale) SiO2 
 PCOD8148272
Probable space group: C 2/C
;
_chemical_formula_sum "Si O2"
_cell_formula_units_Z 40
_cell_length_a 13.459864
_cell_length_b 10.203773
_cell_length_c 14.584286
_cell_angle_alpha 90.000000
_cell_angle_beta 60.984436
_cell_angle_gamma 90.000000
_cell_volume 1751.622345
_symmetry_space_group_name_H-M "C 2/C"
_symmetry_group_IT_number 15
_symmetry_cell_setting 'monoclinic'
loop_
_space_group_symop_operation_xyz
x,y,z
-x,y,1/2-z
-x,-y,-z
x,-y,1/2+z
1/2+x,1/2+y,z
1/2-x,1/2+y,1/2-z
1/2-x,1/2-y,-z
1/2+x,1/2-y,1/2+z
loop_
_atom_site_type_symbol
_atom_site_label
_atom_site_fract_x
_atom_site_fract_y
_atom_site_fract_z
Si Si1 0.921053 0.257161 0.669271
Si Si2 0.287347 0.816639 0.125183
Si Si3 0.103426 0.446850 0.261613
Si Si4 0.356955 0.395516 0.467775
Si Si5 0.806044 0.161135 0.551684
O O1 0.826833 0.176773 0.765308
O O2 0.925966 0.401885 0.707612
O O3 0.884004 0.255578 0.578964
O O4 0.041211 0.183300 0.628011
O O5 0.386300 0.882145 0.141924
O O6 0.257534 0.892910 0.044015
O O7 0.329470 0.671870 0.078229
O O8 0.214514 0.420595 0.151530
O O9 0.000000 0.383830 0.250000
O O10 0.386685 0.548325 0.470944
O O11 0.750000 0.250000 0.500000
#
# Coordination Sequence:
#
# PCOD8148272 Si02
#       5
#     8   8   8   8   8
#     4  11  23  43  69  97 136 183 228 287 350 409
#     4  10  23  40  65 102 131 177 225 295 336 417
#     4  11  24  43  68  96 141 178 232 279 351 413
#     4  11  22  42  70  98 136 175 237 278 354 410
#     4  11  25  44  66 104 141 179 230 288 342 416
#
# _framework density 22.835972999999999
#
# number of rings (size 3 to 8) (size 9 to 14) (size 15 to 20)
#    0.000    1.200    2.000    3.600    5.600    0.800 
#    0.000    0.000    0.000    0.000    0.000    0.000 
#    0.000    0.000    0.000    0.000    0.000    0.000 
#
# Total GULP energy -247910.344527 kJ/mol
# GULP energy per Si atom -12395.517226 kJ/mol
# Density = 2.278400 g / cm^3
# Si number density = 22.835973 Si / 1000 Ang^3
#
#
#
# Elastic Constant Matrix: (Units=GPa)
#
#
# Indices 1 2 3 4 5 6 
#
# 1 131.1695 41.0397 34.4848 0.0000 31.3880 0.0000
# 2 41.0397 120.6960 48.3042 0.0000 12.6056 0.0000
# 3 34.4848 48.3042 76.8250 0.0000 9.8234 0.0000
# 4 0.0000 0.0000 0.0000 36.5243 0.0000 0.7985
# 5 31.3880 12.6056 9.8234 0.0000 51.0235 0.0000
# 6 0.0000 0.0000 0.0000 0.7985 0.0000 31.2153
#
#
#
# Elastic Compliance Matrix: (Units=1/GPa)
#
#
# Indices 1 2 3 4 5 6 
#
# 1 0.010178 -0.001805 -0.002758 0.000000 -0.005284 0.000000
# 2 -0.001805 0.011494 -0.006352 0.000000 -0.000506 0.000000
# 3 -0.002758 -0.006352 0.018281 0.000000 -0.000254 0.000000
# 4 0.000000 0.000000 0.000000 0.027394 0.000000 -0.000701
# 5 -0.005284 -0.000506 -0.000254 0.000000 0.023023 0.000000
# 6 0.000000 0.000000 0.000000 -0.000701 0.000000 0.032053
#
#
# Mechanical properties :
#
#
# Convention : Reuss Voigt Hill
#
# Bulk Modulus (GPa) = 55.17902 64.03865 59.60884
# Shear Modulus (GPa) = 33.26780 37.41008 35.33894
#
# Velocity S-wave (km/s) = 3.82097 4.05187 3.93811
# Velocity P-wave (km/s) = 6.60924 7.07064 6.84383
#
# Compressibility (1/GPa) = 0.01812283
#
# Stress axis : x y z
#
# Youngs Moduli (GPa) = 98.25039 87.00117 54.70196
#
# Poissons Ratio (x) = 0.15705 0.15087
# Poissons Ratio (y) = 0.17735 0.34747
# Poissons Ratio (z) = 0.27098 0.55263
#
# Static dielectric constant tensor:
#      x y z
#    x 4.305750 0.000000 0.283040 
#    y 0.000000 3.918590 0.000000 
#    z 0.283040 0.000000 4.204770 
# 
# 
# High freq. dielectric constant tensor:
#      x y z
#    x 1.910970 0.000000 0.018950 
#    y 0.000000 1.884720 0.000000 
#    z 0.018950 0.000000 1.906490 
# 
# From -- ./inp_files/94857.got.cif
#   From: 2010.06.25/outbox.cif.g09.slc.cpg/sg15_48_cif.got.tgz:94857.got - 2010.06.28 07:06:18.
