data_PCOD8148141
_publ_section_title
;
Structure prediction by ZEFSAII (Michael W. Deem and Ramdas Pophale) SiO2 
 PCOD8148141
Probable space group: C 2/C
;
_chemical_formula_sum "Si O2"
_cell_formula_units_Z 56
_cell_length_a 26.106459
_cell_length_b 15.617030
_cell_length_c 15.867407
_cell_angle_alpha 90.000000
_cell_angle_beta 26.622518
_cell_angle_gamma 90.000000
_cell_volume 2898.928237
_symmetry_space_group_name_H-M "C 2/C"
_symmetry_group_IT_number 15
_symmetry_cell_setting 'monoclinic'
loop_
_space_group_symop_operation_xyz
x,y,z
-x,y,1/2-z
-x,-y,-z
x,-y,1/2+z
1/2+x,1/2+y,z
1/2-x,1/2+y,1/2-z
1/2-x,1/2-y,-z
1/2+x,1/2-y,1/2+z
loop_
_atom_site_type_symbol
_atom_site_label
_atom_site_fract_x
_atom_site_fract_y
_atom_site_fract_z
Si Si1 0.430393 0.888850 0.986042
Si Si2 0.655188 0.296208 0.584804
Si Si3 0.909125 0.751494 0.001754
Si Si4 0.514866 0.075540 0.634850
Si Si5 0.195134 0.367970 0.624709
Si Si6 0.199751 0.555205 0.659121
Si Si7 0.761821 0.301714 0.113361
O O1 0.354999 0.898160 0.180070
O O2 0.375467 0.821620 0.001195
O O3 0.557190 0.855810 0.822956
O O4 0.424869 0.983568 0.953115
O O5 0.750000 0.250000 0.500000
O O6 0.535120 0.289923 0.808058
O O7 0.657873 0.256515 0.487599
O O8 0.683367 0.397083 0.536229
O O9 0.915850 0.649907 0.017779
O O10 0.847822 0.807832 0.163938
O O11 0.500000 0.112934 0.750000
O O12 0.388378 0.064325 0.786888
O O13 0.226010 0.454564 0.629701
O O14 0.243639 0.368021 0.456978
O O15 0.262566 0.294366 0.575735
#
# Coordination Sequence:
#
# PCOD8148141 Si02
#       7
#     8   8   8   8   8   8   8
#     4  11  21  36  63  90 119 155 203 258 303 350
#     4  11  21  36  59  89 120 154 193 249 306 359
#     4  11  21  36  58  89 121 157 196 243 308 363
#     4  11  19  34  59  92 116 145 199 259 305 341
#     4  10  23  39  62  88 122 159 208 249 297 366
#     4  11  20  38  60  89 119 152 200 258 306 352
#     4  11  22  39  60  88 122 165 199 246 304 362
#
# _framework density 19.317484
#
# number of rings (size 3 to 8) (size 9 to 14) (size 15 to 20)
#    0.000    1.143    4.286    5.571    0.000    0.000 
#    0.000    0.714   12.571    0.000    0.000    0.000 
#    0.000    0.000    0.000    0.000    0.000    0.000 
#
# Total GULP energy -347058.839931 kJ/mol
# GULP energy per Si atom -12394.958569 kJ/mol
# Density = 1.927352 g / cm^3
# Si number density = 19.317484 Si / 1000 Ang^3
#
#
#
# Elastic Constant Matrix: (Units=GPa)
#
#
# Indices 1 2 3 4 5 6 
#
# 1 96.1752 45.8763 42.5031 0.0000 -1.1834 0.0000
# 2 45.8763 117.9215 45.4102 0.0000 -17.8909 0.0000
# 3 42.5031 45.4102 98.6938 0.0000 6.2052 0.0000
# 4 0.0000 0.0000 0.0000 34.4940 0.0000 -3.2664
# 5 -1.1834 -17.8909 6.2052 0.0000 27.5556 0.0000
# 6 0.0000 0.0000 0.0000 -3.2664 0.0000 34.5814
#
#
#
# Elastic Compliance Matrix: (Units=1/GPa)
#
#
# Indices 1 2 3 4 5 6 
#
# 1 0.014166 -0.004079 -0.004154 0.000000 -0.001104 0.000000
# 2 -0.004079 0.013492 -0.005063 0.000000 0.009725 0.000000
# 3 -0.004154 -0.005063 0.014677 0.000000 -0.006770 0.000000
# 4 0.000000 0.000000 0.000000 0.029252 0.000000 0.002763
# 5 -0.001104 0.009725 -0.006770 0.000000 0.044081 0.000000
# 6 0.000000 0.000000 0.000000 0.002763 0.000000 0.029178
#
#
# Mechanical properties :
#
#
# Convention : Reuss Voigt Hill
#
# Bulk Modulus (GPa) = 63.52239 64.48551 64.00395
# Shear Modulus (GPa) = 28.29885 31.25960 29.77922
#
# Velocity S-wave (km/s) = 3.83160 4.02705 3.93054
# Velocity P-wave (km/s) = 7.24773 7.42141 7.33508
#
# Compressibility (1/GPa) = 0.01574248
#
# Stress axis : x y z
#
# Youngs Moduli (GPa) = 70.59313 74.11754 68.13577
#
# Poissons Ratio (x) = 0.30231 0.28306
# Poissons Ratio (y) = 0.28793 0.34495
# Poissons Ratio (z) = 0.29327 0.37524
#
# Static dielectric constant tensor:
#      x y z
#    x 3.684310 0.000000 0.098130 
#    y 0.000000 3.839840 0.000000 
#    z 0.098130 0.000000 3.634980 
# 
# 
# High freq. dielectric constant tensor:
#      x y z
#    x 1.760290 0.000000 0.017240 
#    y 0.000000 1.749340 0.000000 
#    z 0.017240 0.000000 1.739860 
# 
# From -- ./inp_files/173802.got.cif
#   From: 2010.06.25/outbox.cif.g09.slc.cpg/sg15_87_cif.got.tgz:173802.got - 2010.06.28 07:06:18.
