data_PCOD8148897
_publ_section_title
;
Structure prediction by ZEFSAII (Michael W. Deem and Ramdas Pophale) SiO2 
 PCOD8148897
Probable space group: C 2/C
;
_chemical_formula_sum "Si O2"
_cell_formula_units_Z 48
_cell_length_a 11.209309
_cell_length_b 10.180542
_cell_length_c 24.437448
_cell_angle_alpha 90.000000
_cell_angle_beta 125.621006
_cell_angle_gamma 90.000000
_cell_volume 2266.918585
_symmetry_space_group_name_H-M "C 2/C"
_symmetry_group_IT_number 15
_symmetry_cell_setting 'monoclinic'
loop_
_space_group_symop_operation_xyz
x,y,z
-x,y,1/2-z
-x,-y,-z
x,-y,1/2+z
1/2+x,1/2+y,z
1/2-x,1/2+y,1/2-z
1/2-x,1/2-y,-z
1/2+x,1/2-y,1/2+z
loop_
_atom_site_type_symbol
_atom_site_label
_atom_site_fract_x
_atom_site_fract_y
_atom_site_fract_z
Si Si1 0.162580 0.857600 0.511230
Si Si2 0.297198 0.756076 0.652561
Si Si3 0.370569 0.186443 0.288720
Si Si4 0.847997 0.772724 0.396225
Si Si5 0.877474 0.512109 0.877676
Si Si6 0.310234 0.872217 0.049051
O O1 0.250000 0.750000 0.500000
O O2 0.192338 0.836501 0.583820
O O3 0.990755 0.852854 0.453339
O O4 0.218109 0.999825 0.508211
O O5 0.463394 0.773238 0.679187
O O6 0.271512 0.806839 0.707977
O O7 0.260132 0.601136 0.641755
O O8 0.315510 0.285989 0.322274
O O9 0.364798 0.038066 0.311178
O O10 0.878784 0.616761 0.417468
O O11 0.710503 0.833113 0.392353
O O12 0.021415 0.602190 0.920940
O O13 0.250000 0.750000 0.000000
#
# Coordination Sequence:
#
# PCOD8148897 Si02
#       6
#     8   8   8   8   8   8
#     4  12  21  41  68  98 134 178 216 277 337 394
#     4  11  21  41  73  91 131 184 219 273 341 398
#     4   9  22  44  64  98 127 183 221 274 338 399
#     4  10  23  43  66  97 136 172 222 277 332 400
#     4  10  23  45  65  99 134 179 218 281 342 383
#     4  12  25  40  66 106 137 176 223 277 341 399
#
# _framework density 21.174118
#
# number of rings (size 3 to 8) (size 9 to 14) (size 15 to 20)
#    1.000    0.333    5.000    1.500    2.333    2.667 
#    0.000    3.333    0.000    0.000    0.000    0.000 
#    0.000    0.000    0.000    0.000    0.000    0.000 
#
# Total GULP energy -297455.174226 kJ/mol
# GULP energy per Si atom -12393.965593 kJ/mol
# Density = 2.112593 g / cm^3
# Si number density = 21.174118 Si / 1000 Ang^3
#
#
#
# Elastic Constant Matrix: (Units=GPa)
#
#
# Indices 1 2 3 4 5 6 
#
# 1 46.1528 19.3278 -4.3122 0.0000 -8.0892 0.0000
# 2 19.3278 125.7243 21.6753 0.0000 -4.0251 0.0000
# 3 -4.3122 21.6753 102.3836 0.0000 -18.2928 0.0000
# 4 0.0000 0.0000 0.0000 28.2686 0.0000 -6.8833
# 5 -8.0892 -4.0251 -18.2928 0.0000 26.1042 0.0000
# 6 0.0000 0.0000 0.0000 -6.8833 0.0000 48.7396
#
#
#
# Elastic Compliance Matrix: (Units=1/GPa)
#
#
# Indices 1 2 3 4 5 6 
#
# 1 0.025529 -0.004253 0.003740 0.000000 0.009876 0.000000
# 2 -0.004253 0.008964 -0.002361 0.000000 -0.001590 0.000000
# 3 0.003740 -0.002361 0.012079 0.000000 0.009259 0.000000
# 4 0.000000 0.000000 0.000000 0.036635 0.000000 0.005174
# 5 0.009876 -0.001590 0.009259 0.000000 0.047612 0.000000
# 6 0.000000 0.000000 0.000000 0.005174 0.000000 0.021248
#
#
# Mechanical properties :
#
#
# Convention : Reuss Voigt Hill
#
# Bulk Modulus (GPa) = 24.49563 38.62695 31.56129
# Shear Modulus (GPa) = 29.16777 36.46046 32.81412
#
# Velocity S-wave (km/s) = 3.71552 4.15412 3.94093
# Velocity P-wave (km/s) = 5.47728 6.42582 5.97041
#
# Compressibility (1/GPa) = 0.04082361
#
# Stress axis : x y z
#
# Youngs Moduli (GPa) = 39.17149 111.55864 82.78865
#
# Poissons Ratio (x) = 0.47448 -0.30965
# Poissons Ratio (y) = 0.16661 0.19546
# Poissons Ratio (z) = -0.14651 0.26339
#
# Static dielectric constant tensor:
#      x y z
#    x 3.945850 0.000000 -0.396550 
#    y 0.000000 3.796250 0.000000 
#    z -0.396550 0.000000 4.134960 
# 
# 
# High freq. dielectric constant tensor:
#      x y z
#    x 1.826800 0.000000 -0.019300 
#    y 0.000000 1.830530 0.000000 
#    z -0.019300 0.000000 1.817510 
# 
# From -- ./inp_files/291292.got.cif
#   From: 2010.06.25/outbox.cif.g09.slc.cpg/sg15_146_cif.got.tgz:291292.got - 2010.06.28 07:06:18.
