data_PCOD8148838
_publ_section_title
;
Structure prediction by ZEFSAII (Michael W. Deem and Ramdas Pophale) SiO2 
 PCOD8148838
Probable space group: C 2/C
;
_chemical_formula_sum "Si O2"
_cell_formula_units_Z 56
_cell_length_a 24.032771
_cell_length_b 16.222604
_cell_length_c 9.904413
_cell_angle_alpha 90.000000
_cell_angle_beta 138.219796
_cell_angle_gamma 90.000000
_cell_volume 2572.803314
_symmetry_space_group_name_H-M "C 2/C"
_symmetry_group_IT_number 15
_symmetry_cell_setting 'monoclinic'
loop_
_space_group_symop_operation_xyz
x,y,z
-x,y,1/2-z
-x,-y,-z
x,-y,1/2+z
1/2+x,1/2+y,z
1/2-x,1/2+y,1/2-z
1/2-x,1/2-y,-z
1/2+x,1/2-y,1/2+z
loop_
_atom_site_type_symbol
_atom_site_label
_atom_site_fract_x
_atom_site_fract_y
_atom_site_fract_z
Si Si1 0.690378 0.722588 0.562881
Si Si2 0.796337 0.019361 0.227982
Si Si3 0.707841 0.938125 0.292491
Si Si4 0.148863 0.809013 0.701036
Si Si5 0.953525 0.340606 0.532782
Si Si6 0.462021 0.435712 0.533944
Si Si7 0.041317 0.750959 0.964548
O O1 0.745108 0.641284 0.679773
O O2 0.751089 0.797928 0.636330
O O3 0.626869 0.709104 0.320013
O O4 0.640331 0.744163 0.608812
O O5 0.860910 0.096734 0.363432
O O6 0.725855 0.010033 0.216016
O O7 0.860993 0.942846 0.351026
O O8 0.745243 0.027755 0.998148
O O9 0.609948 0.913259 0.129302
O O10 0.095043 0.744599 0.516396
O O11 0.000000 0.372611 0.750000
O O12 0.021197 0.319345 0.538758
O O13 0.500000 0.452362 0.750000
O O14 0.500000 0.500000 0.500000
O O15 0.485478 0.342374 0.530502
O O16 0.000000 0.724282 0.750000
#
# Coordination Sequence:
#
# PCOD8148838 Si02
#       7
#     8   8   8   8   8   8   8
#     4   9  17  38  61  91 118 153 211 249 300 379
#     4  11  21  39  65  91 130 168 206 248 313 388
#     4  10  23  43  64  90 127 170 210 259 315 383
#     4   9  19  35  64  88 117 160 200 253 309 375
#     4  11  24  43  62  91 130 161 210 277 319 360
#     4  11  23  35  57  98 137 161 195 252 319 382
#     4  11  21  36  64  92 124 164 208 255 310 384
#
# _framework density 21.76614
#
# number of rings (size 3 to 8) (size 9 to 14) (size 15 to 20)
#    0.000    1.714    2.857    2.571    4.000    3.429 
#    2.571    2.143    0.000    0.000    0.000    0.000 
#    0.000    0.000    0.000    0.000    0.000    0.000 
#
# Total GULP energy -347036.068753 kJ/mol
# GULP energy per Si atom -12394.145313 kJ/mol
# Density = 2.171660 g / cm^3
# Si number density = 21.766140 Si / 1000 Ang^3
#
#
#
# Elastic Constant Matrix: (Units=GPa)
#
#
# Indices 1 2 3 4 5 6 
#
# 1 131.8639 26.6989 37.3268 0.0000 -11.1278 0.0000
# 2 26.6989 33.8255 27.6124 0.0000 -7.0147 0.0000
# 3 37.3268 27.6124 116.5184 0.0000 0.0419 0.0000
# 4 0.0000 0.0000 0.0000 8.9899 0.0000 7.1132
# 5 -11.1278 -7.0147 0.0419 0.0000 29.1955 0.0000
# 6 0.0000 0.0000 0.0000 7.1132 0.0000 35.4130
#
#
#
# Elastic Compliance Matrix: (Units=1/GPa)
#
#
# Indices 1 2 3 4 5 6 
#
# 1 0.009376 -0.005559 -0.001687 0.000000 0.002240 0.000000
# 2 -0.005559 0.042370 -0.008263 0.000000 0.008073 0.000000
# 3 -0.001687 -0.008263 0.011082 0.000000 -0.002644 0.000000
# 4 0.000000 0.000000 0.000000 0.132256 0.000000 -0.026566
# 5 0.002240 0.008073 -0.002644 0.000000 0.037049 0.000000
# 6 0.000000 0.000000 0.000000 -0.026566 0.000000 0.033574
#
#
# Mechanical properties :
#
#
# Convention : Reuss Voigt Hill
#
# Bulk Modulus (GPa) = 31.43603 51.72046 41.57824
# Shear Modulus (GPa) = 16.26924 27.42434 21.84679
#
# Velocity S-wave (km/s) = 2.73693 3.55343 3.17157
# Velocity P-wave (km/s) = 4.94588 6.37568 5.70574
#
# Compressibility (1/GPa) = 0.03181063
#
# Stress axis : x y z
#
# Youngs Moduli (GPa) = 106.65932 23.60135 90.23710
#
# Poissons Ratio (x) = 0.13119 0.15223
# Poissons Ratio (y) = 0.59287 0.74564
# Poissons Ratio (z) = 0.17994 0.19502
#
# Static dielectric constant tensor:
#      x y z
#    x 4.240930 0.000000 0.276720 
#    y 0.000000 3.871140 0.000000 
#    z 0.276720 0.000000 3.755820 
# 
# 
# High freq. dielectric constant tensor:
#      x y z
#    x 1.868880 0.000000 0.013460 
#    y 0.000000 1.836140 0.000000 
#    z 0.013460 0.000000 1.829330 
# 
# From -- ./inp_files/62780.got.cif
#   From: 2010.06.25/outbox.cif.g09.slc.cpg/sg15_32_cif.got.tgz:62780.got - 2010.06.28 07:06:18.
