data_PCOD8148991
_publ_section_title
;
Structure prediction by ZEFSAII (Michael W. Deem and Ramdas Pophale) SiO2 
 PCOD8148991
Probable space group: C 2/C
;
_chemical_formula_sum "Si O2"
_cell_formula_units_Z 64
_cell_length_a 13.874408
_cell_length_b 15.635532
_cell_length_c 17.680572
_cell_angle_alpha 90.000000
_cell_angle_beta 50.015391
_cell_angle_gamma 90.000000
_cell_volume 2938.835424
_symmetry_space_group_name_H-M "C 2/C"
_symmetry_group_IT_number 15
_symmetry_cell_setting 'monoclinic'
loop_
_space_group_symop_operation_xyz
x,y,z
-x,y,1/2-z
-x,-y,-z
x,-y,1/2+z
1/2+x,1/2+y,z
1/2-x,1/2+y,1/2-z
1/2-x,1/2-y,-z
1/2+x,1/2-y,1/2+z
loop_
_atom_site_type_symbol
_atom_site_label
_atom_site_fract_x
_atom_site_fract_y
_atom_site_fract_z
Si Si1 0.992883 0.436713 0.164586
Si Si2 0.041101 0.374164 0.643703
Si Si3 0.090756 0.077460 0.135990
Si Si4 0.977454 0.195481 0.060775
Si Si5 0.709578 0.397763 0.059454
Si Si6 0.983057 0.197415 0.622210
Si Si7 0.712754 0.162536 0.820962
Si Si8 0.182029 0.678359 0.487534
O O1 0.869681 0.390816 0.196130
O O2 0.000000 0.427213 0.250000
O O3 0.985117 0.535599 0.143731
O O4 0.120542 0.394713 0.070163
O O5 0.193129 0.377869 0.557868
O O6 0.000000 0.354429 0.750000
O O7 0.982866 0.300575 0.620058
O O8 0.018313 0.129474 0.105672
O O9 0.000000 0.054952 0.250000
O O10 0.148025 0.990149 0.075224
O O11 0.204717 0.132969 0.115367
O O12 0.075076 0.273863 0.994555
O O13 0.843291 0.240573 0.145871
O O14 0.979743 0.152451 0.976933
O O15 0.596300 0.329499 0.120887
O O16 0.785582 0.387121 0.099879
O O17 0.851207 0.162390 0.716906
O O18 0.250000 0.750000 0.500000
#
# Coordination Sequence:
#
# PCOD8148991 Si02
#       8
#     8   8   8   8   8   8   8   8
#     4  10  23  43  70 102 136 180 232 290 344 422
#     4  11  24  43  73 100 133 187 236 286 350 418
#     4  11  24  43  69 100 142 186 232 289 359 420
#     4  10  25  41  67 106 131 184 233 289 348 420
#     4  12  25  48  69  99 143 189 235 296 350 423
#     4  12  26  44  71 100 144 181 235 294 353 420
#     4  11  25  44  69 100 141 186 233 284 366 423
#     4   9  20  38  63  94 136 171 219 282 348 407
#
# _framework density 21.777334
#
# number of rings (size 3 to 8) (size 9 to 14) (size 15 to 20)
#    0.000    1.250    2.500    2.250    7.000    5.500 
#    2.250    0.000    0.000    0.000    0.000    0.000 
#    0.000    0.000    0.000    0.000    0.000    0.000 
#
# Total GULP energy -396630.868818 kJ/mol
# GULP energy per Si atom -12394.714651 kJ/mol
# Density = 2.172777 g / cm^3
# Si number density = 21.777334 Si / 1000 Ang^3
#
#
#
# Elastic Constant Matrix: (Units=GPa)
#
#
# Indices 1 2 3 4 5 6 
#
# 1 96.1977 36.3101 54.3186 0.0000 -2.7040 0.0000
# 2 36.3101 100.6575 35.3054 0.0000 3.7547 0.0000
# 3 54.3186 35.3054 125.3713 0.0000 -20.8698 0.0000
# 4 0.0000 0.0000 0.0000 29.6431 0.0000 -7.1417
# 5 -2.7040 3.7547 -20.8698 0.0000 37.9153 0.0000
# 6 0.0000 0.0000 0.0000 -7.1417 0.0000 33.4891
#
#
#
# Elastic Compliance Matrix: (Units=1/GPa)
#
#
# Indices 1 2 3 4 5 6 
#
# 1 0.014861 -0.003249 -0.005828 0.000000 -0.001826 0.000000
# 2 -0.003249 0.012071 -0.002454 0.000000 -0.002778 0.000000
# 3 -0.005828 -0.002454 0.012290 0.000000 0.006592 0.000000
# 4 0.000000 0.000000 0.000000 0.035562 0.000000 0.007584
# 5 -0.001826 -0.002778 0.006592 0.000000 0.030148 0.000000
# 6 0.000000 0.000000 0.000000 0.007584 0.000000 0.031478
#
#
# Mechanical properties :
#
#
# Convention : Reuss Voigt Hill
#
# Bulk Modulus (GPa) = 61.87973 63.78828 62.83401
# Shear Modulus (GPa) = 30.32935 33.29566 31.81250
#
# Velocity S-wave (km/s) = 3.73594 3.91437 3.82620
# Velocity P-wave (km/s) = 6.86193 7.05581 6.95955
#
# Compressibility (1/GPa) = 0.01616038
#
# Stress axis : x y z
#
# Youngs Moduli (GPa) = 67.29114 82.84355 81.36860
#
# Poissons Ratio (x) = 0.26912 0.47420
# Poissons Ratio (y) = 0.21860 0.19970
# Poissons Ratio (z) = 0.39216 0.20332
#
# Static dielectric constant tensor:
#      x y z
#    x 4.153560 0.000000 -0.388410 
#    y 0.000000 4.160380 0.000000 
#    z -0.388410 0.000000 4.040210 
# 
# 
# High freq. dielectric constant tensor:
#      x y z
#    x 1.853870 0.000000 -0.015890 
#    y 0.000000 1.861620 0.000000 
#    z -0.015890 0.000000 1.862200 
# 
# From -- ./inp_files/205693.got.cif
#   From: 2010.06.25/outbox.cif.g09.slc.cpg/sg15_103_cif.got.tgz:205693.got - 2010.06.28 07:06:18.
