data_PCOD8148367
_publ_section_title
;
Structure prediction by ZEFSAII (Michael W. Deem and Ramdas Pophale) SiO2 
 PCOD8148367
Probable space group: C 2/C
;
_chemical_formula_sum "Si O2"
_cell_formula_units_Z 40
_cell_length_a 8.396189
_cell_length_b 26.387883
_cell_length_c 8.856404
_cell_angle_alpha 90.000000
_cell_angle_beta 85.369962
_cell_angle_gamma 90.000000
_cell_volume 1955.800816
_symmetry_space_group_name_H-M "C 2/C"
_symmetry_group_IT_number 15
_symmetry_cell_setting 'monoclinic'
loop_
_space_group_symop_operation_xyz
x,y,z
-x,y,1/2-z
-x,-y,-z
x,-y,1/2+z
1/2+x,1/2+y,z
1/2-x,1/2+y,1/2-z
1/2-x,1/2-y,-z
1/2+x,1/2-y,1/2+z
loop_
_atom_site_type_symbol
_atom_site_label
_atom_site_fract_x
_atom_site_fract_y
_atom_site_fract_z
Si Si1 0.436098 0.951777 0.418836
Si Si2 0.563923 0.251243 0.069308
Si Si3 0.059715 0.949809 0.416121
Si Si4 0.440550 0.146697 0.084560
Si Si5 0.065986 0.849756 0.579997
O O1 0.500000 0.955753 0.250000
O O2 0.247532 0.950362 0.420704
O O3 0.509231 0.901511 0.489919
O O4 0.500000 0.000000 0.500000
O O5 0.500000 0.250903 0.250000
O O6 0.501780 0.198565 0.003291
O O7 0.750000 0.250000 0.000000
O O8 0.479259 0.299615 0.006597
O O9 0.992687 0.899010 0.501740
O O10 0.000000 0.949249 0.250000
O O11 0.000000 0.000000 0.500000
O O12 0.500000 0.141572 0.250000
O O13 0.252651 0.145930 0.084964
O O14 0.000000 0.845542 0.750000
#
# Coordination Sequence:
#
# PCOD8148367 Si02
#       5
#     8   8   8   8   8
#     4  11  24  40  63  90 121 161 204 252 308 371
#     4  11  24  42  66  95 128 168 211 263 319 379
#     4  11  24  41  63  91 124 162 207 259 315 375
#     4  10  23  41  61  89 124 163 206 255 309 369
#     4  11  23  40  64  93 126 166 210 259 315 378
#
# _framework density 20.451981
#
# number of rings (size 3 to 8) (size 9 to 14) (size 15 to 20)
#    0.000    1.200    0.000    6.000    0.000   13.600 
#    0.000    0.000    0.000    0.000    0.000    0.000 
#    0.000    0.000    0.000    0.000    0.000    0.000 
#
# Total GULP energy -247822.532203 kJ/mol
# GULP energy per Si atom -12391.126610 kJ/mol
# Density = 2.040543 g / cm^3
# Si number density = 20.451981 Si / 1000 Ang^3
#
#
#
# Elastic Constant Matrix: (Units=GPa)
#
#
# Indices 1 2 3 4 5 6 
#
# 1 68.2338 40.3107 31.5002 0.0000 5.3167 0.0000
# 2 40.3107 230.7988 88.9527 0.0000 12.6129 0.0000
# 3 31.5002 88.9527 136.7247 0.0000 -0.1913 0.0000
# 4 0.0000 0.0000 0.0000 43.7624 0.0000 6.6715
# 5 5.3167 12.6129 -0.1913 0.0000 41.1998 0.0000
# 6 0.0000 0.0000 0.0000 6.6715 0.0000 40.9177
#
#
#
# Elastic Compliance Matrix: (Units=1/GPa)
#
#
# Indices 1 2 3 4 5 6 
#
# 1 0.017145 -0.001842 -0.002754 0.000000 -0.001661 0.000000
# 2 -0.001842 0.006116 -0.003557 0.000000 -0.001651 0.000000
# 3 -0.002754 -0.003557 0.010264 0.000000 0.001492 0.000000
# 4 0.000000 0.000000 0.000000 0.023433 0.000000 -0.003821
# 5 -0.001661 -0.001651 0.001492 0.000000 0.024999 0.000000
# 6 0.000000 0.000000 0.000000 -0.003821 0.000000 0.025062
#
#
# Mechanical properties :
#
#
# Convention : Reuss Voigt Hill
#
# Bulk Modulus (GPa) = 58.07443 84.14272 71.10857
# Shear Modulus (GPa) = 38.74061 43.50889 41.12475
#
# Velocity S-wave (km/s) = 4.35699 4.61734 4.48905
# Velocity P-wave (km/s) = 7.33269 8.34610 7.85575
#
# Compressibility (1/GPa) = 0.01721928
#
# Stress axis : x y z
#
# Youngs Moduli (GPa) = 58.32748 163.51790 97.42423
#
# Poissons Ratio (x) = 0.30126 0.26827
# Poissons Ratio (y) = 0.10746 0.34650
# Poissons Ratio (z) = 0.16061 0.58157
#
# Static dielectric constant tensor:
#      x y z
#    x 3.906700 0.000000 -0.066530 
#    y 0.000000 4.222510 0.000000 
#    z -0.066530 0.000000 3.932850 
# 
# 
# High freq. dielectric constant tensor:
#      x y z
#    x 1.809750 0.000000 -0.000390 
#    y 0.000000 1.833700 0.000000 
#    z -0.000390 0.000000 1.807470 
# 
# From -- ./inp_files/23397.got.cif
#   From: 2010.06.25/outbox.cif.g09.slc.cpg/sg15_12_cif.got.tgz:23397.got - 2010.06.28 07:06:18.
