data_PCOD8148011
_publ_section_title
;
Structure prediction by ZEFSAII (Michael W. Deem and Ramdas Pophale) SiO2 
 PCOD8148011
Probable space group: C 2/C
;
_chemical_formula_sum "Si O2"
_cell_formula_units_Z 44
_cell_length_a 19.655922
_cell_length_b 9.797575
_cell_length_c 9.202668
_cell_angle_alpha 90.000000
_cell_angle_beta 110.885982
_cell_angle_gamma 90.000000
_cell_volume 1655.801509
_symmetry_space_group_name_H-M "C 2/C"
_symmetry_group_IT_number 15
_symmetry_cell_setting 'monoclinic'
loop_
_space_group_symop_operation_xyz
x,y,z
-x,y,1/2-z
-x,-y,-z
x,-y,1/2+z
1/2+x,1/2+y,z
1/2-x,1/2+y,1/2-z
1/2-x,1/2-y,-z
1/2+x,1/2-y,1/2+z
loop_
_atom_site_type_symbol
_atom_site_label
_atom_site_fract_x
_atom_site_fract_y
_atom_site_fract_z
Si Si1 0.500000 0.411973 0.250000
Si Si2 0.012519 0.713339 0.995558
Si Si3 0.779163 0.900066 0.724333
Si Si4 0.868283 0.393012 0.736563
Si Si5 0.848408 0.101343 0.585884
Si Si6 0.614610 0.812364 0.312059
O O1 0.499046 0.336977 0.404140
O O2 0.577889 0.489584 0.320440
O O3 0.068102 0.751118 0.907768
O O4 0.934018 0.676154 0.871514
O O5 0.052774 0.596671 0.122904
O O6 0.694582 0.873027 0.690372
O O7 0.812676 0.776227 0.655992
O O8 0.785117 0.042835 0.641038
O O9 0.824887 0.917639 0.904764
O O10 0.865350 0.261114 0.629080
O O11 0.858726 0.531510 0.636223
#
# Coordination Sequence:
#
# PCOD8148011 Si02
#       6
#     4   8   8   8   8   8
#     4  10  22  48  74  98 146 184 240 292 356 414
#     4  10  24  44  73 107 136 184 237 295 352 414
#     4  12  27  47  72 103 148 188 235 289 357 424
#     4  11  26  45  75 104 145 181 238 296 357 413
#     4  11  27  46  71 104 142 189 236 290 356 419
#     4  11  25  45  76 103 142 184 244 287 354 418
#
# _framework density 26.573233999999999
#
# number of rings (size 3 to 8) (size 9 to 14) (size 15 to 20)
#    0.000    1.091    1.818    2.182   10.182    8.727 
#    0.000    0.000    0.000    0.000    0.000    0.000 
#    0.000    0.000    0.000    0.000    0.000    0.000 
#
# Total GULP energy -272631.330014 kJ/mol
# GULP energy per Si atom -12392.333182 kJ/mol
# Density = 2.651275 g / cm^3
# Si number density = 26.573234 Si / 1000 Ang^3
#
#
#
# Elastic Constant Matrix: (Units=GPa)
#
#
# Indices 1 2 3 4 5 6 
#
# 1 98.8448 -3.4312 -11.9014 0.0000 -2.4639 0.0000
# 2 -3.4312 83.9815 26.1449 0.0000 -8.2325 0.0000
# 3 -11.9014 26.1449 74.0257 0.0000 -13.1890 0.0000
# 4 0.0000 0.0000 0.0000 10.1567 0.0000 -4.5195
# 5 -2.4639 -8.2325 -13.1890 0.0000 46.3729 0.0000
# 6 0.0000 0.0000 0.0000 -4.5195 0.0000 22.7784
#
#
#
# Elastic Compliance Matrix: (Units=1/GPa)
#
#
# Indices 1 2 3 4 5 6 
#
# 1 0.010368 -0.000056 0.001878 0.000000 0.001075 0.000000
# 2 -0.000056 0.013431 -0.004559 0.000000 0.001085 0.000000
# 3 0.001878 -0.004559 0.016111 0.000000 0.003873 0.000000
# 4 0.000000 0.000000 0.000000 0.107991 0.000000 0.021427
# 5 0.001075 0.001085 0.003873 0.000000 0.022915 0.000000
# 6 0.000000 0.000000 0.000000 0.021427 0.000000 0.048153
#
#
# Mechanical properties :
#
#
# Convention : Reuss Voigt Hill
#
# Bulk Modulus (GPa) = 29.03941 30.94184 29.99062
# Shear Modulus (GPa) = 21.19349 32.26424 26.72886
#
# Velocity S-wave (km/s) = 2.82716 3.48826 3.17497
# Velocity P-wave (km/s) = 4.64854 5.28141 4.97504
#
# Compressibility (1/GPa) = 0.03443596
#
# Stress axis : x y z
#
# Youngs Moduli (GPa) = 96.45182 74.45559 62.06933
#
# Poissons Ratio (x) = 0.00415 -0.11657
# Poissons Ratio (y) = 0.00537 0.28299
# Poissons Ratio (z) = -0.18115 0.33946
#
# Static dielectric constant tensor:
#      x y z
#    x 5.356670 0.000000 0.172790 
#    y 0.000000 4.486170 0.000000 
#    z 0.172790 0.000000 4.813550 
# 
# 
# High freq. dielectric constant tensor:
#      x y z
#    x 2.084700 0.000000 0.001400 
#    y 0.000000 2.042400 0.000000 
#    z 0.001400 0.000000 2.078210 
# 
# From -- ./inp_files/54492.got.cif
#   From: 2010.06.25/outbox.cif.g09.slc.cpg/sg15_28_cif.got.tgz:54492.got - 2010.06.28 07:06:18.
