data_PCOD8148851
_publ_section_title
;
Structure prediction by ZEFSAII (Michael W. Deem and Ramdas Pophale) SiO2 
 PCOD8148851
Probable space group: C 2/C
;
_chemical_formula_sum "Si O2"
_cell_formula_units_Z 64
_cell_length_a 31.142090
_cell_length_b 14.318499
_cell_length_c 9.485572
_cell_angle_alpha 90.000000
_cell_angle_beta 132.222275
_cell_angle_gamma 90.000000
_cell_volume 3132.270686
_symmetry_space_group_name_H-M "C 2/C"
_symmetry_group_IT_number 15
_symmetry_cell_setting 'monoclinic'
loop_
_space_group_symop_operation_xyz
x,y,z
-x,y,1/2-z
-x,-y,-z
x,-y,1/2+z
1/2+x,1/2+y,z
1/2-x,1/2+y,1/2-z
1/2-x,1/2-y,-z
1/2+x,1/2-y,1/2+z
loop_
_atom_site_type_symbol
_atom_site_label
_atom_site_fract_x
_atom_site_fract_y
_atom_site_fract_z
Si Si1 0.543240 0.259329 0.971667
Si Si2 0.745131 0.157123 0.573301
Si Si3 0.631956 0.604771 0.048361
Si Si4 0.882895 0.412053 0.743789
Si Si5 0.962375 0.231050 0.540117
Si Si6 0.789498 0.734782 0.719685
Si Si7 0.868280 0.916222 0.282989
Si Si8 0.604666 0.901010 0.055541
O O1 0.500000 0.232498 0.750000
O O2 0.578805 0.170173 0.104374
O O3 0.497443 0.300056 0.981218
O O4 0.591524 0.339446 0.048869
O O5 0.750000 0.250000 0.500000
O O6 0.685454 0.107607 0.396801
O O7 0.747522 0.181291 0.743506
O O8 0.799882 0.095181 0.654017
O O9 0.692944 0.661394 0.183066
O O10 0.622047 0.513530 0.118873
O O11 0.597121 0.678792 0.065020
O O12 0.615652 0.584691 0.848754
O O13 0.900958 0.424685 0.621812
O O14 0.895071 0.505451 0.854893
O O15 0.951682 0.342874 0.518489
O O16 0.000000 0.195124 0.750000
O O17 0.750000 0.750000 0.500000
O O18 0.840385 0.663682 0.789941
#
# Coordination Sequence:
#
# PCOD8148851 Si02
#       8
#     8   8   8   8   8   8   8   8
#     4  12  27  44  69  99 132 173 229 274 332 394
#     4  11  22  44  72  88 139 180 208 277 324 394
#     4  11  26  43  68  97 135 173 223 274 325 397
#     4  11  24  44  65 103 132 174 222 268 336 396
#     4  11  22  48  68  85 134 182 213 275 329 384
#     4  10  23  43  64  97 133 177 219 264 331 393
#     4  12  26  45  67 104 132 176 228 267 338 394
#     4  10  24  41  67  97 133 171 221 269 329 397
#
# _framework density 20.432461
#
# number of rings (size 3 to 8) (size 9 to 14) (size 15 to 20)
#    0.000    1.000    5.000    0.750    7.000    5.000 
#    0.000    0.000    0.000    0.000    0.000    0.000 
#    0.000    0.000    0.000    0.000    0.000    0.000 
#
# Total GULP energy -396485.675419 kJ/mol
# GULP energy per Si atom -12390.177357 kJ/mol
# Density = 2.038596 g / cm^3
# Si number density = 20.432461 Si / 1000 Ang^3
#
#
#
# Elastic Constant Matrix: (Units=GPa)
#
#
# Indices 1 2 3 4 5 6 
#
# 1 87.9347 24.3746 28.3777 0.0000 5.6810 0.0000
# 2 24.3746 129.0340 46.4475 0.0000 -5.6511 0.0000
# 3 28.3777 46.4475 131.8544 0.0000 -7.4330 0.0000
# 4 0.0000 0.0000 0.0000 32.3432 0.0000 -11.0358
# 5 5.6810 -5.6511 -7.4330 0.0000 21.6140 0.0000
# 6 0.0000 0.0000 0.0000 -11.0358 0.0000 26.5058
#
#
#
# Elastic Compliance Matrix: (Units=1/GPa)
#
#
# Indices 1 2 3 4 5 6 
#
# 1 0.012952 -0.001779 -0.002426 0.000000 -0.004704 0.000000
# 2 -0.001779 0.009154 -0.002733 0.000000 0.001921 0.000000
# 3 -0.002426 -0.002733 0.009244 0.000000 0.003102 0.000000
# 4 0.000000 0.000000 0.000000 0.036038 0.000000 0.015005
# 5 -0.004704 0.001921 0.003102 0.000000 0.049072 0.000000
# 6 0.000000 0.000000 0.000000 0.015005 0.000000 0.043975
#
#
# Mechanical properties :
#
#
# Convention : Reuss Voigt Hill
#
# Bulk Modulus (GPa) = 57.23208 60.80252 59.01730
# Shear Modulus (GPa) = 27.75678 32.73416 30.24547
#
# Velocity S-wave (km/s) = 3.68973 4.00692 3.85160
# Velocity P-wave (km/s) = 6.79878 7.15749 6.98044
#
# Compressibility (1/GPa) = 0.01747272
#
# Stress axis : x y z
#
# Youngs Moduli (GPa) = 77.20777 109.24087 108.17878
#
# Poissons Ratio (x) = 0.19439 0.26243
# Poissons Ratio (y) = 0.13739 0.29569
# Poissons Ratio (z) = 0.18730 0.29860
#
# Static dielectric constant tensor:
#      x y z
#    x 3.809300 0.000000 0.044360 
#    y 0.000000 3.663360 0.000000 
#    z 0.044360 0.000000 3.619090 
# 
# 
# High freq. dielectric constant tensor:
#      x y z
#    x 1.810970 0.000000 0.001810 
#    y 0.000000 1.802170 0.000000 
#    z 0.001810 0.000000 1.801730 
# 
# From -- ./inp_files/70176.got.cif
#   From: 2010.06.25/outbox.cif.g09.slc.cpg/sg15_36_cif.got.tgz:70176.got - 2010.06.28 07:06:18.
