data_PCOD8148469
_publ_section_title
;
Structure prediction by ZEFSAII (Michael W. Deem and Ramdas Pophale) SiO2 
 PCOD8148469
Probable space group: C 2/C
;
_chemical_formula_sum "Si O2"
_cell_formula_units_Z 48
_cell_length_a 26.325996
_cell_length_b 19.544551
_cell_length_c 9.108485
_cell_angle_alpha 90.000000
_cell_angle_beta 29.097592
_cell_angle_gamma 90.000000
_cell_volume 2279.080823
_symmetry_space_group_name_H-M "C 2/C"
_symmetry_group_IT_number 15
_symmetry_cell_setting 'monoclinic'
loop_
_space_group_symop_operation_xyz
x,y,z
-x,y,1/2-z
-x,-y,-z
x,-y,1/2+z
1/2+x,1/2+y,z
1/2-x,1/2+y,1/2-z
1/2-x,1/2-y,-z
1/2+x,1/2-y,1/2+z
loop_
_atom_site_type_symbol
_atom_site_label
_atom_site_fract_x
_atom_site_fract_y
_atom_site_fract_z
Si Si1 0.027642 0.931027 0.849775
Si Si2 0.739166 0.617791 0.716676
Si Si3 0.268370 0.755231 0.624040
Si Si4 0.363286 0.674804 0.816159
Si Si5 0.039776 0.434370 0.814484
Si Si6 0.496177 0.800717 0.098155
O O1 0.150398 0.914930 0.544986
O O2 0.000000 0.935883 0.750000
O O3 0.964080 0.871721 0.094852
O O4 0.000000 0.000000 0.000000
O O5 0.780234 0.686961 0.685773
O O6 0.702996 0.636633 0.643006
O O7 0.835040 0.564879 0.479258
O O8 0.250000 0.750000 0.500000
O O9 0.391469 0.757088 0.342290
O O10 0.207798 0.818203 0.857448
O O11 0.404457 0.749720 0.663947
O O12 0.000000 0.440855 0.750000
O O13 0.995092 0.362853 0.987575
O O14 0.000000 0.500000 0.000000
O O15 0.500000 0.833568 0.250000
#
# Coordination Sequence:
#
# PCOD8148469 Si02
#       6
#     8   8   8   8   8   8
#     4  10  23  41  66  98 133 175 222 277 335 409
#     4  11  22  45  69  95 136 178 233 280 341 414
#     4  12  24  37  65 104 136 174 220 289 348 399
#     4  11  22  43  71 101 134 183 230 278 348 419
#     4  12  28  46  66  98 141 187 236 286 347 422
#     4  12  22  42  72  99 135 180 237 281 347 415
#
# _framework density 21.061122999999998
#
# number of rings (size 3 to 8) (size 9 to 14) (size 15 to 20)
#    0.000    0.667    5.000    3.500    0.000    5.333 
#    0.000    0.000    0.000    0.000    0.000    0.000 
#    0.000    0.000    0.000    0.000    0.000    0.000 
#
# Total GULP energy -297576.574718 kJ/mol
# GULP energy per Si atom -12399.023947 kJ/mol
# Density = 2.101319 g / cm^3
# Si number density = 21.061123 Si / 1000 Ang^3
#
#
#
# Elastic Constant Matrix: (Units=GPa)
#
#
# Indices 1 2 3 4 5 6 
#
# 1 122.2648 38.0511 65.6350 0.0000 5.8120 0.0000
# 2 38.0511 115.4455 51.1789 0.0000 0.6241 0.0000
# 3 65.6350 51.1789 144.2420 0.0000 -8.7208 0.0000
# 4 0.0000 0.0000 0.0000 54.6290 0.0000 5.9823
# 5 5.8120 0.6241 -8.7208 0.0000 38.8477 0.0000
# 6 0.0000 0.0000 0.0000 5.9823 0.0000 27.1904
#
#
#
# Elastic Compliance Matrix: (Units=1/GPa)
#
#
# Indices 1 2 3 4 5 6 
#
# 1 0.011372 -0.001621 -0.004766 0.000000 -0.002745 0.000000
# 2 -0.001621 0.010548 -0.003042 0.000000 -0.000610 0.000000
# 3 -0.004766 -0.003042 0.010367 0.000000 0.003089 0.000000
# 4 0.000000 0.000000 0.000000 0.018757 0.000000 -0.004127
# 5 -0.002745 -0.000610 0.003089 0.000000 0.026856 0.000000
# 6 0.000000 0.000000 0.000000 -0.004127 0.000000 0.037686
#
#
# Mechanical properties :
#
#
# Convention : Reuss Voigt Hill
#
# Bulk Modulus (GPa) = 74.45466 76.85358 75.65412
# Shear Modulus (GPa) = 35.99196 39.27260 37.63228
#
# Velocity S-wave (km/s) = 4.13840 4.32290 4.23166
# Velocity P-wave (km/s) = 7.63306 7.84134 7.73790
#
# Compressibility (1/GPa) = 0.01343099
#
# Stress axis : x y z
#
# Youngs Moduli (GPa) = 87.93373 94.80321 96.45596
#
# Poissons Ratio (x) = 0.15366 0.45967
# Poissons Ratio (y) = 0.14252 0.29342
# Poissons Ratio (z) = 0.41906 0.28839
#
# Static dielectric constant tensor:
#      x y z
#    x 3.672680 0.000000 -0.014440 
#    y 0.000000 3.751730 0.000000 
#    z -0.014440 0.000000 4.304760 
# 
# 
# High freq. dielectric constant tensor:
#      x y z
#    x 1.818430 0.000000 -0.003900 
#    y 0.000000 1.817870 0.000000 
#    z -0.003900 0.000000 1.846710 
# 
# From -- ./inp_files/67476.got.cif
#   From: 2010.06.25/outbox.cif.g09.slc.cpg/sg15_34_cif.got.tgz:67476.got - 2010.06.28 07:06:18.
