data_PCOD8148211
_publ_section_title
;
Structure prediction by ZEFSAII (Michael W. Deem and Ramdas Pophale) SiO2 
 PCOD8148211
Probable space group: C 2/C
;
_chemical_formula_sum "Si O2"
_cell_formula_units_Z 60
_cell_length_a 22.863220
_cell_length_b 17.179122
_cell_length_c 11.543373
_cell_angle_alpha 90.000000
_cell_angle_beta 42.690307
_cell_angle_gamma 90.000000
_cell_volume 3074.138381
_symmetry_space_group_name_H-M "C 2/C"
_symmetry_group_IT_number 15
_symmetry_cell_setting 'monoclinic'
loop_
_space_group_symop_operation_xyz
x,y,z
-x,y,1/2-z
-x,-y,-z
x,-y,1/2+z
1/2+x,1/2+y,z
1/2-x,1/2+y,1/2-z
1/2-x,1/2-y,-z
1/2+x,1/2-y,1/2+z
loop_
_atom_site_type_symbol
_atom_site_label
_atom_site_fract_x
_atom_site_fract_y
_atom_site_fract_z
Si Si1 0.901002 0.389900 0.540440
Si Si2 0.221379 0.274304 0.857220
Si Si3 0.000000 0.742439 0.250000
Si Si4 0.766586 0.362701 0.429931
Si Si5 0.566806 0.861059 0.443075
Si Si6 0.814214 0.198982 0.987872
Si Si7 0.594679 0.033000 0.090105
Si Si8 0.725610 0.955903 0.598392
O O1 0.872503 0.301775 0.554198
O O2 0.911940 0.438864 0.404833
O O3 0.821639 0.434994 0.714676
O O4 0.984972 0.394438 0.495272
O O5 0.207244 0.187264 0.927405
O O6 0.291831 0.277777 0.652729
O O7 0.251780 0.335056 0.912652
O O8 0.961730 0.698909 0.417407
O O9 0.916905 0.788399 0.319540
O O10 0.863868 0.333887 0.253602
O O11 0.743771 0.454252 0.451207
O O12 0.618156 0.932734 0.429417
O O13 0.802847 0.106803 0.975342
O O14 0.750000 0.250000 0.000000
O O15 0.500000 0.069736 0.250000
O O16 0.660019 0.062966 0.089908
#
# Coordination Sequence:
#
# PCOD8148211 Si02
#       8
#     8   8   4   8   8   8   8   8
#     4  11  21  34  53  87 124 159 199 247 315 389
#     4  10  23  40  58  87 122 161 209 250 316 377
#     4  12  22  42  64  88 132 162 216 270 310 366
#     4  11  22  39  61  87 122 164 203 259 318 378
#     4  12  21  34  57  89 125 163 196 253 324 378
#     4  11  24  43  66  95 126 167 218 260 314 374
#     4  12  20  31  52  91 128 155 195 251 313 387
#     4  11  22  37  59  89 121 166 209 252 308 378
#
# _framework density 19.517664
#
# number of rings (size 3 to 8) (size 9 to 14) (size 15 to 20)
#    0.000    0.800    6.000    3.600    0.000    0.000 
#    0.000    0.000    0.000    4.000    0.000    0.000 
#    0.000    0.000    0.000    0.000    0.000    0.000 
#
# Total GULP energy -371654.457018 kJ/mol
# GULP energy per Si atom -12388.481901 kJ/mol
# Density = 1.947324 g / cm^3
# Si number density = 19.517664 Si / 1000 Ang^3
#
#
#
# Elastic Constant Matrix: (Units=GPa)
#
#
# Indices 1 2 3 4 5 6 
#
# 1 92.1474 50.5090 31.8952 0.0000 -3.1051 0.0000
# 2 50.5090 131.9254 32.9504 0.0000 -5.8890 0.0000
# 3 31.8952 32.9504 77.2051 0.0000 2.0789 0.0000
# 4 0.0000 0.0000 0.0000 23.4553 0.0000 -2.2934
# 5 -3.1051 -5.8890 2.0789 0.0000 29.8469 0.0000
# 6 0.0000 0.0000 0.0000 -2.2934 0.0000 36.4596
#
#
#
# Elastic Compliance Matrix: (Units=1/GPa)
#
#
# Indices 1 2 3 4 5 6 
#
# 1 0.014858 -0.004598 -0.004201 0.000000 0.000931 0.000000
# 2 -0.004598 0.010020 -0.002422 0.000000 0.001667 0.000000
# 3 -0.004201 -0.002422 0.015776 0.000000 -0.002014 0.000000
# 4 0.000000 0.000000 0.000000 0.042898 0.000000 0.002698
# 5 0.000931 0.001667 -0.002014 0.000000 0.034070 0.000000
# 6 0.000000 0.000000 0.000000 0.002698 0.000000 0.027597
#
#
# Mechanical properties :
#
#
# Convention : Reuss Voigt Hill
#
# Bulk Modulus (GPa) = 54.90733 59.10968 57.00850
# Shear Modulus (GPa) = 28.78020 30.34725 29.56372
#
# Velocity S-wave (km/s) = 3.84418 3.94745 3.89616
# Velocity P-wave (km/s) = 6.92075 7.15035 7.03649
#
# Compressibility (1/GPa) = 0.01821250
#
# Stress axis : x y z
#
# Youngs Moduli (GPa) = 67.30496 99.80446 63.38807
#
# Poissons Ratio (x) = 0.45886 0.26629
# Poissons Ratio (y) = 0.30944 0.15351
# Poissons Ratio (z) = 0.28274 0.24170
#
# Static dielectric constant tensor:
#      x y z
#    x 3.702000 0.000000 0.156010 
#    y 0.000000 3.745490 0.000000 
#    z 0.156010 0.000000 3.589850 
# 
# 
# High freq. dielectric constant tensor:
#      x y z
#    x 1.756130 0.000000 0.029480 
#    y 0.000000 1.756410 0.000000 
#    z 0.029480 0.000000 1.750440 
# 
# From -- ./inp_files/119451.got.cif
#   From: 2010.06.25/outbox.cif.g09.slc.cpg/sg15_60_cif.got.tgz:119451.got - 2010.06.28 07:06:18.
