data_PCOD8148131
_publ_section_title
;
Structure prediction by ZEFSAII (Michael W. Deem and Ramdas Pophale) SiO2 
 PCOD8148131
Probable space group: C 2/C
;
_chemical_formula_sum "Si O2"
_cell_formula_units_Z 48
_cell_length_a 8.403004
_cell_length_b 29.537078
_cell_length_c 9.880950
_cell_angle_alpha 90.000000
_cell_angle_beta 60.679986
_cell_angle_gamma 90.000000
_cell_volume 2138.290070
_symmetry_space_group_name_H-M "C 2/C"
_symmetry_group_IT_number 15
_symmetry_cell_setting 'monoclinic'
loop_
_space_group_symop_operation_xyz
x,y,z
-x,y,1/2-z
-x,-y,-z
x,-y,1/2+z
1/2+x,1/2+y,z
1/2-x,1/2+y,1/2-z
1/2-x,1/2-y,-z
1/2+x,1/2-y,1/2+z
loop_
_atom_site_type_symbol
_atom_site_label
_atom_site_fract_x
_atom_site_fract_y
_atom_site_fract_z
Si Si1 0.184478 0.523139 0.373101
Si Si2 0.000000 0.751441 0.750000
Si Si3 0.770361 0.908001 0.615766
Si Si4 0.851193 0.692562 0.050449
Si Si5 0.000000 0.666497 0.250000
Si Si6 0.699191 0.572622 0.689370
Si Si7 0.296716 0.600713 0.526419
O O1 0.180448 0.550686 0.235057
O O2 0.320613 0.481530 0.286789
O O3 0.248830 0.555871 0.464993
O O4 0.000000 0.500000 0.500000
O O5 0.035000 0.720076 0.606773
O O6 0.178315 0.782500 0.689126
O O7 0.684045 0.861560 0.699860
O O8 0.695469 0.915310 0.493018
O O9 0.984633 0.901419 0.550604
O O10 0.004154 0.692688 0.106081
O O11 0.781704 0.645034 0.014348
O O12 0.500000 0.593515 0.750000
O O13 0.788419 0.596024 0.785647
#
# Coordination Sequence:
#
# PCOD8148131 Si02
#       7
#     8   4   8   8   4   8   8
#     4  12  24  39  61  96 138 185 241 288 337 396
#     4  10  26  50  76 107 138 182 225 300 366 450
#     4  11  23  42  63  99 137 185 234 289 345 407
#     4  11  25  47  76 106 142 180 237 287 370 436
#     4  12  24  40  72 105 134 170 231 284 342 438
#     4  10  23  39  60  94 134 183 239 287 333 392
#     4  11  24  44  71  94 138 197 231 287 355 428
#
# _framework density 22.447842000000001
#
# number of rings (size 3 to 8) (size 9 to 14) (size 15 to 20)
#    0.000    1.000    1.667    4.500    2.333    5.333 
#    0.000    0.000    1.833    0.000    0.000    0.000 
#    0.000    0.000    0.000    0.000    0.000    0.000 
#
# Total GULP energy -297346.119811 kJ/mol
# GULP energy per Si atom -12389.421659 kJ/mol
# Density = 2.239675 g / cm^3
# Si number density = 22.447842 Si / 1000 Ang^3
#
#
#
# Elastic Constant Matrix: (Units=GPa)
#
#
# Indices 1 2 3 4 5 6 
#
# 1 108.3062 51.7159 60.8562 0.0000 27.7788 0.0000
# 2 51.7159 100.3550 38.8035 0.0000 16.4049 0.0000
# 3 60.8562 38.8035 143.3588 0.0000 27.7191 0.0000
# 4 0.0000 0.0000 0.0000 33.1454 0.0000 -13.4377
# 5 27.7788 16.4049 27.7191 0.0000 46.3342 0.0000
# 6 0.0000 0.0000 0.0000 -13.4377 0.0000 75.5558
#
#
#
# Elastic Compliance Matrix: (Units=1/GPa)
#
#
# Indices 1 2 3 4 5 6 
#
# 1 0.015447 -0.005581 -0.004114 0.000000 -0.004824 0.000000
# 2 -0.005581 0.013391 -0.001115 0.000000 -0.000728 0.000000
# 3 -0.004114 -0.001115 0.009578 0.000000 -0.002869 0.000000
# 4 0.000000 0.000000 0.000000 0.032515 0.000000 0.005783
# 5 -0.004824 -0.000728 -0.002869 0.000000 0.026449 0.000000
# 6 0.000000 0.000000 0.000000 0.005783 0.000000 0.014264
#
#
# Mechanical properties :
#
#
# Convention : Reuss Voigt Hill
#
# Bulk Modulus (GPa) = 59.53464 72.75236 66.14350
# Shear Modulus (GPa) = 36.00742 44.38337 40.19540
#
# Velocity S-wave (km/s) = 4.00940 4.45137 4.23615
# Velocity P-wave (km/s) = 6.92911 7.67460 7.31136
#
# Compressibility (1/GPa) = 0.01679694
#
# Stress axis : x y z
#
# Youngs Moduli (GPa) = 64.73869 74.67882 104.40273
#
# Poissons Ratio (x) = 0.41678 0.42950
# Poissons Ratio (y) = 0.36130 0.11636
# Poissons Ratio (z) = 0.26633 0.08323
#
# Static dielectric constant tensor:
#      x y z
#    x 4.034140 0.000000 0.201200 
#    y 0.000000 4.170850 0.000000 
#    z 0.201200 0.000000 4.563150 
# 
# 
# High freq. dielectric constant tensor:
#      x y z
#    x 1.889130 0.000000 0.010680 
#    y 0.000000 1.874000 0.000000 
#    z 0.010680 0.000000 1.910570 
# 
# From -- ./inp_files/80583.got.cif
#   From: 2010.06.25/outbox.cif.g09.slc.cpg/sg15_41_cif.got.tgz:80583.got - 2010.06.28 07:06:18.
