data_PCOD8148265
_publ_section_title
;
Structure prediction by ZEFSAII (Michael W. Deem and Ramdas Pophale) SiO2 
 PCOD8148265
Probable space group: C 2/C
;
_chemical_formula_sum "Si O2"
_cell_formula_units_Z 44
_cell_length_a 13.635073
_cell_length_b 6.416728
_cell_length_c 22.703305
_cell_angle_alpha 90.000000
_cell_angle_beta 76.033589
_cell_angle_gamma 90.000000
_cell_volume 1927.647855
_symmetry_space_group_name_H-M "C 2/C"
_symmetry_group_IT_number 15
_symmetry_cell_setting 'monoclinic'
loop_
_space_group_symop_operation_xyz
x,y,z
-x,y,1/2-z
-x,-y,-z
x,-y,1/2+z
1/2+x,1/2+y,z
1/2-x,1/2+y,1/2-z
1/2-x,1/2-y,-z
1/2+x,1/2-y,1/2+z
loop_
_atom_site_type_symbol
_atom_site_label
_atom_site_fract_x
_atom_site_fract_y
_atom_site_fract_z
Si Si1 0.834379 0.340960 0.812677
Si Si2 0.500000 0.542730 0.750000
Si Si3 0.869966 0.308666 0.216542
Si Si4 0.924672 0.808211 0.011662
Si Si5 0.048776 0.431322 0.412554
Si Si6 0.219946 0.142593 0.444502
O O1 0.863801 0.558184 0.777160
O O2 0.741654 0.235784 0.791276
O O3 0.810666 0.382721 0.884647
O O4 0.928878 0.185516 0.800674
O O5 0.571908 0.406387 0.781249
O O6 0.938069 0.436792 0.159619
O O7 0.941222 0.666062 0.950495
O O8 0.943164 0.667522 0.066638
O O9 0.813757 0.907607 0.033268
O O10 0.000000 0.000000 0.000000
O O11 0.134130 0.282815 0.427455
O O12 0.250000 0.250000 0.500000
#
# Coordination Sequence:
#
# PCOD8148265 Si02
#       6
#     8   4   8   8   8   8
#     4  11  25  45  71 102 141 187 238 296 359 424
#     4  12  26  46  70 104 138 190 236 288 368 422
#     4  11  24  45  71 100 140 184 236 301 352 430
#     4   9  19  39  62  93 127 173 220 272 341 410
#     4   9  21  40  66  96 129 182 227 282 356 412
#     4  10  23  40  64  98 137 180 228 290 346 418
#
# _framework density 22.825748000000001
#
# number of rings (size 3 to 8) (size 9 to 14) (size 15 to 20)
#    0.000    1.818    1.818    0.545    5.091    2.182 
#   16.364    0.000    0.000    0.000    0.000    0.000 
#    0.000    0.000    0.000    0.000    0.000    0.000 
#
# Total GULP energy -272768.586194 kJ/mol
# GULP energy per Si atom -12398.572100 kJ/mol
# Density = 2.277380 g / cm^3
# Si number density = 22.825748 Si / 1000 Ang^3
#
#
#
# Elastic Constant Matrix: (Units=GPa)
#
#
# Indices 1 2 3 4 5 6 
#
# 1 70.3940 50.5963 61.8077 0.0000 -25.4496 0.0000
# 2 50.5963 141.1678 67.0100 0.0000 -23.8962 0.0000
# 3 61.8077 67.0100 190.0371 0.0000 -31.8434 0.0000
# 4 0.0000 0.0000 0.0000 35.2928 0.0000 -8.2647
# 5 -25.4496 -23.8962 -31.8434 0.0000 37.7450 0.0000
# 6 0.0000 0.0000 0.0000 -8.2647 0.0000 42.9412
#
#
#
# Elastic Compliance Matrix: (Units=1/GPa)
#
#
# Indices 1 2 3 4 5 6 
#
# 1 0.025904 -0.005269 -0.004891 0.000000 0.010004 0.000000
# 2 -0.005269 0.009954 -0.001555 0.000000 0.001437 0.000000
# 3 -0.004891 -0.001555 0.007784 0.000000 0.002285 0.000000
# 4 0.000000 0.000000 0.000000 0.029672 0.000000 0.005711
# 5 0.010004 0.001437 0.002285 0.000000 0.036076 0.000000
# 6 0.000000 0.000000 0.000000 0.005711 0.000000 0.024387
#
#
# Mechanical properties :
#
#
# Convention : Reuss Voigt Hill
#
# Bulk Modulus (GPa) = 49.47774 84.49186 66.98480
# Shear Modulus (GPa) = 30.49822 38.00812 34.25317
#
# Velocity S-wave (km/s) = 3.65928 4.08504 3.87801
# Velocity P-wave (km/s) = 6.29103 7.70367 7.03291
#
# Compressibility (1/GPa) = 0.02021111
#
# Stress axis : x y z
#
# Youngs Moduli (GPa) = 38.60411 100.46335 128.46779
#
# Poissons Ratio (x) = 0.52938 0.62829
# Poissons Ratio (y) = 0.20342 0.19981
# Poissons Ratio (z) = 0.18880 0.15625
#
# Static dielectric constant tensor:
#      x y z
#    x 4.329680 0.000000 -0.392500 
#    y 0.000000 4.344370 0.000000 
#    z -0.392500 0.000000 4.726340 
# 
# 
# High freq. dielectric constant tensor:
#      x y z
#    x 1.895900 0.000000 -0.023680 
#    y 0.000000 1.912110 0.000000 
#    z -0.023680 0.000000 1.904610 
# 
# From -- ./inp_files/271898.got.cif
#   From: 2010.06.25/outbox.cif.g09.slc.cpg/sg15_136_cif.got.tgz:271898.got - 2010.06.28 07:06:18.
