data_PCOD8148833
_publ_section_title
;
Structure prediction by ZEFSAII (Michael W. Deem and Ramdas Pophale) SiO2 
 PCOD8148833
Probable space group: C 2/C
;
_chemical_formula_sum "Si O2"
_cell_formula_units_Z 56
_cell_length_a 17.543422
_cell_length_b 26.676209
_cell_length_c 8.684522
_cell_angle_alpha 90.000000
_cell_angle_beta 39.500821
_cell_angle_gamma 90.000000
_cell_volume 2585.249219
_symmetry_space_group_name_H-M "C 2/C"
_symmetry_group_IT_number 15
_symmetry_cell_setting 'monoclinic'
loop_
_space_group_symop_operation_xyz
x,y,z
-x,y,1/2-z
-x,-y,-z
x,-y,1/2+z
1/2+x,1/2+y,z
1/2-x,1/2+y,1/2-z
1/2-x,1/2-y,-z
1/2+x,1/2-y,1/2+z
loop_
_atom_site_type_symbol
_atom_site_label
_atom_site_fract_x
_atom_site_fract_y
_atom_site_fract_z
Si Si1 0.529713 0.115808 0.878175
Si Si2 0.262098 0.952233 0.405436
Si Si3 0.118832 0.306420 0.464272
Si Si4 0.391419 0.304632 0.533568
Si Si5 0.216696 0.357573 0.592599
Si Si6 0.948395 0.107372 0.165567
Si Si7 0.333505 0.550319 0.781457
O O1 0.500000 0.130430 0.750000
O O2 0.597811 0.061278 0.778387
O O3 0.617380 0.156889 0.818840
O O4 0.408979 0.116317 0.166774
O O5 0.188340 0.909551 0.608432
O O6 0.245771 0.951238 0.248203
O O7 0.206941 0.003763 0.553090
O O8 0.143155 0.251307 0.355188
O O9 0.217948 0.324822 0.433119
O O10 0.000000 0.308417 0.750000
O O11 0.268825 0.324760 0.649895
O O12 0.445553 0.341071 0.577421
O O13 0.500000 0.297384 0.250000
O O14 0.308438 0.402076 0.425375
O O15 0.000000 0.121806 0.250000
O O16 0.024994 0.059713 0.976336
#
# Coordination Sequence:
#
# PCOD8148833 Si02
#       7
#     8   8   8   8   8   8   8
#     4  11  24  43  64  93 138 170 217 266 322 392
#     4  11  25  43  65  94 130 175 217 264 337 384
#     4   9  21  41  65  95 131 174 216 269 329 382
#     4  11  21  38  71  99 125 172 223 265 327 398
#     4  11  22  43  64  95 133 168 213 277 317 386
#     4  10  23  43  63  98 138 162 211 279 327 385
#     4  11  24  42  68  94 129 171 215 274 322 385
#
# _framework density 21.661355
#
# number of rings (size 3 to 8) (size 9 to 14) (size 15 to 20)
#    0.000    1.429    2.857    1.714    4.000    1.143 
#    0.000    2.857    0.000    0.000    0.000    0.000 
#    0.000    0.000    0.000    0.000    0.000    0.000 
#
# Total GULP energy -346974.839991 kJ/mol
# GULP energy per Si atom -12391.958571 kJ/mol
# Density = 2.161205 g / cm^3
# Si number density = 21.661355 Si / 1000 Ang^3
#
#
#
# Elastic Constant Matrix: (Units=GPa)
#
#
# Indices 1 2 3 4 5 6 
#
# 1 87.5243 26.9467 7.8643 0.0000 -0.0271 0.0000
# 2 26.9467 105.0140 13.6459 0.0000 7.9548 0.0000
# 3 7.8643 13.6459 49.2826 0.0000 -8.7818 0.0000
# 4 0.0000 0.0000 0.0000 -3.5581 0.0000 0.6224
# 5 -0.0271 7.9548 -8.7818 0.0000 33.4958 0.0000
# 6 0.0000 0.0000 0.0000 0.6224 0.0000 25.6391
#
#
#
# Elastic Compliance Matrix: (Units=1/GPa)
#
#
# Indices 1 2 3 4 5 6 
#
# 1 0.012474 -0.003100 -0.001048 0.000000 0.000472 0.000000
# 2 -0.003100 0.010990 -0.003161 0.000000 -0.003441 0.000000
# 3 -0.001048 -0.003161 0.022519 0.000000 0.006654 0.000000
# 4 0.000000 0.000000 0.000000 -0.279859 0.000000 0.006794
# 5 0.000472 -0.003441 0.006654 0.000000 0.032417 0.000000
# 6 0.000000 0.000000 0.000000 0.006794 0.000000 0.038838
#
#
# Mechanical properties :
#
#
# Convention : Reuss Voigt Hill
#
# Bulk Modulus (GPa) = 31.88413 37.63719 34.76066
# Shear Modulus (GPa) = -36.35130 24.00629 -6.17250
#
# Velocity S-wave (km/s) = -4.10098 3.33266 -1.68989
# Velocity P-wave (km/s) = 2.76998 5.67642 3.50350
#
# Compressibility (1/GPa) = 0.03136356
#
# Stress axis : x y z
#
# Youngs Moduli (GPa) = 80.16502 90.99527 44.40608
#
# Poissons Ratio (x) = 0.28213 0.04654
# Poissons Ratio (y) = 0.24855 0.14038
# Poissons Ratio (z) = 0.08402 0.28767
#
# Static dielectric constant tensor:
#      x y z
#    x 4.053510 0.000000 -0.067440 
#    y 0.000000 4.007190 0.000000 
#    z -0.067440 0.000000 3.936480 
# 
# 
# High freq. dielectric constant tensor:
#      x y z
#    x 1.852510 0.000000 -0.000740 
#    y 0.000000 1.849250 0.000000 
#    z -0.000740 0.000000 1.848220 
# 
# From -- ./inp_files/52285.got.cif
#   From: 2010.06.25/outbox.cif.g09.slc.cpg/sg15_27_cif.got.tgz:52285.got - 2010.06.28 07:06:18.
