data_PCOD8148846
_publ_section_title
;
Structure prediction by ZEFSAII (Michael W. Deem and Ramdas Pophale) SiO2 
 PCOD8148846
Probable space group: C 2/C
;
_chemical_formula_sum "Si O2"
_cell_formula_units_Z 40
_cell_length_a 5.042176
_cell_length_b 24.470899
_cell_length_c 13.733952
_cell_angle_alpha 90.000000
_cell_angle_beta 104.593348
_cell_angle_gamma 90.000000
_cell_volume 1639.915376
_symmetry_space_group_name_H-M "C 2/C"
_symmetry_group_IT_number 15
_symmetry_cell_setting 'monoclinic'
loop_
_space_group_symop_operation_xyz
x,y,z
-x,y,1/2-z
-x,-y,-z
x,-y,1/2+z
1/2+x,1/2+y,z
1/2-x,1/2+y,1/2-z
1/2-x,1/2-y,-z
1/2+x,1/2-y,1/2+z
loop_
_atom_site_type_symbol
_atom_site_label
_atom_site_fract_x
_atom_site_fract_y
_atom_site_fract_z
Si Si1 0.969123 0.844983 0.086018
Si Si2 0.740300 0.087652 0.148538
Si Si3 0.500000 0.256867 0.250000
Si Si4 0.500000 0.999903 0.750000
Si Si5 0.461968 0.084083 0.579993
Si Si6 0.240476 0.839202 0.641816
O O1 0.038218 0.794355 0.160339
O O2 0.773014 0.892305 0.114450
O O3 0.268627 0.866525 0.090955
O O4 0.836707 0.823063 0.974842
O O5 0.740861 0.038102 0.227229
O O6 0.551104 0.137256 0.168379
O O7 0.045988 0.112804 0.166339
O O8 0.619809 0.063655 0.035865
O O9 0.760344 0.216893 0.295826
O O10 0.396340 0.036406 0.650674
#
# Coordination Sequence:
#
# PCOD8148846 Si02
#       6
#     8   8   4   4   8   8
#     4  10  23  43  64  94 133 168 209 265 321 379
#     4  10  24  43  62  92 133 168 209 265 319 377
#     4  12  23  40  70  98 122 172 221 260 316 384
#     4  12  23  40  70  98 122 172 221 260 316 384
#     4  10  23  43  64  94 133 168 209 265 321 379
#     4  10  24  43  62  92 133 168 209 265 319 377
#
# _framework density 24.391501000000002
#
# number of rings (size 3 to 8) (size 9 to 14) (size 15 to 20)
#    0.000    1.600    0.000    3.000    0.000    9.600 
#    0.000   12.000    0.000    0.000    0.000    2.800 
#    0.000    0.000    0.000    0.000    0.000    0.000 
#
# Total GULP energy -247921.689977 kJ/mol
# GULP energy per Si atom -12396.084499 kJ/mol
# Density = 2.433598 g / cm^3
# Si number density = 24.391501 Si / 1000 Ang^3
#
#
#
# Elastic Constant Matrix: (Units=GPa)
#
#
# Indices 1 2 3 4 5 6 
#
# 1 98.5414 14.5048 33.6062 0.0000 -2.6261 0.0000
# 2 14.5048 111.5238 95.3812 0.0000 -15.8533 0.0000
# 3 33.6062 95.3812 163.9478 0.0000 -26.4689 0.0000
# 4 0.0000 0.0000 0.0000 8.1309 0.0000 9.9626
# 5 -2.6261 -15.8533 -26.4689 0.0000 33.7749 0.0000
# 6 0.0000 0.0000 0.0000 9.9626 0.0000 -18.9500
#
#
#
# Elastic Compliance Matrix: (Units=1/GPa)
#
#
# Indices 1 2 3 4 5 6 
#
# 1 0.010996 0.000982 -0.002991 0.000000 -0.001028 0.000000
# 2 0.000982 0.017937 -0.010607 0.000000 0.000183 0.000000
# 3 -0.002991 -0.010607 0.013786 0.000000 0.005593 0.000000
# 4 0.000000 0.000000 0.000000 0.074802 0.000000 0.039326
# 5 -0.001028 0.000183 0.005593 0.000000 0.033997 0.000000
# 6 0.000000 0.000000 0.000000 0.039326 0.000000 -0.032096
#
#
# Mechanical properties :
#
#
# Convention : Reuss Voigt Hill
#
# Bulk Modulus (GPa) = 57.18567 73.44415 65.31491
# Shear Modulus (GPa) = 33.22604 19.95921 26.59262
#
# Velocity S-wave (km/s) = 3.69480 2.86367 3.30546
# Velocity P-wave (km/s) = 6.45739 6.41171 6.43459
#
# Compressibility (1/GPa) = 0.01748690
#
# Stress axis : x y z
#
# Youngs Moduli (GPa) = 90.94024 55.75216 72.53486
#
# Poissons Ratio (x) = -0.05475 0.21698
# Poissons Ratio (y) = -0.08931 0.76936
# Poissons Ratio (z) = 0.27204 0.59135
#
# Static dielectric constant tensor:
#      x y z
#    x 4.261270 0.000000 -0.128110 
#    y 0.000000 4.210150 0.000000 
#    z -0.128110 0.000000 5.230420 
# 
# 
# High freq. dielectric constant tensor:
#      x y z
#    x 1.962220 0.000000 -0.005220 
#    y 0.000000 1.962670 0.000000 
#    z -0.005220 0.000000 2.012070 
# 
# From -- ./inp_files/129567.got.cif
#   From: 2010.06.25/outbox.cif.g09.slc.cpg/sg15_65_cif.got.tgz:129567.got - 2010.06.28 07:06:18.
