data_PCOD8148472
_publ_section_title
;
Structure prediction by ZEFSAII (Michael W. Deem and Ramdas Pophale) SiO2 
 PCOD8148472
Probable space group: C 2/C
;
_chemical_formula_sum "Si O2"
_cell_formula_units_Z 48
_cell_length_a 21.743630
_cell_length_b 8.282349
_cell_length_c 12.187959
_cell_angle_alpha 90.000000
_cell_angle_beta 76.015633
_cell_angle_gamma 90.000000
_cell_volume 2129.855827
_symmetry_space_group_name_H-M "C 2/C"
_symmetry_group_IT_number 15
_symmetry_cell_setting 'monoclinic'
loop_
_space_group_symop_operation_xyz
x,y,z
-x,y,1/2-z
-x,-y,-z
x,-y,1/2+z
1/2+x,1/2+y,z
1/2-x,1/2+y,1/2-z
1/2-x,1/2-y,-z
1/2+x,1/2-y,1/2+z
loop_
_atom_site_type_symbol
_atom_site_label
_atom_site_fract_x
_atom_site_fract_y
_atom_site_fract_z
Si Si1 0.571059 0.173341 0.106163
Si Si2 0.627965 0.395175 0.719300
Si Si3 0.321844 0.703130 0.076714
Si Si4 0.566417 0.285619 0.334328
Si Si5 0.249040 0.509431 0.461154
Si Si6 0.118507 0.331540 0.033156
O O1 0.578215 0.151060 0.234802
O O2 0.506756 0.265421 0.098814
O O3 0.578053 0.996703 0.048486
O O4 0.626774 0.290771 0.042940
O O5 0.640727 0.302325 0.826333
O O6 0.581924 0.544548 0.768017
O O7 0.696872 0.430931 0.642240
O O8 0.593828 0.278840 0.644717
O O9 0.280221 0.862951 0.094911
O O10 0.277809 0.548564 0.066398
O O11 0.609607 0.261006 0.421898
O O12 0.194445 0.640725 0.510952
#
# Coordination Sequence:
#
# PCOD8148472 Si02
#       6
#     8   8   8   8   8   8
#     4  10  24  49  70  96 136 188 236 290 355 408
#     4  12  25  41  70 106 139 179 231 284 359 408
#     4  10  23  42  66  99 136 185 225 287 344 420
#     4  11  25  47  71  99 144 178 237 297 345 423
#     4  10  23  41  66  99 142 181 230 279 350 415
#     4  11  26  44  73 105 138 185 240 283 355 425
#
# _framework density 22.536736999999999
#
# number of rings (size 3 to 8) (size 9 to 14) (size 15 to 20)
#    0.000    1.333    1.667    2.000    9.333    0.667 
#    3.000    0.000    0.000    0.000    0.000    0.000 
#    0.000    0.000    0.000    0.000    0.000    0.000 
#
# Total GULP energy -297548.314028 kJ/mol
# GULP energy per Si atom -12397.846418 kJ/mol
# Density = 2.248544 g / cm^3
# Si number density = 22.536737 Si / 1000 Ang^3
#
#
#
# Elastic Constant Matrix: (Units=GPa)
#
#
# Indices 1 2 3 4 5 6 
#
# 1 102.4594 51.7377 39.5915 0.0000 -2.9993 0.0000
# 2 51.7377 86.7925 39.3130 0.0000 -6.2206 0.0000
# 3 39.5915 39.3130 91.9542 0.0000 22.9895 0.0000
# 4 0.0000 0.0000 0.0000 37.3877 0.0000 -1.4312
# 5 -2.9993 -6.2206 22.9895 0.0000 46.8333 0.0000
# 6 0.0000 0.0000 0.0000 -1.4312 0.0000 29.7070
#
#
#
# Elastic Compliance Matrix: (Units=1/GPa)
#
#
# Indices 1 2 3 4 5 6 
#
# 1 0.014825 -0.006928 -0.003908 0.000000 0.001948 0.000000
# 2 -0.006928 0.018932 -0.006416 0.000000 0.005221 0.000000
# 3 -0.003908 -0.006416 0.017756 0.000000 -0.009818 0.000000
# 4 0.000000 0.000000 0.000000 0.026796 0.000000 0.001291
# 5 0.001948 0.005221 -0.009818 0.000000 0.026990 0.000000
# 6 0.000000 0.000000 0.000000 0.001291 0.000000 0.033724
#
#
# Mechanical properties :
#
#
# Convention : Reuss Voigt Hill
#
# Bulk Modulus (GPa) = 58.79546 60.27673 59.53610
# Shear Modulus (GPa) = 27.90216 32.82321 30.36268
#
# Velocity S-wave (km/s) = 3.52245 3.82046 3.67448
# Velocity P-wave (km/s) = 6.53367 6.80186 6.66911
#
# Compressibility (1/GPa) = 0.01700811
#
# Stress axis : x y z
#
# Youngs Moduli (GPa) = 67.45198 52.82115 56.31997
#
# Poissons Ratio (x) = 0.36592 0.22012
# Poissons Ratio (y) = 0.46728 0.36137
# Poissons Ratio (z) = 0.26363 0.33892
#
# Static dielectric constant tensor:
#      x y z
#    x 4.068550 0.000000 -0.009200 
#    y 0.000000 4.044900 0.000000 
#    z -0.009200 0.000000 4.108920 
# 
# 
# High freq. dielectric constant tensor:
#      x y z
#    x 1.889690 0.000000 -0.001900 
#    y 0.000000 1.886930 0.000000 
#    z -0.001900 0.000000 1.892270 
# 
# From -- ./inp_files/116713.got.cif
#   From: 2010.06.25/outbox.cif.g09.slc.cpg/sg15_59_cif.got.tgz:116713.got - 2010.06.28 07:06:18.
