data_PCOD8148004
_publ_section_title
;
Structure prediction by ZEFSAII (Michael W. Deem and Ramdas Pophale) SiO2 
 PCOD8148004
Probable space group: C 2/C
;
_chemical_formula_sum "Si O2"
_cell_formula_units_Z 52
_cell_length_a 29.568179
_cell_length_b 8.488597
_cell_length_c 20.754130
_cell_angle_alpha 90.000000
_cell_angle_beta 153.110424
_cell_angle_gamma 90.000000
_cell_volume 2355.945095
_symmetry_space_group_name_H-M "C 2/C"
_symmetry_group_IT_number 15
_symmetry_cell_setting 'monoclinic'
loop_
_space_group_symop_operation_xyz
x,y,z
-x,y,1/2-z
-x,-y,-z
x,-y,1/2+z
1/2+x,1/2+y,z
1/2-x,1/2+y,1/2-z
1/2-x,1/2-y,-z
1/2+x,1/2-y,1/2+z
loop_
_atom_site_type_symbol
_atom_site_label
_atom_site_fract_x
_atom_site_fract_y
_atom_site_fract_z
Si Si1 0.091385 0.836203 0.774213
Si Si2 0.267526 0.800072 0.216367
Si Si3 0.500000 0.428689 0.250000
Si Si4 0.328017 0.837513 0.781836
Si Si5 0.526879 0.320919 0.549819
Si Si6 0.803079 0.726970 0.998945
Si Si7 0.307741 0.876352 0.003077
O O1 0.043886 0.783328 0.646779
O O2 0.203572 0.902159 0.908635
O O3 0.016883 0.966108 0.708085
O O4 0.103774 0.690378 0.839176
O O5 0.200993 0.769496 0.194082
O O6 0.369765 0.704918 0.356177
O O7 0.206673 0.739733 0.076279
O O8 0.296311 0.982552 0.248777
O O9 0.401110 0.329586 0.112645
O O10 0.280747 0.772414 0.657678
O O11 0.446420 0.807020 0.923125
O O12 0.500000 0.500000 0.500000
O O13 0.750000 0.750000 0.000000
O O14 0.840902 0.552269 0.028476
#
# Coordination Sequence:
#
# PCOD8148004 Si02
#       7
#     8   8   4   8   8   8   8
#     4  10  23  42  74 101 138 185 233 288 349 433
#     4  11  25  46  73 103 139 186 235 294 355 426
#     4  12  26  44  72 106 138 186 244 290 360 420
#     4  12  26  46  71 104 142 186 237 289 362 426
#     4  11  25  44  71 104 143 182 233 290 356 421
#     4  12  27  45  72 104 143 184 237 301 350 425
#     4  10  22  48  70 102 141 185 231 295 363 408
#
# _framework density 22.071822000000001
#
# number of rings (size 3 to 8) (size 9 to 14) (size 15 to 20)
#    0.000    0.923    1.538    5.077   10.769    0.615 
#    2.769    0.000    0.000    0.000    0.000    0.000 
#    0.000    0.000    0.000    0.000    0.000    0.000 
#
# Total GULP energy -322412.646844 kJ/mol
# GULP energy per Si atom -12400.486417 kJ/mol
# Density = 2.202159 g / cm^3
# Si number density = 22.071822 Si / 1000 Ang^3
#
#
#
# Elastic Constant Matrix: (Units=GPa)
#
#
# Indices 1 2 3 4 5 6 
#
# 1 81.3276 11.7614 36.5150 0.0000 -7.6137 0.0000
# 2 11.7614 134.0255 38.1400 0.0000 -12.4067 0.0000
# 3 36.5150 38.1400 137.9555 0.0000 -19.8896 0.0000
# 4 0.0000 0.0000 0.0000 53.8370 0.0000 -4.0777
# 5 -7.6137 -12.4067 -19.8896 0.0000 33.2060 0.0000
# 6 0.0000 0.0000 0.0000 -4.0777 0.0000 46.4044
#
#
#
# Elastic Compliance Matrix: (Units=1/GPa)
#
#
# Indices 1 2 3 4 5 6 
#
# 1 0.013992 -0.000130 -0.003516 0.000000 0.001054 0.000000
# 2 -0.000130 0.008204 -0.001966 0.000000 0.001858 0.000000
# 3 -0.003516 -0.001966 0.009304 0.000000 0.004032 0.000000
# 4 0.000000 0.000000 0.000000 0.018699 0.000000 0.001643
# 5 0.001054 0.001858 0.004032 0.000000 0.033466 0.000000
# 6 0.000000 0.000000 0.000000 0.001643 0.000000 0.021694
#
#
# Mechanical properties :
#
#
# Convention : Reuss Voigt Hill
#
# Bulk Modulus (GPa) = 49.31618 58.46015 53.88817
# Shear Modulus (GPa) = 40.53796 44.48230 42.51013
#
# Velocity S-wave (km/s) = 4.29025 4.49413 4.39337
# Velocity P-wave (km/s) = 6.85082 7.31255 7.08545
#
# Compressibility (1/GPa) = 0.02027732
#
# Stress axis : x y z
#
# Youngs Moduli (GPa) = 71.47013 121.89024 107.47924
#
# Poissons Ratio (x) = 0.01583 0.37786
# Poissons Ratio (y) = 0.00928 0.21130
# Poissons Ratio (z) = 0.25126 0.23963
#
# Static dielectric constant tensor:
#      x y z
#    x 4.097520 0.000000 0.122830 
#    y 0.000000 3.962330 0.000000 
#    z 0.122830 0.000000 4.135020 
# 
# 
# High freq. dielectric constant tensor:
#      x y z
#    x 1.870690 0.000000 0.000820 
#    y 0.000000 1.877560 0.000000 
#    z 0.000820 0.000000 1.879530 
# 
# From -- ./inp_files/258855.got.cif
#   From: 2010.06.25/outbox.cif.g09.slc.cpg/sg15_130_cif.got.tgz:258855.got - 2010.06.28 07:06:18.
