data_PCOD8148216
_publ_section_title
;
Structure prediction by ZEFSAII (Michael W. Deem and Ramdas Pophale) SiO2 
 PCOD8148216
Probable space group: C 2/C
;
_chemical_formula_sum "Si O2"
_cell_formula_units_Z 56
_cell_length_a 17.053190
_cell_length_b 18.366990
_cell_length_c 10.636439
_cell_angle_alpha 90.000000
_cell_angle_beta 126.631146
_cell_angle_gamma 90.000000
_cell_volume 2673.506606
_symmetry_space_group_name_H-M "C 2/C"
_symmetry_group_IT_number 15
_symmetry_cell_setting 'monoclinic'
loop_
_space_group_symop_operation_xyz
x,y,z
-x,y,1/2-z
-x,-y,-z
x,-y,1/2+z
1/2+x,1/2+y,z
1/2-x,1/2+y,1/2-z
1/2-x,1/2-y,-z
1/2+x,1/2-y,1/2+z
loop_
_atom_site_type_symbol
_atom_site_label
_atom_site_fract_x
_atom_site_fract_y
_atom_site_fract_z
Si Si1 0.272785 0.185197 0.423929
Si Si2 0.097429 0.181769 0.077514
Si Si3 0.393597 0.414281 0.157661
Si Si4 0.055267 0.075288 0.529156
Si Si5 0.760756 0.959429 0.457205
Si Si6 0.509819 0.198097 0.899363
Si Si7 0.949376 0.534586 0.829903
O O1 0.250000 0.250000 0.500000
O O2 0.202633 0.187844 0.238608
O O3 0.272565 0.104263 0.481719
O O4 0.376897 0.195492 0.458540
O O5 0.045053 0.259757 0.040172
O O6 0.109375 0.151679 0.946453
O O7 0.030630 0.128388 0.100173
O O8 0.500000 0.456003 0.250000
O O9 0.396021 0.385254 0.301997
O O10 0.300484 0.467489 0.061248
O O11 0.145767 0.070491 0.525091
O O12 0.000000 0.000000 0.500000
O O13 0.667200 0.982994 0.283655
O O14 0.500000 0.233976 0.750000
O O15 0.458187 0.120649 0.845478
O O16 0.000000 0.504690 0.750000
O O17 0.000000 0.500000 0.000000
#
# Coordination Sequence:
#
# PCOD8148216 Si02
#       7
#     8   8   8   8   8   8   8
#     4  12  23  38  67  99 126 172 228 278 341 396
#     4  11  23  39  67  93 137 175 215 282 341 400
#     4  10  23  40  60 101 140 173 219 275 345 416
#     4  11  22  39  61  98 140 176 218 273 343 413
#     4  12  23  37  69  93 136 175 222 284 340 404
#     4  11  22  45  61  97 131 171 236 286 325 410
#     4  11  26  46  68  96 133 180 235 294 344 412
#
# _framework density 20.946272
#
# number of rings (size 3 to 8) (size 9 to 14) (size 15 to 20)
#    0.000    0.857    7.143    1.714    4.000    0.000 
#    0.000    2.143    0.000   16.286    0.000    0.000 
#    0.000    0.000    0.000    0.000    0.000    0.000 
#
# Total GULP energy -346884.161601 kJ/mol
# GULP energy per Si atom -12388.720057 kJ/mol
# Density = 2.089860 g / cm^3
# Si number density = 20.946272 Si / 1000 Ang^3
#
#
#
# Elastic Constant Matrix: (Units=GPa)
#
#
# Indices 1 2 3 4 5 6 
#
# 1 70.2433 21.7457 47.9562 0.0000 17.2691 0.0000
# 2 21.7457 77.6726 41.2911 0.0000 -1.3132 0.0000
# 3 47.9562 41.2911 134.8986 0.0000 22.6520 0.0000
# 4 0.0000 0.0000 0.0000 31.7558 0.0000 3.8174
# 5 17.2691 -1.3132 22.6520 0.0000 49.6872 0.0000
# 6 0.0000 0.0000 0.0000 3.8174 0.0000 32.9566
#
#
#
# Elastic Compliance Matrix: (Units=1/GPa)
#
#
# Indices 1 2 3 4 5 6 
#
# 1 0.019942 -0.002737 -0.005496 0.000000 -0.004498 0.000000
# 2 -0.002737 0.016111 -0.004537 0.000000 0.003445 0.000000
# 3 -0.005496 -0.004537 0.011322 0.000000 -0.003371 0.000000
# 4 0.000000 0.000000 0.000000 0.031935 0.000000 -0.003699
# 5 -0.004498 0.003445 -0.003371 0.000000 0.023317 0.000000
# 6 0.000000 0.000000 0.000000 -0.003699 0.000000 0.030771
#
#
# Mechanical properties :
#
#
# Convention : Reuss Voigt Hill
#
# Bulk Modulus (GPa) = 45.80086 56.08895 50.94490
# Shear Modulus (GPa) = 30.08135 34.33469 32.20802
#
# Velocity S-wave (km/s) = 3.79373 4.05307 3.92554
# Velocity P-wave (km/s) = 6.41118 6.98132 6.70231
#
# Compressibility (1/GPa) = 0.02183365
#
# Stress axis : x y z
#
# Youngs Moduli (GPa) = 50.14637 62.06951 88.32662
#
# Poissons Ratio (x) = 0.16990 0.48546
# Poissons Ratio (y) = 0.13726 0.40073
# Poissons Ratio (z) = 0.27561 0.28160
#
# Static dielectric constant tensor:
#      x y z
#    x 3.835800 0.000000 0.024980 
#    y 0.000000 3.784020 0.000000 
#    z 0.024980 0.000000 4.285980 
# 
# 
# High freq. dielectric constant tensor:
#      x y z
#    x 1.815580 0.000000 0.021810 
#    y 0.000000 1.805100 0.000000 
#    z 0.021810 0.000000 1.832950 
# 
# From -- ./inp_files/106732.got.cif
#   From: 2010.06.25/outbox.cif.g09.slc.cpg/sg15_54_cif.got.tgz:106732.got - 2010.06.28 07:06:18.
