data_PCOD8148081
_publ_section_title
;
Structure prediction by ZEFSAII (Michael W. Deem and Ramdas Pophale) SiO2 
 PCOD8148081
Probable space group: C 2/C
;
_chemical_formula_sum "Si O2"
_cell_formula_units_Z 64
_cell_length_a 17.475792
_cell_length_b 19.217490
_cell_length_c 13.846453
_cell_angle_alpha 90.000000
_cell_angle_beta 136.816373
_cell_angle_gamma 90.000000
_cell_volume 3182.315315
_symmetry_space_group_name_H-M "C 2/C"
_symmetry_group_IT_number 15
_symmetry_cell_setting 'monoclinic'
loop_
_space_group_symop_operation_xyz
x,y,z
-x,y,1/2-z
-x,-y,-z
x,-y,1/2+z
1/2+x,1/2+y,z
1/2-x,1/2+y,1/2-z
1/2-x,1/2-y,-z
1/2+x,1/2-y,1/2+z
loop_
_atom_site_type_symbol
_atom_site_label
_atom_site_fract_x
_atom_site_fract_y
_atom_site_fract_z
Si Si1 0.201275 0.686455 0.698656
Si Si2 0.144181 0.305893 0.643749
Si Si3 0.745175 0.435480 0.801699
Si Si4 0.506642 0.586987 0.143133
Si Si5 0.769329 0.044909 0.865859
Si Si6 0.982769 0.245606 0.348027
Si Si7 0.539584 0.856948 0.886295
Si Si8 0.386913 0.987020 0.101909
O O1 0.310566 0.732543 0.772462
O O2 0.231405 0.612012 0.770408
O O3 0.135867 0.681615 0.536360
O O4 0.135912 0.725670 0.724557
O O5 0.250817 0.353495 0.716716
O O6 0.078311 0.291382 0.484970
O O7 0.070237 0.353082 0.648049
O O8 0.620764 0.453548 0.723021
O O9 0.768832 0.478262 0.727872
O O10 0.847670 0.451729 0.967597
O O11 0.500000 0.587059 0.250000
O O12 0.504883 0.666308 0.105138
O O13 0.402720 0.546234 0.001784
O O14 0.712042 0.031796 0.915711
O O15 0.000000 0.253960 0.250000
O O16 0.500000 0.818972 0.750000
O O17 0.586706 0.932486 0.898720
O O18 0.500000 0.952913 0.250000
#
# Coordination Sequence:
#
# PCOD8148081 Si02
#       8
#     8   8   8   8   8   8   8   8
#     4  11  23  41  66  97 128 174 221 267 333 389
#     4  11  24  40  67  95 132 174 224 270 330 391
#     4  12  24  41  65  95 130 178 214 271 333 390
#     4  11  22  42  64  93 133 173 214 265 333 395
#     4  12  25  42  67  95 133 174 219 275 327 395
#     4  10  23  38  61  96 135 167 209 265 328 405
#     4  10  23  46  65  92 130 172 225 278 328 385
#     4  11  25  41  65  97 132 170 221 272 333 394
#
# _framework density 20.111142999999998
#
# number of rings (size 3 to 8) (size 9 to 14) (size 15 to 20)
#    0.000    1.000    5.000    1.875    5.250    2.000 
#    0.000    0.000    0.000    1.500    0.000    0.000 
#    0.000    0.000    0.000    0.000    0.000    0.000 
#
# Total GULP energy -396568.888636 kJ/mol
# GULP energy per Si atom -12392.777770 kJ/mol
# Density = 2.006537 g / cm^3
# Si number density = 20.111143 Si / 1000 Ang^3
#
#
#
# Elastic Constant Matrix: (Units=GPa)
#
#
# Indices 1 2 3 4 5 6 
#
# 1 43.0456 16.1532 38.3206 0.0000 0.9155 0.0000
# 2 16.1532 80.8277 31.0301 0.0000 -3.7883 0.0000
# 3 38.3206 31.0301 129.0915 0.0000 -0.6649 0.0000
# 4 0.0000 0.0000 0.0000 24.4333 0.0000 3.6857
# 5 0.9155 -3.7883 -0.6649 0.0000 32.8874 0.0000
# 6 0.0000 0.0000 0.0000 3.6857 0.0000 33.8020
#
#
#
# Elastic Compliance Matrix: (Units=1/GPa)
#
#
# Indices 1 2 3 4 5 6 
#
# 1 0.032312 -0.003128 -0.008847 0.000000 -0.001439 0.000000
# 2 -0.003128 0.014007 -0.002430 0.000000 0.001651 0.000000
# 3 -0.008847 -0.002430 0.010958 0.000000 0.000188 0.000000
# 4 0.000000 0.000000 0.000000 0.041612 0.000000 -0.004537
# 5 -0.001439 0.001651 0.000188 0.000000 0.030641 0.000000
# 6 0.000000 0.000000 0.000000 -0.004537 0.000000 0.030079
#
#
# Mechanical properties :
#
#
# Convention : Reuss Voigt Hill
#
# Bulk Modulus (GPa) = 35.12942 47.10809 41.11875
# Shear Modulus (GPa) = 25.26423 29.38859 27.32641
#
# Velocity S-wave (km/s) = 3.54818 3.82685 3.69015
# Velocity P-wave (km/s) = 5.85591 6.55753 6.21662
#
# Compressibility (1/GPa) = 0.02846616
#
# Stress axis : x y z
#
# Youngs Moduli (GPa) = 30.94849 71.39074 91.25972
#
# Poissons Ratio (x) = 0.22334 0.80739
# Poissons Ratio (y) = 0.09682 0.22175
# Poissons Ratio (z) = 0.27381 0.17347
#
# Static dielectric constant tensor:
#      x y z
#    x 3.728670 0.000000 0.101790 
#    y 0.000000 3.708320 0.000000 
#    z 0.101790 0.000000 3.960930 
# 
# 
# High freq. dielectric constant tensor:
#      x y z
#    x 1.781200 0.000000 0.002930 
#    y 0.000000 1.780340 0.000000 
#    z 0.002930 0.000000 1.802850 
# 
# From -- ./inp_files/163270.got.cif
#   From: 2010.06.25/outbox.cif.g09.slc.cpg/sg15_82_cif.got.tgz:163270.got - 2010.06.28 07:06:18.
