data_PCOD8148951
_publ_section_title
;
Structure prediction by ZEFSAII (Michael W. Deem and Ramdas Pophale) SiO2 
 PCOD8148951
Probable space group: C 2/C
;
_chemical_formula_sum "Si O2"
_cell_formula_units_Z 48
_cell_length_a 14.407647
_cell_length_b 11.320567
_cell_length_c 14.543285
_cell_angle_alpha 90.000000
_cell_angle_beta 95.589695
_cell_angle_gamma 90.000000
_cell_volume 2360.770283
_symmetry_space_group_name_H-M "C 2/C"
_symmetry_group_IT_number 15
_symmetry_cell_setting 'monoclinic'
loop_
_space_group_symop_operation_xyz
x,y,z
-x,y,1/2-z
-x,-y,-z
x,-y,1/2+z
1/2+x,1/2+y,z
1/2-x,1/2+y,1/2-z
1/2-x,1/2-y,-z
1/2+x,1/2-y,1/2+z
loop_
_atom_site_type_symbol
_atom_site_label
_atom_site_fract_x
_atom_site_fract_y
_atom_site_fract_z
Si Si1 0.818980 0.747904 0.919245
Si Si2 0.991032 0.638855 0.501299
Si Si3 0.198046 0.948112 0.366688
Si Si4 0.331004 0.504728 0.840450
Si Si5 0.713933 0.876462 0.473300
Si Si6 0.004045 0.165379 0.857971
O O1 0.765786 0.660035 0.844654
O O2 0.832166 0.875755 0.881102
O O3 0.750000 0.750000 0.000000
O O4 0.921760 0.695943 0.939906
O O5 0.895206 0.649793 0.546722
O O6 0.000000 0.500000 0.500000
O O7 0.985307 0.707326 0.402963
O O8 0.102072 0.893366 0.399572
O O9 0.177346 0.014221 0.269599
O O10 0.250721 0.031647 0.444967
O O11 0.245760 0.577314 0.876616
O O12 0.425298 0.571601 0.878389
O O13 0.750000 0.750000 0.500000
O O14 0.000000 0.191942 0.750000
#
# Coordination Sequence:
#
# PCOD8148951 Si02
#       6
#     8   8   8   8   8   8
#     4  12  23  44  69  93 130 179 219 269 330 398
#     4  12  23  42  64  98 129 168 221 266 333 393
#     4  11  25  45  67  98 131 177 225 267 332 396
#     4  11  25  44  69  96 131 178 222 275 324 393
#     4  12  25  42  66  99 135 170 211 276 332 386
#     4  10  23  43  68  95 128 174 228 272 321 393
#
# _framework density 20.332346000000001
#
# number of rings (size 3 to 8) (size 9 to 14) (size 15 to 20)
#    0.000    0.667    6.667    0.000    4.667    1.333 
#    0.000    0.833    0.000    0.000    0.000    0.000 
#    0.000    0.000    0.000    0.000    0.000    0.000 
#
# Total GULP energy -297401.774656 kJ/mol
# GULP energy per Si atom -12391.740611 kJ/mol
# Density = 2.028607 g / cm^3
# Si number density = 20.332346 Si / 1000 Ang^3
#
#
#
# Elastic Constant Matrix: (Units=GPa)
#
#
# Indices 1 2 3 4 5 6 
#
# 1 179.7234 52.7744 28.2287 0.0000 -9.1238 0.0000
# 2 52.7744 157.0484 30.5032 0.0000 -11.8519 0.0000
# 3 28.2287 30.5032 50.8678 0.0000 -10.1738 0.0000
# 4 0.0000 0.0000 0.0000 30.9513 0.0000 -0.9135
# 5 -9.1238 -11.8519 -10.1738 0.0000 28.1610 0.0000
# 6 0.0000 0.0000 0.0000 -0.9135 0.0000 40.2753
#
#
#
# Elastic Compliance Matrix: (Units=1/GPa)
#
#
# Indices 1 2 3 4 5 6 
#
# 1 0.006466 -0.001650 -0.002500 0.000000 0.000498 0.000000
# 2 -0.001650 0.007694 -0.003403 0.000000 0.001474 0.000000
# 3 -0.002500 -0.003403 0.024402 0.000000 0.006573 0.000000
# 4 0.000000 0.000000 0.000000 0.032331 0.000000 0.000733
# 5 0.000498 0.001474 0.006573 0.000000 0.038667 0.000000
# 6 0.000000 0.000000 0.000000 0.000733 0.000000 0.024846
#
#
# Mechanical properties :
#
#
# Convention : Reuss Voigt Hill
#
# Bulk Modulus (GPa) = 42.63256 67.85026 55.24141
# Shear Modulus (GPa) = 31.78042 38.28641 35.03341
#
# Velocity S-wave (km/s) = 3.95783 4.34410 4.15545
# Velocity P-wave (km/s) = 6.47296 7.65536 7.08886
#
# Compressibility (1/GPa) = 0.02345625
#
# Stress axis : x y z
#
# Youngs Moduli (GPa) = 154.64402 129.96815 40.98105
#
# Poissons Ratio (x) = 0.21444 0.10244
# Poissons Ratio (y) = 0.25515 0.13948
# Poissons Ratio (z) = 0.38655 0.44234
#
# Static dielectric constant tensor:
#      x y z
#    x 3.093280 0.000000 1.307250 
#    y 0.000000 4.122030 0.000000 
#    z 1.307250 0.000000 1.761830 
# 
# 
# High freq. dielectric constant tensor:
#      x y z
#    x 1.818010 0.000000 -0.000110 
#    y 0.000000 1.814900 0.000000 
#    z -0.000110 0.000000 1.776560 
# 
# From -- ./inp_files/152033.got.cif
#   From: 2010.06.25/outbox.cif.g09.slc.cpg/sg15_77_cif.got.tgz:152033.got - 2010.06.28 07:06:18.
