data_PCOD8148992
_publ_section_title
;
Structure prediction by ZEFSAII (Michael W. Deem and Ramdas Pophale) SiO2 
 PCOD8148992
Probable space group: C 2/C
;
_chemical_formula_sum "Si O2"
_cell_formula_units_Z 64
_cell_length_a 17.267013
_cell_length_b 9.275083
_cell_length_c 26.740274
_cell_angle_alpha 90.000000
_cell_angle_beta 136.741907
_cell_angle_gamma 90.000000
_cell_volume 2934.760384
_symmetry_space_group_name_H-M "C 2/C"
_symmetry_group_IT_number 15
_symmetry_cell_setting 'monoclinic'
loop_
_space_group_symop_operation_xyz
x,y,z
-x,y,1/2-z
-x,-y,-z
x,-y,1/2+z
1/2+x,1/2+y,z
1/2-x,1/2+y,1/2-z
1/2-x,1/2-y,-z
1/2+x,1/2-y,1/2+z
loop_
_atom_site_type_symbol
_atom_site_label
_atom_site_fract_x
_atom_site_fract_y
_atom_site_fract_z
Si Si1 0.767165 0.530728 0.100822
Si Si2 0.227270 0.216264 0.432386
Si Si3 0.968726 0.292774 0.677836
Si Si4 0.905318 0.383794 0.942212
Si Si5 0.275136 0.518250 0.716306
Si Si6 0.287977 0.151915 0.220499
Si Si7 0.025173 0.907459 0.463204
Si Si8 0.977161 0.004655 0.147347
O O1 0.778340 0.359133 0.103959
O O2 0.877160 0.586106 0.123898
O O3 0.766093 0.580587 0.157141
O O4 0.660805 0.602792 0.023029
O O5 0.250000 0.250000 0.500000
O O6 0.338030 0.137680 0.462598
O O7 0.108215 0.130196 0.375481
O O8 0.000000 0.272920 0.750000
O O9 0.080978 0.340511 0.701559
O O10 0.916000 0.145592 0.631694
O O11 0.808796 0.436661 0.859443
O O12 0.963562 0.245561 0.942930
O O13 0.000000 0.500000 0.000000
O O14 0.238927 0.685883 0.698714
O O15 0.271469 0.454216 0.769710
O O16 0.407595 0.491390 0.764654
O O17 0.989030 0.994858 0.395979
O O18 0.000000 0.000000 0.500000
#
# Coordination Sequence:
#
# PCOD8148992 Si02
#       8
#     8   8   8   8   8   8   8   8
#     4  11  23  44  70  94 147 184 234 297 363 416
#     4  12  27  47  68 111 144 189 248 300 363 434
#     4   9  22  42  64  98 137 179 233 287 359 429
#     4  12  28  46  74 107 145 185 248 303 366 438
#     4  11  25  46  72 106 140 189 242 296 371 434
#     4  10  23  43  70 105 142 186 240 296 356 440
#     4  12  23  46  70  99 138 190 237 293 363 426
#     4  11  25  43  72  99 144 185 238 298 357 439
#
# _framework density 21.807572
#
# number of rings (size 3 to 8) (size 9 to 14) (size 15 to 20)
#    0.000    1.000    2.500    3.000    8.750    4.500 
#    4.500    0.000    0.000    0.000    0.000    0.000 
#    0.000    0.000    0.000    0.000    0.000    0.000 
#
# Total GULP energy -396600.412664 kJ/mol
# GULP energy per Si atom -12393.762896 kJ/mol
# Density = 2.175794 g / cm^3
# Si number density = 21.807572 Si / 1000 Ang^3
#
#
#
# Elastic Constant Matrix: (Units=GPa)
#
#
# Indices 1 2 3 4 5 6 
#
# 1 90.6790 63.3248 34.3928 0.0000 14.4052 0.0000
# 2 63.3248 153.2833 60.6213 0.0000 6.9575 0.0000
# 3 34.3928 60.6213 121.4081 0.0000 13.6765 0.0000
# 4 0.0000 0.0000 0.0000 37.7135 0.0000 4.9728
# 5 14.4052 6.9575 13.6765 0.0000 25.7901 0.0000
# 6 0.0000 0.0000 0.0000 4.9728 0.0000 50.4100
#
#
#
# Elastic Compliance Matrix: (Units=1/GPa)
#
#
# Indices 1 2 3 4 5 6 
#
# 1 0.016923 -0.006342 -0.000804 0.000000 -0.007316 0.000000
# 2 -0.006342 0.010506 -0.003753 0.000000 0.002698 0.000000
# 3 -0.000804 -0.003753 0.010820 0.000000 -0.004277 0.000000
# 4 0.000000 0.000000 0.000000 0.026865 0.000000 -0.002650
# 5 -0.007316 0.002698 -0.004277 0.000000 0.044401 0.000000
# 6 0.000000 0.000000 0.000000 -0.002650 0.000000 0.020099
#
#
# Mechanical properties :
#
#
# Convention : Reuss Voigt Hill
#
# Bulk Modulus (GPa) = 60.78072 75.78309 68.28191
# Shear Modulus (GPa) = 31.86856 36.58482 34.22669
#
# Velocity S-wave (km/s) = 3.82691 4.10032 3.96597
# Velocity P-wave (km/s) = 6.88904 7.56592 7.23540
#
# Compressibility (1/GPa) = 0.01645259
#
# Stress axis : x y z
#
# Youngs Moduli (GPa) = 59.08957 95.18767 92.42094
#
# Poissons Ratio (x) = 0.60364 0.07426
# Poissons Ratio (y) = 0.37472 0.34687
# Poissons Ratio (z) = 0.04748 0.35725
#
# Static dielectric constant tensor:
#      x y z
#    x 2.313360 0.000000 -0.372480 
#    y 0.000000 4.649000 0.000000 
#    z -0.372480 0.000000 4.027550 
# 
# 
# High freq. dielectric constant tensor:
#      x y z
#    x 1.869460 0.000000 0.007200 
#    y 0.000000 1.859910 0.000000 
#    z 0.007200 0.000000 1.865910 
# 
# From -- ./inp_files/315738.got.cif
#   From: 2010.06.25/outbox.cif.g09.slc.cpg/sg15_158_cif.got.tgz:315738.got - 2010.06.28 07:06:18.
