data_PCOD8148642
_publ_section_title
;
Structure prediction by ZEFSAII (Michael W. Deem and Ramdas Pophale) SiO2 
 PCOD8148642
Probable space group: C 2/C
;
_chemical_formula_sum "Si O2"
_cell_formula_units_Z 48
_cell_length_a 27.055669
_cell_length_b 5.318569
_cell_length_c 13.888390
_cell_angle_alpha 90.000000
_cell_angle_beta 118.048351
_cell_angle_gamma 90.000000
_cell_volume 1763.781725
_symmetry_space_group_name_H-M "C 2/C"
_symmetry_group_IT_number 15
_symmetry_cell_setting 'monoclinic'
loop_
_space_group_symop_operation_xyz
x,y,z
-x,y,1/2-z
-x,-y,-z
x,-y,1/2+z
1/2+x,1/2+y,z
1/2-x,1/2+y,1/2-z
1/2-x,1/2-y,-z
1/2+x,1/2-y,1/2+z
loop_
_atom_site_type_symbol
_atom_site_label
_atom_site_fract_x
_atom_site_fract_y
_atom_site_fract_z
Si Si1 0.738243 0.774457 0.681774
Si Si2 0.423627 0.241039 0.225920
Si Si3 0.082215 0.847100 0.618520
Si Si4 0.525691 0.912620 0.911753
Si Si5 0.878261 0.809670 0.505411
Si Si6 0.159408 0.654168 0.835738
O O1 0.737728 0.536581 0.754218
O O2 0.676164 0.834612 0.586540
O O3 0.774830 0.689767 0.621592
O O4 0.433733 0.458771 0.312931
O O5 0.449025 0.295962 0.143084
O O6 0.463196 0.021633 0.314432
O O7 0.360459 0.129533 0.153378
O O8 0.112472 0.947517 0.550104
O O9 0.026883 0.704548 0.522991
O O10 0.130927 0.673937 0.704986
O O11 0.565891 0.148807 0.947741
O O12 0.864334 0.859561 0.607225
#
# Coordination Sequence:
#
# PCOD8148642 Si02
#       6
#     8   8   8   8   8   8
#     4  12  25  48  77 108 142 186 239 298 361 428
#     4  10  23  42  65  97 137 181 229 284 350 422
#     4  12  21  40  66  98 132 178 231 286 348 416
#     4  10  23  42  65  97 137 181 229 284 350 422
#     4  11  25  44  67  99 138 183 230 289 352 422
#     4  11  25  44  67  99 138 183 230 289 352 422
#
# _framework density 27.214251000000001
#
# number of rings (size 3 to 8) (size 9 to 14) (size 15 to 20)
#    0.000    1.000    1.667    5.000    0.000    4.000 
#    0.000    5.000    0.000    0.000    0.000    0.000 
#    0.000    0.000    0.000    0.000    0.000    0.000 
#
# Total GULP energy -297316.952563 kJ/mol
# GULP energy per Si atom -12388.206357 kJ/mol
# Density = 2.715231 g / cm^3
# Si number density = 27.214251 Si / 1000 Ang^3
#
#
#
# Elastic Constant Matrix: (Units=GPa)
#
#
# Indices 1 2 3 4 5 6 
#
# 1 83.4003 -5.3202 11.1468 0.0000 4.2993 0.0000
# 2 -5.3202 53.9231 8.8109 0.0002 -4.6737 0.0001
# 3 11.1468 8.8109 133.2204 0.0000 -20.3925 0.0000
# 4 0.0000 0.0002 0.0000 48.7663 0.0000 -6.2232
# 5 4.2993 -4.6737 -20.3925 0.0000 40.0389 0.0000
# 6 0.0000 0.0001 0.0000 -6.2232 0.0000 22.3901
#
#
#
# Elastic Compliance Matrix: (Units=1/GPa)
#
#
# Indices 1 2 3 4 5 6 
#
# 1 0.012358 0.001285 -0.001409 0.000000 -0.001895 0.000000
# 2 0.001285 0.018987 -0.001134 0.000000 0.001501 0.000000
# 3 -0.001409 -0.001134 0.008353 0.000000 0.004274 0.000000
# 4 0.000000 0.000000 0.000000 0.021260 0.000000 0.005909
# 5 -0.001895 0.001501 0.004274 0.000000 0.027531 0.000000
# 6 0.000000 0.000000 0.000000 0.005909 0.000000 0.046305
#
#
# Mechanical properties :
#
#
# Convention : Reuss Voigt Hill
#
# Bulk Modulus (GPa) = 26.89313 33.31319 30.10316
# Shear Modulus (GPa) = 33.39919 39.29947 36.34933
#
# Velocity S-wave (km/s) = 3.50704 3.80422 3.65865
# Velocity P-wave (km/s) = 5.12860 5.61817 5.37896
#
# Compressibility (1/GPa) = 0.03718422
#
# Stress axis : x y z
#
# Youngs Moduli (GPa) = 80.91693 52.66745 119.71184
#
# Poissons Ratio (x) = -0.06769 0.16868
# Poissons Ratio (y) = -0.10400 0.13570
# Poissons Ratio (z) = 0.11402 0.05970
#
# Static dielectric constant tensor:
#      x y z
#    x 5.139100 0.000000 -0.159020 
#    y 0.000000 4.469980 0.000000 
#    z -0.159020 0.000000 5.880970 
# 
# 
# High freq. dielectric constant tensor:
#      x y z
#    x 2.106310 0.000000 -0.011410 
#    y 0.000000 2.071360 0.000000 
#    z -0.011410 0.000000 2.128040 
# 
# From -- ./inp_files/179989.got.cif
#   From: 2010.06.25/outbox.cif.g09.slc.cpg/sg15_90_cif.got.tgz:179989.got - 2010.06.28 07:06:18.
