data_PCOD8148470
_publ_section_title
;
Structure prediction by ZEFSAII (Michael W. Deem and Ramdas Pophale) SiO2 
 PCOD8148470
Probable space group: C 2/C
;
_chemical_formula_sum "Si O2"
_cell_formula_units_Z 56
_cell_length_a 27.331740
_cell_length_b 8.746890
_cell_length_c 17.641077
_cell_angle_alpha 90.000000
_cell_angle_beta 37.834881
_cell_angle_gamma 90.000000
_cell_volume 2586.909886
_symmetry_space_group_name_H-M "C 2/C"
_symmetry_group_IT_number 15
_symmetry_cell_setting 'monoclinic'
loop_
_space_group_symop_operation_xyz
x,y,z
-x,y,1/2-z
-x,-y,-z
x,-y,1/2+z
1/2+x,1/2+y,z
1/2-x,1/2+y,1/2-z
1/2-x,1/2-y,-z
1/2+x,1/2-y,1/2+z
loop_
_atom_site_type_symbol
_atom_site_label
_atom_site_fract_x
_atom_site_fract_y
_atom_site_fract_z
Si Si1 0.334536 0.102283 0.777131
Si Si2 0.435848 0.306516 0.267693
Si Si3 0.108144 0.418204 0.931614
Si Si4 0.731173 0.426513 0.670231
Si Si5 0.428080 0.388439 0.107343
Si Si6 0.229528 0.925238 0.015631
Si Si7 0.032400 0.535713 0.786550
O O1 0.295286 0.252090 0.792686
O O2 0.399536 0.145332 0.762185
O O3 0.386532 0.015065 0.651237
O O4 0.266235 0.991654 0.893717
O O5 0.500000 0.361794 0.250000
O O6 0.455152 0.327150 0.155824
O O7 0.365162 0.421263 0.376800
O O8 0.423039 0.123397 0.291428
O O9 0.193696 0.436715 0.866643
O O10 0.081464 0.246049 0.943004
O O11 0.041217 0.493063 0.066725
O O12 0.658294 0.531063 0.787175
O O13 0.757346 0.473498 0.553384
O O14 0.500000 0.500000 0.000000
O O15 0.250000 0.750000 0.000000
O O16 0.000000 0.616101 0.750000
#
# Coordination Sequence:
#
# PCOD8148470 Si02
#       7
#     8   8   8   8   8   8   8
#     4  12  23  43  70  98 133 178 226 285 344 410
#     4  10  23  41  66  99 129 181 229 271 343 411
#     4  12  25  43  68 100 137 179 234 287 348 417
#     4  11  26  42  65 102 135 183 229 282 355 416
#     4  11  24  46  66 100 144 180 230 292 350 414
#     4  11  22  44  66  94 138 174 226 285 342 419
#     4  11  23  42  68  98 128 175 228 279 341 415
#
# _framework density 21.647449999999999
#
# number of rings (size 3 to 8) (size 9 to 14) (size 15 to 20)
#    0.000    0.857    2.857    4.286    4.000    2.286 
#    0.000    5.000    0.000    0.000    0.000    0.000 
#    0.000    0.000    0.000    0.000    0.000    0.000 
#
# Total GULP energy -347141.996078 kJ/mol
# GULP energy per Si atom -12397.928431 kJ/mol
# Density = 2.159818 g / cm^3
# Si number density = 21.647450 Si / 1000 Ang^3
#
#
#
# Elastic Constant Matrix: (Units=GPa)
#
#
# Indices 1 2 3 4 5 6 
#
# 1 135.8215 12.2915 17.8153 -0.0042 -13.4539 0.0020
# 2 12.2915 80.4980 10.4494 0.0081 0.6673 -0.0028
# 3 17.8153 10.4494 91.4252 -0.0192 11.0468 0.0002
# 4 -0.0042 0.0081 -0.0192 31.7608 0.0047 -7.2345
# 5 -13.4539 0.6673 11.0468 0.0047 29.4165 0.0069
# 6 0.0020 -0.0028 0.0002 -7.2345 0.0069 32.3272
#
#
#
# Elastic Compliance Matrix: (Units=1/GPa)
#
#
# Indices 1 2 3 4 5 6 
#
# 1 0.008168 -0.001022 -0.002021 -0.000001 0.004518 -0.000002
# 2 -0.001022 0.012740 -0.001221 -0.000004 -0.000298 0.000000
# 3 -0.002021 -0.001221 0.012130 0.000009 -0.005452 0.000003
# 4 -0.000001 -0.000004 0.000009 0.033177 -0.000011 0.007425
# 5 0.004518 -0.000298 -0.005452 -0.000011 0.038115 -0.000011
# 6 -0.000002 0.000000 0.000003 0.007425 -0.000011 0.032595
#
#
# Mechanical properties :
#
#
# Convention : Reuss Voigt Hill
#
# Bulk Modulus (GPa) = 40.80002 43.20634 42.00318
# Shear Modulus (GPa) = 32.54760 36.51346 34.53053
#
# Velocity S-wave (km/s) = 3.88175 4.11144 3.99824
# Velocity P-wave (km/s) = 6.24332 6.52235 6.38436
#
# Compressibility (1/GPa) = 0.02450979
#
# Stress axis : x y z
#
# Youngs Moduli (GPa) = 122.43443 78.49470 82.44098
#
# Poissons Ratio (x) = 0.08025 0.16658
# Poissons Ratio (y) = 0.12516 0.10065
# Poissons Ratio (z) = 0.24739 0.09583
#
# Static dielectric constant tensor:
#      x y z
#    x 4.185240 0.000010 -0.248520 
#    y 0.000010 3.929150 -0.000080 
#    z -0.248520 -0.000080 4.564800 
# 
# 
# High freq. dielectric constant tensor:
#      x y z
#    x 1.866110 0.000000 -0.006450 
#    y 0.000000 1.839550 0.000000 
#    z -0.006450 0.000000 1.861980 
# 
# From -- ./inp_files/222031.got.cif
#   From: 2010.06.25/outbox.cif.g09.slc.cpg/sg15_112_cif.got.tgz:222031.got - 2010.06.28 07:06:18.
