data_PCOD8148645
_publ_section_title
;
Structure prediction by ZEFSAII (Michael W. Deem and Ramdas Pophale) SiO2 
 PCOD8148645
Probable space group: C 2/C
;
_chemical_formula_sum "Si O2"
_cell_formula_units_Z 48
_cell_length_a 19.586135
_cell_length_b 8.790155
_cell_length_c 13.714822
_cell_angle_alpha 90.000000
_cell_angle_beta 42.039344
_cell_angle_gamma 90.000000
_cell_volume 1581.165495
_symmetry_space_group_name_H-M "C 2/C"
_symmetry_group_IT_number 15
_symmetry_cell_setting 'monoclinic'
loop_
_space_group_symop_operation_xyz
x,y,z
-x,y,1/2-z
-x,-y,-z
x,-y,1/2+z
1/2+x,1/2+y,z
1/2-x,1/2+y,1/2-z
1/2-x,1/2-y,-z
1/2+x,1/2-y,1/2+z
loop_
_atom_site_type_symbol
_atom_site_label
_atom_site_fract_x
_atom_site_fract_y
_atom_site_fract_z
Si Si1 0.114164 0.583536 0.096352
Si Si2 0.186959 0.423748 0.199896
Si Si3 0.529793 0.165711 0.556936
Si Si4 0.410690 0.404588 0.423586
Si Si5 0.125039 0.067400 0.863025
Si Si6 0.873135 0.130866 0.317777
O O1 0.184977 0.546735 0.113527
O O2 0.111971 0.441248 0.024263
O O3 0.150018 0.744411 0.010043
O O4 0.000000 0.614536 0.250000
O O5 0.266062 0.466278 0.199877
O O6 0.208644 0.256878 0.128922
O O7 0.072080 0.424345 0.372938
O O8 0.589414 0.256210 0.407804
O O9 0.486491 0.292754 0.681604
O O10 0.500000 0.409266 0.250000
O O11 0.447042 0.446507 0.496365
O O12 0.346890 0.557218 0.453435
O O13 0.137872 0.020321 0.738310
#
# Coordination Sequence:
#
# PCOD8148645 Si02
#       6
#     8   8   8   8   8   8
#     4   9  19  39  60  92 137 168 219 278 332 388
#     4   9  22  39  63  93 130 179 217 280 332 402
#     4   9  20  41  66  94 128 179 216 279 333 405
#     4  11  22  37  67 100 128 178 229 278 328 402
#     4  12  23  41  71  96 136 181 227 277 341 401
#     4  10  23  42  65  99 135 172 233 277 330 408
#
# _framework density 30.357351999999999
#
# number of rings (size 3 to 8) (size 9 to 14) (size 15 to 20)
#    1.000    1.000    1.667    1.500    2.333    4.667 
#    0.000    4.167    0.000    0.000    0.000    0.000 
#    0.000    0.000    0.000    0.000    0.000    0.000 
#
# Total GULP energy -297360.165172 kJ/mol
# GULP energy per Si atom -12390.006882 kJ/mol
# Density = 3.028826 g / cm^3
# Si number density = 30.357352 Si / 1000 Ang^3
#
#
#
# Elastic Constant Matrix: (Units=GPa)
#
#
# Indices 1 2 3 4 5 6 
#
# 1 96.3109 32.9752 8.9950 -0.0001 12.2655 0.0001
# 2 32.9752 171.9016 4.7732 -0.0003 9.6535 0.0000
# 3 8.9950 4.7732 41.3564 -0.0002 7.4426 0.0001
# 4 -0.0001 -0.0003 -0.0002 27.5554 0.0001 -3.0269
# 5 12.2655 9.6535 7.4426 0.0001 40.5027 0.0000
# 6 0.0001 0.0000 0.0001 -3.0269 0.0000 45.5293
#
#
#
# Elastic Compliance Matrix: (Units=1/GPa)
#
#
# Indices 1 2 3 4 5 6 
#
# 1 0.011587 -0.002021 -0.001802 0.000000 -0.002696 0.000000
# 2 -0.002021 0.006257 -0.000129 0.000000 -0.000856 0.000000
# 3 -0.001802 -0.000129 0.025320 0.000000 -0.004077 0.000000
# 4 0.000000 0.000000 0.000000 0.036558 0.000000 0.002430
# 5 -0.002696 -0.000856 -0.004077 0.000000 0.026459 0.000000
# 6 0.000000 0.000000 0.000000 0.002430 0.000000 0.022125
#
#
# Mechanical properties :
#
#
# Convention : Reuss Voigt Hill
#
# Bulk Modulus (GPa) = 28.36003 44.78396 36.57199
# Shear Modulus (GPa) = 33.79242 40.23918 37.01580
#
# Velocity S-wave (km/s) = 3.34002 3.64471 3.49569
# Velocity P-wave (km/s) = 4.92307 5.70054 5.32601
#
# Compressibility (1/GPa) = 0.03526090
#
# Stress axis : x y z
#
# Youngs Moduli (GPa) = 86.30601 159.83096 39.49388
#
# Poissons Ratio (x) = 0.32305 0.07115
# Poissons Ratio (y) = 0.17444 0.00508
# Poissons Ratio (z) = 0.15549 0.02055
#
# Static dielectric constant tensor:
#      x y z
#    x 5.528730 0.000000 -0.256410 
#    y 0.000000 6.425530 0.000000 
#    z -0.256410 0.000000 5.559750 
# 
# 
# High freq. dielectric constant tensor:
#      x y z
#    x 2.252550 0.000000 -0.013030 
#    y 0.000000 2.249530 0.000000 
#    z -0.013030 0.000000 2.238600 
# 
# From -- ./inp_files/213737.got.cif
#   From: 2010.06.25/outbox.cif.g09.slc.cpg/sg15_107_cif.got.tgz:213737.got - 2010.06.28 07:06:18.
