data_PCOD8148781
_publ_section_title
;
Structure prediction by ZEFSAII (Michael W. Deem and Ramdas Pophale) SiO2 
 PCOD8148781
Probable space group: C 2/C
;
_chemical_formula_sum "Si O2"
_cell_formula_units_Z 40
_cell_length_a 15.457363
_cell_length_b 12.934751
_cell_length_c 9.255569
_cell_angle_alpha 90.000000
_cell_angle_beta 106.228404
_cell_angle_gamma 90.000000
_cell_volume 1776.798042
_symmetry_space_group_name_H-M "C 2/C"
_symmetry_group_IT_number 15
_symmetry_cell_setting 'monoclinic'
loop_
_space_group_symop_operation_xyz
x,y,z
-x,y,1/2-z
-x,-y,-z
x,-y,1/2+z
1/2+x,1/2+y,z
1/2-x,1/2+y,1/2-z
1/2-x,1/2-y,-z
1/2+x,1/2-y,1/2+z
loop_
_atom_site_type_symbol
_atom_site_label
_atom_site_fract_x
_atom_site_fract_y
_atom_site_fract_z
Si Si1 0.181624 0.310801 0.569622
Si Si2 0.279334 0.144711 0.093071
Si Si3 0.438894 0.374848 0.426694
Si Si4 0.068550 0.505785 0.904292
Si Si5 0.387906 0.453592 0.102739
O O1 0.250000 0.250000 0.500000
O O2 0.231892 0.345378 0.739573
O O3 0.098014 0.240261 0.579932
O O4 0.144626 0.407760 0.463790
O O5 0.380145 0.103484 0.102454
O O6 0.250000 0.250000 0.000000
O O7 0.211933 0.057387 0.004615
O O8 0.388904 0.440266 0.276093
O O9 0.545033 0.368434 0.438418
O O10 0.422911 0.432971 0.571819
O O11 0.000000 0.540176 0.750000
O O12 0.000000 0.500000 0.000000
#
# Coordination Sequence:
#
# PCOD8148781 Si02
#       5
#     8   8   8   8   8
#     4  12  28  46  74 109 146 196 261 304 380 454
#     4  12  27  45  76 105 143 193 249 305 375 449
#     4  10  23  44  68 102 139 191 235 306 362 452
#     4  12  29  51  76 109 158 203 252 319 390 466
#     4  10  23  42  71 100 144 181 241 300 375 426
#
# _framework density 22.512405999999999
#
# number of rings (size 3 to 8) (size 9 to 14) (size 15 to 20)
#    0.000    0.800    4.000    1.200   11.200    0.000 
#    3.600    0.000    0.000    0.000    0.000    0.000 
#    0.000    0.000    0.000    0.000    0.000    0.000 
#
# Total GULP energy -247950.277459 kJ/mol
# GULP energy per Si atom -12397.513873 kJ/mol
# Density = 2.246117 g / cm^3
# Si number density = 22.512406 Si / 1000 Ang^3
#
#
#
# Elastic Constant Matrix: (Units=GPa)
#
#
# Indices 1 2 3 4 5 6 
#
# 1 106.0194 27.8563 39.8579 0.0000 0.1697 0.0000
# 2 27.8563 88.6006 37.4642 0.0000 1.2480 0.0000
# 3 39.8579 37.4642 151.0742 0.0000 2.8931 0.0000
# 4 0.0000 0.0000 0.0000 35.7030 0.0000 7.4846
# 5 0.1697 1.2480 2.8931 0.0000 41.6909 0.0000
# 6 0.0000 0.0000 0.0000 7.4846 0.0000 53.5353
#
#
#
# Elastic Compliance Matrix: (Units=1/GPa)
#
#
# Indices 1 2 3 4 5 6 
#
# 1 0.010939 -0.002480 -0.002275 0.000000 0.000188 0.000000
# 2 -0.002480 0.013172 -0.002608 0.000000 -0.000203 0.000000
# 3 -0.002275 -0.002608 0.007875 0.000000 -0.000459 0.000000
# 4 0.000000 0.000000 0.000000 0.028855 0.000000 -0.004034
# 5 0.000188 -0.000203 -0.000459 0.000000 0.024023 0.000000
# 6 0.000000 0.000000 0.000000 -0.004034 0.000000 0.019243
#
#
# Mechanical properties :
#
#
# Convention : Reuss Voigt Hill
#
# Bulk Modulus (GPa) = 57.93732 61.78345 59.86038
# Shear Modulus (GPa) = 40.13300 42.22022 41.17661
#
# Velocity S-wave (km/s) = 4.22679 4.33531 4.28139
# Velocity P-wave (km/s) = 7.04362 7.25008 7.14760
#
# Compressibility (1/GPa) = 0.01726003
#
# Stress axis : x y z
#
# Youngs Moduli (GPa) = 91.41885 75.91812 126.98477
#
# Poissons Ratio (x) = 0.18828 0.28883
# Poissons Ratio (y) = 0.22672 0.33121
# Poissons Ratio (z) = 0.20793 0.19802
#
# Static dielectric constant tensor:
#      x y z
#    x 4.361850 0.000000 0.135570 
#    y 0.000000 3.754020 0.000000 
#    z 0.135570 0.000000 4.107060 
# 
# 
# High freq. dielectric constant tensor:
#      x y z
#    x 1.899460 0.000000 0.002410 
#    y 0.000000 1.876530 0.000000 
#    z 0.002410 0.000000 1.899300 
# 
# From -- ./inp_files/38038.got.cif
#   From: 2010.06.25/outbox.cif.g09.slc.cpg/sg15_20_cif.got.tgz:38038.got - 2010.06.28 07:06:18.
