data_PCOD8148171
_publ_section_title
;
Structure prediction by ZEFSAII (Michael W. Deem and Ramdas Pophale) SiO2 
 PCOD8148171
Probable space group: C 2/C
;
_chemical_formula_sum "Si O2"
_cell_formula_units_Z 40
_cell_length_a 10.262525
_cell_length_b 9.497367
_cell_length_c 18.282375
_cell_angle_alpha 90.000000
_cell_angle_beta 109.283269
_cell_angle_gamma 90.000000
_cell_volume 1681.956899
_symmetry_space_group_name_H-M "C 2/C"
_symmetry_group_IT_number 15
_symmetry_cell_setting 'monoclinic'
loop_
_space_group_symop_operation_xyz
x,y,z
-x,y,1/2-z
-x,-y,-z
x,-y,1/2+z
1/2+x,1/2+y,z
1/2-x,1/2+y,1/2-z
1/2-x,1/2-y,-z
1/2+x,1/2-y,1/2+z
loop_
_atom_site_type_symbol
_atom_site_label
_atom_site_fract_x
_atom_site_fract_y
_atom_site_fract_z
Si Si1 0.702783 0.791828 0.864861
Si Si2 0.496490 0.299758 0.535685
Si Si3 0.215416 0.346937 0.257513
Si Si4 0.485394 0.417614 0.381681
Si Si5 0.443108 0.085841 0.639363
O O1 0.838144 0.782883 0.940090
O O2 0.741538 0.787265 0.784954
O O3 0.607948 0.656785 0.861127
O O4 0.625707 0.933947 0.871901
O O5 0.438639 0.324621 0.443755
O O6 0.462041 0.430657 0.582464
O O7 0.428082 0.159053 0.557086
O O8 0.351808 0.435258 0.305030
O O9 0.132569 0.309303 0.316624
O O10 0.105406 0.436631 0.188489
#
# Coordination Sequence:
#
# PCOD8148171 Si02
#       5
#     8   8   8   8   8
#     4  11  23  44  67  93 128 168 213 261 315 372
#     4  10  24  46  61  96 131 166 212 256 317 380
#     4  10  23  39  64  96 125 164 210 260 315 369
#     4  11  23  41  68  93 130 169 207 262 317 377
#     4  10  23  43  66  92 130 166 211 266 308 376
#
# _framework density 23.781821999999998
#
# number of rings (size 3 to 8) (size 9 to 14) (size 15 to 20)
#    0.000    1.600    2.000    1.200    5.600    3.200 
#   10.800    0.000    0.000    0.000    0.000    0.000 
#    0.000    0.000    0.000    0.000    0.000    0.000 
#
# Total GULP energy -247852.537868 kJ/mol
# GULP energy per Si atom -12392.626893 kJ/mol
# Density = 2.372769 g / cm^3
# Si number density = 23.781822 Si / 1000 Ang^3
#
#
#
# Elastic Constant Matrix: (Units=GPa)
#
#
# Indices 1 2 3 4 5 6 
#
# 1 106.5692 66.2719 12.1655 0.0000 -4.3689 0.0000
# 2 66.2719 82.6051 20.0667 0.0000 -3.7931 0.0000
# 3 12.1655 20.0667 43.4081 0.0000 -2.1077 0.0000
# 4 0.0000 0.0000 0.0000 23.8971 0.0000 -4.4057
# 5 -4.3689 -3.7931 -2.1077 0.0000 23.1464 0.0000
# 6 0.0000 0.0000 0.0000 -4.4057 0.0000 41.5350
#
#
#
# Elastic Compliance Matrix: (Units=1/GPa)
#
#
# Indices 1 2 3 4 5 6 
#
# 1 0.018901 -0.015586 0.001966 0.000000 0.001192 0.000000
# 2 -0.015586 0.026555 -0.007874 0.000000 0.000693 0.000000
# 3 0.001966 -0.007874 0.026197 0.000000 0.001466 0.000000
# 4 0.000000 0.000000 0.000000 0.042681 0.000000 0.004527
# 5 0.001192 0.000693 0.001466 0.000000 0.043675 0.000000
# 6 0.000000 0.000000 0.000000 0.004527 0.000000 0.024556
#
#
# Mechanical properties :
#
#
# Convention : Reuss Voigt Hill
#
# Bulk Modulus (GPa) = 34.88644 47.73229 41.30936
# Shear Modulus (GPa) = 21.26677 26.65424 23.96050
#
# Velocity S-wave (km/s) = 2.99364 3.35144 3.17758
# Velocity P-wave (km/s) = 5.16240 5.92374 5.55612
#
# Compressibility (1/GPa) = 0.02866444
#
# Stress axis : x y z
#
# Youngs Moduli (GPa) = 52.90821 37.65785 38.17180
#
# Poissons Ratio (x) = 0.58695 -0.07505
# Poissons Ratio (y) = 0.82465 0.30056
# Poissons Ratio (z) = -0.10402 0.29652
#
# Static dielectric constant tensor:
#      x y z
#    x 4.551860 0.000000 -0.046830 
#    y 0.000000 3.888440 0.000000 
#    z -0.046830 0.000000 4.388500 
# 
# 
# High freq. dielectric constant tensor:
#      x y z
#    x 1.953960 0.000000 0.003010 
#    y 0.000000 1.912270 0.000000 
#    z 0.003010 0.000000 1.943160 
# 
# From -- ./inp_files/235928.got.cif
#   From: 2010.06.25/outbox.cif.g09.slc.cpg/sg15_118_cif.got.tgz:235928.got - 2010.06.28 07:06:18.
