data_PCOD8148200
_publ_section_title
;
Structure prediction by ZEFSAII (Michael W. Deem and Ramdas Pophale) SiO2 
 PCOD8148200
Probable space group: C 2/C
;
_chemical_formula_sum "Si O2"
_cell_formula_units_Z 60
_cell_length_a 14.661657
_cell_length_b 14.867447
_cell_length_c 14.787252
_cell_angle_alpha 90.000000
_cell_angle_beta 124.532637
_cell_angle_gamma 90.000000
_cell_volume 2655.403463
_symmetry_space_group_name_H-M "C 2/C"
_symmetry_group_IT_number 15
_symmetry_cell_setting 'monoclinic'
loop_
_space_group_symop_operation_xyz
x,y,z
-x,y,1/2-z
-x,-y,-z
x,-y,1/2+z
1/2+x,1/2+y,z
1/2-x,1/2+y,1/2-z
1/2-x,1/2-y,-z
1/2+x,1/2-y,1/2+z
loop_
_atom_site_type_symbol
_atom_site_label
_atom_site_fract_x
_atom_site_fract_y
_atom_site_fract_z
Si Si1 0.024804 0.141493 0.535851
Si Si2 0.202192 0.277027 0.674650
Si Si3 0.903691 0.612485 0.527637
Si Si4 0.624086 0.500132 0.973235
Si Si5 0.500000 0.947168 0.250000
Si Si6 0.625087 0.206862 0.610235
Si Si7 0.235121 0.458455 0.114114
Si Si8 0.800621 0.457175 0.722356
O O1 0.108440 0.202663 0.639195
O O2 0.985600 0.060446 0.577381
O O3 0.914211 0.198022 0.450863
O O4 0.086847 0.101291 0.480816
O O5 0.188923 0.318099 0.565213
O O6 0.320112 0.229099 0.760520
O O7 0.185246 0.353835 0.740462
O O8 0.874484 0.512071 0.479668
O O9 0.914279 0.613999 0.642723
O O10 0.023304 0.639383 0.558977
O O11 0.725365 0.534761 0.091546
O O12 0.662724 0.508573 0.891020
O O13 0.575228 0.007219 0.226030
O O14 0.712468 0.149891 0.597069
O O15 0.259160 0.485644 0.231750
#
# Coordination Sequence:
#
# PCOD8148200 Si02
#       8
#     8   8   8   8   4   8   8   8
#     4  10  24  42  69  96 142 177 237 289 356 416
#     4  10  23  43  68 101 139 184 229 299 343 421
#     4  10  23  39  70 102 133 182 235 286 350 422
#     4  11  23  47  69  97 138 193 226 289 356 435
#     4  12  22  40  70 104 134 186 234 288 346 418
#     4  11  21  43  68  99 141 178 229 301 345 418
#     4  11  23  41  75 101 134 184 241 280 354 424
#     4  11  23  42  72  99 140 181 234 283 356 423
#
# _framework density 22.595434999999998
#
# number of rings (size 3 to 8) (size 9 to 14) (size 15 to 20)
#    0.000    1.333    4.000    1.200    3.733    0.533 
#    2.400   17.333    0.000    0.000    0.000    0.000 
#    0.000    0.000    0.000    0.000    0.000    0.000 
#
# Total GULP energy -371717.942422 kJ/mol
# GULP energy per Si atom -12390.598081 kJ/mol
# Density = 2.254401 g / cm^3
# Si number density = 22.595435 Si / 1000 Ang^3
#
#
#
# Elastic Constant Matrix: (Units=GPa)
#
#
# Indices 1 2 3 4 5 6 
#
# 1 100.9239 34.9694 6.2682 0.0000 -16.5953 0.0000
# 2 34.9694 112.7034 21.5151 0.0000 3.2669 0.0000
# 3 6.2682 21.5151 79.5427 0.0000 6.1909 0.0000
# 4 0.0000 0.0000 0.0000 24.7388 0.0000 4.4478
# 5 -16.5953 3.2669 6.1909 0.0000 35.3389 0.0000
# 6 0.0000 0.0000 0.0000 4.4478 0.0000 24.3275
#
#
#
# Elastic Compliance Matrix: (Units=1/GPa)
#
#
# Indices 1 2 3 4 5 6 
#
# 1 0.012315 -0.003926 -0.000392 0.000000 0.006215 0.000000
# 2 -0.003926 0.010614 -0.002374 0.000000 -0.002409 0.000000
# 3 -0.000392 -0.002374 0.013425 0.000000 -0.002317 0.000000
# 4 0.000000 0.000000 0.000000 0.041796 0.000000 -0.007642
# 5 0.006215 -0.002409 -0.002317 0.000000 0.031845 0.000000
# 6 0.000000 0.000000 0.000000 -0.007642 0.000000 0.042503
#
#
# Mechanical properties :
#
#
# Convention : Reuss Voigt Hill
#
# Bulk Modulus (GPa) = 43.53627 46.51948 45.02788
# Shear Modulus (GPa) = 28.81179 32.24218 30.52699
#
# Velocity S-wave (km/s) = 3.57475 3.78158 3.67962
# Velocity P-wave (km/s) = 6.02893 6.30078 6.16635
#
# Compressibility (1/GPa) = 0.02296935
#
# Stress axis : x y z
#
# Youngs Moduli (GPa) = 81.20017 94.21362 74.48671
#
# Poissons Ratio (x) = 0.36992 0.02921
# Poissons Ratio (y) = 0.31883 0.17684
# Poissons Ratio (z) = 0.03184 0.22367
#
# Static dielectric constant tensor:
#      x y z
#    x 3.791270 0.000000 0.167940 
#    y 0.000000 4.339380 0.000000 
#    z 0.167940 0.000000 4.244500 
# 
# 
# High freq. dielectric constant tensor:
#      x y z
#    x 1.860350 0.000000 0.022260 
#    y 0.000000 1.901740 0.000000 
#    z 0.022260 0.000000 1.892770 
# 
# From -- ./inp_files/154290.got.cif
#   From: 2010.06.25/outbox.cif.g09.slc.cpg/sg15_78_cif.got.tgz:154290.got - 2010.06.28 07:06:18.
