data_PCOD8148614
_publ_section_title
;
Structure prediction by ZEFSAII (Michael W. Deem and Ramdas Pophale) SiO2 
 PCOD8148614
Probable space group: C 2/C
;
_chemical_formula_sum "Si O2"
_cell_formula_units_Z 56
_cell_length_a 19.583417
_cell_length_b 15.588575
_cell_length_c 8.399796
_cell_angle_alpha 90.000000
_cell_angle_beta 122.755989
_cell_angle_gamma 90.000000
_cell_volume 2156.505480
_symmetry_space_group_name_H-M "C 2/C"
_symmetry_group_IT_number 15
_symmetry_cell_setting 'monoclinic'
loop_
_space_group_symop_operation_xyz
x,y,z
-x,y,1/2-z
-x,-y,-z
x,-y,1/2+z
1/2+x,1/2+y,z
1/2-x,1/2+y,1/2-z
1/2-x,1/2-y,-z
1/2+x,1/2-y,1/2+z
loop_
_atom_site_type_symbol
_atom_site_label
_atom_site_fract_x
_atom_site_fract_y
_atom_site_fract_z
Si Si1 0.418726 0.752901 0.042393
Si Si2 0.500000 0.499157 0.750000
Si Si3 0.500000 0.108567 0.250000
Si Si4 0.947489 0.875304 0.920772
Si Si5 0.106804 0.294498 0.145272
Si Si6 0.632985 0.079760 0.198700
Si Si7 0.763640 0.515499 0.906853
Si Si8 0.219891 0.123881 0.580638
O O1 0.386619 0.824399 0.882345
O O2 0.338976 0.703828 0.007748
O O3 0.471589 0.682439 0.012813
O O4 0.448883 0.791941 0.258033
O O5 0.433303 0.435814 0.747563
O O6 0.452792 0.559442 0.571310
O O7 0.556580 0.167438 0.434618
O O8 0.554375 0.048793 0.201855
O O9 0.876130 0.807196 0.870411
O O10 0.187721 0.346074 0.275856
O O11 0.653804 0.014647 0.082754
O O12 0.709783 0.078727 0.416540
O O13 0.700976 0.564176 0.711029
O O14 0.718035 0.431188 0.915521
#
# Coordination Sequence:
#
# PCOD8148614 Si02
#       8
#     8   4   4   8   8   8   8   8
#     4  12  25  43  74 101 136 189 234 283 353 420
#     4  10  23  42  64  99 138 172 228 290 353 400
#     4  12  25  42  72 103 134 178 238 284 341 410
#     4  11  23  43  68  97 137 179 229 287 343 414
#     4  12  23  46  70 102 135 186 232 293 332 431
#     4  11  24  44  69 102 136 184 228 288 344 410
#     4  10  24  47  66 100 148 175 234 287 345 417
#     4  11  25  47  70 102 141 188 228 289 347 416
#
# _framework density 25.967939000000001
#
# number of rings (size 3 to 8) (size 9 to 14) (size 15 to 20)
#    0.000    0.857    5.714    0.857    0.000    2.286 
#    0.000    0.000    0.000    0.000    0.000    0.000 
#    0.000    0.000    0.000    0.000    0.000    0.000 
#
# Total GULP energy -346881.695427 kJ/mol
# GULP energy per Si atom -12388.631980 kJ/mol
# Density = 2.590883 g / cm^3
# Si number density = 25.967939 Si / 1000 Ang^3
#
#
#
# Elastic Constant Matrix: (Units=GPa)
#
#
# Indices 1 2 3 4 5 6 
#
# 1 66.2753 18.7667 20.4702 0.0000 -15.8974 0.0000
# 2 18.7667 97.0785 34.3123 0.0000 -14.7282 0.0000
# 3 20.4702 34.3123 102.0595 0.0000 -31.9247 0.0000
# 4 0.0000 0.0000 0.0000 19.6119 0.0000 3.9061
# 5 -15.8974 -14.7282 -31.9247 0.0000 28.7111 0.0000
# 6 0.0000 0.0000 0.0000 3.9061 0.0000 25.6991
#
#
#
# Elastic Compliance Matrix: (Units=1/GPa)
#
#
# Indices 1 2 3 4 5 6 
#
# 1 0.017791 -0.002071 -0.000189 0.000000 0.008579 0.000000
# 2 -0.002071 0.012049 -0.003160 0.000000 0.001521 0.000000
# 3 -0.000189 -0.003160 0.015883 0.000000 0.015935 0.000000
# 4 0.000000 0.000000 0.000000 0.052581 0.000000 -0.007992
# 5 0.008579 0.001521 0.015935 0.000000 0.058079 0.000000
# 6 0.000000 0.000000 0.000000 -0.007992 0.000000 0.040127
#
#
# Mechanical properties :
#
#
# Convention : Reuss Voigt Hill
#
# Bulk Modulus (GPa) = 28.66638 45.83465 37.25051
# Shear Modulus (GPa) = 22.83350 27.59536 25.21443
#
# Velocity S-wave (km/s) = 2.96851 3.26340 3.11944
# Velocity P-wave (km/s) = 4.77624 5.64699 5.22977
#
# Compressibility (1/GPa) = 0.03488407
#
# Stress axis : x y z
#
# Youngs Moduli (GPa) = 56.20789 82.99568 62.96045
#
# Poissons Ratio (x) = 0.17189 0.01187
# Poissons Ratio (y) = 0.11641 0.19894
# Poissons Ratio (z) = 0.01060 0.26224
#
# Static dielectric constant tensor:
#      x y z
#    x 5.010630 0.000000 -0.394360 
#    y 0.000000 5.135560 0.000000 
#    z -0.394360 0.000000 4.997520 
# 
# 
# High freq. dielectric constant tensor:
#      x y z
#    x 2.040240 0.000000 -0.013480 
#    y 0.000000 2.044840 0.000000 
#    z -0.013480 0.000000 2.054280 
# 
# From -- ./inp_files/62805.got.cif
#   From: 2010.06.25/outbox.cif.g09.slc.cpg/sg15_32_cif.got.tgz:62805.got - 2010.06.28 07:06:18.
