data_PCOD8148692
_publ_section_title
;
Structure prediction by ZEFSAII (Michael W. Deem and Ramdas Pophale) SiO2 
 PCOD8148692
Probable space group: C 2/C
;
_chemical_formula_sum "Si O2"
_cell_formula_units_Z 44
_cell_length_a 12.658839
_cell_length_b 25.096026
_cell_length_c 9.150559
_cell_angle_alpha 90.000000
_cell_angle_beta 133.517737
_cell_angle_gamma 90.000000
_cell_volume 2108.050654
_symmetry_space_group_name_H-M "C 2/C"
_symmetry_group_IT_number 15
_symmetry_cell_setting 'monoclinic'
loop_
_space_group_symop_operation_xyz
x,y,z
-x,y,1/2-z
-x,-y,-z
x,-y,1/2+z
1/2+x,1/2+y,z
1/2-x,1/2+y,1/2-z
1/2-x,1/2-y,-z
1/2+x,1/2-y,1/2+z
loop_
_atom_site_type_symbol
_atom_site_label
_atom_site_fract_x
_atom_site_fract_y
_atom_site_fract_z
Si Si1 0.198776 0.485705 0.681761
Si Si2 0.182744 0.695493 0.094547
Si Si3 0.000000 0.494830 0.250000
Si Si4 0.810620 0.103771 0.723716
Si Si5 0.842033 0.302626 0.265611
Si Si6 0.137566 0.892823 0.568704
O O1 0.121450 0.462998 0.459242
O O2 0.243940 0.547557 0.713643
O O3 0.342193 0.451421 0.842888
O O4 0.086891 0.472042 0.708440
O O5 0.264389 0.747559 0.233056
O O6 0.251724 0.647187 0.249018
O O7 0.204998 0.683879 0.944498
O O8 0.012451 0.704048 0.958326
O O9 0.704011 0.149908 0.672850
O O10 0.823219 0.104584 0.562928
O O11 0.968732 0.118484 0.940755
#
# Coordination Sequence:
#
# PCOD8148692 Si02
#       6
#     8   8   4   8   8   8
#     4  11  23  42  62  94 128 166 206 258 308 374
#     4  10  23  42  67  94 123 159 206 257 311 369
#     4  10  24  38  66  90 132 158 214 254 312 360
#     4  11  25  42  62  90 128 167 208 254 308 368
#     4  10  23  42  67  94 123 159 206 257 311 369
#     4  11  25  42  62  90 128 167 208 254 308 368
#
# _framework density 20.872364000000001
#
# number of rings (size 3 to 8) (size 9 to 14) (size 15 to 20)
#    0.000    1.455    1.818    1.636    7.636    3.636 
#    0.000    0.000    0.000    0.000    0.000    0.000 
#    0.000    0.000    0.000    0.000    0.000    0.000 
#
# Total GULP energy -272654.311293 kJ/mol
# GULP energy per Si atom -12393.377786 kJ/mol
# Density = 2.082486 g / cm^3
# Si number density = 20.872364 Si / 1000 Ang^3
#
#
#
# Elastic Constant Matrix: (Units=GPa)
#
#
# Indices 1 2 3 4 5 6 
#
# 1 89.1862 38.7069 37.8742 0.0000 7.0483 0.0000
# 2 38.7069 95.5535 29.8196 0.0000 7.4252 0.0000
# 3 37.8742 29.8196 120.1807 0.0000 10.2022 0.0000
# 4 0.0000 0.0000 0.0000 33.7697 0.0000 0.6180
# 5 7.0483 7.4252 10.2022 0.0000 29.3275 0.0000
# 6 0.0000 0.0000 0.0000 0.6180 0.0000 21.6596
#
#
#
# Elastic Compliance Matrix: (Units=1/GPa)
#
#
# Indices 1 2 3 4 5 6 
#
# 1 0.014852 -0.004873 -0.003373 0.000000 -0.001162 0.000000
# 2 -0.004873 0.013052 -0.001568 0.000000 -0.001588 0.000000
# 3 -0.003373 -0.001568 0.009964 0.000000 -0.002259 0.000000
# 4 0.000000 0.000000 0.000000 0.029628 0.000000 -0.000845
# 5 -0.001162 -0.001588 -0.002259 0.000000 0.035565 0.000000
# 6 0.000000 0.000000 0.000000 -0.000845 0.000000 0.046193
#
#
# Mechanical properties :
#
#
# Convention : Reuss Voigt Hill
#
# Bulk Modulus (GPa) = 54.82288 57.52467 56.17377
# Shear Modulus (GPa) = 28.57774 30.18602 29.38188
#
# Velocity S-wave (km/s) = 3.70424 3.80705 3.75599
# Velocity P-wave (km/s) = 6.67967 6.85163 6.76620
#
# Compressibility (1/GPa) = 0.01824056
#
# Stress axis : x y z
#
# Youngs Moduli (GPa) = 67.33300 76.61589 100.35697
#
# Poissons Ratio (x) = 0.37337 0.33846
# Poissons Ratio (y) = 0.32813 0.15735
# Poissons Ratio (z) = 0.22708 0.12013
#
# Static dielectric constant tensor:
#      x y z
#    x 3.828770 0.000000 0.090520 
#    y 0.000000 3.618020 0.000000 
#    z 0.090520 0.000000 4.145960 
# 
# 
# High freq. dielectric constant tensor:
#      x y z
#    x 1.821420 0.000000 0.008790 
#    y 0.000000 1.806400 0.000000 
#    z 0.008790 0.000000 1.840380 
# 
# From -- ./inp_files/34502.got.cif
#   From: 2010.06.25/outbox.cif.g09.slc.cpg/sg15_18_cif.got.tgz:34502.got - 2010.06.28 07:06:18.
