data_PCOD8148044
_publ_section_title
;
Structure prediction by ZEFSAII (Michael W. Deem and Ramdas Pophale) SiO2 
 PCOD8148044
Probable space group: C 2/C
;
_chemical_formula_sum "Si O2"
_cell_formula_units_Z 48
_cell_length_a 14.086928
_cell_length_b 27.089606
_cell_length_c 9.098900
_cell_angle_alpha 90.000000
_cell_angle_beta 42.800487
_cell_angle_gamma 90.000000
_cell_volume 2359.194823
_symmetry_space_group_name_H-M "C 2/C"
_symmetry_group_IT_number 15
_symmetry_cell_setting 'monoclinic'
loop_
_space_group_symop_operation_xyz
x,y,z
-x,y,1/2-z
-x,-y,-z
x,-y,1/2+z
1/2+x,1/2+y,z
1/2-x,1/2+y,1/2-z
1/2-x,1/2-y,-z
1/2+x,1/2-y,1/2+z
loop_
_atom_site_type_symbol
_atom_site_label
_atom_site_fract_x
_atom_site_fract_y
_atom_site_fract_z
Si Si1 0.011249 0.138381 0.572462
Si Si2 0.164507 0.662207 0.318356
Si Si3 0.389112 0.258195 0.254543
Si Si4 0.568568 0.457446 0.513589
Si Si5 0.387189 0.956425 0.129134
Si Si6 0.500000 0.106825 0.250000
Si Si7 0.500000 0.109730 0.750000
O O1 0.169811 0.154783 0.363524
O O2 0.000000 0.117318 0.750000
O O3 0.912157 0.186614 0.666247
O O4 0.956122 0.096788 0.525495
O O5 0.116953 0.719511 0.373013
O O6 0.100008 0.637727 0.244461
O O7 0.107804 0.641817 0.535058
O O8 0.500000 0.243368 0.250000
O O9 0.250000 0.250000 0.500000
O O10 0.500000 0.457113 0.750000
O O11 0.500000 0.500000 0.500000
O O12 0.729702 0.474561 0.329391
O O13 0.409452 0.922794 0.244483
O O14 0.398222 0.926820 0.964125
O O15 0.500000 0.000000 0.000000
#
# Coordination Sequence:
#
# PCOD8148044 Si02
#       7
#     8   8   8   8   8   4   4
#     4  11  23  43  71  98 139 174 231 282 341 398
#     4  11  21  41  65 100 136 177 222 279 336 404
#     4  11  21  38  68 101 132 174 224 275 330 404
#     4  12  29  46  71 100 139 181 226 283 348 411
#     4  11  25  43  70  96 133 175 230 278 342 404
#     4  10  23  36  72  94 130 178 231 276 334 408
#     4  10  25  42  66  96 138 172 221 280 340 398
#
# _framework density 20.345924
#
# number of rings (size 3 to 8) (size 9 to 14) (size 15 to 20)
#    0.000    1.000    4.167    3.000    9.333    0.000 
#    1.500    0.833    0.000    0.000    0.000    0.000 
#    0.000    0.000    0.000    0.000    0.000    0.000 
#
# Total GULP energy -297519.737724 kJ/mol
# GULP energy per Si atom -12396.655738 kJ/mol
# Density = 2.029962 g / cm^3
# Si number density = 20.345924 Si / 1000 Ang^3
#
#
#
# Elastic Constant Matrix: (Units=GPa)
#
#
# Indices 1 2 3 4 5 6 
#
# 1 96.9672 64.8912 78.2020 0.0000 -6.6866 0.0000
# 2 64.8912 154.4471 80.4673 0.0000 1.1492 0.0000
# 3 78.2020 80.4673 165.0035 0.0000 -3.5797 0.0000
# 4 0.0000 0.0000 0.0000 67.7445 0.0000 13.6550
# 5 -6.6866 1.1492 -3.5797 0.0000 51.9676 0.0000
# 6 0.0000 0.0000 0.0000 13.6550 0.0000 34.5364
#
#
#
# Elastic Compliance Matrix: (Units=1/GPa)
#
#
# Indices 1 2 3 4 5 6 
#
# 1 0.018842 -0.004428 -0.006726 0.000000 0.002059 0.000000
# 2 -0.004428 0.009733 -0.002669 0.000000 -0.000969 0.000000
# 3 -0.006726 -0.002669 0.010548 0.000000 -0.000080 0.000000
# 4 0.000000 0.000000 0.000000 0.016040 0.000000 -0.006342
# 5 0.002059 -0.000969 -0.000080 0.000000 0.019524 0.000000
# 6 0.000000 0.000000 0.000000 -0.006342 0.000000 0.031462
#
#
# Mechanical properties :
#
#
# Convention : Reuss Voigt Hill
#
# Bulk Modulus (GPa) = 87.12636 95.94877 91.53756
# Shear Modulus (GPa) = 36.33186 43.70684 40.01935
#
# Velocity S-wave (km/s) = 4.23035 4.63988 4.43984
# Velocity P-wave (km/s) = 8.17169 8.71583 8.44815
#
# Compressibility (1/GPa) = 0.01147758
#
# Stress axis : x y z
#
# Youngs Moduli (GPa) = 53.07212 102.74648 94.80294
#
# Poissons Ratio (x) = 0.45491 0.63767
# Poissons Ratio (y) = 0.23498 0.25303
# Poissons Ratio (z) = 0.35698 0.27423
#
# Static dielectric constant tensor:
#      x y z
#    x 3.685270 0.000000 0.017500 
#    y 0.000000 3.564500 0.000000 
#    z 0.017500 0.000000 3.879440 
# 
# 
# High freq. dielectric constant tensor:
#      x y z
#    x 1.796170 0.000000 -0.009730 
#    y 0.000000 1.805800 0.000000 
#    z -0.009730 0.000000 1.810400 
# 
# From -- ./inp_files/43885.got.cif
#   From: 2010.06.25/outbox.cif.g09.slc.cpg/sg15_22_cif.got.tgz:43885.got - 2010.06.28 07:06:18.
