data_PCOD8148507
_publ_section_title
;
Structure prediction by ZEFSAII (Michael W. Deem and Ramdas Pophale) SiO2 
 PCOD8148507
Probable space group: C 2/C
;
_chemical_formula_sum "Si O2"
_cell_formula_units_Z 40
_cell_length_a 13.056232
_cell_length_b 29.063653
_cell_length_c 5.181585
_cell_angle_alpha 90.000000
_cell_angle_beta 106.719209
_cell_angle_gamma 90.000000
_cell_volume 1883.094038
_symmetry_space_group_name_H-M "C 2/C"
_symmetry_group_IT_number 15
_symmetry_cell_setting 'monoclinic'
loop_
_space_group_symop_operation_xyz
x,y,z
-x,y,1/2-z
-x,-y,-z
x,-y,1/2+z
1/2+x,1/2+y,z
1/2-x,1/2+y,1/2-z
1/2-x,1/2-y,-z
1/2+x,1/2-y,1/2+z
loop_
_atom_site_type_symbol
_atom_site_label
_atom_site_fract_x
_atom_site_fract_y
_atom_site_fract_z
Si Si1 0.297301 0.117760 0.697145
Si Si2 0.430695 0.647093 0.942731
Si Si3 0.879021 0.519944 0.891610
Si Si4 0.113730 0.340621 0.756732
Si Si5 0.321997 0.255218 0.302064
O O1 0.168906 0.111903 0.592687
O O2 0.366213 0.074056 0.839332
O O3 0.336279 0.130512 0.440815
O O4 0.314746 0.156813 0.930092
O O5 0.500000 0.630196 0.750000
O O6 0.391064 0.698845 0.862324
O O7 0.500000 0.645917 0.250000
O O8 0.819967 0.493661 0.613806
O O9 0.000000 0.500000 0.000000
O O10 0.097960 0.288365 0.649802
O O11 0.000000 0.362262 0.750000
O O12 0.250000 0.250000 0.500000
O O13 0.250000 0.250000 0.000000
#
# Coordination Sequence:
#
# PCOD8148507 Si02
#       5
#     8   8   8   8   8
#     4  12  25  44  67 101 137 174 231 281 338 418
#     4  12  25  43  70  93 134 190 236 284 331 394
#     4  10  23  41  68  98 133 174 205 271 357 435
#     4  12  25  39  65  98 139 182 219 285 340 409
#     4  12  22  43  63  93 139 185 233 284 342 377
#
# _framework density 21.241634999999999
#
# number of rings (size 3 to 8) (size 9 to 14) (size 15 to 20)
#    0.000    0.400    4.000    4.800    8.400    1.600 
#    0.000    0.000    0.000    3.600    0.000    0.000 
#    0.000    0.000    0.000    0.000    0.000    0.000 
#
# Total GULP energy -247896.095406 kJ/mol
# GULP energy per Si atom -12394.804770 kJ/mol
# Density = 2.119329 g / cm^3
# Si number density = 21.241635 Si / 1000 Ang^3
#
#
#
# Elastic Constant Matrix: (Units=GPa)
#
#
# Indices 1 2 3 4 5 6 
#
# 1 151.7566 35.9277 66.6835 0.0000 -13.5360 0.0000
# 2 35.9277 70.0157 14.5394 0.0000 8.6593 0.0000
# 3 66.6835 14.5394 178.2788 0.0000 -21.1974 0.0000
# 4 0.0000 0.0000 0.0000 20.9012 0.0000 -0.4885
# 5 -13.5360 8.6593 -21.1974 0.0000 45.2156 0.0000
# 6 0.0000 0.0000 0.0000 -0.4885 0.0000 23.8869
#
#
#
# Elastic Compliance Matrix: (Units=1/GPa)
#
#
# Indices 1 2 3 4 5 6 
#
# 1 0.009027 -0.004337 -0.002756 0.000000 0.002241 0.000000
# 2 -0.004337 0.017166 -0.000342 0.000000 -0.004746 0.000000
# 3 -0.002756 -0.000342 0.006966 0.000000 0.002506 0.000000
# 4 0.000000 0.000000 0.000000 0.047867 0.000000 0.000979
# 5 0.002241 -0.004746 0.002506 0.000000 0.024871 0.000000
# 6 0.000000 0.000000 0.000000 0.000979 0.000000 0.041884
#
#
# Mechanical properties :
#
#
# Convention : Reuss Voigt Hill
#
# Bulk Modulus (GPa) = 54.67949 70.48357 62.58153
# Shear Modulus (GPa) = 29.62987 36.86077 33.24532
#
# Velocity S-wave (km/s) = 3.73888 4.17022 3.96043
# Velocity P-wave (km/s) = 6.66607 7.51276 7.10204
#
# Compressibility (1/GPa) = 0.01828839
#
# Stress axis : x y z
#
# Youngs Moduli (GPa) = 110.77438 58.25459 143.55251
#
# Poissons Ratio (x) = 0.25265 0.39570
# Poissons Ratio (y) = 0.48043 0.04910
# Poissons Ratio (z) = 0.30535 0.01993
#
# Static dielectric constant tensor:
#      x y z
#    x 4.294470 0.000000 -2.811760 
#    y 0.000000 3.839210 0.000000 
#    z -2.811760 0.000000 96.110430 
# 
# 
# High freq. dielectric constant tensor:
#      x y z
#    x 1.821180 0.000000 -0.020520 
#    y 0.000000 1.813900 0.000000 
#    z -0.020520 0.000000 1.865020 
# 
# From -- ./inp_files/5923.got.cif
#   From: 2010.06.25/outbox.cif.g09.slc.cpg/sg15_3_cif.got.tgz:5923.got - 2010.06.28 07:06:18.
