data_PCOD8148439
_publ_section_title
;
Structure prediction by ZEFSAII (Michael W. Deem and Ramdas Pophale) SiO2 
 PCOD8148439
Probable space group: C 2/C
;
_chemical_formula_sum "Si O2"
_cell_formula_units_Z 64
_cell_length_a 29.367604
_cell_length_b 14.935895
_cell_length_c 8.806220
_cell_angle_alpha 90.000000
_cell_angle_beta 49.817445
_cell_angle_gamma 90.000000
_cell_volume 2951.062472
_symmetry_space_group_name_H-M "C 2/C"
_symmetry_group_IT_number 15
_symmetry_cell_setting 'monoclinic'
loop_
_space_group_symop_operation_xyz
x,y,z
-x,y,1/2-z
-x,-y,-z
x,-y,1/2+z
1/2+x,1/2+y,z
1/2-x,1/2+y,1/2-z
1/2-x,1/2-y,-z
1/2+x,1/2-y,1/2+z
loop_
_atom_site_type_symbol
_atom_site_label
_atom_site_fract_x
_atom_site_fract_y
_atom_site_fract_z
Si Si1 0.855678 0.128625 0.481104
Si Si2 0.113960 0.355169 0.523591
Si Si3 0.472489 0.100585 0.047353
Si Si4 0.909398 0.306590 0.251620
Si Si5 0.832290 0.008174 0.783169
Si Si6 0.236688 0.092458 0.310705
Si Si7 0.263035 0.783938 0.142054
Si Si8 0.133691 0.559228 0.434560
O O1 0.895477 0.217392 0.379470
O O2 0.861144 0.076342 0.308791
O O3 0.787236 0.151838 0.676811
O O4 0.877487 0.061761 0.571207
O O5 0.050818 0.354450 0.747132
O O6 0.107636 0.292876 0.388358
O O7 0.172102 0.329546 0.495240
O O8 0.118471 0.456929 0.466865
O O9 0.413937 0.106580 0.070588
O O10 0.521533 0.167759 0.874866
O O11 0.500000 0.000000 0.000000
O O12 0.870541 0.391102 0.393430
O O13 0.776774 0.971246 0.802815
O O14 0.811504 0.079566 0.952425
O O15 0.234803 0.194974 0.258014
O O16 0.298414 0.069971 0.262991
O O17 0.250000 0.750000 0.000000
#
# Coordination Sequence:
#
# PCOD8148439 Si02
#       8
#     8   8   8   8   8   8   8   8
#     4  11  24  44  68  98 137 176 234 289 355 409
#     4  12  25  40  66  95 141 189 226 275 337 419
#     4  12  25  44  64  96 143 189 233 270 329 418
#     4  12  26  41  65  98 137 186 232 286 337 407
#     4  10  23  41  65  94 135 180 226 287 348 411
#     4  11  23  38  62  96 138 176 222 278 342 407
#     4  12  24  40  63 101 142 174 229 283 346 426
#     4  12  24  39  66  98 141 189 231 269 335 411
#
# _framework density 21.687104999999999
#
# number of rings (size 3 to 8) (size 9 to 14) (size 15 to 20)
#    0.000    0.500    5.000    3.750    5.250    1.000 
#    0.000    0.000    0.000    0.000    0.000   29.750 
#    0.000    0.000    0.000    0.000    0.000    0.000 
#
# Total GULP energy -396559.245249 kJ/mol
# GULP energy per Si atom -12392.476414 kJ/mol
# Density = 2.163774 g / cm^3
# Si number density = 21.687105 Si / 1000 Ang^3
#
#
#
# Elastic Constant Matrix: (Units=GPa)
#
#
# Indices 1 2 3 4 5 6 
#
# 1 57.4915 8.3863 9.9178 0.0000 8.9244 0.0000
# 2 8.3863 94.6787 35.2971 0.0000 -0.5965 0.0000
# 3 9.9178 35.2971 82.3974 0.0000 4.8878 0.0000
# 4 0.0000 0.0000 0.0000 43.6534 0.0000 -1.6417
# 5 8.9244 -0.5965 4.8878 0.0000 35.1747 0.0000
# 6 0.0000 0.0000 0.0000 -1.6417 0.0000 36.2501
#
#
#
# Elastic Compliance Matrix: (Units=1/GPa)
#
#
# Indices 1 2 3 4 5 6 
#
# 1 0.018512 -0.001115 -0.001483 0.000000 -0.004510 0.000000
# 2 -0.001115 0.012669 -0.005367 0.000000 0.001244 0.000000
# 3 -0.001483 -0.005367 0.014718 0.000000 -0.001760 0.000000
# 4 0.000000 0.000000 0.000000 0.022947 0.000000 0.001039
# 5 -0.004510 0.001244 -0.001760 0.000000 0.029839 0.000000
# 6 0.000000 0.000000 0.000000 0.001039 0.000000 0.027633
#
#
# Mechanical properties :
#
#
# Convention : Reuss Voigt Hill
#
# Bulk Modulus (GPa) = 33.36679 37.97445 35.67062
# Shear Modulus (GPa) = 32.84294 35.08008 33.96151
#
# Velocity S-wave (km/s) = 3.89575 4.02625 3.96154
# Velocity P-wave (km/s) = 5.97116 6.25799 6.11626
#
# Compressibility (1/GPa) = 0.02996992
#
# Stress axis : x y z
#
# Youngs Moduli (GPa) = 54.01769 78.92987 67.94293
#
# Poissons Ratio (x) = 0.08803 0.10076
# Poissons Ratio (y) = 0.06025 0.36464
# Poissons Ratio (z) = 0.08011 0.42360
#
# Static dielectric constant tensor:
#      x y z
#    x 3.711210 0.000000 0.490770 
#    y 0.000000 4.096900 0.000000 
#    z 0.490770 0.000000 3.480980 
# 
# 
# High freq. dielectric constant tensor:
#      x y z
#    x 1.831480 0.000000 0.021320 
#    y 0.000000 1.853590 0.000000 
#    z 0.021320 0.000000 1.852110 
# 
# From -- ./inp_files/70123.got.cif
#   From: 2010.06.25/outbox.cif.g09.slc.cpg/sg15_36_cif.got.tgz:70123.got - 2010.06.28 07:06:18.
