data_PCOD8148973
_publ_section_title
;
Structure prediction by ZEFSAII (Michael W. Deem and Ramdas Pophale) SiO2 
 PCOD8148973
Probable space group: C 2/C
;
_chemical_formula_sum "Si O2"
_cell_formula_units_Z 32
_cell_length_a 14.212780
_cell_length_b 11.633406
_cell_length_c 10.771640
_cell_angle_alpha 90.000000
_cell_angle_beta 136.375895
_cell_angle_gamma 90.000000
_cell_volume 1228.765747
_symmetry_space_group_name_H-M "C 2/C"
_symmetry_group_IT_number 15
_symmetry_cell_setting 'monoclinic'
loop_
_space_group_symop_operation_xyz
x,y,z
-x,y,1/2-z
-x,-y,-z
x,-y,1/2+z
1/2+x,1/2+y,z
1/2-x,1/2+y,1/2-z
1/2-x,1/2-y,-z
1/2+x,1/2-y,1/2+z
loop_
_atom_site_type_symbol
_atom_site_label
_atom_site_fract_x
_atom_site_fract_y
_atom_site_fract_z
Si Si1 0.635111 0.345247 0.616380
Si Si2 0.364885 0.582576 0.782275
Si Si3 0.789782 0.340983 0.141448
Si Si4 0.848130 0.590890 0.128714
O O1 0.631659 0.444128 0.719538
O O2 0.515921 0.365932 0.399437
O O3 0.613285 0.224469 0.666169
O O4 0.783488 0.351386 0.690063
O O5 0.339708 0.616601 0.902661
O O6 0.249173 0.628682 0.578542
O O7 0.862464 0.452687 0.154165
O O8 0.750000 0.250000 0.000000
O O9 0.000000 0.640094 0.250000
#
# Coordination Sequence:
#
# PCOD8148973 Si02
#       4
#     8   8   8   8
#     4  10  23  43  70 102 145 185 232 287 354 421
#     4  10  23  43  69 103 141 188 233 288 349 422
#     4  11  24  42  71 108 140 183 235 290 351 419
#     4  11  25  45  72 103 145 180 234 297 351 405
#
# _framework density 26.042394000000002
#
# number of rings (size 3 to 8) (size 9 to 14) (size 15 to 20)
#    0.000    1.500    2.500    0.750    3.500    7.000 
#    0.000    0.000    0.000    0.000    0.000    0.000 
#    0.000    0.000    0.000    0.000    0.000    0.000 
#
# Total GULP energy -198335.698438 kJ/mol
# GULP energy per Si atom -12395.981152 kJ/mol
# Density = 2.598312 g / cm^3
# Si number density = 26.042394 Si / 1000 Ang^3
#
#
#
# Elastic Constant Matrix: (Units=GPa)
#
#
# Indices 1 2 3 4 5 6 
#
# 1 87.2461 8.8023 35.6196 0.0000 20.6110 0.0000
# 2 8.8023 84.6065 10.6344 0.0000 -12.2507 0.0000
# 3 35.6196 10.6344 143.5057 0.0000 21.8465 0.0000
# 4 0.0000 0.0000 0.0000 34.0025 0.0000 -18.2643
# 5 20.6110 -12.2507 21.8465 0.0000 48.3040 0.0000
# 6 0.0000 0.0000 0.0000 -18.2643 0.0000 36.2301
#
#
#
# Elastic Compliance Matrix: (Units=1/GPa)
#
#
# Indices 1 2 3 4 5 6 
#
# 1 0.013928 -0.001899 -0.002511 0.000000 -0.005289 0.000000
# 2 -0.001899 0.012831 -0.001179 0.000000 0.004598 0.000000
# 3 -0.002511 -0.001179 0.008121 0.000000 -0.002900 0.000000
# 4 0.000000 0.000000 0.000000 0.040331 0.000000 0.020331
# 5 -0.005289 0.004598 -0.002900 0.000000 0.025437 0.000000
# 6 0.000000 0.000000 0.000000 0.020331 0.000000 0.037851
#
#
# Mechanical properties :
#
#
# Convention : Reuss Voigt Hill
#
# Bulk Modulus (GPa) = 42.19393 47.27455 44.73424
# Shear Modulus (GPa) = 31.73037 41.06079 36.39558
#
# Velocity S-wave (km/s) = 3.49436 3.97506 3.74244
# Velocity P-wave (km/s) = 5.70245 6.26582 5.99076
#
# Compressibility (1/GPa) = 0.02370009
#
# Stress axis : x y z
#
# Youngs Moduli (GPa) = 71.79707 77.93611 123.14368
#
# Poissons Ratio (x) = 0.14802 0.30924
# Poissons Ratio (y) = 0.13636 0.14524
# Poissons Ratio (z) = 0.18030 0.09192
#
# Static dielectric constant tensor:
#      x y z
#    x 4.583950 0.000000 -0.047050 
#    y 0.000000 4.914840 0.000000 
#    z -0.047050 0.000000 4.370070 
# 
# 
# High freq. dielectric constant tensor:
#      x y z
#    x 2.035540 0.000000 -0.003170 
#    y 0.000000 2.063760 0.000000 
#    z -0.003170 0.000000 2.021330 
# 
# From -- ./inp_files/37694.got.cif
#   From: 2010.06.25/outbox.cif.g09.slc.cpg/sg15_19_cif.got.tgz:37694.got - 2010.06.28 07:06:18.
