data_PCOD8148784
_publ_section_title
;
Structure prediction by ZEFSAII (Michael W. Deem and Ramdas Pophale) SiO2 
 PCOD8148784
Probable space group: C 2/C
;
_chemical_formula_sum "Si O2"
_cell_formula_units_Z 24
_cell_length_a 23.750804
_cell_length_b 6.966311
_cell_length_c 7.210649
_cell_angle_alpha 90.000000
_cell_angle_beta 133.203491
_cell_angle_gamma 90.000000
_cell_volume 869.640021
_symmetry_space_group_name_H-M "C 2/C"
_symmetry_group_IT_number 15
_symmetry_cell_setting 'monoclinic'
loop_
_space_group_symop_operation_xyz
x,y,z
-x,y,1/2-z
-x,-y,-z
x,-y,1/2+z
1/2+x,1/2+y,z
1/2-x,1/2+y,1/2-z
1/2-x,1/2-y,-z
1/2+x,1/2-y,1/2+z
loop_
_atom_site_type_symbol
_atom_site_label
_atom_site_fract_x
_atom_site_fract_y
_atom_site_fract_z
Si Si1 0.090127 0.966759 0.210352
Si Si2 0.668792 0.227642 0.698009
Si Si3 0.312827 0.791778 0.798468
O O1 0.112658 0.813367 0.414598
O O2 0.119812 0.871095 0.078340
O O3 0.134660 0.176049 0.313504
O O4 0.000000 0.000000 0.000000
O O5 0.759406 0.288044 0.868195
O O6 0.652731 0.001924 0.656177
O O7 0.250000 0.750000 0.500000
#
# Coordination Sequence:
#
# PCOD8148784 Si02
#       3
#     8   8   8
#     4  11  25  45  71 107 149 186 237 306 363 432
#     4  11  23  44  74 106 141 192 244 293 362 434
#     4  10  23  42  71 106 137 190 244 294 353 435
#
# _framework density 27.597626000000002
#
# number of rings (size 3 to 8) (size 9 to 14) (size 15 to 20)
#    0.000    1.333    3.333    1.000    0.000   12.000 
#    0.000    3.333    0.000    0.000    0.000    0.000 
#    0.000    0.000    0.000    0.000    0.000    0.000 
#
# Total GULP energy -148836.482301 kJ/mol
# GULP energy per Si atom -12403.040192 kJ/mol
# Density = 2.753481 g / cm^3
# Si number density = 27.597626 Si / 1000 Ang^3
#
#
#
# Elastic Constant Matrix: (Units=GPa)
#
#
# Indices 1 2 3 4 5 6 
#
# 1 178.2010 43.1411 73.3567 0.0000 26.3198 0.0000
# 2 43.1411 238.4328 60.0415 0.0000 41.9544 0.0000
# 3 73.3567 60.0415 164.6656 0.0000 61.0171 0.0000
# 4 0.0000 0.0000 0.0000 51.3310 0.0000 6.0497
# 5 26.3198 41.9544 61.0171 0.0000 63.0713 0.0000
# 6 0.0000 0.0000 0.0000 6.0497 0.0000 53.0228
#
#
#
# Elastic Compliance Matrix: (Units=1/GPa)
#
#
# Indices 1 2 3 4 5 6 
#
# 1 0.006938 -0.000564 -0.003042 0.000000 0.000422 0.000000
# 2 -0.000564 0.004878 -0.000643 0.000000 -0.002388 0.000000
# 3 -0.003042 -0.000643 0.010964 0.000000 -0.008910 0.000000
# 4 0.000000 0.000000 0.000000 0.019747 0.000000 -0.002253
# 5 0.000422 -0.002388 -0.008910 0.000000 0.025887 0.000000
# 6 0.000000 0.000000 0.000000 -0.002253 0.000000 0.019117
#
#
# Mechanical properties :
#
#
# Convention : Reuss Voigt Hill
#
# Bulk Modulus (GPa) = 70.01089 103.81979 86.91534
# Shear Modulus (GPa) = 49.60902 60.46901 55.03902
#
# Velocity S-wave (km/s) = 4.24439 4.68599 4.47065
# Velocity P-wave (km/s) = 7.03159 8.18406 7.62962
#
# Compressibility (1/GPa) = 0.01428349
#
# Stress axis : x y z
#
# Youngs Moduli (GPa) = 144.13693 204.99974 91.20799
#
# Poissons Ratio (x) = 0.11555 0.27743
# Poissons Ratio (y) = 0.08125 0.05862
# Poissons Ratio (z) = 0.43843 0.13177
#
# Static dielectric constant tensor:
#      x y z
#    x 8.185220 0.000000 -0.974620 
#    y 0.000000 6.055110 0.000000 
#    z -0.974620 0.000000 5.057360 
# 
# 
# High freq. dielectric constant tensor:
#      x y z
#    x 2.164750 0.000000 -0.058840 
#    y 0.000000 2.128530 0.000000 
#    z -0.058840 0.000000 2.143690 
# 
# From -- ./inp_files/101947.got.cif
#   From: 2010.06.25/outbox.cif.g09.slc.cpg/sg15_51_cif.got.tgz:101947.got - 2010.06.28 07:06:18.
