data_PCOD8148968
_publ_section_title
;
Structure prediction by ZEFSAII (Michael W. Deem and Ramdas Pophale) SiO2 
 PCOD8148968
Probable space group: C 2/C
;
_chemical_formula_sum "Si O2"
_cell_formula_units_Z 48
_cell_length_a 18.333717
_cell_length_b 14.884055
_cell_length_c 11.016418
_cell_angle_alpha 90.000000
_cell_angle_beta 49.311775
_cell_angle_gamma 90.000000
_cell_volume 2279.476482
_symmetry_space_group_name_H-M "C 2/C"
_symmetry_group_IT_number 15
_symmetry_cell_setting 'monoclinic'
loop_
_space_group_symop_operation_xyz
x,y,z
-x,y,1/2-z
-x,-y,-z
x,-y,1/2+z
1/2+x,1/2+y,z
1/2-x,1/2+y,1/2-z
1/2-x,1/2-y,-z
1/2+x,1/2-y,1/2+z
loop_
_atom_site_type_symbol
_atom_site_label
_atom_site_fract_x
_atom_site_fract_y
_atom_site_fract_z
Si Si1 0.763078 0.513066 0.640937
Si Si2 0.851960 0.685243 0.662662
Si Si3 0.536484 0.758355 0.842810
Si Si4 0.706263 0.834979 0.783160
Si Si5 0.386799 0.120506 0.883064
Si Si6 0.546379 0.547708 0.831685
O O1 0.798118 0.608898 0.646306
O O2 0.765549 0.440789 0.750647
O O3 0.835569 0.476584 0.458017
O O4 0.656950 0.518646 0.700761
O O5 0.804887 0.779886 0.678103
O O6 0.841109 0.666886 0.815926
O O7 0.964663 0.691001 0.512030
O O8 0.500000 0.779451 0.750000
O O9 0.641724 0.803836 0.739593
O O10 0.539981 0.653028 0.865988
O O11 0.641456 0.814422 0.973812
O O12 0.500000 0.104931 0.750000
O O13 0.500000 0.522776 0.750000
O O14 0.500000 0.500000 0.000000
#
# Coordination Sequence:
#
# PCOD8148968 Si02
#       6
#     8   8   8   8   8   8
#     4  10  25  40  69 105 131 184 225 287 342 416
#     4  12  22  45  70  95 141 177 224 292 345 406
#     4  11  25  44  69 100 138 185 227 283 349 412
#     4  10  23  44  65 104 133 174 232 273 348 406
#     4  10  23  43  69 101 132 172 237 284 343 408
#     4  11  25  48  70 105 144 185 238 286 351 419
#
# _framework density 21.057468
#
# number of rings (size 3 to 8) (size 9 to 14) (size 15 to 20)
#    1.000    0.333    3.333    1.500    2.333    5.333 
#    3.000    0.000    0.000    0.000    0.000    0.000 
#    0.000    0.000    0.000    0.000    0.000    0.000 
#
# Total GULP energy -297494.769821 kJ/mol
# GULP energy per Si atom -12395.615409 kJ/mol
# Density = 2.100954 g / cm^3
# Si number density = 21.057468 Si / 1000 Ang^3
#
#
#
# Elastic Constant Matrix: (Units=GPa)
#
#
# Indices 1 2 3 4 5 6 
#
# 1 128.7100 28.5833 24.0019 0.0000 -12.5976 0.0000
# 2 28.5833 86.9452 13.3812 0.0000 -2.0527 0.0000
# 3 24.0019 13.3812 41.3751 0.0000 -7.4089 0.0000
# 4 0.0000 0.0000 0.0000 39.0569 0.0000 -4.9432
# 5 -12.5976 -2.0527 -7.4089 0.0000 41.3769 0.0000
# 6 0.0000 0.0000 0.0000 -4.9432 0.0000 37.0979
#
#
#
# Elastic Compliance Matrix: (Units=1/GPa)
#
#
# Indices 1 2 3 4 5 6 
#
# 1 0.009278 -0.002346 -0.004275 0.000000 0.001943 0.000000
# 2 -0.002346 0.012698 -0.002852 0.000000 -0.000595 0.000000
# 3 -0.004275 -0.002852 0.028218 0.000000 0.003610 0.000000
# 4 0.000000 0.000000 0.000000 0.026043 0.000000 0.003470
# 5 0.001943 -0.000595 0.003610 0.000000 0.025376 0.000000
# 6 0.000000 0.000000 0.000000 0.003470 0.000000 0.027418
#
#
# Mechanical properties :
#
#
# Convention : Reuss Voigt Hill
#
# Bulk Modulus (GPa) = 32.00397 43.21810 37.61104
# Shear Modulus (GPa) = 31.56686 36.24393 33.90540
#
# Velocity S-wave (km/s) = 3.87600 4.15322 4.01700
# Velocity P-wave (km/s) = 5.93823 6.60057 6.27814
#
# Compressibility (1/GPa) = 0.03124612
#
# Stress axis : x y z
#
# Youngs Moduli (GPa) = 107.78325 78.75430 35.43831
#
# Poissons Ratio (x) = 0.18478 0.15151
# Poissons Ratio (y) = 0.25288 0.10107
# Poissons Ratio (z) = 0.46082 0.22461
#
# Static dielectric constant tensor:
#      x y z
#    x 3.830770 0.000000 -0.033480 
#    y 0.000000 3.688570 0.000000 
#    z -0.033480 0.000000 3.732280 
# 
# 
# High freq. dielectric constant tensor:
#      x y z
#    x 1.838810 0.000000 -0.008950 
#    y 0.000000 1.820980 0.000000 
#    z -0.008950 0.000000 1.821870 
# 
# From -- ./inp_files/112942.got.cif
#   From: 2010.06.25/outbox.cif.g09.slc.cpg/sg15_57_cif.got.tgz:112942.got - 2010.06.28 07:06:18.
