data_PCOD8148197
_publ_section_title
;
Structure prediction by ZEFSAII (Michael W. Deem and Ramdas Pophale) SiO2 
 PCOD8148197
Probable space group: C 2/C
;
_chemical_formula_sum "Si O2"
_cell_formula_units_Z 56
_cell_length_a 17.614077
_cell_length_b 7.838449
_cell_length_c 19.876831
_cell_angle_alpha 90.000000
_cell_angle_beta 73.919437
_cell_angle_gamma 90.000000
_cell_volume 2636.958178
_symmetry_space_group_name_H-M "C 2/C"
_symmetry_group_IT_number 15
_symmetry_cell_setting 'monoclinic'
loop_
_space_group_symop_operation_xyz
x,y,z
-x,y,1/2-z
-x,-y,-z
x,-y,1/2+z
1/2+x,1/2+y,z
1/2-x,1/2+y,1/2-z
1/2-x,1/2-y,-z
1/2+x,1/2-y,1/2+z
loop_
_atom_site_type_symbol
_atom_site_label
_atom_site_fract_x
_atom_site_fract_y
_atom_site_fract_z
Si Si1 0.303896 0.840142 0.250957
Si Si2 0.746162 0.005550 0.977728
Si Si3 0.661935 0.793748 0.718481
Si Si4 0.798986 0.199202 0.593134
Si Si5 0.628384 0.236100 0.077692
Si Si6 0.026736 0.095546 0.927180
Si Si7 0.928902 0.040931 0.218412
O O1 0.250890 0.786708 0.199111
O O2 0.242264 0.850420 0.327505
O O3 0.367602 0.692817 0.246361
O O4 0.341699 0.030743 0.235583
O O5 0.765017 0.920798 0.043899
O O6 0.672733 0.131393 0.008547
O O7 0.719539 0.890264 0.922923
O O8 0.826861 0.084081 0.929520
O O9 0.636110 0.848023 0.649629
O O10 0.602748 0.650657 0.761208
O O11 0.892493 0.191273 0.577436
O O12 0.537488 0.263480 0.079955
O O13 0.039502 0.954130 0.865794
O O14 0.000000 0.000000 0.000000
O O15 0.000000 0.081874 0.250000
#
# Coordination Sequence:
#
# PCOD8148197 Si02
#       7
#     8   8   8   8   8   8   8
#     4  12  25  44  75 104 138 189 245 287 348 433
#     4  10  23  39  68  98 132 184 224 281 345 417
#     4  12  23  43  71 100 136 184 241 289 343 421
#     4  11  22  43  66 100 137 177 233 281 341 423
#     4  11  23  42  68  97 140 180 231 287 350 418
#     4  12  25  45  70 103 143 183 228 296 360 414
#     4  12  27  46  72 105 143 188 233 301 362 414
#
# _framework density 21.236591000000001
#
# number of rings (size 3 to 8) (size 9 to 14) (size 15 to 20)
#    0.000    0.571    7.143    0.857    0.000    1.143 
#    0.000    0.000    0.000    0.000    0.000    0.000 
#    0.000    0.000    0.000    0.000    0.000    0.000 
#
# Total GULP energy -347179.995461 kJ/mol
# GULP energy per Si atom -12399.285552 kJ/mol
# Density = 2.118826 g / cm^3
# Si number density = 21.236591 Si / 1000 Ang^3
#
#
#
# Elastic Constant Matrix: (Units=GPa)
#
#
# Indices 1 2 3 4 5 6 
#
# 1 130.3544 30.0878 16.2781 0.0000 -4.3162 0.0001
# 2 30.0878 93.2617 3.7557 0.0000 -4.5850 0.0000
# 3 16.2781 3.7557 57.7986 -0.0001 0.9736 -0.0001
# 4 0.0000 0.0000 -0.0001 23.7084 0.0000 -12.1754
# 5 -4.3162 -4.5850 0.9736 0.0000 34.0416 0.0001
# 6 0.0001 0.0000 -0.0001 -12.1754 0.0001 12.6356
#
#
#
# Elastic Compliance Matrix: (Units=1/GPa)
#
#
# Indices 1 2 3 4 5 6 
#
# 1 0.008590 -0.002641 -0.002261 0.000000 0.000798 0.000000
# 2 -0.002641 0.011636 -0.000033 0.000000 0.001233 0.000000
# 3 -0.002261 -0.000033 0.017954 0.000000 -0.000805 0.000000
# 4 0.000000 0.000000 0.000000 0.083497 0.000000 0.080455
# 5 0.000798 0.001233 -0.000805 0.000000 0.029666 0.000000
# 6 0.000000 0.000000 0.000000 0.080455 0.000000 0.156666
#
#
# Mechanical properties :
#
#
# Convention : Reuss Voigt Hill
#
# Bulk Modulus (GPa) = 35.32311 42.40643 38.86477
# Shear Modulus (GPa) = 15.27577 29.49667 22.38622
#
# Velocity S-wave (km/s) = 2.68491 3.73091 3.25027
# Velocity P-wave (km/s) = 5.12649 6.21060 5.69440
#
# Compressibility (1/GPa) = 0.02831008
#
# Stress axis : x y z
#
# Youngs Moduli (GPa) = 116.41809 85.93655 55.69806
#
# Poissons Ratio (x) = 0.22695 0.12593
# Poissons Ratio (y) = 0.30745 0.00185
# Poissons Ratio (z) = 0.26322 0.00285
#
# Static dielectric constant tensor:
#      x y z
#    x 29.543080 -0.000020 -4.850480 
#    y -0.000020 3.888140 0.000000 
#    z -4.850480 0.000000 4.906440 
# 
# 
# High freq. dielectric constant tensor:
#      x y z
#    x 1.844380 0.000000 0.010980 
#    y 0.000000 1.826890 0.000000 
#    z 0.010980 0.000000 1.837400 
# 
# From -- ./inp_files/209500.got.cif
#   From: 2010.06.25/outbox.cif.g09.slc.cpg/sg15_105_cif.got.tgz:209500.got - 2010.06.28 07:06:18.
