data_PCOD8148480
_publ_section_title
;
Structure prediction by ZEFSAII (Michael W. Deem and Ramdas Pophale) SiO2 
 PCOD8148480
Probable space group: C 2/C
;
_chemical_formula_sum "Si O2"
_cell_formula_units_Z 48
_cell_length_a 9.769957
_cell_length_b 29.383563
_cell_length_c 17.169986
_cell_angle_alpha 90.000000
_cell_angle_beta 26.636075
_cell_angle_gamma 90.000000
_cell_volume 2209.820940
_symmetry_space_group_name_H-M "C 2/C"
_symmetry_group_IT_number 15
_symmetry_cell_setting 'monoclinic'
loop_
_space_group_symop_operation_xyz
x,y,z
-x,y,1/2-z
-x,-y,-z
x,-y,1/2+z
1/2+x,1/2+y,z
1/2-x,1/2+y,1/2-z
1/2-x,1/2-y,-z
1/2+x,1/2-y,1/2+z
loop_
_atom_site_type_symbol
_atom_site_label
_atom_site_fract_x
_atom_site_fract_y
_atom_site_fract_z
Si Si1 0.257635 0.716948 0.766387
Si Si2 0.090693 0.551763 0.527869
Si Si3 0.326420 0.872704 0.759695
Si Si4 0.788670 0.536375 0.203530
Si Si5 0.060110 0.298936 0.541052
Si Si6 0.379793 0.137674 0.890359
O O1 0.610362 0.702612 0.586102
O O2 0.287810 0.768203 0.717796
O O3 0.050988 0.685759 0.815795
O O4 0.094332 0.714139 0.933429
O O5 0.432398 0.537089 0.370783
O O6 0.023869 0.550068 0.469778
O O7 0.027849 0.603075 0.587780
O O8 0.879916 0.515083 0.680920
O O9 0.500000 0.856467 0.750000
O O10 0.367925 0.927111 0.730318
O O11 0.458539 0.850185 0.613036
O O12 0.978990 0.856060 0.938300
O O13 0.500000 0.115380 0.750000
#
# Coordination Sequence:
#
# PCOD8148480 Si02
#       6
#     8   8   8   8   8   8
#     4  10  23  42  65  93 123 160 205 253 312 367
#     4   9  19  37  61  87 121 156 204 253 305 368
#     4  11  24  40  62  88 125 166 208 256 313 367
#     4   9  19  37  61  89 117 159 203 252 307 370
#     4  10  23  41  67  91 124 161 201 256 307 377
#     4  11  24  40  60  91 127 162 208 260 308 369
#
# _framework density 21.721218
#
# number of rings (size 3 to 8) (size 9 to 14) (size 15 to 20)
#    0.000    2.000    0.000    2.000    7.000    6.000 
#    0.000    6.667    0.000    0.000    0.000    0.000 
#    0.000    0.000    0.000    0.000    0.000    0.000 
#
# Total GULP energy -297427.966754 kJ/mol
# GULP energy per Si atom -12392.831948 kJ/mol
# Density = 2.167178 g / cm^3
# Si number density = 21.721218 Si / 1000 Ang^3
#
#
#
# Elastic Constant Matrix: (Units=GPa)
#
#
# Indices 1 2 3 4 5 6 
#
# 1 82.8316 33.8378 33.6830 0.0001 3.5641 -0.0001
# 2 33.8378 87.9878 43.2807 0.0000 -15.2837 0.0000
# 3 33.6830 43.2807 85.7580 -0.0005 8.1051 -0.0001
# 4 0.0001 0.0000 -0.0005 35.5531 0.0000 2.7340
# 5 3.5641 -15.2837 8.1051 0.0000 25.9364 0.0000
# 6 -0.0001 0.0000 -0.0001 2.7340 0.0000 23.3381
#
#
#
# Elastic Compliance Matrix: (Units=1/GPa)
#
#
# Indices 1 2 3 4 5 6 
#
# 1 0.015657 -0.005236 -0.003104 0.000000 -0.004267 0.000000
# 2 -0.005236 0.021270 -0.010233 0.000000 0.016451 0.000000
# 3 -0.003104 -0.010233 0.019139 0.000000 -0.011584 0.000000
# 4 0.000000 0.000000 0.000000 0.028383 0.000000 -0.003325
# 5 -0.004267 0.016451 -0.011584 0.000000 0.052457 0.000000
# 6 0.000000 0.000000 0.000000 -0.003325 0.000000 0.043238
#
#
# Mechanical properties :
#
#
# Convention : Reuss Voigt Hill
#
# Bulk Modulus (GPa) = 52.85149 53.13116 52.99133
# Shear Modulus (GPa) = 22.36176 26.68391 24.52283
#
# Velocity S-wave (km/s) = 3.21205 3.50876 3.36368
# Velocity P-wave (km/s) = 6.17583 6.39756 6.28767
#
# Compressibility (1/GPa) = 0.01892094
#
# Stress axis : x y z
#
# Youngs Moduli (GPa) = 63.86752 47.01488 52.24893
#
# Poissons Ratio (x) = 0.24616 0.16218
# Poissons Ratio (y) = 0.33439 0.53466
# Poissons Ratio (z) = 0.19825 0.48110
#
# Static dielectric constant tensor:
#      x y z
#    x 3.746740 0.000000 0.098400 
#    y 0.000000 3.928550 0.000000 
#    z 0.098400 0.000000 3.934760 
# 
# 
# High freq. dielectric constant tensor:
#      x y z
#    x 1.839020 0.000000 0.001590 
#    y 0.000000 1.855150 0.000000 
#    z 0.001590 0.000000 1.857520 
# 
# From -- ./inp_files/241109.got.cif
#   From: 2010.06.25/outbox.cif.g09.slc.cpg/sg15_121_cif.got.tgz:241109.got - 2010.06.28 07:06:18.
