data_PCOD8148143
_publ_section_title
;
Structure prediction by ZEFSAII (Michael W. Deem and Ramdas Pophale) SiO2 
 PCOD8148143
Probable space group: C 2/C
;
_chemical_formula_sum "Si O2"
_cell_formula_units_Z 56
_cell_length_a 17.304177
_cell_length_b 18.055543
_cell_length_c 9.249259
_cell_angle_alpha 90.000000
_cell_angle_beta 102.110730
_cell_angle_gamma 90.000000
_cell_volume 2825.488778
_symmetry_space_group_name_H-M "C 2/C"
_symmetry_group_IT_number 15
_symmetry_cell_setting 'monoclinic'
loop_
_space_group_symop_operation_xyz
x,y,z
-x,y,1/2-z
-x,-y,-z
x,-y,1/2+z
1/2+x,1/2+y,z
1/2-x,1/2+y,1/2-z
1/2-x,1/2-y,-z
1/2+x,1/2-y,1/2+z
loop_
_atom_site_type_symbol
_atom_site_label
_atom_site_fract_x
_atom_site_fract_y
_atom_site_fract_z
Si Si1 0.146452 0.286465 0.609093
Si Si2 0.282575 0.169981 0.662723
Si Si3 0.779282 0.031115 0.997704
Si Si4 0.747098 0.899972 0.787330
Si Si5 0.463247 0.436985 0.578760
Si Si6 0.493796 0.701303 0.588578
Si Si7 0.824900 0.238752 0.425668
O O1 0.201049 0.214747 0.654391
O O2 0.163976 0.309957 0.452806
O O3 0.166754 0.352386 0.732182
O O4 0.054639 0.269230 0.595521
O O5 0.260749 0.084199 0.637565
O O6 0.333673 0.189378 0.824939
O O7 0.753009 0.948592 0.936816
O O8 0.754065 0.046256 0.152172
O O9 0.871412 0.046461 0.036236
O O10 0.815511 0.836830 0.825823
O O11 0.500000 0.441880 0.750000
O O12 0.500000 0.500000 0.500000
O O13 0.485065 0.357175 0.525378
O O14 0.500000 0.664710 0.750000
O O15 0.405503 0.733258 0.545436
O O16 0.750000 0.250000 0.500000
#
# Coordination Sequence:
#
# PCOD8148143 Si02
#       7
#     8   8   8   8   8   8   8
#     4   9  19  39  61  87 122 159 214 253 310 370
#     4   9  19  37  61  87 116 164 209 257 304 371
#     4  11  21  39  62  87 127 171 201 258 317 366
#     4  10  23  39  62  93 123 166 214 251 310 386
#     4  12  25  38  57  90 134 166 203 249 312 391
#     4  12  24  38  62  91 126 166 204 268 316 365
#     4  11  24  39  62  94 125 160 218 260 313 384
#
# _framework density 19.819580999999999
#
# number of rings (size 3 to 8) (size 9 to 14) (size 15 to 20)
#    0.000    1.429    1.429    5.571    4.000    0.000 
#    0.000    0.000    0.000    0.857    7.429    0.000 
#    0.000    0.000    0.000    0.000    0.000    0.000 
#
# Total GULP energy -346994.035847 kJ/mol
# GULP energy per Si atom -12392.644137 kJ/mol
# Density = 1.977447 g / cm^3
# Si number density = 19.819581 Si / 1000 Ang^3
#
#
#
# Elastic Constant Matrix: (Units=GPa)
#
#
# Indices 1 2 3 4 5 6 
#
# 1 105.6763 42.4350 40.0058 0.0000 17.9685 0.0000
# 2 42.4350 77.9822 40.2188 0.0000 6.0507 0.0000
# 3 40.0058 40.2188 128.6431 0.0000 12.3563 0.0000
# 4 0.0000 0.0000 0.0000 50.8818 0.0000 7.9365
# 5 17.9685 6.0507 12.3563 0.0000 20.8715 0.0000
# 6 0.0000 0.0000 0.0000 7.9365 0.0000 26.5743
#
#
#
# Elastic Compliance Matrix: (Units=1/GPa)
#
#
# Indices 1 2 3 4 5 6 
#
# 1 0.014133 -0.006150 -0.001564 0.000000 -0.009458 0.000000
# 2 -0.006150 0.018022 -0.003953 0.000000 0.002411 0.000000
# 3 -0.001564 -0.003953 0.009814 0.000000 -0.003318 0.000000
# 4 0.000000 0.000000 0.000000 0.020614 0.000000 -0.006156
# 5 -0.009458 0.002411 -0.003318 0.000000 0.057321 0.000000
# 6 0.000000 0.000000 0.000000 -0.006156 0.000000 0.039469
#
#
# Mechanical properties :
#
#
# Convention : Reuss Voigt Hill
#
# Bulk Modulus (GPa) = 53.66343 61.95786 57.81065
# Shear Modulus (GPa) = 26.46649 32.30832 29.38740
#
# Velocity S-wave (km/s) = 3.65824 4.04186 3.85482
# Velocity P-wave (km/s) = 6.70659 7.28772 7.00319
#
# Compressibility (1/GPa) = 0.01863466
#
# Stress axis : x y z
#
# Youngs Moduli (GPa) = 70.75788 55.48792 101.89101
#
# Poissons Ratio (x) = 0.34126 0.15934
# Poissons Ratio (y) = 0.43517 0.40281
# Poissons Ratio (z) = 0.11065 0.21936
#
# Static dielectric constant tensor:
#      x y z
#    x 3.416570 0.000000 0.101300 
#    y 0.000000 4.278170 0.000000 
#    z 0.101300 0.000000 3.861520 
# 
# 
# High freq. dielectric constant tensor:
#      x y z
#    x 1.749360 0.000000 -0.002460 
#    y 0.000000 1.764370 0.000000 
#    z -0.002460 0.000000 1.793430 
# 
# From -- ./inp_files/49182.got.cif
#   From: 2010.06.25/outbox.cif.g09.slc.cpg/sg15_25_cif.got.tgz:49182.got - 2010.06.28 07:06:18.
