data_PCOD8148592
_publ_section_title
;
Structure prediction by ZEFSAII (Michael W. Deem and Ramdas Pophale) SiO2 
 PCOD8148592
Probable space group: C 2/C
;
_chemical_formula_sum "Si O2"
_cell_formula_units_Z 56
_cell_length_a 17.076232
_cell_length_b 19.492098
_cell_length_c 9.163177
_cell_angle_alpha 90.000000
_cell_angle_beta 60.049149
_cell_angle_gamma 90.000000
_cell_volume 2642.665621
_symmetry_space_group_name_H-M "C 2/C"
_symmetry_group_IT_number 15
_symmetry_cell_setting 'monoclinic'
loop_
_space_group_symop_operation_xyz
x,y,z
-x,y,1/2-z
-x,-y,-z
x,-y,1/2+z
1/2+x,1/2+y,z
1/2-x,1/2+y,1/2-z
1/2-x,1/2-y,-z
1/2+x,1/2-y,1/2+z
loop_
_atom_site_type_symbol
_atom_site_label
_atom_site_fract_x
_atom_site_fract_y
_atom_site_fract_z
Si Si1 0.320972 0.425735 0.095034
Si Si2 0.001042 0.276871 0.580135
Si Si3 0.170678 0.642087 0.879103
Si Si4 0.503548 0.640658 0.412518
Si Si5 0.191818 0.930811 0.735305
Si Si6 0.937596 0.472988 0.181148
Si Si7 0.148012 0.613853 0.227798
O O1 0.270175 0.357734 0.211449
O O2 0.299578 0.493438 0.207368
O O3 0.428026 0.416539 0.011303
O O4 0.293977 0.435470 0.951254
O O5 0.973305 0.207368 0.528942
O O6 0.931901 0.340668 0.624412
O O7 0.000000 0.259085 0.750000
O O8 0.099613 0.296287 0.419705
O O9 0.133020 0.576820 0.827055
O O10 0.184057 0.642160 0.040739
O O11 0.500000 0.664612 0.250000
O O12 0.599207 0.607253 0.367045
O O13 0.272705 0.885706 0.727000
O O14 0.885407 0.539057 0.291205
O O15 0.000000 0.439102 0.250000
O O16 0.000000 0.500000 0.000000
#
# Coordination Sequence:
#
# PCOD8148592 Si02
#       7
#     8   8   8   8   8   8   8
#     4  11  24  41  65  93 123 158 207 259 312 362
#     4  10  23  42  64  89 126 167 205 245 302 370
#     4  11  23  38  60  94 128 160 201 250 306 368
#     4  10  25  47  63  86 121 165 212 260 304 361
#     4  11  24  41  66  92 123 159 206 259 313 361
#     4  12  21  34  57  87 128 165 196 245 305 364
#     4  11  22  39  59  94 128 160 201 250 304 370
#
# _framework density 21.190725
#
# number of rings (size 3 to 8) (size 9 to 14) (size 15 to 20)
#    0.000    1.143    4.286    1.714    2.000    5.143 
#    0.000    5.714    0.000    0.000    0.000    0.000 
#    0.000    0.000    0.000    0.000    0.000    0.000 
#
# Total GULP energy -346974.264252 kJ/mol
# GULP energy per Si atom -12391.938009 kJ/mol
# Density = 2.114249 g / cm^3
# Si number density = 21.190725 Si / 1000 Ang^3
#
#
#
# Elastic Constant Matrix: (Units=GPa)
#
#
# Indices 1 2 3 4 5 6 
#
# 1 120.6879 24.3755 41.2798 0.0000 4.8917 0.0000
# 2 24.3755 60.4316 23.0647 0.0000 9.2609 0.0000
# 3 41.2798 23.0647 105.4372 0.0000 -0.7598 0.0000
# 4 0.0000 0.0000 0.0000 29.8814 0.0000 2.0359
# 5 4.8917 9.2609 -0.7598 0.0000 26.4966 0.0000
# 6 0.0000 0.0000 0.0000 2.0359 0.0000 17.3457
#
#
#
# Elastic Compliance Matrix: (Units=1/GPa)
#
#
# Indices 1 2 3 4 5 6 
#
# 1 0.009999 -0.002594 -0.003355 0.000000 -0.001036 0.000000
# 2 -0.002594 0.019892 -0.003383 0.000000 -0.006571 0.000000
# 3 -0.003355 -0.003383 0.011553 0.000000 0.002133 0.000000
# 4 0.000000 0.000000 0.000000 0.033735 0.000000 -0.003960
# 5 -0.001036 -0.006571 0.002133 0.000000 0.040290 0.000000
# 6 0.000000 0.000000 0.000000 -0.003960 0.000000 0.058116
#
#
# Mechanical properties :
#
#
# Convention : Reuss Voigt Hill
#
# Bulk Modulus (GPa) = 43.89746 51.55521 47.72634
# Shear Modulus (GPa) = 25.01960 27.93383 26.47672
#
# Velocity S-wave (km/s) = 3.43984 3.63466 3.53859
# Velocity P-wave (km/s) = 6.04459 6.48045 6.26631
#
# Compressibility (1/GPa) = 0.02278036
#
# Stress axis : x y z
#
# Youngs Moduli (GPa) = 100.00778 50.27093 86.55600
#
# Poissons Ratio (x) = 0.13041 0.29038
# Poissons Ratio (y) = 0.25944 0.29284
# Poissons Ratio (z) = 0.33550 0.17008
#
# Static dielectric constant tensor:
#      x y z
#    x 3.996520 0.000000 -0.163530 
#    y 0.000000 3.478480 0.000000 
#    z -0.163530 0.000000 3.973300 
# 
# 
# High freq. dielectric constant tensor:
#      x y z
#    x 1.845930 0.000000 -0.003920 
#    y 0.000000 1.805540 0.000000 
#    z -0.003920 0.000000 1.841190 
# 
# From -- ./inp_files/50112.got.cif
#   From: 2010.06.25/outbox.cif.g09.slc.cpg/sg15_26_cif.got.tgz:50112.got - 2010.06.28 07:06:18.
