data_PCOD8148612
_publ_section_title
;
Structure prediction by ZEFSAII (Michael W. Deem and Ramdas Pophale) SiO2 
 PCOD8148612
Probable space group: C 2/C
;
_chemical_formula_sum "Si O2"
_cell_formula_units_Z 64
_cell_length_a 29.048684
_cell_length_b 11.804220
_cell_length_c 8.614485
_cell_angle_alpha 90.000000
_cell_angle_beta 89.307786
_cell_angle_gamma 90.000000
_cell_volume 2953.665979
_symmetry_space_group_name_H-M "C 2/C"
_symmetry_group_IT_number 15
_symmetry_cell_setting 'monoclinic'
loop_
_space_group_symop_operation_xyz
x,y,z
-x,y,1/2-z
-x,-y,-z
x,-y,1/2+z
1/2+x,1/2+y,z
1/2-x,1/2+y,1/2-z
1/2-x,1/2-y,-z
1/2+x,1/2-y,1/2+z
loop_
_atom_site_type_symbol
_atom_site_label
_atom_site_fract_x
_atom_site_fract_y
_atom_site_fract_z
Si Si1 0.672901 0.150200 0.508700
Si Si2 0.404764 0.970114 0.009513
Si Si3 0.116352 0.159128 0.872058
Si Si4 0.249286 0.943810 0.670425
Si Si5 0.780866 0.355931 0.991482
Si Si6 0.552782 0.146592 0.289967
Si Si7 0.137497 0.718903 0.836030
Si Si8 0.359930 0.559523 0.309693
O O1 0.654286 0.242162 0.385509
O O2 0.726421 0.132199 0.464663
O O3 0.667344 0.198382 0.680573
O O4 0.645838 0.029747 0.496170
O O5 0.404847 0.869389 0.141931
O O6 0.441281 0.066819 0.058148
O O7 0.418235 0.913311 0.846989
O O8 0.069526 0.225135 0.827418
O O9 0.128868 0.068932 0.737988
O O10 0.112588 0.090063 0.034230
O O11 0.273765 0.921952 0.832513
O O12 0.194864 0.924266 0.666477
O O13 0.262604 0.072340 0.637492
O O14 0.750000 0.250000 0.000000
O O15 0.832840 0.310043 0.011632
O O16 0.500000 0.156775 0.250000
O O17 0.123121 0.851569 0.825792
#
# Coordination Sequence:
#
# PCOD8148612 Si02
#       8
#     8   8   8   8   8   8   8   8
#     4  10  23  42  64  98 131 179 227 279 328 384
#     4  11  22  42  73 101 138 166 207 276 354 406
#     4  10  26  43  70  94 137 176 226 272 339 394
#     4  12  25  39  62  91 131 183 240 281 315 374
#     4  12  26  40  57  89 129 176 238 282 326 368
#     4  11  25  47  77 107 131 162 213 279 352 429
#     4  11  23  41  63  93 133 184 222 273 335 388
#     4  11  25  44  62  95 137 189 234 269 316 386
#
# _framework density 21.667988000000001
#
# number of rings (size 3 to 8) (size 9 to 14) (size 15 to 20)
#    0.000    1.000    3.750    1.875    7.000    2.000 
#    0.000    0.625    0.000    0.000    0.000    0.000 
#    0.000    0.000    0.000    0.000    0.000    0.000 
#
# Total GULP energy -396626.492178 kJ/mol
# GULP energy per Si atom -12394.577881 kJ/mol
# Density = 2.161867 g / cm^3
# Si number density = 21.667988 Si / 1000 Ang^3
#
#
#
# Elastic Constant Matrix: (Units=GPa)
#
#
# Indices 1 2 3 4 5 6 
#
# 1 80.4253 38.3207 28.4248 0.0000 12.3722 0.0000
# 2 38.3207 138.9586 44.2384 0.0000 -7.0513 0.0000
# 3 28.4248 44.2384 106.0848 0.0000 7.2791 0.0000
# 4 0.0000 0.0000 0.0000 47.6391 0.0000 2.8230
# 5 12.3722 -7.0513 7.2791 0.0000 23.0209 0.0000
# 6 0.0000 0.0000 0.0000 2.8230 0.0000 20.7049
#
#
#
# Elastic Compliance Matrix: (Units=1/GPa)
#
#
# Indices 1 2 3 4 5 6 
#
# 1 0.016770 -0.004501 -0.001946 0.000000 -0.009777 0.000000
# 2 -0.004501 0.009829 -0.003338 0.000000 0.006485 0.000000
# 3 -0.001946 -0.003338 0.011589 0.000000 -0.003641 0.000000
# 4 0.000000 0.000000 0.000000 0.021162 0.000000 -0.002885
# 5 -0.009777 0.006485 -0.003641 0.000000 0.051831 0.000000
# 6 0.000000 0.000000 0.000000 -0.002885 0.000000 0.048691
#
#
# Mechanical properties :
#
#
# Convention : Reuss Voigt Hill
#
# Bulk Modulus (GPa) = 53.70694 60.82629 57.26662
# Shear Modulus (GPa) = 26.93241 32.57196 29.75219
#
# Velocity S-wave (km/s) = 3.52939 3.88136 3.70955
# Velocity P-wave (km/s) = 6.43808 6.94402 6.69583
#
# Compressibility (1/GPa) = 0.01861957
#
# Stress axis : x y z
#
# Youngs Moduli (GPa) = 59.62914 101.73465 86.28518
#
# Poissons Ratio (x) = 0.45796 0.16787
# Poissons Ratio (y) = 0.26842 0.28801
# Poissons Ratio (z) = 0.11601 0.33957
#
# Static dielectric constant tensor:
#      x y z
#    x 3.406370 0.000000 0.138600 
#    y 0.000000 4.511950 0.000000 
#    z 0.138600 0.000000 3.882250 
# 
# 
# High freq. dielectric constant tensor:
#      x y z
#    x 1.800260 0.000000 0.010850 
#    y 0.000000 1.879170 0.000000 
#    z 0.010850 0.000000 1.856560 
# 
# From -- ./inp_files/69366.got.cif
#   From: 2010.06.25/outbox.cif.g09.slc.cpg/sg15_35_cif.got.tgz:69366.got - 2010.06.28 07:06:18.
