data_PCOD8148607
_publ_section_title
;
Structure prediction by ZEFSAII (Michael W. Deem and Ramdas Pophale) SiO2 
 PCOD8148607
Probable space group: C 2/C
;
_chemical_formula_sum "Si O2"
_cell_formula_units_Z 56
_cell_length_a 19.022414
_cell_length_b 20.145317
_cell_length_c 8.064507
_cell_angle_alpha 90.000000
_cell_angle_beta 112.775347
_cell_angle_gamma 90.000000
_cell_volume 2849.459694
_symmetry_space_group_name_H-M "C 2/C"
_symmetry_group_IT_number 15
_symmetry_cell_setting 'monoclinic'
loop_
_space_group_symop_operation_xyz
x,y,z
-x,y,1/2-z
-x,-y,-z
x,-y,1/2+z
1/2+x,1/2+y,z
1/2-x,1/2+y,1/2-z
1/2-x,1/2-y,-z
1/2+x,1/2-y,1/2+z
loop_
_atom_site_type_symbol
_atom_site_label
_atom_site_fract_x
_atom_site_fract_y
_atom_site_fract_z
Si Si1 0.266746 0.067147 0.798660
Si Si2 0.460280 0.068560 0.498266
Si Si3 0.803510 0.800252 0.857190
Si Si4 0.913087 0.775438 0.656475
Si Si5 0.200349 0.572634 0.303393
Si Si6 0.405260 0.128313 0.759859
Si Si7 0.821848 0.190552 0.750095
O O1 0.320820 0.112184 0.736014
O O2 0.189897 0.110878 0.737123
O O3 0.255672 0.992016 0.727612
O O4 0.305974 0.062606 0.009581
O O5 0.387934 0.082190 0.318291
O O6 0.427464 0.069152 0.654718
O O7 0.527680 0.124833 0.537965
O O8 0.500000 0.000000 0.500000
O O9 0.864170 0.807497 0.762671
O O10 0.747253 0.862792 0.791808
O O11 0.755562 0.732595 0.788267
O O12 0.845402 0.797503 0.077192
O O13 0.907656 0.696964 0.666357
O O14 0.884885 0.791324 0.444135
O O15 0.000000 0.801078 0.750000
#
# Coordination Sequence:
#
# PCOD8148607 Si02
#       7
#     8   8   8   8   8   8   8
#     4  11  23  39  61  92 122 170 217 262 319 383
#     4  11  22  35  55  82 138 173 202 247 296 386
#     4  10  23  42  64  96 129 169 219 274 332 379
#     4  12  24  42  69  93 126 172 218 280 330 382
#     4  11  24  37  61  92 127 172 214 263 321 385
#     4  11  23  38  54  91 129 173 218 244 313 383
#     4  10  23  42  66  94 129 165 220 276 325 391
#
# _framework density 19.652847999999999
#
# number of rings (size 3 to 8) (size 9 to 14) (size 15 to 20)
#    0.000    1.143    4.286    2.143    6.000    1.143 
#    0.000    1.429    0.000    0.857    0.000    0.000 
#    0.000    0.000    0.000    0.000    0.000    0.000 
#
# Total GULP energy -346869.145835 kJ/mol
# GULP energy per Si atom -12388.183780 kJ/mol
# Density = 1.960812 g / cm^3
# Si number density = 19.652848 Si / 1000 Ang^3
#
#
#
# Elastic Constant Matrix: (Units=GPa)
#
#
# Indices 1 2 3 4 5 6 
#
# 1 70.8863 13.7765 39.8684 0.0000 -7.1057 0.0000
# 2 13.7765 100.0617 41.9115 0.0000 2.6889 0.0000
# 3 39.8684 41.9115 138.7251 0.0000 8.3535 0.0000
# 4 0.0000 0.0000 0.0000 31.7211 0.0000 -7.0990
# 5 -7.1057 2.6889 8.3535 0.0000 23.2241 0.0000
# 6 0.0000 0.0000 0.0000 -7.0990 0.0000 40.9452
#
#
#
# Elastic Compliance Matrix: (Units=1/GPa)
#
#
# Indices 1 2 3 4 5 6 
#
# 1 0.018046 -0.000372 -0.005529 0.000000 0.007553 0.000000
# 2 -0.000372 0.011450 -0.003338 0.000000 -0.000239 0.000000
# 3 -0.005529 -0.003338 0.010103 0.000000 -0.004939 0.000000
# 4 0.000000 0.000000 0.000000 0.032797 0.000000 0.005686
# 5 0.007553 -0.000239 -0.004939 0.000000 0.047174 0.000000
# 6 0.000000 0.000000 0.000000 0.005686 0.000000 0.025409
#
#
# Mechanical properties :
#
#
# Convention : Reuss Voigt Hill
#
# Bulk Modulus (GPa) = 47.34414 55.64289 51.49352
# Shear Modulus (GPa) = 29.32610 33.45252 31.38931
#
# Velocity S-wave (km/s) = 3.86710 4.13021 4.00082
# Velocity P-wave (km/s) = 6.63941 7.14977 6.89931
#
# Compressibility (1/GPa) = 0.02112194
#
# Stress axis : x y z
#
# Youngs Moduli (GPa) = 55.41380 87.33975 98.97762
#
# Poissons Ratio (x) = 0.03247 0.54723
# Poissons Ratio (y) = 0.02060 0.33038
# Poissons Ratio (z) = 0.30637 0.29153
#
# Static dielectric constant tensor:
#      x y z
#    x 3.618770 0.000000 -0.082420 
#    y 0.000000 3.712960 0.000000 
#    z -0.082420 0.000000 3.842380 
# 
# 
# High freq. dielectric constant tensor:
#      x y z
#    x 1.747310 0.000000 -0.015130 
#    y 0.000000 1.764280 0.000000 
#    z -0.015130 0.000000 1.774520 
# 
# From -- ./inp_files/51320.got.cif
#   From: 2010.06.25/outbox.cif.g09.slc.cpg/sg15_26_cif.got.tgz:51320.got - 2010.06.28 07:06:18.
