data_PCOD8148601
_publ_section_title
;
Structure prediction by ZEFSAII (Michael W. Deem and Ramdas Pophale) SiO2 
 PCOD8148601
Probable space group: C 2/C
;
_chemical_formula_sum "Si O2"
_cell_formula_units_Z 44
_cell_length_a 12.651432
_cell_length_b 14.309530
_cell_length_c 10.866091
_cell_angle_alpha 90.000000
_cell_angle_beta 104.018767
_cell_angle_gamma 90.000000
_cell_volume 1908.565281
_symmetry_space_group_name_H-M "C 2/C"
_symmetry_group_IT_number 15
_symmetry_cell_setting 'monoclinic'
loop_
_space_group_symop_operation_xyz
x,y,z
-x,y,1/2-z
-x,-y,-z
x,-y,1/2+z
1/2+x,1/2+y,z
1/2-x,1/2+y,1/2-z
1/2-x,1/2-y,-z
1/2+x,1/2-y,1/2+z
loop_
_atom_site_type_symbol
_atom_site_label
_atom_site_fract_x
_atom_site_fract_y
_atom_site_fract_z
Si Si1 0.710111 0.961957 0.420516
Si Si2 0.425769 0.850550 0.942788
Si Si3 0.572662 0.255180 0.658708
Si Si4 0.182788 0.154208 0.981396
Si Si5 0.810462 0.820044 0.286609
Si Si6 0.500000 0.023613 0.250000
O O1 0.679403 0.906166 0.536207
O O2 0.807638 0.907432 0.379594
O O3 0.743018 0.067001 0.461672
O O4 0.607797 0.961608 0.297507
O O5 0.389786 0.757218 0.863916
O O6 0.493185 0.914132 0.869646
O O7 0.507193 0.830691 0.079040
O O8 0.500000 0.296603 0.750000
O O9 0.587841 0.335037 0.557066
O O10 0.689334 0.222366 0.741210
O O11 0.139762 0.143550 0.829347
O O12 0.250000 0.250000 0.000000
#
# Coordination Sequence:
#
# PCOD8148601 Si02
#       6
#     8   8   8   8   8   4
#     4  12  23  40  67 102 131 169 221 273 331 391
#     4  12  24  42  71  98 131 175 221 268 334 391
#     4  11  22  42  68  96 133 173 220 269 327 386
#     4  10  23  42  64  93 136 175 211 265 330 388
#     4  11  23  44  67  99 136 173 218 273 330 390
#     4  12  22  38  66 102 134 166 216 278 330 390
#
# _framework density 23.053967
#
# number of rings (size 3 to 8) (size 9 to 14) (size 15 to 20)
#    0.000    0.727    1.818    8.727    0.000    0.000 
#    0.000    0.909    2.000    0.000    0.000    0.000 
#    0.000    0.000    0.000    0.000    0.000    0.000 
#
# Total GULP energy -272821.595210 kJ/mol
# GULP energy per Si atom -12400.981600 kJ/mol
# Density = 2.300150 g / cm^3
# Si number density = 23.053967 Si / 1000 Ang^3
#
#
#
# Elastic Constant Matrix: (Units=GPa)
#
#
# Indices 1 2 3 4 5 6 
#
# 1 44.4545 -4.7027 24.0156 0.0000 -22.7969 0.0000
# 2 -4.7027 65.6273 11.7826 0.0000 -10.2263 0.0000
# 3 24.0156 11.7826 102.2893 0.0000 -35.6402 0.0000
# 4 0.0000 0.0000 0.0000 20.1631 0.0000 -8.4269
# 5 -22.7969 -10.2263 -35.6402 0.0000 52.7749 0.0000
# 6 0.0000 0.0000 0.0000 -8.4269 0.0000 23.6099
#
#
#
# Elastic Compliance Matrix: (Units=1/GPa)
#
#
# Indices 1 2 3 4 5 6 
#
# 1 0.031071 0.004737 -0.003720 0.000000 0.011828 0.000000
# 2 0.004737 0.016510 -0.001551 0.000000 0.004198 0.000000
# 3 -0.003720 -0.001551 0.013291 0.000000 0.007068 0.000000
# 4 0.000000 0.000000 0.000000 0.058291 0.000000 0.020805
# 5 0.011828 0.004198 0.007068 0.000000 0.029644 0.000000
# 6 0.000000 0.000000 0.000000 0.020805 0.000000 0.049781
#
#
# Mechanical properties :
#
#
# Convention : Reuss Voigt Hill
#
# Bulk Modulus (GPa) = 16.72119 30.50689 23.61404
# Shear Modulus (GPa) = 22.76974 31.39461 27.08218
#
# Velocity S-wave (km/s) = 3.14613 3.69424 3.43115
# Velocity P-wave (km/s) = 4.52398 5.60875 5.09532
#
# Compressibility (1/GPa) = 0.05980434
#
# Stress axis : x y z
#
# Youngs Moduli (GPa) = 32.18456 60.57057 75.23896
#
# Poissons Ratio (x) = -0.28694 0.27985
# Poissons Ratio (y) = -0.15247 0.11672
# Poissons Ratio (z) = 0.11971 0.09396
#
# Static dielectric constant tensor:
#      x y z
#    x 4.139040 0.000000 -0.499690 
#    y 0.000000 4.024960 0.000000 
#    z -0.499690 0.000000 4.579010 
# 
# 
# High freq. dielectric constant tensor:
#      x y z
#    x 1.894860 0.000000 -0.020830 
#    y 0.000000 1.899250 0.000000 
#    z -0.020830 0.000000 1.929860 
# 
# From -- ./inp_files/95086.got.cif
#   From: 2010.06.25/outbox.cif.g09.slc.cpg/sg15_48_cif.got.tgz:95086.got - 2010.06.28 07:06:18.
