data_PCOD8148864
_publ_section_title
;
Structure prediction by ZEFSAII (Michael W. Deem and Ramdas Pophale) SiO2 
 PCOD8148864
Probable space group: C 2/C
;
_chemical_formula_sum "Si O2"
_cell_formula_units_Z 32
_cell_length_a 8.864276
_cell_length_b 11.506363
_cell_length_c 18.045505
_cell_angle_alpha 90.000000
_cell_angle_beta 137.649954
_cell_angle_gamma 90.000000
_cell_volume 1239.909668
_symmetry_space_group_name_H-M "C 2/C"
_symmetry_group_IT_number 15
_symmetry_cell_setting 'monoclinic'
loop_
_space_group_symop_operation_xyz
x,y,z
-x,y,1/2-z
-x,-y,-z
x,-y,1/2+z
1/2+x,1/2+y,z
1/2-x,1/2+y,1/2-z
1/2-x,1/2-y,-z
1/2+x,1/2-y,1/2+z
loop_
_atom_site_type_symbol
_atom_site_label
_atom_site_fract_x
_atom_site_fract_y
_atom_site_fract_z
Si Si1 0.351262 0.335323 0.904372
Si Si2 0.843116 0.298604 0.262413
Si Si3 0.107660 0.115926 0.868028
Si Si4 0.792966 0.542464 0.554705
O O1 0.299341 0.314641 0.797970
O O2 0.278779 0.222791 0.924650
O O3 0.209614 0.445480 0.881560
O O4 0.614728 0.357078 0.009894
O O5 0.599136 0.349295 0.151747
O O6 0.000000 0.267883 0.250000
O O7 0.965986 0.396044 0.358527
O O8 0.000000 0.080843 0.750000
O O9 0.239047 0.010095 0.954034
#
# Coordination Sequence:
#
# PCOD8148864 Si02
#       4
#     8   8   8   8
#     4  10  23  43  65  93 133 175 221 279 332 388
#     4  11  24  42  68 104 138 178 229 274 333 403
#     4  10  24  43  67 102 138 177 226 279 336 397
#     4  11  23  44  72  98 134 182 225 275 339 402
#
# _framework density 25.808330000000002
#
# number of rings (size 3 to 8) (size 9 to 14) (size 15 to 20)
#    0.000    1.500    0.000    4.500    0.000   14.000 
#    0.000    5.000    0.000    4.500    0.000    0.000 
#    0.000    0.000    0.000    0.000    0.000    0.000 
#
# Total GULP energy -198369.859497 kJ/mol
# GULP energy per Si atom -12398.116219 kJ/mol
# Density = 2.574959 g / cm^3
# Si number density = 25.808330 Si / 1000 Ang^3
#
#
#
# Elastic Constant Matrix: (Units=GPa)
#
#
# Indices 1 2 3 4 5 6 
#
# 1 121.3074 39.3834 26.3694 0.0000 -7.4765 0.0000
# 2 39.3834 95.8384 67.4106 0.0000 -1.2018 0.0000
# 3 26.3694 67.4106 73.2718 0.0000 5.9751 0.0000
# 4 0.0000 0.0000 0.0000 33.0045 0.0000 -4.7860
# 5 -7.4765 -1.2018 5.9751 0.0000 46.8902 0.0000
# 6 0.0000 0.0000 0.0000 -4.7860 0.0000 45.7242
#
#
#
# Elastic Compliance Matrix: (Units=1/GPa)
#
#
# Indices 1 2 3 4 5 6 
#
# 1 0.009608 -0.004016 0.000122 0.000000 0.001413 0.000000
# 2 -0.004016 0.032118 -0.028413 0.000000 0.003803 0.000000
# 3 0.000122 -0.028413 0.040220 0.000000 -0.005834 0.000000
# 4 0.000000 0.000000 0.000000 0.030766 0.000000 0.003220
# 5 0.001413 0.003803 -0.005834 0.000000 0.022393 0.000000
# 6 0.000000 0.000000 0.000000 0.003220 0.000000 0.022207
#
#
# Mechanical properties :
#
#
# Convention : Reuss Voigt Hill
#
# Bulk Modulus (GPa) = 57.70135 61.86048 59.78092
# Shear Modulus (GPa) = 21.95841 35.60739 28.78290
#
# Velocity S-wave (km/s) = 2.92006 3.71844 3.34317
# Velocity P-wave (km/s) = 5.81164 6.51590 6.17382
#
# Compressibility (1/GPa) = 0.01733062
#
# Stress axis : x y z
#
# Youngs Moduli (GPa) = 104.07915 31.13559 24.86332
#
# Poissons Ratio (x) = 0.12505 -0.00304
# Poissons Ratio (y) = 0.41803 0.70644
# Poissons Ratio (z) = -0.01271 0.88466
#
# Static dielectric constant tensor:
#      x y z
#    x 4.795720 0.000000 0.111810 
#    y 0.000000 4.481020 0.000000 
#    z 0.111810 0.000000 4.511270 
# 
# 
# High freq. dielectric constant tensor:
#      x y z
#    x 2.048920 0.000000 0.003560 
#    y 0.000000 2.013230 0.000000 
#    z 0.003560 0.000000 2.031190 
# 
# From -- ./inp_files/263402.got.cif
#   From: 2010.06.25/outbox.cif.g09.slc.cpg/sg15_132_cif.got.tgz:263402.got - 2010.06.28 07:06:18.
