data_PCOD8148755
_publ_section_title
;
Structure prediction by ZEFSAII (Michael W. Deem and Ramdas Pophale) SiO2 
 PCOD8148755
Probable space group: C 2/C
;
_chemical_formula_sum "Si O2"
_cell_formula_units_Z 40
_cell_length_a 24.402965
_cell_length_b 9.975983
_cell_length_c 21.390166
_cell_angle_alpha 90.000000
_cell_angle_beta 20.780784
_cell_angle_gamma 90.000000
_cell_volume 1847.515145
_symmetry_space_group_name_H-M "C 2/C"
_symmetry_group_IT_number 15
_symmetry_cell_setting 'monoclinic'
loop_
_space_group_symop_operation_xyz
x,y,z
-x,y,1/2-z
-x,-y,-z
x,-y,1/2+z
1/2+x,1/2+y,z
1/2-x,1/2+y,1/2-z
1/2-x,1/2-y,-z
1/2+x,1/2-y,1/2+z
loop_
_atom_site_type_symbol
_atom_site_label
_atom_site_fract_x
_atom_site_fract_y
_atom_site_fract_z
Si Si1 0.731740 0.975680 0.885574
Si Si2 0.158760 0.731921 0.262426
Si Si3 0.172746 0.892901 0.586595
Si Si4 0.893448 0.128749 0.102556
Si Si5 0.428949 0.066677 0.259407
O O1 0.835793 0.949854 0.834683
O O2 0.780630 0.861393 0.783084
O O3 0.759932 0.124234 0.829285
O O4 0.550932 0.963992 0.097028
O O5 0.278060 0.624470 0.165371
O O6 0.104928 0.690066 0.250525
O O7 0.008988 0.745760 0.468157
O O8 0.250000 0.750000 0.500000
O O9 0.000000 0.880749 0.750000
O O10 0.267872 0.992178 0.440684
O O11 0.000000 0.000000 0.000000
O O12 0.500000 0.118958 0.250000
#
# Coordination Sequence:
#
# PCOD8148755 Si02
#       5
#     8   8   8   8   8
#     4  10  23  44  64  97 139 176 229 280 343 408
#     4  11  22  44  68  99 138 174 234 283 338 412
#     4  11  25  43  68 100 135 178 227 281 347 413
#     4  10  24  42  66  98 138 181 228 280 348 402
#     4  10  23  42  70 100 135 179 226 279 346 406
#
# _framework density 21.650701999999999
#
# number of rings (size 3 to 8) (size 9 to 14) (size 15 to 20)
#    0.000    1.600    2.000    1.800    5.600    8.000 
#    3.600    0.000    0.000    0.000    0.000    0.000 
#    0.000    0.000    0.000    0.000    0.000    0.000 
#
# Total GULP energy -247848.130064 kJ/mol
# GULP energy per Si atom -12392.406503 kJ/mol
# Density = 2.160142 g / cm^3
# Si number density = 21.650702 Si / 1000 Ang^3
#
#
#
# Elastic Constant Matrix: (Units=GPa)
#
#
# Indices 1 2 3 4 5 6 
#
# 1 134.8934 51.3613 89.9210 0.0005 -4.7747 0.0002
# 2 51.3613 68.5129 41.5217 0.0022 -0.2271 -0.0014
# 3 89.9210 41.5217 153.9655 0.0045 -4.8784 -0.0032
# 4 0.0005 0.0022 0.0045 36.8683 -0.0016 6.0314
# 5 -4.7747 -0.2271 -4.8784 -0.0016 46.0963 0.0007
# 6 0.0002 -0.0014 -0.0032 6.0314 0.0007 38.3393
#
#
#
# Elastic Compliance Matrix: (Units=1/GPa)
#
#
# Indices 1 2 3 4 5 6 
#
# 1 0.014405 -0.006828 -0.006547 0.000001 0.000766 -0.000001
# 2 -0.006828 0.020692 -0.001617 -0.000001 -0.000776 0.000001
# 3 -0.006547 -0.001617 0.010769 -0.000001 0.000454 0.000001
# 4 0.000001 -0.000001 -0.000001 0.027840 0.000001 -0.004380
# 5 0.000766 -0.000776 0.000454 0.000001 0.021817 -0.000001
# 6 -0.000001 0.000001 0.000001 -0.004380 -0.000001 0.026772
#
#
# Mechanical properties :
#
#
# Convention : Reuss Voigt Hill
#
# Bulk Modulus (GPa) = 62.96741 80.33110 71.64926
# Shear Modulus (GPa) = 31.73137 35.89864 33.81500
#
# Velocity S-wave (km/s) = 3.83247 4.07637 3.95630
# Velocity P-wave (km/s) = 6.98071 7.70322 7.35084
#
# Compressibility (1/GPa) = 0.01588123
#
# Stress axis : x y z
#
# Youngs Moduli (GPa) = 69.42263 48.32796 92.85834
#
# Poissons Ratio (x) = 0.32999 0.60795
# Poissons Ratio (y) = 0.47403 0.15015
# Poissons Ratio (z) = 0.45451 0.07814
#
# Static dielectric constant tensor:
#      x y z
#    x 4.209090 -0.000010 0.184320 
#    y -0.000010 3.691930 0.000000 
#    z 0.184320 0.000000 4.746210 
# 
# 
# High freq. dielectric constant tensor:
#      x y z
#    x 1.852870 0.000000 0.001970 
#    y 0.000000 1.817090 0.000000 
#    z 0.001970 0.000000 1.879510 
# 
# From -- ./inp_files/255405.got.cif
#   From: 2010.06.25/outbox.cif.g09.slc.cpg/sg15_128_cif.got.tgz:255405.got - 2010.06.28 07:06:18.
