data_PCOD8148457
_publ_section_title
;
Structure prediction by ZEFSAII (Michael W. Deem and Ramdas Pophale) SiO2 
 PCOD8148457
Probable space group: C 2/C
;
_chemical_formula_sum "Si O2"
_cell_formula_units_Z 40
_cell_length_a 21.028250
_cell_length_b 17.542704
_cell_length_c 9.862242
_cell_angle_alpha 90.000000
_cell_angle_beta 32.177199
_cell_angle_gamma 90.000000
_cell_volume 1937.434993
_symmetry_space_group_name_H-M "C 2/C"
_symmetry_group_IT_number 15
_symmetry_cell_setting 'monoclinic'
loop_
_space_group_symop_operation_xyz
x,y,z
-x,y,1/2-z
-x,-y,-z
x,-y,1/2+z
1/2+x,1/2+y,z
1/2-x,1/2+y,1/2-z
1/2-x,1/2-y,-z
1/2+x,1/2-y,1/2+z
loop_
_atom_site_type_symbol
_atom_site_label
_atom_site_fract_x
_atom_site_fract_y
_atom_site_fract_z
Si Si1 0.523806 0.863482 0.862425
Si Si2 0.618907 0.713082 0.601278
Si Si3 0.720404 0.194408 0.673359
Si Si4 0.640273 0.444130 0.483357
Si Si5 0.239172 0.067950 0.505332
O O1 0.500000 0.884361 0.750000
O O2 0.581388 0.779295 0.773778
O O3 0.615625 0.925942 0.755718
O O4 0.392954 0.858799 0.167515
O O5 0.697797 0.752675 0.343400
O O6 0.689526 0.650288 0.555743
O O7 0.500000 0.675555 0.750000
O O8 0.750000 0.250000 0.500000
O O9 0.830350 0.139166 0.510417
O O10 0.707781 0.506767 0.449913
O O11 0.684954 0.454747 0.248744
O O12 0.500000 0.457903 0.750000
#
# Coordination Sequence:
#
# PCOD8148457 Si02
#       5
#     8   8   8   8   8
#     4   9  19  42  67  91 123 170 217 267 319 386
#     4   9  20  39  70  90 124 167 214 264 324 389
#     4  10  23  41  66 101 131 161 219 274 322 387
#     4  12  28  41  65  96 137 169 221 274 326 392
#     4  12  24  44  65  93 130 179 216 261 339 386
#
# _framework density 20.645854
#
# number of rings (size 3 to 8) (size 9 to 14) (size 15 to 20)
#    0.000    2.000    4.000    1.800    8.400    0.800 
#    0.000    0.000    0.000    0.000    0.000    0.000 
#    0.000    0.000    0.000    0.000    0.000    0.000 
#
# Total GULP energy -247903.153820 kJ/mol
# GULP energy per Si atom -12395.157691 kJ/mol
# Density = 2.059886 g / cm^3
# Si number density = 20.645854 Si / 1000 Ang^3
#
#
#
# Elastic Constant Matrix: (Units=GPa)
#
#
# Indices 1 2 3 4 5 6 
#
# 1 121.1560 64.8887 49.9197 0.0000 -15.7912 0.0000
# 2 64.8887 75.6200 25.8653 0.0000 -4.7522 0.0000
# 3 49.9197 25.8653 98.4156 0.0000 -16.0452 0.0000
# 4 0.0000 0.0000 0.0000 15.0998 0.0000 -2.7963
# 5 -15.7912 -4.7522 -16.0452 0.0000 25.9012 0.0000
# 6 0.0000 0.0000 0.0000 -2.7963 0.0000 57.9740
#
#
#
# Elastic Compliance Matrix: (Units=1/GPa)
#
#
# Indices 1 2 3 4 5 6 
#
# 1 0.018303 -0.013723 -0.004748 0.000000 0.005700 0.000000
# 2 -0.013723 0.024822 -0.000205 0.000000 -0.003939 0.000000
# 3 -0.004748 -0.000205 0.013510 0.000000 0.005437 0.000000
# 4 0.000000 0.000000 0.000000 0.066823 0.000000 0.003223
# 5 0.005700 -0.003939 0.005437 0.000000 0.044728 0.000000
# 6 0.000000 0.000000 0.000000 0.003223 0.000000 0.017405
#
#
# Mechanical properties :
#
#
# Convention : Reuss Voigt Hill
#
# Bulk Modulus (GPa) = 51.86115 64.05988 57.96052
# Shear Modulus (GPa) = 21.79875 30.09618 25.94747
#
# Velocity S-wave (km/s) = 3.25290 3.82217 3.54897
# Velocity P-wave (km/s) = 6.26757 7.11154 6.70285
#
# Compressibility (1/GPa) = 0.01928226
#
# Stress axis : x y z
#
# Youngs Moduli (GPa) = 54.63605 40.28606 74.02179
#
# Poissons Ratio (x) = 0.55286 0.35145
# Poissons Ratio (y) = 0.74979 0.01518
# Poissons Ratio (z) = 0.25941 0.00826
#
# Static dielectric constant tensor:
#      x y z
#    x 3.815880 0.000000 -0.120710 
#    y 0.000000 3.703110 0.000000 
#    z -0.120710 0.000000 3.068080 
# 
# 
# High freq. dielectric constant tensor:
#      x y z
#    x 1.813350 0.000000 -0.019310 
#    y 0.000000 1.801810 0.000000 
#    z -0.019310 0.000000 1.803550 
# 
# From -- ./inp_files/49976.got.cif
#   From: 2010.06.25/outbox.cif.g09.slc.cpg/sg15_25_cif.got.tgz:49976.got - 2010.06.28 07:06:18.
