data_PCOD8148929
_publ_section_title
;
Structure prediction by ZEFSAII (Michael W. Deem and Ramdas Pophale) SiO2 
 PCOD8148929
Probable space group: C 2/C
;
_chemical_formula_sum "Si O2"
_cell_formula_units_Z 40
_cell_length_a 21.380822
_cell_length_b 15.521716
_cell_length_c 17.106469
_cell_angle_alpha 90.000000
_cell_angle_beta 161.369141
_cell_angle_gamma 90.000000
_cell_volume 1813.653049
_symmetry_space_group_name_H-M "C 2/C"
_symmetry_group_IT_number 15
_symmetry_cell_setting 'monoclinic'
loop_
_space_group_symop_operation_xyz
x,y,z
-x,y,1/2-z
-x,-y,-z
x,-y,1/2+z
1/2+x,1/2+y,z
1/2-x,1/2+y,1/2-z
1/2-x,1/2-y,-z
1/2+x,1/2-y,1/2+z
loop_
_atom_site_type_symbol
_atom_site_label
_atom_site_fract_x
_atom_site_fract_y
_atom_site_fract_z
Si Si1 0.619679 0.670361 0.966740
Si Si2 0.758911 0.138304 0.632930
Si Si3 0.000000 0.505720 0.250000
Si Si4 0.000000 0.213823 0.250000
Si Si5 0.521803 0.904564 0.995687
Si Si6 0.588933 0.144421 0.743501
O O1 0.500000 0.635835 0.750000
O O2 0.491426 0.651012 0.893227
O O3 0.649406 0.771673 0.990286
O O4 0.827160 0.622498 0.218401
O O5 0.711513 0.105471 0.664561
O O6 0.685500 0.067665 0.483304
O O7 0.978432 0.447695 0.302275
O O8 0.029656 0.275911 0.360038
O O9 0.185406 0.152157 0.463758
O O10 0.554797 0.845881 0.110899
O O11 0.500000 0.000000 0.000000
#
# Coordination Sequence:
#
# PCOD8148929 Si02
#       6
#     8   8   4   4   8   8
#     4  12  26  44  74 103 139 190 231 281 359 425
#     4  12  24  44  71 103 138 183 229 287 350 425
#     4  11  22  44  66  95 140 172 230 293 338 418
#     4   9  22  44  70  93 130 190 238 273 348 422
#     4  12  27  46  67 106 144 178 234 299 344 411
#     4  10  23  43  67  97 133 182 232 290 343 409
#
# _framework density 22.054933999999999
#
# number of rings (size 3 to 8) (size 9 to 14) (size 15 to 20)
#    0.000    0.800    5.000    1.800    2.800    2.400 
#    7.200    0.000    0.000    0.000    0.000    0.000 
#    0.000    0.000    0.000    0.000    0.000    0.000 
#
# Total GULP energy -248017.385514 kJ/mol
# GULP energy per Si atom -12400.869276 kJ/mol
# Density = 2.200474 g / cm^3
# Si number density = 22.054934 Si / 1000 Ang^3
#
#
#
# Elastic Constant Matrix: (Units=GPa)
#
#
# Indices 1 2 3 4 5 6 
#
# 1 131.1021 12.0348 24.0672 0.0009 1.2976 0.0064
# 2 12.0348 98.1326 35.8503 0.0081 -0.6631 0.0078
# 3 24.0672 35.8503 61.9061 0.0021 8.7541 0.0085
# 4 0.0009 0.0081 0.0021 20.4530 0.0063 2.6738
# 5 1.2976 -0.6631 8.7541 0.0063 47.0096 0.0058
# 6 0.0064 0.0078 0.0085 2.6738 0.0058 22.4879
#
#
#
# Elastic Compliance Matrix: (Units=1/GPa)
#
#
# Indices 1 2 3 4 5 6 
#
# 1 0.008225 0.000232 -0.003390 0.000000 0.000407 -0.000001
# 2 0.000232 0.013052 -0.007882 -0.000005 0.001645 -0.000002
# 3 -0.003390 -0.007882 0.022634 0.000003 -0.004233 -0.000004
# 4 0.000000 -0.000005 0.000003 0.049665 -0.000007 -0.005905
# 5 0.000407 0.001645 -0.004233 -0.000007 0.022072 -0.000004
# 6 -0.000001 -0.000002 -0.000004 -0.005905 -0.000004 0.045171
#
#
# Mechanical properties :
#
#
# Convention : Reuss Voigt Hill
#
# Bulk Modulus (GPa) = 45.80201 48.33836 47.07019
# Shear Modulus (GPa) = 26.29169 32.60267 29.44718
#
# Velocity S-wave (km/s) = 3.45643 3.84897 3.65797
# Velocity P-wave (km/s) = 6.06148 6.45892 6.26335
#
# Compressibility (1/GPa) = 0.02183310
#
# Stress axis : x y z
#
# Youngs Moduli (GPa) = 121.58739 76.61479 44.18089
#
# Poissons Ratio (x) = -0.01781 0.14976
# Poissons Ratio (y) = -0.02826 0.34822
# Poissons Ratio (z) = 0.41214 0.60386
#
# Static dielectric constant tensor:
#      x y z
#    x 4.403800 -0.000020 0.157550 
#    y -0.000020 3.992200 -0.000030 
#    z 0.157550 -0.000030 3.737240 
# 
# 
# High freq. dielectric constant tensor:
#      x y z
#    x 1.883670 0.000000 0.012130 
#    y 0.000000 1.875290 0.000000 
#    z 0.012130 0.000000 1.845700 
# 
# From -- ./inp_files/38015.got.cif
#   From: 2010.06.25/outbox.cif.g09.slc.cpg/sg15_20_cif.got.tgz:38015.got - 2010.06.28 07:06:18.
