data_PCOD8148763
_publ_section_title
;
Structure prediction by ZEFSAII (Michael W. Deem and Ramdas Pophale) SiO2 
 PCOD8148763
Probable space group: C 2/C
;
_chemical_formula_sum "Si O2"
_cell_formula_units_Z 32
_cell_length_a 21.442448
_cell_length_b 4.929378
_cell_length_c 10.774349
_cell_angle_alpha 90.000000
_cell_angle_beta 85.670336
_cell_angle_gamma 90.000000
_cell_volume 1135.576397
_symmetry_space_group_name_H-M "C 2/C"
_symmetry_group_IT_number 15
_symmetry_cell_setting 'monoclinic'
loop_
_space_group_symop_operation_xyz
x,y,z
-x,y,1/2-z
-x,-y,-z
x,-y,1/2+z
1/2+x,1/2+y,z
1/2-x,1/2+y,1/2-z
1/2-x,1/2-y,-z
1/2+x,1/2-y,1/2+z
loop_
_atom_site_type_symbol
_atom_site_label
_atom_site_fract_x
_atom_site_fract_y
_atom_site_fract_z
Si Si1 0.599331 0.608407 0.961105
Si Si2 0.508916 0.802488 0.383898
Si Si3 0.829707 0.516502 0.698373
Si Si4 0.305202 0.479132 0.361360
O O1 0.572646 0.375938 0.873192
O O2 0.608844 0.900656 0.886894
O O3 0.551824 0.610953 0.084903
O O4 0.666642 0.517381 0.004855
O O5 0.500000 0.941548 0.250000
O O6 0.500000 0.000000 0.500000
O O7 0.769521 0.483810 0.617439
O O8 0.834943 0.819996 0.752100
O O9 0.821436 0.325136 0.818916
#
# Coordination Sequence:
#
# PCOD8148763 Si02
#       4
#     8   8   8   8
#     4  11  25  44  73 102 147 199 259 310 378 454
#     4  11  28  48  73 109 148 202 262 321 382 444
#     4  10  23  42  70 111 150 194 241 310 381 460
#     4  10  23  42  71 109 153 191 245 305 385 457
#
# _framework density 28.179521999999999
#
# number of rings (size 3 to 8) (size 9 to 14) (size 15 to 20)
#    0.000    1.500    0.000    2.250   10.500    4.000 
#    0.000    7.500    0.000    0.000    0.000    0.000 
#    0.000    0.000    0.000    0.000    0.000    0.000 
#
# Total GULP energy -198343.750281 kJ/mol
# GULP energy per Si atom -12396.484393 kJ/mol
# Density = 2.811538 g / cm^3
# Si number density = 28.179522 Si / 1000 Ang^3
#
#
#
# Elastic Constant Matrix: (Units=GPa)
#
#
# Indices 1 2 3 4 5 6 
#
# 1 113.4508 16.2285 47.1431 0.0000 -2.2147 0.0000
# 2 16.2285 69.8225 9.5164 0.0000 6.3489 0.0000
# 3 47.1431 9.5164 149.9123 0.0000 21.1408 0.0000
# 4 0.0000 0.0000 0.0000 31.0954 0.0000 -7.7351
# 5 -2.2147 6.3489 21.1408 0.0000 48.6798 0.0000
# 6 0.0000 0.0000 0.0000 -7.7351 0.0000 28.4763
#
#
#
# Elastic Compliance Matrix: (Units=1/GPa)
#
#
# Indices 1 2 3 4 5 6 
#
# 1 0.010642 -0.002202 -0.003532 0.000000 0.002305 0.000000
# 2 -0.002202 0.015018 0.000031 0.000000 -0.002072 0.000000
# 3 -0.003532 0.000031 0.008312 0.000000 -0.003774 0.000000
# 4 0.000000 0.000000 0.000000 0.034490 0.000000 0.009368
# 5 0.002305 -0.002072 -0.003774 0.000000 0.022557 0.000000
# 6 0.000000 0.000000 0.000000 0.009368 0.000000 0.037662
#
#
# Mechanical properties :
#
#
# Convention : Reuss Voigt Hill
#
# Bulk Modulus (GPa) = 44.31284 53.21794 48.76539
# Shear Modulus (GPa) = 33.87390 39.00348 36.43869
#
# Velocity S-wave (km/s) = 3.47086 3.72440 3.59986
# Velocity P-wave (km/s) = 5.64108 6.11728 5.88400
#
# Compressibility (1/GPa) = 0.02256682
#
# Stress axis : x y z
#
# Youngs Moduli (GPa) = 93.96754 66.58703 120.31489
#
# Poissons Ratio (x) = 0.14660 0.42494
# Poissons Ratio (y) = 0.20689 -0.00377
# Poissons Ratio (z) = 0.33188 -0.00208
#
# Static dielectric constant tensor:
#      x y z
#    x 7.125960 0.000000 -0.533250 
#    y 0.000000 5.123700 0.000000 
#    z -0.533250 0.000000 4.837260 
# 
# 
# High freq. dielectric constant tensor:
#      x y z
#    x 2.172540 0.000000 -0.007050 
#    y 0.000000 2.139880 0.000000 
#    z -0.007050 0.000000 2.123530 
# 
# From -- ./inp_files/115451.got.cif
#   From: 2010.06.25/outbox.cif.g09.slc.cpg/sg15_58_cif.got.tgz:115451.got - 2010.06.28 07:06:18.
