data_PCOD8148915
_publ_section_title
;
Structure prediction by ZEFSAII (Michael W. Deem and Ramdas Pophale) SiO2 
 PCOD8148915
Probable space group: C 2/C
;
_chemical_formula_sum "Si O2"
_cell_formula_units_Z 52
_cell_length_a 20.818693
_cell_length_b 7.012689
_cell_length_c 18.644551
_cell_angle_alpha 90.000000
_cell_angle_beta 60.728865
_cell_angle_gamma 90.000000
_cell_volume 2374.453461
_symmetry_space_group_name_H-M "C 2/C"
_symmetry_group_IT_number 15
_symmetry_cell_setting 'monoclinic'
loop_
_space_group_symop_operation_xyz
x,y,z
-x,y,1/2-z
-x,-y,-z
x,-y,1/2+z
1/2+x,1/2+y,z
1/2-x,1/2+y,1/2-z
1/2-x,1/2-y,-z
1/2+x,1/2-y,1/2+z
loop_
_atom_site_type_symbol
_atom_site_label
_atom_site_fract_x
_atom_site_fract_y
_atom_site_fract_z
Si Si1 0.272148 0.477671 0.802312
Si Si2 0.500000 0.049469 0.750000
Si Si3 0.792936 0.735267 0.404334
Si Si4 0.729325 0.570798 0.855704
Si Si5 0.435200 0.369788 0.695577
Si Si6 0.052027 0.784354 0.124853
Si Si7 0.073660 0.118660 0.457589
O O1 0.248502 0.651730 0.866356
O O2 0.242585 0.509907 0.738566
O O3 0.233676 0.296842 0.859185
O O4 0.360170 0.476259 0.753697
O O5 0.477091 0.916422 0.828999
O O6 0.440745 0.194907 0.748170
O O7 0.750000 0.750000 0.500000
O O8 0.788648 0.516661 0.379416
O O9 0.873902 0.821447 0.370434
O O10 0.646069 0.513734 0.921189
O O11 0.499478 0.532175 0.666796
O O12 0.429604 0.277033 0.618196
O O13 0.071180 0.748708 0.030126
O O14 0.000000 0.000000 0.500000
#
# Coordination Sequence:
#
# PCOD8148915 Si02
#       7
#     8   4   8   8   8   8   8
#     4  11  23  42  69  96 131 172 223 271 324 400
#     4  12  22  38  66  98 122 168 224 262 318 406
#     4  12  24  41  64  97 136 168 215 279 328 391
#     4  11  22  43  67  97 129 174 222 270 332 395
#     4  10  23  43  67  94 130 172 218 270 328 389
#     4  11  23  43  65  93 133 171 212 275 337 378
#     4   9  21  44  64  89 133 175 212 272 333 385
#
# _framework density 21.899778000000001
#
# number of rings (size 3 to 8) (size 9 to 14) (size 15 to 20)
#    0.000    1.231    3.077    3.231    0.000    1.231 
#    8.308    0.000    0.000    0.000    0.000    0.000 
#    0.000    0.000    0.000    0.000    0.000    0.000 
#
# Total GULP energy -322152.613062 kJ/mol
# GULP energy per Si atom -12390.485118 kJ/mol
# Density = 2.184993 g / cm^3
# Si number density = 21.899778 Si / 1000 Ang^3
#
#
#
# Elastic Constant Matrix: (Units=GPa)
#
#
# Indices 1 2 3 4 5 6 
#
# 1 80.7156 2.7178 15.7192 0.0006 -0.1550 0.0006
# 2 2.7178 67.8808 13.0667 0.0055 -0.9923 0.0028
# 3 15.7192 13.0667 96.3582 0.0006 7.6291 -0.0012
# 4 0.0006 0.0055 0.0006 31.9374 -0.0002 6.0265
# 5 -0.1550 -0.9923 7.6291 -0.0002 36.4675 0.0005
# 6 0.0006 0.0028 -0.0012 6.0265 0.0005 19.7499
#
#
#
# Elastic Compliance Matrix: (Units=1/GPa)
#
#
# Indices 1 2 3 4 5 6 
#
# 1 0.012805 -0.000098 -0.002115 0.000000 0.000494 0.000000
# 2 -0.000098 0.015154 -0.002106 -0.000002 0.000853 -0.000002
# 3 -0.002115 -0.002106 0.011199 0.000000 -0.002409 0.000001
# 4 0.000000 -0.000002 0.000000 0.033224 0.000000 -0.010138
# 5 0.000494 0.000853 -0.002409 0.000000 0.027951 -0.000001
# 6 0.000000 -0.000002 0.000001 -0.010138 -0.000001 0.053727
#
#
# Mechanical properties :
#
#
# Convention : Reuss Voigt Hill
#
# Bulk Modulus (GPa) = 32.76629 34.21800 33.49215
# Shear Modulus (GPa) = 28.92314 31.86104 30.39209
#
# Velocity S-wave (km/s) = 3.63809 3.81840 3.72933
# Velocity P-wave (km/s) = 5.71332 5.92444 5.81984
#
# Compressibility (1/GPa) = 0.03051917
#
# Stress axis : x y z
#
# Youngs Moduli (GPa) = 78.09273 65.99103 89.29122
#
# Poissons Ratio (x) = 0.00649 0.18883
# Poissons Ratio (y) = 0.00768 0.18808
# Poissons Ratio (z) = 0.16515 0.13900
#
# Static dielectric constant tensor:
#      x y z
#    x 3.866370 0.000010 0.574240 
#    y 0.000010 3.999010 0.000000 
#    z 0.574240 0.000000 4.345700 
# 
# 
# High freq. dielectric constant tensor:
#      x y z
#    x 1.873030 0.000000 0.013200 
#    y 0.000000 1.838660 0.000000 
#    z 0.013200 0.000000 1.875910 
# 
# From -- ./inp_files/254293.got.cif
#   From: 2010.06.25/outbox.cif.g09.slc.cpg/sg15_128_cif.got.tgz:254293.got - 2010.06.28 07:06:18.
