data_PCOD8148163
_publ_section_title
;
Structure prediction by ZEFSAII (Michael W. Deem and Ramdas Pophale) SiO2 
 PCOD8148163
Probable space group: C 2/C
;
_chemical_formula_sum "Si O2"
_cell_formula_units_Z 56
_cell_length_a 16.842290
_cell_length_b 20.035688
_cell_length_c 16.131491
_cell_angle_alpha 90.000000
_cell_angle_beta 150.217699
_cell_angle_gamma 90.000000
_cell_volume 2703.828940
_symmetry_space_group_name_H-M "C 2/C"
_symmetry_group_IT_number 15
_symmetry_cell_setting 'monoclinic'
loop_
_space_group_symop_operation_xyz
x,y,z
-x,y,1/2-z
-x,-y,-z
x,-y,1/2+z
1/2+x,1/2+y,z
1/2-x,1/2+y,1/2-z
1/2-x,1/2-y,-z
1/2+x,1/2-y,1/2+z
loop_
_atom_site_type_symbol
_atom_site_label
_atom_site_fract_x
_atom_site_fract_y
_atom_site_fract_z
Si Si1 0.879190 0.457425 0.762022
Si Si2 0.553385 0.251111 0.500842
Si Si3 0.372167 0.444828 0.410658
Si Si4 0.830630 0.845640 0.221942
Si Si5 0.288218 0.841310 0.805820
Si Si6 0.087388 0.908762 0.753495
Si Si7 0.263581 0.040321 0.972331
O O1 0.802696 0.523019 0.734269
O O2 0.845288 0.395298 0.790547
O O3 0.791841 0.447613 0.594822
O O4 0.068508 0.467652 0.924059
O O5 0.666655 0.195069 0.565991
O O6 0.471593 0.290434 0.349407
O O7 0.423340 0.214169 0.440998
O O8 0.631450 0.305853 0.629655
O O9 0.500000 0.500000 0.500000
O O10 0.344019 0.387379 0.318706
O O11 0.443329 0.415030 0.558451
O O12 0.835139 0.895109 0.148255
O O13 0.240144 0.872077 0.851261
O O14 0.000000 0.869420 0.750000
O O15 0.152517 0.977751 0.851220
#
# Coordination Sequence:
#
# PCOD8148163 Si02
#       7
#     8   8   8   8   8   8   8
#     4  11  23  40  61  97 130 161 197 259 318 379
#     4  10  23  39  64  87 119 171 213 248 295 363
#     4  12  21  37  66  93 122 161 208 252 324 372
#     4  11  21  40  61  91 122 165 209 252 297 364
#     4  11  22  43  64  87 124 164 211 250 310 368
#     4  12  24  40  64  96 122 160 204 266 316 377
#     4  11  24  38  62  97 133 156 202 257 316 369
#
# _framework density 20.711369000000001
#
# number of rings (size 3 to 8) (size 9 to 14) (size 15 to 20)
#    0.000    0.857    7.143    0.000    2.000    1.143 
#    0.000    5.000    0.000    0.000    0.000    0.000 
#    0.000    0.000    0.000    0.000    0.000    0.000 
#
# Total GULP energy -347097.460011 kJ/mol
# GULP energy per Si atom -12396.337858 kJ/mol
# Density = 2.066423 g / cm^3
# Si number density = 20.711369 Si / 1000 Ang^3
#
#
#
# Elastic Constant Matrix: (Units=GPa)
#
#
# Indices 1 2 3 4 5 6 
#
# 1 72.8189 4.8520 7.9506 0.0001 1.7301 0.0000
# 2 4.8520 48.5592 16.1389 0.0000 6.0593 0.0000
# 3 7.9506 16.1389 78.7147 0.0006 3.9033 0.0005
# 4 0.0001 0.0000 0.0006 25.5536 0.0004 5.1565
# 5 1.7301 6.0593 3.9033 0.0004 32.7768 0.0003
# 6 0.0000 0.0000 0.0005 5.1565 0.0003 9.0488
#
#
#
# Elastic Compliance Matrix: (Units=1/GPa)
#
#
# Indices 1 2 3 4 5 6 
#
# 1 0.013936 -0.000944 -0.001193 0.000000 -0.000419 0.000000
# 2 -0.000944 0.022586 -0.004357 0.000000 -0.003607 0.000000
# 3 -0.001193 -0.004357 0.013756 0.000000 -0.000770 -0.000001
# 4 0.000000 0.000000 0.000000 0.044218 0.000000 -0.025198
# 5 -0.000419 -0.003607 -0.000770 0.000000 0.031290 -0.000001
# 6 0.000000 0.000000 -0.000001 -0.025198 -0.000001 0.124871
#
#
# Mechanical properties :
#
#
# Convention : Reuss Voigt Hill
#
# Bulk Modulus (GPa) = 26.81643 28.66397 27.74020
# Shear Modulus (GPa) = 18.11111 24.88593 21.49852
#
# Velocity S-wave (km/s) = 2.96032 3.47011 3.22530
# Velocity P-wave (km/s) = 4.96593 5.47041 5.22426
#
# Compressibility (1/GPa) = 0.03729057
#
# Stress axis : x y z
#
# Youngs Moduli (GPa) = 71.75752 44.27578 72.69530
#
# Poissons Ratio (x) = 0.04178 0.08675
# Poissons Ratio (y) = 0.06771 0.31670
# Poissons Ratio (z) = 0.08563 0.19289
#
# Static dielectric constant tensor:
#      x y z
#    x 3.865610 0.000000 0.051960 
#    y 0.000000 4.340320 0.000000 
#    z 0.051960 0.000000 4.150760 
# 
# 
# High freq. dielectric constant tensor:
#      x y z
#    x 1.800350 0.000000 0.011970 
#    y 0.000000 1.808970 0.000000 
#    z 0.011970 0.000000 1.826530 
# 
# From -- ./inp_files/211899.got.cif
#   From: 2010.06.25/outbox.cif.g09.slc.cpg/sg15_106_cif.got.tgz:211899.got - 2010.06.28 07:06:18.
