data_PCOD8148926
_publ_section_title
;
Structure prediction by ZEFSAII (Michael W. Deem and Ramdas Pophale) SiO2 
 PCOD8148926
Probable space group: C 2/C
;
_chemical_formula_sum "Si O2"
_cell_formula_units_Z 60
_cell_length_a 8.347775
_cell_length_b 30.595369
_cell_length_c 17.874762
_cell_angle_alpha 90.000000
_cell_angle_beta 36.322443
_cell_angle_gamma 90.000000
_cell_volume 2704.142422
_symmetry_space_group_name_H-M "C 2/C"
_symmetry_group_IT_number 15
_symmetry_cell_setting 'monoclinic'
loop_
_space_group_symop_operation_xyz
x,y,z
-x,y,1/2-z
-x,-y,-z
x,-y,1/2+z
1/2+x,1/2+y,z
1/2-x,1/2+y,1/2-z
1/2-x,1/2-y,-z
1/2+x,1/2-y,1/2+z
loop_
_atom_site_type_symbol
_atom_site_label
_atom_site_fract_x
_atom_site_fract_y
_atom_site_fract_z
Si Si1 0.045687 0.188426 0.050372
Si Si2 0.376409 0.404397 0.917120
Si Si3 0.868933 0.797365 0.452136
Si Si4 0.500000 0.573712 0.750000
Si Si5 0.026881 0.458946 0.328352
Si Si6 0.419189 0.231785 0.695440
Si Si7 0.938193 0.441092 0.689971
Si Si8 0.909154 0.619465 0.491809
O O1 0.999651 0.139687 0.096000
O O2 0.885913 0.222711 0.163143
O O3 0.362827 0.201274 0.928412
O O4 0.926541 0.187105 0.013231
O O5 0.616186 0.435818 0.798495
O O6 0.210207 0.388971 0.907516
O O7 0.194980 0.430214 0.045477
O O8 0.750000 0.750000 0.500000
O O9 0.645247 0.829447 0.501609
O O10 0.141228 0.795788 0.299514
O O11 0.675250 0.546812 0.745899
O O12 0.698335 0.604997 0.632254
O O13 0.961149 0.509879 0.364239
O O14 0.000000 0.446472 0.250000
O O15 0.500000 0.243382 0.750000
O O16 0.000000 0.426637 0.750000
O O17 0.122220 0.409490 0.570547
#
# Coordination Sequence:
#
# PCOD8148926 Si02
#       8
#     8   8   8   4   8   8   8   8
#     4  10  23  43  67  96 133 183 232 290 346 416
#     4  11  26  44  73 103 143 193 229 298 359 421
#     4  11  26  42  68  98 135 185 229 297 347 415
#     4  10  26  44  74 102 146 188 236 304 348 430
#     4  10  26  44  75 108 144 191 238 295 357 430
#     4   9  22  41  67  92 130 180 234 289 343 413
#     4  11  26  46  74 107 143 185 233 295 356 428
#     4  11  27  45  68 105 140 187 242 289 358 428
#
# _framework density 22.188181
#
# number of rings (size 3 to 8) (size 9 to 14) (size 15 to 20)
#    0.000    1.600    0.000    1.200   18.667    3.200 
#    0.000    0.000    0.000    0.000    0.000    0.000 
#    0.000    0.000    0.000    0.000    0.000    0.000 
#
# Total GULP energy -371999.543695 kJ/mol
# GULP energy per Si atom -12399.984790 kJ/mol
# Density = 2.213768 g / cm^3
# Si number density = 22.188181 Si / 1000 Ang^3
#
#
#
# Elastic Constant Matrix: (Units=GPa)
#
#
# Indices 1 2 3 4 5 6 
#
# 1 110.7143 38.4897 27.7764 0.0000 2.7440 0.0000
# 2 38.4897 124.0035 20.7946 0.0000 12.5611 0.0000
# 3 27.7764 20.7946 55.5032 -0.0001 8.8062 0.0001
# 4 0.0000 0.0000 -0.0001 29.3064 0.0000 -1.7417
# 5 2.7440 12.5611 8.8062 0.0000 29.0991 0.0000
# 6 0.0000 0.0000 0.0001 -1.7417 0.0000 26.7439
#
#
#
# Elastic Compliance Matrix: (Units=1/GPa)
#
#
# Indices 1 2 3 4 5 6 
#
# 1 0.011178 -0.002830 -0.004790 0.000000 0.001617 0.000000
# 2 -0.002830 0.009557 -0.001630 0.000000 -0.003365 0.000000
# 3 -0.004790 -0.001630 0.021893 0.000000 -0.005470 0.000000
# 4 0.000000 0.000000 0.000000 0.034255 0.000000 0.002231
# 5 0.001617 -0.003365 -0.005470 0.000000 0.037321 0.000000
# 6 0.000000 0.000000 0.000000 0.002231 0.000000 0.037537
#
#
# Mechanical properties :
#
#
# Convention : Reuss Voigt Hill
#
# Bulk Modulus (GPa) = 41.44827 51.59361 46.52094
# Shear Modulus (GPa) = 28.04520 30.57391 29.30956
#
# Velocity S-wave (km/s) = 3.55909 3.71608 3.63844
# Velocity P-wave (km/s) = 5.96745 6.45876 6.21796
#
# Compressibility (1/GPa) = 0.02412646
#
# Stress axis : x y z
#
# Youngs Moduli (GPa) = 89.46300 104.63543 45.67696
#
# Poissons Ratio (x) = 0.29612 0.21880
# Poissons Ratio (y) = 0.25318 0.07447
# Poissons Ratio (z) = 0.42854 0.17060
#
# Static dielectric constant tensor:
#      x y z
#    x 4.299710 0.000000 -0.061680 
#    y 0.000000 3.889150 0.000000 
#    z -0.061680 0.000000 4.095170 
# 
# 
# High freq. dielectric constant tensor:
#      x y z
#    x 1.883090 0.000000 0.007160 
#    y 0.000000 1.875810 0.000000 
#    z 0.007160 0.000000 1.880430 
# 
# From -- ./inp_files/194229.got.cif
#   From: 2010.06.25/outbox.cif.g09.slc.cpg/sg15_98_cif.got.tgz:194229.got - 2010.06.28 07:06:18.
