data_PCOD8148126
_publ_section_title
;
Structure prediction by ZEFSAII (Michael W. Deem and Ramdas Pophale) SiO2 
 PCOD8148126
Probable space group: C 2/C
;
_chemical_formula_sum "Si O2"
_cell_formula_units_Z 40
_cell_length_a 10.984488
_cell_length_b 8.641369
_cell_length_c 18.456779
_cell_angle_alpha 90.000000
_cell_angle_beta 95.138435
_cell_angle_gamma 90.000000
_cell_volume 1744.895515
_symmetry_space_group_name_H-M "C 2/C"
_symmetry_group_IT_number 15
_symmetry_cell_setting 'monoclinic'
loop_
_space_group_symop_operation_xyz
x,y,z
-x,y,1/2-z
-x,-y,-z
x,-y,1/2+z
1/2+x,1/2+y,z
1/2-x,1/2+y,1/2-z
1/2-x,1/2-y,-z
1/2+x,1/2-y,1/2+z
loop_
_atom_site_type_symbol
_atom_site_label
_atom_site_fract_x
_atom_site_fract_y
_atom_site_fract_z
Si Si1 0.392640 0.897563 0.527849
Si Si2 0.741604 0.023139 0.840355
Si Si3 0.216211 0.047091 0.427867
Si Si4 0.090668 0.823396 0.048545
Si Si5 0.358164 0.339359 0.724060
O O1 0.448777 0.728102 0.547992
O O2 0.500000 0.000000 0.500000
O O3 0.348195 0.969307 0.600911
O O4 0.282755 0.889919 0.461767
O O5 0.872515 0.072233 0.880821
O O6 0.673141 0.163862 0.797191
O O7 0.770612 0.886812 0.785781
O O8 0.100230 0.085657 0.472726
O O9 0.317254 0.178999 0.446059
O O10 0.172707 0.040763 0.342905
O O11 0.500000 0.354042 0.750000
#
# Coordination Sequence:
#
# PCOD8148126 Si02
#       5
#     8   8   8   8   8
#     4   9  16  33  64  91 113 152 204 255 299 343
#     4  10  23  39  59  90 122 159 204 243 298 368
#     4   8  16  32  55  85 115 151 199 244 291 353
#     4   8  15  32  59  86 114 150 197 251 295 338
#     4  11  24  40  58  86 127 162 194 244 302 360
#
# _framework density 22.924009000000002
#
# number of rings (size 3 to 8) (size 9 to 14) (size 15 to 20)
#    0.000    2.800    0.000    3.600    0.000    8.000 
#    0.000    4.000    0.000   15.600    0.000    0.000 
#    0.000    0.000    0.000    0.000    0.000    0.000 
#
# Total GULP energy -247895.649557 kJ/mol
# GULP energy per Si atom -12394.782478 kJ/mol
# Density = 2.287183 g / cm^3
# Si number density = 22.924009 Si / 1000 Ang^3
#
#
#
# Elastic Constant Matrix: (Units=GPa)
#
#
# Indices 1 2 3 4 5 6 
#
# 1 137.4738 44.6285 81.2901 0.0000 -0.7109 0.0000
# 2 44.6285 61.9743 47.5160 0.0000 -2.1264 0.0000
# 3 81.2901 47.5160 160.0775 0.0000 -8.8088 0.0000
# 4 0.0000 0.0000 0.0000 32.5532 0.0000 -0.4104
# 5 -0.7109 -2.1264 -8.8088 0.0000 35.3479 0.0000
# 6 0.0000 0.0000 0.0000 -0.4104 0.0000 33.3769
#
#
#
# Elastic Compliance Matrix: (Units=1/GPa)
#
#
# Indices 1 2 3 4 5 6 
#
# 1 0.011487 -0.004907 -0.004441 0.000000 -0.001171 0.000000
# 2 -0.004907 0.022989 -0.004321 0.000000 0.000208 0.000000
# 3 -0.004441 -0.004321 0.009901 0.000000 0.002118 0.000000
# 4 0.000000 0.000000 0.000000 0.030724 0.000000 0.000378
# 5 -0.001171 0.000208 0.002118 0.000000 0.028807 0.000000
# 6 0.000000 0.000000 0.000000 0.000378 0.000000 0.029965
#
#
# Mechanical properties :
#
#
# Convention : Reuss Voigt Hill
#
# Bulk Modulus (GPa) = 58.68605 78.48832 68.58718
# Shear Modulus (GPa) = 29.95954 32.66168 31.31061
#
# Velocity S-wave (km/s) = 3.61904 3.77872 3.69974
# Velocity P-wave (km/s) = 6.56651 7.30418 6.94515
#
# Compressibility (1/GPa) = 0.01703983
#
# Stress axis : x y z
#
# Youngs Moduli (GPa) = 87.05301 43.49887 100.99621
#
# Poissons Ratio (x) = 0.21346 0.44855
# Poissons Ratio (y) = 0.42718 0.43636
# Poissons Ratio (z) = 0.38663 0.18794
#
# Static dielectric constant tensor:
#      x y z
#    x 4.455540 0.000000 0.284640 
#    y 0.000000 4.414500 0.000000 
#    z 0.284640 0.000000 4.298410 
# 
# 
# High freq. dielectric constant tensor:
#      x y z
#    x 1.916010 0.000000 0.003840 
#    y 0.000000 1.897640 0.000000 
#    z 0.003840 0.000000 1.904270 
# 
# From -- ./inp_files/195081.got.cif
#   From: 2010.06.25/outbox.cif.g09.slc.cpg/sg15_98_cif.got.tgz:195081.got - 2010.06.28 07:06:18.
