data_PCOD8148638
_publ_section_title
;
Structure prediction by ZEFSAII (Michael W. Deem and Ramdas Pophale) SiO2 
 PCOD8148638
Probable space group: C 2/C
;
_chemical_formula_sum "Si O2"
_cell_formula_units_Z 36
_cell_length_a 16.364402
_cell_length_b 18.995337
_cell_length_c 9.905637
_cell_angle_alpha 90.000000
_cell_angle_beta 146.861096
_cell_angle_gamma 90.000000
_cell_volume 1683.275910
_symmetry_space_group_name_H-M "C 2/C"
_symmetry_group_IT_number 15
_symmetry_cell_setting 'monoclinic'
loop_
_space_group_symop_operation_xyz
x,y,z
-x,y,1/2-z
-x,-y,-z
x,-y,1/2+z
1/2+x,1/2+y,z
1/2-x,1/2+y,1/2-z
1/2-x,1/2-y,-z
1/2+x,1/2-y,1/2+z
loop_
_atom_site_type_symbol
_atom_site_label
_atom_site_fract_x
_atom_site_fract_y
_atom_site_fract_z
Si Si1 0.663260 0.583226 0.005166
Si Si2 0.631616 0.813145 0.822236
Si Si3 0.500000 0.551617 0.250000
Si Si4 0.934758 0.709654 0.802145
Si Si5 0.180362 0.857248 0.813518
O O1 0.500000 0.617800 0.750000
O O2 0.645874 0.498100 0.978102
O O3 0.775049 0.613210 0.043815
O O4 0.725199 0.605788 0.236726
O O5 0.500000 0.811001 0.750000
O O6 0.564066 0.815303 0.579260
O O7 0.750000 0.750000 0.000000
O O8 0.462175 0.600805 0.324639
O O9 0.856973 0.775735 0.767847
O O10 0.818910 0.645149 0.611845
O O11 0.000000 0.736187 0.750000
#
# Coordination Sequence:
#
# PCOD8148638 Si02
#       5
#     8   8   4   8   8
#     4  10  23  42  65  96 133 183 227 272 338 409
#     4  12  25  43  68 103 138 175 224 283 341 405
#     4  10  24  40  70  92 136 184 228 276 340 416
#     4  11  23  39  70  96 132 171 222 290 337 388
#     4  11  21  42  64 100 128 173 235 276 343 403
#
# _framework density 21.386869999999998
#
# number of rings (size 3 to 8) (size 9 to 14) (size 15 to 20)
#    0.667    0.444    3.333    4.000    3.111    1.778 
#    0.000    2.222    0.000    0.000    0.000    0.000 
#    0.000    0.000    0.000    0.000    0.000    0.000 
#
# Total GULP energy -223032.007023 kJ/mol
# GULP energy per Si atom -12390.667057 kJ/mol
# Density = 2.133819 g / cm^3
# Si number density = 21.386870 Si / 1000 Ang^3
#
#
#
# Elastic Constant Matrix: (Units=GPa)
#
#
# Indices 1 2 3 4 5 6 
#
# 1 122.1789 35.2560 22.8139 0.0000 14.0700 0.0000
# 2 35.2560 96.2819 31.3272 0.0000 8.7192 0.0000
# 3 22.8139 31.3272 114.6544 0.0000 1.5501 0.0000
# 4 0.0000 0.0000 0.0000 16.9614 0.0000 14.4414
# 5 14.0700 8.7192 1.5501 0.0000 36.0900 0.0000
# 6 0.0000 0.0000 0.0000 14.4414 0.0000 39.3696
#
#
#
# Elastic Compliance Matrix: (Units=1/GPa)
#
#
# Indices 1 2 3 4 5 6 
#
# 1 0.009560 -0.002881 -0.001075 0.000000 -0.002985 0.000000
# 2 -0.002881 0.012521 -0.002824 0.000000 -0.001781 0.000000
# 3 -0.001075 -0.002824 0.009698 0.000000 0.000685 0.000000
# 4 0.000000 0.000000 0.000000 0.085733 0.000000 -0.031448
# 5 -0.002985 -0.001781 0.000685 0.000000 0.029273 0.000000
# 6 0.000000 0.000000 0.000000 -0.031448 0.000000 0.036936
#
#
# Mechanical properties :
#
#
# Convention : Reuss Voigt Hill
#
# Bulk Modulus (GPa) = 54.88285 56.87881 55.88083
# Shear Modulus (GPa) = 24.58762 34.73208 29.65985
#
# Velocity S-wave (km/s) = 3.39434 4.03425 3.72805
# Velocity P-wave (km/s) = 6.40935 6.95364 6.68703
#
# Compressibility (1/GPa) = 0.01822063
#
# Stress axis : x y z
#
# Youngs Moduli (GPa) = 104.59751 79.86527 103.11345
#
# Poissons Ratio (x) = 0.23007 0.11083
# Poissons Ratio (y) = 0.30132 0.29118
# Poissons Ratio (z) = 0.11243 0.22553
#
# Static dielectric constant tensor:
#      x y z
#    x 3.825160 0.000000 0.135310 
#    y 0.000000 3.672310 0.000000 
#    z 0.135310 0.000000 3.973940 
# 
# 
# High freq. dielectric constant tensor:
#      x y z
#    x 1.840200 0.000000 0.004660 
#    y 0.000000 1.821630 0.000000 
#    z 0.004660 0.000000 1.836460 
# 
# From -- ./inp_files/41310.got.cif
#   From: 2010.06.25/outbox.cif.g09.slc.cpg/sg15_21_cif.got.tgz:41310.got - 2010.06.28 07:06:18.
