data_PCOD8148928
_publ_section_title
;
Structure prediction by ZEFSAII (Michael W. Deem and Ramdas Pophale) SiO2 
 PCOD8148928
Probable space group: C 2/C
;
_chemical_formula_sum "Si O2"
_cell_formula_units_Z 32
_cell_length_a 13.919440
_cell_length_b 10.259551
_cell_length_c 10.668689
_cell_angle_alpha 90.000000
_cell_angle_beta 107.570423
_cell_angle_gamma 90.000000
_cell_volume 1452.486179
_symmetry_space_group_name_H-M "C 2/C"
_symmetry_group_IT_number 15
_symmetry_cell_setting 'monoclinic'
loop_
_space_group_symop_operation_xyz
x,y,z
-x,y,1/2-z
-x,-y,-z
x,-y,1/2+z
1/2+x,1/2+y,z
1/2-x,1/2+y,1/2-z
1/2-x,1/2-y,-z
1/2+x,1/2-y,1/2+z
loop_
_atom_site_type_symbol
_atom_site_label
_atom_site_fract_x
_atom_site_fract_y
_atom_site_fract_z
Si Si1 0.767764 0.295591 0.712776
Si Si2 0.297619 0.432093 0.048532
Si Si3 0.893720 0.802727 0.643390
Si Si4 0.394920 0.926031 0.953653
O O1 0.693384 0.366304 0.584244
O O2 0.819653 0.170237 0.669315
O O3 0.696293 0.255312 0.800926
O O4 0.856577 0.391930 0.797388
O O5 0.376086 0.549516 0.090872
O O6 0.182317 0.476689 0.011534
O O7 0.897247 0.711361 0.524641
O O8 0.000000 0.792507 0.750000
O O9 0.500000 0.000000 0.000000
#
# Coordination Sequence:
#
# PCOD8148928 Si02
#       4
#     8   8   8   8
#     4  10  23  44  67  95 134 171 228 272 338 393
#     4  10  23  43  67  97 132 179 216 281 329 398
#     4  11  25  41  68  96 132 179 219 277 335 390
#     4  11  25  41  70  97 133 178 224 275 332 401
#
# _framework density 22.031192000000001
#
# number of rings (size 3 to 8) (size 9 to 14) (size 15 to 20)
#    0.000    1.500    0.000    4.500   17.500    1.000 
#    9.000    0.000    0.000    0.000    0.000    0.000 
#    0.000    0.000    0.000    0.000    0.000    0.000 
#
# Total GULP energy -198423.242210 kJ/mol
# GULP energy per Si atom -12401.452638 kJ/mol
# Density = 2.198105 g / cm^3
# Si number density = 22.031192 Si / 1000 Ang^3
#
#
#
# Elastic Constant Matrix: (Units=GPa)
#
#
# Indices 1 2 3 4 5 6 
#
# 1 58.2734 6.9561 19.5675 0.0000 15.2910 0.0000
# 2 6.9561 103.3041 46.2666 0.0000 -14.2543 0.0000
# 3 19.5675 46.2666 110.2580 0.0000 -0.8087 0.0000
# 4 0.0000 0.0000 0.0000 26.1672 0.0000 -14.1519
# 5 15.2910 -14.2543 -0.8087 0.0000 30.9405 0.0000
# 6 0.0000 0.0000 0.0000 -14.1519 0.0000 26.9594
#
#
#
# Elastic Compliance Matrix: (Units=1/GPa)
#
#
# Indices 1 2 3 4 5 6 
#
# 1 0.021421 -0.001569 -0.003227 0.000000 -0.011394 0.000000
# 2 -0.001569 0.012997 -0.005126 0.000000 0.006629 0.000000
# 3 -0.003227 -0.005126 0.011790 0.000000 -0.000459 0.000000
# 4 0.000000 0.000000 0.000000 0.053366 0.000000 0.028014
# 5 -0.011394 0.006629 -0.000459 0.000000 0.040993 0.000000
# 6 0.000000 0.000000 0.000000 0.028014 0.000000 0.051798
#
#
# Mechanical properties :
#
#
# Convention : Reuss Voigt Hill
#
# Bulk Modulus (GPa) = 37.93259 46.37956 42.15607
# Shear Modulus (GPa) = 22.62466 30.08310 26.35388
#
# Velocity S-wave (km/s) = 3.20806 3.69925 3.46238
# Velocity P-wave (km/s) = 5.56572 6.27243 5.92961
#
# Compressibility (1/GPa) = 0.02636255
#
# Stress axis : x y z
#
# Youngs Moduli (GPa) = 46.68318 76.94350 84.81709
#
# Poissons Ratio (x) = 0.12076 0.27367
# Poissons Ratio (y) = 0.07327 0.43481
# Poissons Ratio (z) = 0.15063 0.39445
#
# Static dielectric constant tensor:
#      x y z
#    x 3.755060 0.000000 0.064330 
#    y 0.000000 4.234740 0.000000 
#    z 0.064330 0.000000 4.211210 
# 
# 
# High freq. dielectric constant tensor:
#      x y z
#    x 1.842720 0.000000 0.004760 
#    y 0.000000 1.880140 0.000000 
#    z 0.004760 0.000000 1.885130 
# 
# From -- ./inp_files/93569.got.cif
#   From: 2010.06.25/outbox.cif.g09.slc.cpg/sg15_47_cif.got.tgz:93569.got - 2010.06.28 07:06:18.
