data_PCOD8148540
_publ_section_title
;
Structure prediction by ZEFSAII (Michael W. Deem and Ramdas Pophale) SiO2 
 PCOD8148540
Probable space group: C 2/C
;
_chemical_formula_sum "Si O2"
_cell_formula_units_Z 40
_cell_length_a 9.006963
_cell_length_b 16.593997
_cell_length_c 15.728890
_cell_angle_alpha 90.000000
_cell_angle_beta 45.090110
_cell_angle_gamma 90.000000
_cell_volume 1664.923994
_symmetry_space_group_name_H-M "C 2/C"
_symmetry_group_IT_number 15
_symmetry_cell_setting 'monoclinic'
loop_
_space_group_symop_operation_xyz
x,y,z
-x,y,1/2-z
-x,-y,-z
x,-y,1/2+z
1/2+x,1/2+y,z
1/2-x,1/2+y,1/2-z
1/2-x,1/2-y,-z
1/2+x,1/2-y,1/2+z
loop_
_atom_site_type_symbol
_atom_site_label
_atom_site_fract_x
_atom_site_fract_y
_atom_site_fract_z
Si Si1 0.193765 0.171283 0.736456
Si Si2 0.091534 0.312184 0.882088
Si Si3 0.460948 0.349861 0.028161
Si Si4 0.649772 0.055189 0.114720
Si Si5 0.856608 0.394201 0.478942
O O1 0.237025 0.263593 0.754704
O O2 0.129618 0.117824 0.844925
O O3 0.399682 0.130823 0.615328
O O4 0.000000 0.170330 0.750000
O O5 0.963328 0.243445 0.989205
O O6 0.926152 0.363154 0.897035
O O7 0.222841 0.370908 0.893284
O O8 0.273559 0.343664 0.036399
O O9 0.632326 0.416077 0.930120
O O10 0.500000 0.022337 0.250000
O O11 0.671471 0.988291 0.032327
#
# Coordination Sequence:
#
# PCOD8148540 Si02
#       5
#     8   8   8   8   8
#     4  10  23  41  72  97 137 181 226 273 337 405
#     4  10  25  41  71  95 135 178 229 269 331 411
#     4  10  24  43  70  99 136 178 221 281 333 406
#     4  12  25  44  69 102 137 179 224 279 342 402
#     4  12  24  46  69 103 138 175 223 288 342 390
#
# _framework density 24.025120999999999
#
# number of rings (size 3 to 8) (size 9 to 14) (size 15 to 20)
#    1.200    0.000    0.000    6.000    5.600    0.000 
#    3.600    0.000    0.000    0.000    0.000    0.000 
#    0.000    0.000    0.000    0.000    0.000    0.000 
#
# Total GULP energy -247765.280993 kJ/mol
# GULP energy per Si atom -12388.264050 kJ/mol
# Density = 2.397044 g / cm^3
# Si number density = 24.025121 Si / 1000 Ang^3
#
#
#
# Elastic Constant Matrix: (Units=GPa)
#
#
# Indices 1 2 3 4 5 6 
#
# 1 145.2945 20.5130 24.5561 0.0005 0.2491 -0.0009
# 2 20.5130 113.6930 5.8702 0.0001 -15.6900 -0.0004
# 3 24.5561 5.8702 23.2152 -0.0002 0.1638 0.0001
# 4 0.0005 0.0001 -0.0002 22.3158 0.0006 9.6630
# 5 0.2491 -15.6900 0.1638 0.0006 26.2085 -0.0005
# 6 -0.0009 -0.0004 0.0001 9.6630 -0.0005 43.8041
#
#
#
# Elastic Compliance Matrix: (Units=1/GPa)
#
#
# Indices 1 2 3 4 5 6 
#
# 1 0.008524 -0.001190 -0.008710 0.000000 -0.000739 0.000000
# 2 -0.001190 0.009897 -0.001286 0.000000 0.005944 0.000000
# 3 -0.008710 -0.001286 0.052621 0.000001 -0.001016 -0.000001
# 4 0.000000 0.000000 0.000001 0.049544 -0.000002 -0.010929
# 5 -0.000739 0.005944 -0.001016 -0.000002 0.041728 0.000001
# 6 0.000000 0.000000 -0.000001 -0.010929 0.000001 0.025240
#
#
# Mechanical properties :
#
#
# Convention : Reuss Voigt Hill
#
# Bulk Modulus (GPa) = 20.54662 42.67569 31.61116
# Shear Modulus (GPa) = 22.10945 33.88326 27.99636
#
# Velocity S-wave (km/s) = 3.03688 3.75951 3.41735
# Velocity P-wave (km/s) = 4.56810 6.05365 5.36257
#
# Compressibility (1/GPa) = 0.04866981
#
# Stress axis : x y z
#
# Youngs Moduli (GPa) = 117.31633 101.03999 19.00398
#
# Poissons Ratio (x) = 0.12026 0.16553
# Poissons Ratio (y) = 0.13963 0.02443
# Poissons Ratio (z) = 1.02184 0.12990
#
# Static dielectric constant tensor:
#      x y z
#    x 4.290160 0.000000 0.334400 
#    y 0.000000 4.204450 0.000000 
#    z 0.334400 0.000000 4.170980 
# 
# 
# High freq. dielectric constant tensor:
#      x y z
#    x 1.962710 0.000000 0.021880 
#    y 0.000000 1.953730 0.000000 
#    z 0.021880 0.000000 1.925340 
# 
# From -- ./inp_files/190175.got.cif
#   From: 2010.06.25/outbox.cif.g09.slc.cpg/sg15_96_cif.got.tgz:190175.got - 2010.06.28 07:06:18.
