data_PCOD8148813
_publ_section_title
;
Structure prediction by ZEFSAII (Michael W. Deem and Ramdas Pophale) SiO2 
 PCOD8148813
Probable space group: C 2/C
;
_chemical_formula_sum "Si O2"
_cell_formula_units_Z 56
_cell_length_a 5.367465
_cell_length_b 26.037133
_cell_length_c 20.048472
_cell_angle_alpha 90.000000
_cell_angle_beta 108.741403
_cell_angle_gamma 90.000000
_cell_volume 2653.283834
_symmetry_space_group_name_H-M "C 2/C"
_symmetry_group_IT_number 15
_symmetry_cell_setting 'monoclinic'
loop_
_space_group_symop_operation_xyz
x,y,z
-x,y,1/2-z
-x,-y,-z
x,-y,1/2+z
1/2+x,1/2+y,z
1/2-x,1/2+y,1/2-z
1/2-x,1/2-y,-z
1/2+x,1/2-y,1/2+z
loop_
_atom_site_type_symbol
_atom_site_label
_atom_site_fract_x
_atom_site_fract_y
_atom_site_fract_z
Si Si1 0.645414 0.744485 0.179820
Si Si2 0.500000 0.837804 0.250000
Si Si3 0.869559 0.297531 0.831576
Si Si4 0.000000 0.488947 0.750000
Si Si5 0.765712 0.908776 0.680586
Si Si6 0.617258 0.577624 0.687838
Si Si7 0.709702 0.561237 0.966951
Si Si8 0.203786 0.940361 0.961391
O O1 0.649253 0.802977 0.207446
O O2 0.347089 0.726683 0.135545
O O3 0.751564 0.708182 0.247662
O O4 0.852766 0.734068 0.137217
O O5 0.696128 0.873612 0.309161
O O6 0.912078 0.358192 0.847744
O O7 0.906234 0.454583 0.803683
O O8 0.773255 0.523878 0.697987
O O9 0.888247 0.928014 0.621574
O O10 0.000000 0.894123 0.750000
O O11 0.500000 0.584445 0.750000
O O12 0.386588 0.578007 0.614222
O O13 0.718446 0.500515 0.974957
O O14 0.509364 0.583773 0.005718
O O15 0.004180 0.583632 0.001745
#
# Coordination Sequence:
#
# PCOD8148813 Si02
#       8
#     8   4   8   4   8   8   8   8
#     4   9  17  35  51  88 116 149 175 252 306 368
#     4   9  22  34  64  88 120 148 206 247 336 350
#     4   9  18  31  54  80 123 142 184 235 308 347
#     4  11  24  34  54  88 130 154 200 263 312 342
#     4  12  23  36  59  93 124 164 204 253 306 372
#     4  11  24  39  59  90 119 162 206 269 305 359
#     4  10  23  43  56  81 122 166 219 253 292 364
#     4  10  24  38  62  80 118 177 210 247 300 362
#
# _framework density 21.105920000000001
#
# number of rings (size 3 to 8) (size 9 to 14) (size 15 to 20)
#    0.000    2.000    1.429    3.000   16.000    0.000 
#    0.000    0.000    0.000    0.000    0.000   14.000 
#    0.000    0.000    0.000    0.000    0.000    0.000 
#
# Total GULP energy -347062.990627 kJ/mol
# GULP energy per Si atom -12395.106808 kJ/mol
# Density = 2.105788 g / cm^3
# Si number density = 21.105920 Si / 1000 Ang^3
#
#
#
# Elastic Constant Matrix: (Units=GPa)
#
#
# Indices 1 2 3 4 5 6 
#
# 1 179.8018 42.6659 47.8262 0.0000 -4.8872 0.0000
# 2 42.6659 98.8208 7.9444 0.0000 -0.0153 0.0000
# 3 47.8262 7.9444 98.9629 0.0000 -8.0169 0.0000
# 4 0.0000 0.0000 0.0000 -18.9856 0.0000 7.9300
# 5 -4.8872 -0.0153 -8.0169 0.0000 29.9128 0.0000
# 6 0.0000 0.0000 0.0000 7.9300 0.0000 22.8224
#
#
#
# Elastic Compliance Matrix: (Units=1/GPa)
#
#
# Indices 1 2 3 4 5 6 
#
# 1 0.007078 -0.002801 -0.003171 0.000000 0.000305 0.000000
# 2 -0.002801 0.011295 0.000419 0.000000 -0.000339 0.000000
# 3 -0.003171 0.000419 0.011818 0.000000 0.002650 0.000000
# 4 0.000000 0.000000 0.000000 -0.045996 0.000000 0.015982
# 5 0.000305 -0.000339 0.002650 0.000000 0.034190 0.000000
# 6 0.000000 0.000000 0.000000 0.015982 0.000000 0.038263
#
#
# Mechanical properties :
#
#
# Convention : Reuss Voigt Hill
#
# Bulk Modulus (GPa) = 52.39453 63.82872 58.11162
# Shear Modulus (GPa) = 67.46150 25.35985 46.41067
#
# Velocity S-wave (km/s) = 5.65974 3.47010 4.69437
# Velocity P-wave (km/s) = 8.22124 6.80905 7.54824
#
# Compressibility (1/GPa) = 0.01908596
#
# Stress axis : x y z
#
# Youngs Moduli (GPa) = 141.28024 88.53561 84.61470
#
# Poissons Ratio (x) = 0.24799 0.26832
# Poissons Ratio (y) = 0.39573 -0.03549
# Poissons Ratio (z) = 0.44801 -0.03714
#
# Static dielectric constant tensor:
#      x y z
#    x 5.196050 0.000000 0.000680 
#    y 0.000000 3.667030 0.000000 
#    z 0.000680 0.000000 3.259630 
# 
# 
# High freq. dielectric constant tensor:
#      x y z
#    x 1.851730 0.000000 0.000430 
#    y 0.000000 1.811440 0.000000 
#    z 0.000430 0.000000 1.769870 
# 
# From -- ./inp_files/228196.got.cif
#   From: 2010.06.25/outbox.cif.g09.slc.cpg/sg15_115_cif.got.tgz:228196.got - 2010.06.28 07:06:18.
