data_PCOD8148703
_publ_section_title
;
Structure prediction by ZEFSAII (Michael W. Deem and Ramdas Pophale) SiO2 
 PCOD8148703
Probable space group: C 2/C
;
_chemical_formula_sum "Si O2"
_cell_formula_units_Z 48
_cell_length_a 25.463714
_cell_length_b 9.135792
_cell_length_c 10.026884
_cell_angle_alpha 90.000000
_cell_angle_beta 80.595198
_cell_angle_gamma 90.000000
_cell_volume 2301.212747
_symmetry_space_group_name_H-M "C 2/C"
_symmetry_group_IT_number 15
_symmetry_cell_setting 'monoclinic'
loop_
_space_group_symop_operation_xyz
x,y,z
-x,y,1/2-z
-x,-y,-z
x,-y,1/2+z
1/2+x,1/2+y,z
1/2-x,1/2+y,1/2-z
1/2-x,1/2-y,-z
1/2+x,1/2-y,1/2+z
loop_
_atom_site_type_symbol
_atom_site_label
_atom_site_fract_x
_atom_site_fract_y
_atom_site_fract_z
Si Si1 0.688764 0.212899 0.510164
Si Si2 0.931984 0.346620 0.129717
Si Si3 0.877817 0.784358 0.196785
Si Si4 0.971045 0.854580 0.960853
Si Si5 0.889395 0.473810 0.883229
Si Si6 0.383962 0.398395 0.787176
O O1 0.750000 0.250000 0.500000
O O2 0.672096 0.217135 0.362309
O O3 0.660363 0.347822 0.592401
O O4 0.667733 0.058248 0.580517
O O5 0.928972 0.432327 0.272655
O O6 0.890311 0.210348 0.157559
O O7 0.990143 0.281415 0.081672
O O8 0.915254 0.457292 0.018909
O O9 0.883608 0.687633 0.326520
O O10 0.863864 0.946748 0.246606
O O11 0.931123 0.788242 0.086702
O O12 0.941443 0.901298 0.836973
O O13 0.000000 0.000000 0.000000
#
# Coordination Sequence:
#
# PCOD8148703 Si02
#       6
#     8   8   8   8   8   8
#     4  10  24  47  67  93 133 173 224 288 349 399
#     4  11  23  43  66  94 144 176 219 273 331 397
#     4  11  23  42  67  98 132 175 231 276 327 403
#     4  11  22  40  66  97 136 183 225 264 325 399
#     4  11  24  45  66 100 137 173 226 280 336 401
#     4  10  23  42  67  98 131 178 227 278 324 404
#
# _framework density 20.858566
#
# number of rings (size 3 to 8) (size 9 to 14) (size 15 to 20)
#    0.000    1.333    3.333    1.500    2.333    4.000 
#    9.000    0.833    0.000    0.000    0.000    0.000 
#    0.000    0.000    0.000    0.000    0.000    0.000 
#
# Total GULP energy -297556.845282 kJ/mol
# GULP energy per Si atom -12398.201887 kJ/mol
# Density = 2.081109 g / cm^3
# Si number density = 20.858566 Si / 1000 Ang^3
#
#
#
# Elastic Constant Matrix: (Units=GPa)
#
#
# Indices 1 2 3 4 5 6 
#
# 1 119.8096 30.3844 35.4717 0.0000 -1.8339 0.0000
# 2 30.3844 128.4493 41.1916 0.0000 0.1867 0.0000
# 3 35.4717 41.1916 97.8362 0.0000 6.7249 0.0000
# 4 0.0000 0.0000 0.0000 41.7316 0.0000 4.1099
# 5 -1.8339 0.1867 6.7249 0.0000 17.3804 0.0000
# 6 0.0000 0.0000 0.0000 4.1099 0.0000 26.4566
#
#
#
# Elastic Compliance Matrix: (Units=1/GPa)
#
#
# Indices 1 2 3 4 5 6 
#
# 1 0.009625 -0.001285 -0.003102 0.000000 0.002230 0.000000
# 2 -0.001285 0.009206 -0.003486 0.000000 0.001114 0.000000
# 3 -0.003102 -0.003486 0.013184 0.000000 -0.005391 0.000000
# 4 0.000000 0.000000 0.000000 0.024335 0.000000 -0.003780
# 5 0.002230 0.001114 -0.005391 0.000000 0.059845 0.000000
# 6 0.000000 0.000000 0.000000 -0.003780 0.000000 0.038385
#
#
# Mechanical properties :
#
#
# Convention : Reuss Voigt Hill
#
# Bulk Modulus (GPa) = 61.47100 62.24339 61.85720
# Shear Modulus (GPa) = 28.44957 33.05021 30.74989
#
# Velocity S-wave (km/s) = 3.69715 3.98489 3.84371
# Velocity P-wave (km/s) = 6.91083 7.14688 7.02984
#
# Compressibility (1/GPa) = 0.01626783
#
# Stress axis : x y z
#
# Youngs Moduli (GPa) = 103.89614 108.62921 75.84853
#
# Poissons Ratio (x) = 0.13963 0.23526
# Poissons Ratio (y) = 0.13354 0.26444
# Poissons Ratio (z) = 0.32226 0.37872
#
# Static dielectric constant tensor:
#      x y z
#    x 3.602990 0.000000 0.140540 
#    y 0.000000 3.967960 0.000000 
#    z 0.140540 0.000000 4.108360 
# 
# 
# High freq. dielectric constant tensor:
#      x y z
#    x 1.780300 0.000000 -0.000970 
#    y 0.000000 1.835920 0.000000 
#    z -0.000970 0.000000 1.830140 
# 
# From -- ./inp_files/116300.got.cif
#   From: 2010.06.25/outbox.cif.g09.slc.cpg/sg15_59_cif.got.tgz:116300.got - 2010.06.28 07:06:18.
