data_PCOD8148405
_publ_section_title
;
Structure prediction by ZEFSAII (Michael W. Deem and Ramdas Pophale) SiO2 
 PCOD8148405
Probable space group: C 2/C
;
_chemical_formula_sum "Si O2"
_cell_formula_units_Z 64
_cell_length_a 11.793609
_cell_length_b 14.111335
_cell_length_c 28.409985
_cell_angle_alpha 90.000000
_cell_angle_beta 40.109517
_cell_angle_gamma 90.000000
_cell_volume 3046.075861
_symmetry_space_group_name_H-M "C 2/C"
_symmetry_group_IT_number 15
_symmetry_cell_setting 'monoclinic'
loop_
_space_group_symop_operation_xyz
x,y,z
-x,y,1/2-z
-x,-y,-z
x,-y,1/2+z
1/2+x,1/2+y,z
1/2-x,1/2+y,1/2-z
1/2-x,1/2-y,-z
1/2+x,1/2-y,1/2+z
loop_
_atom_site_type_symbol
_atom_site_label
_atom_site_fract_x
_atom_site_fract_y
_atom_site_fract_z
Si Si1 0.283071 0.243002 0.149408
Si Si2 0.123339 0.209630 0.579697
Si Si3 0.389462 0.142263 0.331344
Si Si4 0.643183 0.987726 0.286104
Si Si5 0.464726 0.771930 0.190860
Si Si6 0.590208 0.394634 0.860391
Si Si7 0.388550 0.040839 0.101918
Si Si8 0.241461 0.996357 0.053644
O O1 0.430661 0.317939 0.119295
O O2 0.144733 0.217904 0.234221
O O3 0.410639 0.152900 0.101432
O O4 0.173219 0.275321 0.138204
O O5 0.250000 0.250000 0.500000
O O6 0.105866 0.277724 0.630503
O O7 0.201876 0.112862 0.572677
O O8 0.500000 0.174893 0.250000
O O9 0.189775 0.120312 0.378357
O O10 0.467391 0.045888 0.328619
O O11 0.611295 0.877771 0.285668
O O12 0.804682 0.031859 0.205992
O O13 0.687835 0.993455 0.326982
O O14 0.435837 0.710730 0.153105
O O15 0.400909 0.442274 0.930089
O O16 0.246656 0.032511 0.105471
O O17 0.572520 0.989727 0.031489
#
# Coordination Sequence:
#
# PCOD8148405 Si02
#       8
#     8   8   8   8   8   8   8   8
#     4  11  21  42  64  90 126 165 219 267 308 391
#     4  12  23  44  68  94 128 177 217 261 326 397
#     4  10  23  41  63  94 136 167 211 277 327 381
#     4  11  23  42  65  91 131 173 204 271 329 378
#     4  11  24  38  67  96 124 168 219 266 322 384
#     4  11  23  41  62  98 131 162 219 267 321 395
#     4  11  22  46  63  89 132 169 217 269 326 375
#     4  11  25  40  66  94 128 170 216 272 319 387
#
# _framework density 21.010638
#
# number of rings (size 3 to 8) (size 9 to 14) (size 15 to 20)
#    0.000    1.000    5.000    1.500    8.750    0.500 
#    2.250    1.875    0.000    0.000    0.000    0.000 
#    0.000    0.000    0.000    0.000    0.000    0.000 
#
# Total GULP energy -396713.027297 kJ/mol
# GULP energy per Si atom -12397.282103 kJ/mol
# Density = 2.096282 g / cm^3
# Si number density = 21.010638 Si / 1000 Ang^3
#
#
#
# Elastic Constant Matrix: (Units=GPa)
#
#
# Indices 1 2 3 4 5 6 
#
# 1 100.2051 12.0126 26.2643 -0.0001 -12.6522 0.0000
# 2 12.0126 98.8799 13.6816 -0.0001 3.1713 0.0001
# 3 26.2643 13.6816 50.9970 -0.0005 -2.7493 0.0003
# 4 -0.0001 -0.0001 -0.0005 27.1527 0.0001 -5.2221
# 5 -12.6522 3.1713 -2.7493 0.0001 37.3533 -0.0001
# 6 0.0000 0.0001 0.0003 -5.2221 -0.0001 26.1465
#
#
#
# Elastic Compliance Matrix: (Units=1/GPa)
#
#
# Indices 1 2 3 4 5 6 
#
# 1 0.012065 -0.000782 -0.005803 0.000000 0.003726 0.000000
# 2 -0.000782 0.010599 -0.002514 0.000000 -0.001350 0.000000
# 3 -0.005803 -0.002514 0.023270 0.000000 -0.000039 0.000000
# 4 0.000000 0.000000 0.000000 0.038300 0.000000 0.007649
# 5 0.003726 -0.001350 -0.000039 0.000000 0.028145 0.000000
# 6 0.000000 0.000000 0.000000 0.007649 0.000000 0.039774
#
#
# Mechanical properties :
#
#
# Convention : Reuss Voigt Hill
#
# Bulk Modulus (GPa) = 36.05337 39.33323 37.69330
# Shear Modulus (GPa) = 27.84038 31.33873 29.58956
#
# Velocity S-wave (km/s) = 3.64409 3.86627 3.75682
# Velocity P-wave (km/s) = 5.90785 6.22029 6.06608
#
# Compressibility (1/GPa) = 0.02773665
#
# Stress axis : x y z
#
# Youngs Moduli (GPa) = 82.88653 94.34497 42.97431
#
# Poissons Ratio (x) = 0.07381 0.24937
# Poissons Ratio (y) = 0.06484 0.10802
# Poissons Ratio (z) = 0.48097 0.23714
#
# Static dielectric constant tensor:
#      x y z
#    x 4.109790 0.000000 -0.128810 
#    y 0.000000 3.875100 0.000000 
#    z -0.128810 0.000000 3.747820 
# 
# 
# High freq. dielectric constant tensor:
#      x y z
#    x 1.839490 0.000000 -0.012590 
#    y 0.000000 1.819840 0.000000 
#    z -0.012590 0.000000 1.806670 
# 
# From -- ./inp_files/311171.got.cif
#   From: 2010.06.25/outbox.cif.g09.slc.cpg/sg15_156_cif.got.tgz:311171.got - 2010.06.28 07:06:18.
