data_PCOD8148167
_publ_section_title
;
Structure prediction by ZEFSAII (Michael W. Deem and Ramdas Pophale) SiO2 
 PCOD8148167
Probable space group: C 2/C
;
_chemical_formula_sum "Si O2"
_cell_formula_units_Z 32
_cell_length_a 23.387648
_cell_length_b 7.329152
_cell_length_c 9.153986
_cell_angle_alpha 90.000000
_cell_angle_beta 136.816663
_cell_angle_gamma 90.000000
_cell_volume 1073.789917
_symmetry_space_group_name_H-M "C 2/C"
_symmetry_group_IT_number 15
_symmetry_cell_setting 'monoclinic'
loop_
_space_group_symop_operation_xyz
x,y,z
-x,y,1/2-z
-x,-y,-z
x,-y,1/2+z
1/2+x,1/2+y,z
1/2-x,1/2+y,1/2-z
1/2-x,1/2-y,-z
1/2+x,1/2-y,1/2+z
loop_
_atom_site_type_symbol
_atom_site_label
_atom_site_fract_x
_atom_site_fract_y
_atom_site_fract_z
Si Si1 0.073138 0.423764 0.502389
Si Si2 0.270897 0.871376 0.255472
Si Si3 0.168241 0.973480 0.785046
Si Si4 0.006500 0.803682 0.434647
O O1 0.162571 0.461844 0.591132
O O2 0.056276 0.613989 0.556575
O O3 0.000000 0.377717 0.250000
O O4 0.078674 0.253509 0.631913
O O5 0.318393 0.681982 0.316398
O O6 0.211726 0.851660 0.289472
O O7 0.209943 0.922555 0.011457
O O8 0.065685 0.965347 0.619728
O O9 0.000000 0.840355 0.250000
#
# Coordination Sequence:
#
# PCOD8148167 Si02
#       4
#     8   8   8   8
#     4   9  19  33  61  92 119 159 211 256 299 370
#     4  10  23  39  64  93 129 165 211 259 315 373
#     4  10  23  41  63  93 129 167 211 260 312 376
#     4   9  19  37  60  88 123 161 208 256 306 368
#
# _framework density 29.800988
#
# number of rings (size 3 to 8) (size 9 to 14) (size 15 to 20)
#    0.000    2.500    0.000    0.000   21.000    1.000 
#    0.000    1.250    0.000    0.000    0.000    0.000 
#    0.000    0.000    0.000    0.000    0.000    0.000 
#
# Total GULP energy -198282.479451 kJ/mol
# GULP energy per Si atom -12392.654966 kJ/mol
# Density = 2.973316 g / cm^3
# Si number density = 29.800988 Si / 1000 Ang^3
#
#
#
# Elastic Constant Matrix: (Units=GPa)
#
#
# Indices 1 2 3 4 5 6 
#
# 1 129.5129 8.2595 25.2921 0.0000 47.3255 0.0000
# 2 8.2595 103.6735 4.0081 0.0000 1.1864 0.0000
# 3 25.2921 4.0081 124.5357 0.0000 29.4111 0.0000
# 4 0.0000 0.0000 0.0000 11.6245 0.0000 -6.2612
# 5 47.3255 1.1864 29.4111 0.0000 56.5450 0.0000
# 6 0.0000 0.0000 0.0000 -6.2612 0.0000 25.9735
#
#
#
# Elastic Compliance Matrix: (Units=1/GPa)
#
#
# Indices 1 2 3 4 5 6 
#
# 1 0.011187 -0.000783 -0.000045 0.000000 -0.009323 0.000000
# 2 -0.000783 0.009713 -0.000297 0.000000 0.000606 0.000000
# 3 -0.000045 -0.000297 0.009164 0.000000 -0.004723 0.000000
# 4 0.000000 0.000000 0.000000 0.098861 0.000000 0.023832
# 5 -0.009323 0.000606 -0.004723 0.000000 0.027931 0.000000
# 6 0.000000 0.000000 0.000000 0.023832 0.000000 0.044246
#
#
# Mechanical properties :
#
#
# Convention : Reuss Voigt Hill
#
# Bulk Modulus (GPa) = 35.95289 48.09350 42.02320
# Shear Modulus (GPa) = 23.51595 40.17277 31.84436
#
# Velocity S-wave (km/s) = 2.81214 3.67554 3.27244
# Velocity P-wave (km/s) = 4.75759 5.84689 5.33014
#
# Compressibility (1/GPa) = 0.02781417
#
# Stress axis : x y z
#
# Youngs Moduli (GPa) = 89.39249 102.95938 109.12482
#
# Poissons Ratio (x) = 0.08060 0.00491
# Poissons Ratio (y) = 0.06998 0.03237
# Poissons Ratio (z) = 0.00402 0.03054
#
# Static dielectric constant tensor:
#      x y z
#    x 6.435450 0.000000 0.903760 
#    y 0.000000 6.257280 0.000000 
#    z 0.903760 0.000000 5.053740 
# 
# 
# High freq. dielectric constant tensor:
#      x y z
#    x 2.249840 0.000000 0.043060 
#    y 0.000000 2.268740 0.000000 
#    z 0.043060 0.000000 2.195460 
# 
# From -- ./inp_files/64649.got.cif
#   From: 2010.06.25/outbox.cif.g09.slc.cpg/sg15_33_cif.got.tgz:64649.got - 2010.06.28 07:06:18.
