data_PCOD8148684
_publ_section_title
;
Structure prediction by ZEFSAII (Michael W. Deem and Ramdas Pophale) SiO2 
 PCOD8148684
Probable space group: C 2/C
;
_chemical_formula_sum "Si O2"
_cell_formula_units_Z 52
_cell_length_a 15.902361
_cell_length_b 7.957066
_cell_length_c 26.748483
_cell_angle_alpha 90.000000
_cell_angle_beta 134.858490
_cell_angle_gamma 90.000000
_cell_volume 2399.212468
_symmetry_space_group_name_H-M "C 2/C"
_symmetry_group_IT_number 15
_symmetry_cell_setting 'monoclinic'
loop_
_space_group_symop_operation_xyz
x,y,z
-x,y,1/2-z
-x,-y,-z
x,-y,1/2+z
1/2+x,1/2+y,z
1/2-x,1/2+y,1/2-z
1/2-x,1/2-y,-z
1/2+x,1/2-y,1/2+z
loop_
_atom_site_type_symbol
_atom_site_label
_atom_site_fract_x
_atom_site_fract_y
_atom_site_fract_z
Si Si1 0.960512 0.890645 0.424288
Si Si2 0.365461 0.326011 0.486179
Si Si3 0.096697 0.345447 0.396347
Si Si4 0.753956 0.519413 0.206492
Si Si5 0.978207 0.301013 0.828107
Si Si6 0.500000 0.430621 0.250000
Si Si7 0.374757 0.667296 0.258900
O O1 0.931253 0.778295 0.461368
O O2 0.854788 0.034165 0.378481
O O3 0.952347 0.778234 0.371238
O O4 0.086032 0.986856 0.479015
O O5 0.223105 0.330259 0.421691
O O6 0.396143 0.187975 0.541178
O O7 0.054652 0.534358 0.369259
O O8 0.004412 0.211477 0.335547
O O9 0.696791 0.537746 0.236870
O O10 0.803516 0.334001 0.218269
O O11 0.857799 0.656125 0.246250
O O12 0.042292 0.174684 0.816598
O O13 0.390418 0.555433 0.215992
#
# Coordination Sequence:
#
# PCOD8148684 Si02
#       7
#     8   8   8   8   8   4   8
#     4  11  22  42  63  92 128 174 210 263 306 399
#     4  10  23  42  67  87 129 175 217 250 320 366
#     4  10  23  43  65  97 125 170 212 270 307 386
#     4  11  21  41  64  95 125 167 203 275 315 393
#     4  11  25  40  66  96 133 158 218 261 331 367
#     4  12  24  40  58 102 124 170 198 272 326 378
#     4  11  22  39  66  92 130 160 215 260 335 369
#
# _framework density 21.673777999999999
#
# number of rings (size 3 to 8) (size 9 to 14) (size 15 to 20)
#    0.000    1.231    4.615    0.000    4.308    2.462 
#    0.000    0.000    0.000    0.000    0.000    0.000 
#    0.000    0.000    0.000    0.000    0.000    0.000 
#
# Total GULP energy -322127.035259 kJ/mol
# GULP energy per Si atom -12389.501356 kJ/mol
# Density = 2.162445 g / cm^3
# Si number density = 21.673778 Si / 1000 Ang^3
#
#
#
# Elastic Constant Matrix: (Units=GPa)
#
#
# Indices 1 2 3 4 5 6 
#
# 1 111.4172 49.1839 30.7679 0.0000 -9.3533 0.0000
# 2 49.1839 107.0661 25.0257 0.0000 -7.3189 0.0000
# 3 30.7679 25.0257 69.2591 0.0000 5.0435 0.0000
# 4 0.0000 0.0000 0.0000 21.5025 0.0000 -0.8191
# 5 -9.3533 -7.3189 5.0435 0.0000 43.7717 0.0000
# 6 0.0000 0.0000 0.0000 -0.8191 0.0000 39.5643
#
#
#
# Elastic Compliance Matrix: (Units=1/GPa)
#
#
# Indices 1 2 3 4 5 6 
#
# 1 0.012278 -0.004552 -0.003979 0.000000 0.002321 0.000000
# 2 -0.004552 0.012093 -0.002445 0.000000 0.001331 0.000000
# 3 -0.003979 -0.002445 0.017327 0.000000 -0.003255 0.000000
# 4 0.000000 0.000000 0.000000 0.046543 0.000000 0.000964
# 5 0.002321 0.001331 -0.003255 0.000000 0.023939 0.000000
# 6 0.000000 0.000000 0.000000 0.000964 0.000000 0.025295
#
#
# Mechanical properties :
#
#
# Convention : Reuss Voigt Hill
#
# Bulk Modulus (GPa) = 50.63870 55.29974 52.96922
# Shear Modulus (GPa) = 30.11895 33.15203 31.63549
#
# Velocity S-wave (km/s) = 3.73184 3.91524 3.82464
# Velocity P-wave (km/s) = 6.47948 6.78298 6.63296
#
# Compressibility (1/GPa) = 0.01974774
#
# Stress axis : x y z
#
# Youngs Moduli (GPa) = 81.44540 82.68996 57.71502
#
# Poissons Ratio (x) = 0.37638 0.22964
# Poissons Ratio (y) = 0.37071 0.14109
# Poissons Ratio (z) = 0.32406 0.20215
#
# Static dielectric constant tensor:
#      x y z
#    x 4.138020 0.000000 0.111670 
#    y 0.000000 3.880880 0.000000 
#    z 0.111670 0.000000 4.093060 
# 
# 
# High freq. dielectric constant tensor:
#      x y z
#    x 1.865850 0.000000 -0.000020 
#    y 0.000000 1.840500 0.000000 
#    z -0.000020 0.000000 1.844310 
# 
# From -- ./inp_files/295295.got.cif
#   From: 2010.06.25/outbox.cif.g09.slc.cpg/sg15_148_cif.got.tgz:295295.got - 2010.06.28 07:06:18.
