data_PCOD8148271
_publ_section_title
;
Structure prediction by ZEFSAII (Michael W. Deem and Ramdas Pophale) SiO2 
 PCOD8148271
Probable space group: C 2/C
;
_chemical_formula_sum "Si O2"
_cell_formula_units_Z 52
_cell_length_a 20.332909
_cell_length_b 9.015354
_cell_length_c 14.082290
_cell_angle_alpha 90.000000
_cell_angle_beta 62.362027
_cell_angle_gamma 90.000000
_cell_volume 2286.854266
_symmetry_space_group_name_H-M "C 2/C"
_symmetry_group_IT_number 15
_symmetry_cell_setting 'monoclinic'
loop_
_space_group_symop_operation_xyz
x,y,z
-x,y,1/2-z
-x,-y,-z
x,-y,1/2+z
1/2+x,1/2+y,z
1/2-x,1/2+y,1/2-z
1/2-x,1/2-y,-z
1/2+x,1/2-y,1/2+z
loop_
_atom_site_type_symbol
_atom_site_label
_atom_site_fract_x
_atom_site_fract_y
_atom_site_fract_z
Si Si1 0.760370 0.379891 0.130260
Si Si2 0.120232 0.424256 0.176607
Si Si3 0.005239 0.406738 0.093473
Si Si4 0.000000 0.130765 0.750000
Si Si5 0.145449 0.717081 0.092279
Si Si6 0.699297 0.321955 0.733801
Si Si7 0.543774 0.577901 0.387746
O O1 0.694322 0.351315 0.099641
O O2 0.756329 0.555298 0.155516
O O3 0.753222 0.289588 0.232941
O O4 0.836989 0.325933 0.029181
O O5 0.082710 0.425001 0.097174
O O6 0.169528 0.573528 0.139869
O O7 0.165801 0.274353 0.168034
O O8 0.062560 0.461037 0.297724
O O9 0.998819 0.231691 0.087718
O O10 0.000000 0.500000 0.000000
O O11 0.940912 0.237910 0.842289
O O12 0.960948 0.022737 0.702201
O O13 0.632485 0.397171 0.839788
O O14 0.500000 0.500000 0.500000
#
# Coordination Sequence:
#
# PCOD8148271 Si02
#       7
#     8   8   8   4   8   8   8
#     4  11  25  45  70 101 144 188 240 296 365 436
#     4  10  23  42  66  98 137 184 237 289 359 429
#     4  10  23  40  65 101 144 178 228 300 363 422
#     4  12  22  44  74 102 150 182 244 304 358 424
#     4  11  25  43  71 102 140 187 236 299 365 437
#     4  11  23  47  68  97 144 190 240 300 353 442
#     4  11  24  40  68 103 135 184 233 292 363 426
#
# _framework density 22.738658999999998
#
# number of rings (size 3 to 8) (size 9 to 14) (size 15 to 20)
#    0.000    1.231    1.538    4.615    8.615    0.615 
#    2.769    0.000    0.000    0.000    0.000    0.000 
#    0.000    0.000    0.000    0.000    0.000    0.000 
#
# Total GULP energy -322227.395735 kJ/mol
# GULP energy per Si atom -12393.361374 kJ/mol
# Density = 2.268691 g / cm^3
# Si number density = 22.738659 Si / 1000 Ang^3
#
#
#
# Elastic Constant Matrix: (Units=GPa)
#
#
# Indices 1 2 3 4 5 6 
#
# 1 67.8460 33.6109 39.3093 0.0000 8.6164 0.0000
# 2 33.6109 145.0152 58.2281 0.0000 4.9659 0.0000
# 3 39.3093 58.2281 101.9476 0.0000 14.1469 0.0000
# 4 0.0000 0.0000 0.0000 41.3750 0.0000 -1.4384
# 5 8.6164 4.9659 14.1469 0.0000 34.6027 0.0000
# 6 0.0000 0.0000 0.0000 -1.4384 0.0000 39.1186
#
#
#
# Elastic Compliance Matrix: (Units=1/GPa)
#
#
# Indices 1 2 3 4 5 6 
#
# 1 0.019530 -0.002008 -0.006094 0.000000 -0.002083 0.000000
# 2 -0.002008 0.009178 -0.004616 0.000000 0.001070 0.000000
# 3 -0.006094 -0.004616 0.015365 0.000000 -0.004102 0.000000
# 4 0.000000 0.000000 0.000000 0.024200 0.000000 0.000890
# 5 -0.002083 0.001070 -0.004102 0.000000 0.030942 0.000000
# 6 0.000000 0.000000 0.000000 0.000890 0.000000 0.025596
#
#
# Mechanical properties :
#
#
# Convention : Reuss Voigt Hill
#
# Bulk Modulus (GPa) = 53.66263 64.12283 58.89273
# Shear Modulus (GPa) = 31.95716 35.26330 33.61023
#
# Velocity S-wave (km/s) = 3.75295 3.94230 3.84879
# Velocity P-wave (km/s) = 6.51387 6.99882 6.76069
#
# Compressibility (1/GPa) = 0.01863494
#
# Stress axis : x y z
#
# Youngs Moduli (GPa) = 51.20430 108.95316 65.08427
#
# Poissons Ratio (x) = 0.21879 0.39664
# Poissons Ratio (y) = 0.10282 0.30046
# Poissons Ratio (z) = 0.31205 0.50298
#
# Static dielectric constant tensor:
#      x y z
#    x 4.199830 0.000000 0.296100 
#    y 0.000000 4.276980 0.000000 
#    z 0.296100 0.000000 4.353390 
# 
# 
# High freq. dielectric constant tensor:
#      x y z
#    x 1.883410 0.000000 0.002340 
#    y 0.000000 1.918700 0.000000 
#    z 0.002340 0.000000 1.894690 
# 
# From -- ./inp_files/171738.got.cif
#   From: 2010.06.25/outbox.cif.g09.slc.cpg/sg15_86_cif.got.tgz:171738.got - 2010.06.28 07:06:18.
