data_PCOD8148888
_publ_section_title
;
Structure prediction by ZEFSAII (Michael W. Deem and Ramdas Pophale) SiO2 
 PCOD8148888
Probable space group: C 2/C
;
_chemical_formula_sum "Si O2"
_cell_formula_units_Z 40
_cell_length_a 12.059386
_cell_length_b 13.694836
_cell_length_c 19.598990
_cell_angle_alpha 90.000000
_cell_angle_beta 32.125449
_cell_angle_gamma 90.000000
_cell_volume 1721.248085
_symmetry_space_group_name_H-M "C 2/C"
_symmetry_group_IT_number 15
_symmetry_cell_setting 'monoclinic'
loop_
_space_group_symop_operation_xyz
x,y,z
-x,y,1/2-z
-x,-y,-z
x,-y,1/2+z
1/2+x,1/2+y,z
1/2-x,1/2+y,1/2-z
1/2-x,1/2-y,-z
1/2+x,1/2-y,1/2+z
loop_
_atom_site_type_symbol
_atom_site_label
_atom_site_fract_x
_atom_site_fract_y
_atom_site_fract_z
Si Si1 0.670729 0.141944 0.783543
Si Si2 0.196816 0.501268 0.537515
Si Si3 0.586868 0.353693 0.991026
Si Si4 0.757110 0.852344 0.390101
Si Si5 0.940503 0.179035 0.415224
O O1 0.635220 0.131148 0.883079
O O2 0.630351 0.257597 0.784584
O O3 0.906478 0.123458 0.640043
O O4 0.509232 0.064154 0.835249
O O5 0.256891 0.444488 0.576491
O O6 0.159363 0.425968 0.495973
O O7 0.382132 0.574285 0.413721
O O8 0.714104 0.255784 0.941424
O O9 0.483381 0.348810 0.971393
O O10 0.000000 0.867718 0.250000
O O11 0.750000 0.250000 0.500000
#
# Coordination Sequence:
#
# PCOD8148888 Si02
#       5
#     8   8   8   8   8
#     4  10  23  43  66  95 137 173 218 276 336 403
#     4  11  22  41  65  98 128 172 228 271 329 398
#     4  11  23  43  66  96 134 178 220 274 338 395
#     4  11  23  44  65  96 135 172 223 276 337 404
#     4   9  22  43  62  95 136 171 220 268 335 402
#
# _framework density 23.238951
#
# number of rings (size 3 to 8) (size 9 to 14) (size 15 to 20)
#    0.000    1.600    2.000    1.800    0.000    4.800 
#   18.000    0.000    0.000    0.000    0.000    0.000 
#    0.000    0.000    0.000    0.000    0.000    0.000 
#
# Total GULP energy -247773.983748 kJ/mol
# GULP energy per Si atom -12388.699187 kJ/mol
# Density = 2.318606 g / cm^3
# Si number density = 23.238951 Si / 1000 Ang^3
#
#
#
# Elastic Constant Matrix: (Units=GPa)
#
#
# Indices 1 2 3 4 5 6 
#
# 1 91.2714 31.2281 0.2726 0.0018 5.3696 -0.0014
# 2 31.2281 147.3635 12.6746 -0.0014 -0.5392 -0.0005
# 3 0.2726 12.6746 52.3935 0.0006 -1.9561 -0.0014
# 4 0.0018 -0.0014 0.0006 21.7552 -0.0011 -5.2628
# 5 5.3696 -0.5392 -1.9561 -0.0011 12.5503 0.0010
# 6 -0.0014 -0.0005 -0.0014 -5.2628 0.0010 46.0726
#
#
#
# Elastic Compliance Matrix: (Units=1/GPa)
#
#
# Indices 1 2 3 4 5 6 
#
# 1 0.012164 -0.002629 0.000376 -0.000001 -0.005259 0.000000
# 2 -0.002629 0.007498 -0.001756 0.000001 0.001173 0.000000
# 3 0.000376 -0.001756 0.019615 0.000000 0.002821 0.000000
# 4 -0.000001 0.000001 0.000000 0.047272 0.000004 0.005400
# 5 -0.005259 0.001173 0.002821 0.000004 0.082420 -0.000001
# 6 0.000000 0.000000 0.000000 0.005400 -0.000001 0.022322
#
#
# Mechanical properties :
#
#
# Convention : Reuss Voigt Hill
#
# Bulk Modulus (GPa) = 31.99127 42.15321 37.07224
# Shear Modulus (GPa) = 23.84027 32.53249 28.18638
#
# Velocity S-wave (km/s) = 3.20640 3.74560 3.48644
# Velocity P-wave (km/s) = 5.24444 6.07326 5.67400
#
# Compressibility (1/GPa) = 0.03125853
#
# Stress axis : x y z
#
# Youngs Moduli (GPa) = 82.20844 133.36006 50.98239
#
# Poissons Ratio (x) = 0.35065 -0.01919
# Poissons Ratio (y) = 0.21616 0.08955
# Poissons Ratio (z) = -0.03095 0.23425
#
# Static dielectric constant tensor:
#      x y z
#    x 4.470330 0.000000 -0.172290 
#    y 0.000000 4.835100 0.000000 
#    z -0.172290 0.000000 3.710050 
# 
# 
# High freq. dielectric constant tensor:
#      x y z
#    x 1.938980 0.000000 -0.013660 
#    y 0.000000 1.942330 0.000000 
#    z -0.013660 0.000000 1.875280 
# 
# From -- ./inp_files/197579.got.cif
#   From: 2010.06.25/outbox.cif.g09.slc.cpg/sg15_99_cif.got.tgz:197579.got - 2010.06.28 07:06:18.
