data_PCOD8148666
_publ_section_title
;
Structure prediction by ZEFSAII (Michael W. Deem and Ramdas Pophale) SiO2 
 PCOD8148666
Probable space group: C 2/C
;
_chemical_formula_sum "Si O2"
_cell_formula_units_Z 32
_cell_length_a 9.014547
_cell_length_b 30.262765
_cell_length_c 5.153907
_cell_angle_alpha 90.000000
_cell_angle_beta 82.129004
_cell_angle_gamma 90.000000
_cell_volume 1392.766041
_symmetry_space_group_name_H-M "C 2/C"
_symmetry_group_IT_number 15
_symmetry_cell_setting 'monoclinic'
loop_
_space_group_symop_operation_xyz
x,y,z
-x,y,1/2-z
-x,-y,-z
x,-y,1/2+z
1/2+x,1/2+y,z
1/2-x,1/2+y,1/2-z
1/2-x,1/2-y,-z
1/2+x,1/2-y,1/2+z
loop_
_atom_site_type_symbol
_atom_site_label
_atom_site_fract_x
_atom_site_fract_y
_atom_site_fract_z
Si Si1 0.000000 0.740058 0.250000
Si Si2 0.829222 0.019527 0.546687
Si Si3 0.338784 0.106205 0.857544
Si Si4 0.708603 0.161125 0.140069
Si Si5 0.000000 0.202513 0.250000
O O1 0.862388 0.709563 0.370233
O O2 0.048279 0.768624 0.488477
O O3 0.800105 0.071926 0.574538
O O4 0.746397 0.003177 0.308424
O O5 0.000000 0.000000 0.500000
O O6 0.500000 0.083809 0.750000
O O7 0.289642 0.138967 0.641733
O O8 0.372503 0.132229 0.117459
O O9 0.875369 0.168003 0.195259
#
# Coordination Sequence:
#
# PCOD8148666 Si02
#       5
#     4   8   8   8   4
#     4  12  22  46  66  96 140 176 228 278 340 392
#     4  10  23  42  66  96 130 170 213 271 335 392
#     4  12  24  44  69  96 135 181 223 273 332 404
#     4  12  25  44  69  99 137 178 229 276 335 395
#     4  12  26  40  68 104 132 180 228 284 334 392
#
# _framework density 22.975863
#
# number of rings (size 3 to 8) (size 9 to 14) (size 15 to 20)
#    0.000    0.500    2.500    6.000    0.000    7.000 
#    0.000    0.000    0.000    0.000    0.000    0.000 
#    0.000    0.000    0.000    0.000    0.000    0.000 
#
# Total GULP energy -198285.593967 kJ/mol
# GULP energy per Si atom -12392.849623 kJ/mol
# Density = 2.292357 g / cm^3
# Si number density = 22.975863 Si / 1000 Ang^3
#
#
#
# Elastic Constant Matrix: (Units=GPa)
#
#
# Indices 1 2 3 4 5 6 
#
# 1 86.1684 21.3612 6.8924 0.0000 0.9999 0.0000
# 2 21.3612 95.4467 54.4601 0.0000 1.2916 0.0000
# 3 6.8924 54.4601 171.5909 0.0000 42.1422 0.0000
# 4 0.0000 0.0000 0.0000 39.6559 0.0000 -4.2668
# 5 0.9999 1.2916 42.1422 0.0000 29.9968 0.0000
# 6 0.0000 0.0000 0.0000 -4.2668 0.0000 34.4681
#
#
#
# Elastic Compliance Matrix: (Units=1/GPa)
#
#
# Indices 1 2 3 4 5 6 
#
# 1 0.012361 -0.003276 0.000931 0.000000 -0.001579 0.000000
# 2 -0.003276 0.015007 -0.006870 0.000000 0.009114 0.000000
# 3 0.000931 -0.006870 0.012070 0.000000 -0.016693 0.000000
# 4 0.000000 0.000000 0.000000 0.025557 0.000000 0.003164
# 5 -0.001579 0.009114 -0.016693 0.000000 0.056449 0.000000
# 6 0.000000 0.000000 0.000000 0.003164 0.000000 0.029404
#
#
# Mechanical properties :
#
#
# Convention : Reuss Voigt Hill
#
# Bulk Modulus (GPa) = 47.59956 57.62593 52.61275
# Shear Modulus (GPa) = 28.36376 38.85699 33.61038
#
# Velocity S-wave (km/s) = 3.51736 4.11689 3.82888
# Velocity P-wave (km/s) = 6.10393 6.90897 6.51889
#
# Compressibility (1/GPa) = 0.02100860
#
# Stress axis : x y z
#
# Youngs Moduli (GPa) = 80.89797 66.63683 82.84674
#
# Poissons Ratio (x) = 0.21833 -0.07715
# Poissons Ratio (y) = 0.26506 0.56913
# Poissons Ratio (z) = -0.07533 0.45778
#
# Static dielectric constant tensor:
#      x y z
#    x 4.087850 0.000000 0.326570 
#    y 0.000000 4.021500 0.000000 
#    z 0.326570 0.000000 6.077340 
# 
# 
# High freq. dielectric constant tensor:
#      x y z
#    x 1.902220 0.000000 0.015200 
#    y 0.000000 1.897360 0.000000 
#    z 0.015200 0.000000 1.939490 
# 
# From -- ./inp_files/2584.got.cif
#   From: 2010.06.25/outbox.cif.g09.slc.cpg/sg15_2_cif.got.tgz:2584.got - 2010.06.28 07:06:18.
