data_PCOD8148366
_publ_section_title
;
Structure prediction by ZEFSAII (Michael W. Deem and Ramdas Pophale) SiO2 
 PCOD8148366
Probable space group: C 2/C
;
_chemical_formula_sum "Si O2"
_cell_formula_units_Z 44
_cell_length_a 20.569066
_cell_length_b 14.636178
_cell_length_c 14.419686
_cell_angle_alpha 90.000000
_cell_angle_beta 155.329887
_cell_angle_gamma 90.000000
_cell_volume 1811.938023
_symmetry_space_group_name_H-M "C 2/C"
_symmetry_group_IT_number 15
_symmetry_cell_setting 'monoclinic'
loop_
_space_group_symop_operation_xyz
x,y,z
-x,y,1/2-z
-x,-y,-z
x,-y,1/2+z
1/2+x,1/2+y,z
1/2-x,1/2+y,1/2-z
1/2-x,1/2-y,-z
1/2+x,1/2-y,1/2+z
loop_
_atom_site_type_symbol
_atom_site_label
_atom_site_fract_x
_atom_site_fract_y
_atom_site_fract_z
Si Si1 0.738339 0.940090 0.918239
Si Si2 0.727053 0.950745 0.697949
Si Si3 0.500000 0.703737 0.750000
Si Si4 0.433623 0.274808 0.965157
Si Si5 0.337246 0.651438 0.871815
Si Si6 0.000000 0.913424 0.750000
Si Si7 0.500000 0.995333 0.250000
O O1 0.609489 0.938901 0.831260
O O2 0.655747 0.939762 0.709436
O O3 0.847481 0.854441 0.076189
O O4 0.843269 0.029976 0.063247
O O5 0.797819 0.052583 0.777229
O O6 0.598618 0.933293 0.450929
O O7 0.866578 0.877853 0.871093
O O8 0.469858 0.760073 0.617118
O O9 0.312110 0.198667 0.772575
O O10 0.594840 0.277599 0.116896
O O11 0.473862 0.646891 0.125070
#
# Coordination Sequence:
#
# PCOD8148366 Si02
#       7
#     8   8   4   8   8   4   4
#     4   9  19  36  61  88 115 160 205 243 292 356
#     4  10  23  41  61  88 125 161 199 242 300 364
#     4   9  20  41  60  80 122 164 198 240 298 360
#     4  11  24  41  64  91 120 159 204 247 298 359
#     4  11  24  41  64  91 120 159 204 247 298 359
#     4   9  20  41  60  80 122 164 198 240 298 360
#     4  12  20  32  62  94 122 152 196 254 304 342
#
# _framework density 24.283393
#
# number of rings (size 3 to 8) (size 9 to 14) (size 15 to 20)
#    0.000    1.818    0.000    4.364    0.000    8.727 
#    0.000    0.000    0.000    0.000    0.000    0.000 
#    0.000    0.000    0.000    0.000    0.000    0.000 
#
# Total GULP energy -272751.206955 kJ/mol
# GULP energy per Si atom -12397.782134 kJ/mol
# Density = 2.422812 g / cm^3
# Si number density = 24.283393 Si / 1000 Ang^3
#
#
#
# Elastic Constant Matrix: (Units=GPa)
#
#
# Indices 1 2 3 4 5 6 
#
# 1 115.1397 -9.5487 39.7921 0.0000 -3.1595 0.0000
# 2 -9.5487 65.3215 11.2770 0.0000 0.8244 0.0000
# 3 39.7921 11.2770 123.7599 0.0000 -29.7100 0.0000
# 4 0.0000 0.0000 0.0000 18.4876 0.0000 -5.7973
# 5 -3.1595 0.8244 -29.7100 0.0000 50.9947 0.0000
# 6 0.0000 0.0000 0.0000 -5.7973 0.0000 11.2668
#
#
#
# Elastic Compliance Matrix: (Units=1/GPa)
#
#
# Indices 1 2 3 4 5 6 
#
# 1 0.010154 0.002172 -0.003860 0.000000 -0.001655 0.000000
# 2 0.002172 0.016087 -0.002551 0.000000 -0.001612 0.000000
# 3 -0.003860 -0.002551 0.011052 0.000000 0.006241 0.000000
# 4 0.000000 0.000000 0.000000 0.064497 0.000000 0.033187
# 5 -0.001655 -0.001612 0.006241 0.000000 0.023170 0.000000
# 6 0.000000 0.000000 0.000000 0.033187 0.000000 0.105832
#
#
# Mechanical properties :
#
#
# Convention : Reuss Voigt Hill
#
# Bulk Modulus (GPa) = 34.70522 43.02910 38.86716
# Shear Modulus (GPa) = 20.09042 33.66320 26.87681
#
# Velocity S-wave (km/s) = 2.87946 3.72730 3.33047
# Velocity P-wave (km/s) = 5.03764 6.02343 5.55245
#
# Compressibility (1/GPa) = 0.02881411
#
# Stress axis : x y z
#
# Youngs Moduli (GPa) = 98.48599 62.16178 90.48244
#
# Poissons Ratio (x) = -0.13498 0.34925
# Poissons Ratio (y) = -0.21386 0.23082
# Poissons Ratio (z) = 0.38014 0.15857
#
# Static dielectric constant tensor:
#      x y z
#    x 4.458900 0.000000 -0.285190 
#    y 0.000000 3.932720 0.000000 
#    z -0.285190 0.000000 4.536850 
# 
# 
# High freq. dielectric constant tensor:
#      x y z
#    x 1.964010 0.000000 -0.007410 
#    y 0.000000 1.939770 0.000000 
#    z -0.007410 0.000000 1.975480 
# 
# From -- ./inp_files/168563.got.cif
#   From: 2010.06.25/outbox.cif.g09.slc.cpg/sg15_85_cif.got.tgz:168563.got - 2010.06.28 07:06:18.
