data_PCOD8148145
_publ_section_title
;
Structure prediction by ZEFSAII (Michael W. Deem and Ramdas Pophale) SiO2 
 PCOD8148145
Probable space group: C 2/C
;
_chemical_formula_sum "Si O2"
_cell_formula_units_Z 48
_cell_length_a 27.657096
_cell_length_b 11.868742
_cell_length_c 22.629236
_cell_angle_alpha 90.000000
_cell_angle_beta 17.921855
_cell_angle_gamma 90.000000
_cell_volume 2285.789744
_symmetry_space_group_name_H-M "C 2/C"
_symmetry_group_IT_number 15
_symmetry_cell_setting 'monoclinic'
loop_
_space_group_symop_operation_xyz
x,y,z
-x,y,1/2-z
-x,-y,-z
x,-y,1/2+z
1/2+x,1/2+y,z
1/2-x,1/2+y,1/2-z
1/2-x,1/2-y,-z
1/2+x,1/2-y,1/2+z
loop_
_atom_site_type_symbol
_atom_site_label
_atom_site_fract_x
_atom_site_fract_y
_atom_site_fract_z
Si Si1 0.275750 0.616262 0.158703
Si Si2 0.872405 0.197432 0.228950
Si Si3 0.672797 0.031884 0.398263
Si Si4 0.915787 0.834335 0.128050
Si Si5 0.827038 0.456135 0.316944
Si Si6 0.644622 0.641741 0.123950
O O1 0.171930 0.555387 0.329496
O O2 0.185570 0.725166 0.238840
O O3 0.288963 0.528349 0.089556
O O4 0.446164 0.651955 0.984638
O O5 0.712245 0.148472 0.386430
O O6 0.844286 0.329101 0.272217
O O7 0.908303 0.124311 0.246730
O O8 0.016795 0.176012 0.016680
O O9 0.500577 0.988730 0.617569
O O10 0.805244 0.942356 0.260948
O O11 0.749041 0.458626 0.473235
O O12 0.500000 0.665389 0.250000
O O13 0.750000 0.750000 0.000000
#
# Coordination Sequence:
#
# PCOD8148145 Si02
#       6
#     8   8   8   8   8   8
#     4  11  23  39  61  94 133 169 212 261 329 380
#     4  10  23  39  62  93 134 165 212 260 318 391
#     4  11  24  37  64  91 126 171 209 268 321 385
#     4  11  24  39  64  94 132 171 210 267 322 389
#     4  11  24  39  64  92 132 168 213 259 324 388
#     4  10  25  38  62  89 128 175 208 257 315 384
#
# _framework density 20.999307000000002
#
# number of rings (size 3 to 8) (size 9 to 14) (size 15 to 20)
#    0.000    1.333    1.667    3.500   18.667    0.000 
#    0.000    0.000    0.000    1.000    0.000    0.000 
#    0.000    0.000    0.000    0.000    0.000    0.000 
#
# Total GULP energy -297559.742261 kJ/mol
# GULP energy per Si atom -12398.322594 kJ/mol
# Density = 2.095151 g / cm^3
# Si number density = 20.999307 Si / 1000 Ang^3
#
#
#
# Elastic Constant Matrix: (Units=GPa)
#
#
# Indices 1 2 3 4 5 6 
#
# 1 111.6471 49.6593 45.3852 -0.0043 3.7114 0.0036
# 2 49.6593 89.8436 45.7465 -0.0136 -0.0510 0.0098
# 3 45.3852 45.7465 94.8644 -0.0101 -16.4237 0.0092
# 4 -0.0043 -0.0136 -0.0101 29.7668 0.0063 -4.9793
# 5 3.7114 -0.0510 -16.4237 0.0063 35.7651 -0.0047
# 6 0.0036 0.0098 0.0092 -4.9793 -0.0047 40.2459
#
#
#
# Elastic Compliance Matrix: (Units=1/GPa)
#
#
# Indices 1 2 3 4 5 6 
#
# 1 0.013093 -0.004968 -0.004459 -0.000001 -0.003413 0.000000
# 2 -0.004968 0.017059 -0.006253 0.000005 -0.002332 -0.000002
# 3 -0.004459 -0.006253 0.017131 0.000000 0.008320 -0.000001
# 4 -0.000001 0.000005 0.000000 0.034304 -0.000005 0.004244
# 5 -0.003413 -0.002332 0.008320 -0.000005 0.032132 0.000002
# 6 0.000000 -0.000002 -0.000001 0.004244 0.000002 0.025372
#
#
# Mechanical properties :
#
#
# Convention : Reuss Voigt Hill
#
# Bulk Modulus (GPa) = 62.80743 64.21522 63.51132
# Shear Modulus (GPa) = 28.44800 31.52649 29.98725
#
# Velocity S-wave (km/s) = 3.68463 3.87888 3.78300
# Velocity P-wave (km/s) = 6.93370 7.12089 7.02792
#
# Compressibility (1/GPa) = 0.01592168
#
# Stress axis : x y z
#
# Youngs Moduli (GPa) = 76.37872 58.61916 58.37512
#
# Poissons Ratio (x) = 0.29124 0.26029
# Poissons Ratio (y) = 0.37947 0.36503
# Poissons Ratio (z) = 0.34057 0.36656
#
# Static dielectric constant tensor:
#      x y z
#    x 3.849300 0.000000 0.216170 
#    y 0.000000 3.760660 0.000020 
#    z 0.216170 0.000020 4.127000 
# 
# 
# High freq. dielectric constant tensor:
#      x y z
#    x 1.822250 0.000000 -0.016560 
#    y 0.000000 1.806830 0.000000 
#    z -0.016560 0.000000 1.823220 
# 
# From -- ./inp_files/65232.got.cif
#   From: 2010.06.25/outbox.cif.g09.slc.cpg/sg15_33_cif.got.tgz:65232.got - 2010.06.28 07:06:18.
