data_PCOD8148662
_publ_section_title
;
Structure prediction by ZEFSAII (Michael W. Deem and Ramdas Pophale) SiO2 
 PCOD8148662
Probable space group: C 2/C
;
_chemical_formula_sum "Si O2"
_cell_formula_units_Z 56
_cell_length_a 11.655968
_cell_length_b 20.801497
_cell_length_c 12.095773
_cell_angle_alpha 90.000000
_cell_angle_beta 69.801565
_cell_angle_gamma 90.000000
_cell_volume 2752.402714
_symmetry_space_group_name_H-M "C 2/C"
_symmetry_group_IT_number 15
_symmetry_cell_setting 'monoclinic'
loop_
_space_group_symop_operation_xyz
x,y,z
-x,y,1/2-z
-x,-y,-z
x,-y,1/2+z
1/2+x,1/2+y,z
1/2-x,1/2+y,1/2-z
1/2-x,1/2-y,-z
1/2+x,1/2-y,1/2+z
loop_
_atom_site_type_symbol
_atom_site_label
_atom_site_fract_x
_atom_site_fract_y
_atom_site_fract_z
Si Si1 0.077027 0.063671 0.994754
Si Si2 0.574078 0.093925 0.059900
Si Si3 0.129381 0.872832 0.245630
Si Si4 0.420400 0.330422 0.671597
Si Si5 0.256932 0.491378 0.395015
Si Si6 0.311556 0.090868 0.240067
Si Si7 0.683485 0.216392 0.920316
O O1 0.131681 0.098157 0.868044
O O2 0.986019 0.113007 0.083516
O O3 0.189421 0.043274 0.036365
O O4 0.000000 0.000000 0.000000
O O5 0.429762 0.095861 0.123218
O O6 0.652363 0.089828 0.145395
O O7 0.620826 0.032243 0.975019
O O8 0.598893 0.159846 0.990706
O O9 0.157939 0.928697 0.145994
O O10 0.222496 0.813150 0.201684
O O11 0.000000 0.844790 0.250000
O O12 0.500000 0.311523 0.750000
O O13 0.283078 0.351536 0.751198
O O14 0.409024 0.266591 0.603223
O O15 0.251500 0.524055 0.275633
O O16 0.750000 0.250000 0.000000
#
# Coordination Sequence:
#
# PCOD8148662 Si02
#       7
#     8   8   8   8   8   8   8
#     4  12  23  38  67 103 136 166 219 281 348 400
#     4  10  23  42  66  95 125 174 224 267 320 405
#     4  11  23  38  65  99 125 173 223 279 335 392
#     4  12  25  44  64  97 134 178 218 279 337 396
#     4  11  21  39  65  97 136 160 212 277 343 401
#     4  11  22  40  65  96 129 170 212 264 340 394
#     4  11  24  45  66  88 131 174 234 273 316 397
#
# _framework density 20.345859000000001
#
# number of rings (size 3 to 8) (size 9 to 14) (size 15 to 20)
#    0.000    0.857    4.286    3.857    0.000    2.286 
#    2.571    1.429    6.286    0.000    0.000    0.000 
#    0.000    0.000    0.000    0.000    0.000    0.000 
#
# Total GULP energy -347187.838438 kJ/mol
# GULP energy per Si atom -12399.565658 kJ/mol
# Density = 2.029955 g / cm^3
# Si number density = 20.345859 Si / 1000 Ang^3
#
#
#
# Elastic Constant Matrix: (Units=GPa)
#
#
# Indices 1 2 3 4 5 6 
#
# 1 70.7394 42.2089 33.9371 0.0000 5.7373 0.0000
# 2 42.2089 127.3601 50.9264 0.0000 6.5816 0.0000
# 3 33.9371 50.9264 98.9380 0.0000 2.3501 0.0000
# 4 0.0000 0.0000 0.0000 41.3535 0.0000 4.5304
# 5 5.7373 6.5816 2.3501 0.0000 33.8305 0.0000
# 6 0.0000 0.0000 0.0000 4.5304 0.0000 16.2125
#
#
#
# Elastic Compliance Matrix: (Units=1/GPa)
#
#
# Indices 1 2 3 4 5 6 
#
# 1 0.018991 -0.004536 -0.004131 0.000000 -0.002051 0.000000
# 2 -0.004536 0.011054 -0.004108 0.000000 -0.001096 0.000000
# 3 -0.004131 -0.004108 0.013626 0.000000 0.000553 0.000000
# 4 0.000000 0.000000 0.000000 0.024945 0.000000 -0.006971
# 5 -0.002051 -0.001096 0.000553 0.000000 0.030082 0.000000
# 6 0.000000 0.000000 0.000000 -0.006971 0.000000 0.063629
#
#
# Mechanical properties :
#
#
# Convention : Reuss Voigt Hill
#
# Bulk Modulus (GPa) = 55.18327 61.24249 58.21288
# Shear Modulus (GPa) = 25.78425 29.61032 27.69728
#
# Velocity S-wave (km/s) = 3.56377 3.81904 3.69361
# Velocity P-wave (km/s) = 6.64195 7.04364 6.84574
#
# Compressibility (1/GPa) = 0.01812143
#
# Stress axis : x y z
#
# Youngs Moduli (GPa) = 52.65626 90.46171 73.39152
#
# Poissons Ratio (x) = 0.41036 0.30315
# Poissons Ratio (y) = 0.23886 0.30149
# Poissons Ratio (z) = 0.21750 0.37162
#
# Static dielectric constant tensor:
#      x y z
#    x 3.727220 0.000000 -0.056880 
#    y 0.000000 3.984370 0.000000 
#    z -0.056880 0.000000 3.788940 
# 
# 
# High freq. dielectric constant tensor:
#      x y z
#    x 1.795680 0.000000 -0.006390 
#    y 0.000000 1.797850 0.000000 
#    z -0.006390 0.000000 1.801440 
# 
# From -- ./inp_files/89557.got.cif
#   From: 2010.06.25/outbox.cif.g09.slc.cpg/sg15_45_cif.got.tgz:89557.got - 2010.06.28 07:06:18.
