data_PCOD8148018
_publ_section_title
;
Structure prediction by ZEFSAII (Michael W. Deem and Ramdas Pophale) SiO2 
 PCOD8148018
Probable space group: C 2/C
;
_chemical_formula_sum "Si O2"
_cell_formula_units_Z 56
_cell_length_a 10.901577
_cell_length_b 11.506254
_cell_length_c 20.545031
_cell_angle_alpha 90.000000
_cell_angle_beta 114.978014
_cell_angle_gamma 90.000000
_cell_volume 2336.057173
_symmetry_space_group_name_H-M "C 2/C"
_symmetry_group_IT_number 15
_symmetry_cell_setting 'monoclinic'
loop_
_space_group_symop_operation_xyz
x,y,z
-x,y,1/2-z
-x,-y,-z
x,-y,1/2+z
1/2+x,1/2+y,z
1/2-x,1/2+y,1/2-z
1/2-x,1/2-y,-z
1/2+x,1/2-y,1/2+z
loop_
_atom_site_type_symbol
_atom_site_label
_atom_site_fract_x
_atom_site_fract_y
_atom_site_fract_z
Si Si1 0.677975 0.765186 0.178800
Si Si2 0.029756 0.257314 0.479601
Si Si3 0.869344 0.562301 0.176311
Si Si4 0.701313 0.626782 0.431383
Si Si5 0.001284 0.732080 0.385313
Si Si6 0.886885 0.929348 0.179431
Si Si7 0.307542 0.201670 0.677105
O O1 0.752504 0.643422 0.181102
O O2 0.776504 0.876875 0.203487
O O3 0.612154 0.770854 0.236987
O O4 0.574682 0.795094 0.098508
O O5 0.140801 0.359167 0.516073
O O6 0.110759 0.139126 0.476803
O O7 0.951709 0.236754 0.530421
O O8 0.804695 0.433924 0.156564
O O9 0.000000 0.558408 0.250000
O O10 0.925962 0.610425 0.119447
O O11 0.680866 0.506992 0.390614
O O12 0.633940 0.728912 0.371465
O O13 0.838894 0.735851 0.346138
O O14 0.048282 0.822557 0.342885
O O15 0.000000 0.993098 0.250000
#
# Coordination Sequence:
#
# PCOD8148018 Si02
#       7
#     8   8   8   8   8   8   8
#     4  11  24  43  70 105 136 180 241 285 367 416
#     4  10  25  47  64  98 143 189 221 289 356 431
#     4  11  24  43  70 107 135 178 239 301 348 424
#     4  10  26  47  63 100 143 176 240 283 354 431
#     4  10  22  50  67  96 145 176 236 285 360 422
#     4  11  23  42  74 103 132 181 235 302 346 416
#     4  11  24  42  72  98 135 187 229 297 347 415
#
# _framework density 23.972016
#
# number of rings (size 3 to 8) (size 9 to 14) (size 15 to 20)
#    0.000    1.429    2.857    0.857    8.000    3.429 
#   12.857    0.000    0.000    0.000    0.000    0.000 
#    0.000    0.000    0.000    0.000    0.000    0.000 
#
# Total GULP energy -346985.374016 kJ/mol
# GULP energy per Si atom -12392.334786 kJ/mol
# Density = 2.391745 g / cm^3
# Si number density = 23.972016 Si / 1000 Ang^3
#
#
#
# Elastic Constant Matrix: (Units=GPa)
#
#
# Indices 1 2 3 4 5 6 
#
# 1 43.9155 3.1924 32.5596 0.0000 -14.7908 0.0000
# 2 3.1924 51.0317 7.8107 0.0000 -8.9840 0.0000
# 3 32.5596 7.8107 139.0708 0.0000 3.8761 0.0000
# 4 0.0000 0.0000 0.0000 29.9786 0.0000 3.1752
# 5 -14.7908 -8.9840 3.8761 0.0000 52.6680 0.0000
# 6 0.0000 0.0000 0.0000 3.1752 0.0000 12.3299
#
#
#
# Elastic Compliance Matrix: (Units=1/GPa)
#
#
# Indices 1 2 3 4 5 6 
#
# 1 0.031681 0.000895 -0.007736 0.000000 0.009619 0.000000
# 2 0.000895 0.020441 -0.001465 0.000000 0.003846 0.000000
# 3 -0.007736 -0.001465 0.009170 0.000000 -0.003097 0.000000
# 4 0.000000 0.000000 0.000000 0.034292 0.000000 -0.008831
# 5 0.009619 0.003846 -0.003097 0.000000 0.022572 0.000000
# 6 0.000000 0.000000 0.000000 -0.008831 0.000000 0.083378
#
#
# Mechanical properties :
#
#
# Convention : Reuss Voigt Hill
#
# Bulk Modulus (GPa) = 22.38031 35.68260 29.03146
# Shear Modulus (GPa) = 21.45570 31.69232 26.57401
#
# Velocity S-wave (km/s) = 2.99495 3.63995 3.33309
# Velocity P-wave (km/s) = 4.61692 5.70816 5.19129
#
# Compressibility (1/GPa) = 0.04468212
#
# Stress axis : x y z
#
# Youngs Moduli (GPa) = 31.56474 48.92145 109.04828
#
# Poissons Ratio (x) = -0.04381 0.84355
# Poissons Ratio (y) = -0.02827 0.15974
# Poissons Ratio (z) = 0.24417 0.07166
#
# Static dielectric constant tensor:
#      x y z
#    x 4.884340 0.000000 -0.416220 
#    y 0.000000 4.140260 0.000000 
#    z -0.416220 0.000000 4.712180 
# 
# 
# High freq. dielectric constant tensor:
#      x y z
#    x 1.960840 0.000000 -0.010070 
#    y 0.000000 1.922990 0.000000 
#    z -0.010070 0.000000 1.968040 
# 
# From -- ./inp_files/237619.got.cif
#   From: 2010.06.25/outbox.cif.g09.slc.cpg/sg15_119_cif.got.tgz:237619.got - 2010.06.28 07:06:18.
