data_PCOD8148962
_publ_section_title
;
Structure prediction by ZEFSAII (Michael W. Deem and Ramdas Pophale) SiO2 
 PCOD8148962
Probable space group: C 2/C
;
_chemical_formula_sum "Si O2"
_cell_formula_units_Z 44
_cell_length_a 26.306951
_cell_length_b 14.987760
_cell_length_c 13.192463
_cell_angle_alpha 90.000000
_cell_angle_beta 156.714863
_cell_angle_gamma 90.000000
_cell_volume 2056.212029
_symmetry_space_group_name_H-M "C 2/C"
_symmetry_group_IT_number 15
_symmetry_cell_setting 'monoclinic'
loop_
_space_group_symop_operation_xyz
x,y,z
-x,y,1/2-z
-x,-y,-z
x,-y,1/2+z
1/2+x,1/2+y,z
1/2-x,1/2+y,1/2-z
1/2-x,1/2-y,-z
1/2+x,1/2-y,1/2+z
loop_
_atom_site_type_symbol
_atom_site_label
_atom_site_fract_x
_atom_site_fract_y
_atom_site_fract_z
Si Si1 0.540569 0.097686 0.039181
Si Si2 0.713802 0.832222 0.505953
Si Si3 0.893621 0.760223 0.227856
Si Si4 0.206059 0.869248 0.627242
Si Si5 0.547821 0.409127 0.630105
Si Si6 0.500000 0.481630 0.750000
O O1 0.545626 0.161056 0.149173
O O2 0.674227 0.099048 0.222501
O O3 0.433677 0.138609 0.768526
O O4 0.500000 0.000000 0.000000
O O5 0.750000 0.750000 0.500000
O O6 0.749646 0.817644 0.690094
O O7 0.801923 0.910587 0.622599
O O8 0.973364 0.825496 0.446860
O O9 0.750000 0.750000 0.000000
O O10 0.888701 0.800191 0.105562
O O11 0.123453 0.957112 0.502459
O O12 0.500000 0.500000 0.500000
O O13 0.529578 0.410957 0.716471
#
# Coordination Sequence:
#
# PCOD8148962 Si02
#       6
#     8   8   8   8   8   4
#     4  11  25  46  71 102 145 183 230 297 357 418
#     4  12  25  45  70 103 146 183 237 296 347 425
#     4  10  23  43  68  98 137 179 230 285 344 418
#     4  11  23  44  72 101 142 188 233 291 357 415
#     4  12  23  43  71 103 136 182 234 286 346 417
#     4  12  24  40  80 102 136 188 240 286 348 424
#
# _framework density 21.398572999999999
#
# number of rings (size 3 to 8) (size 9 to 14) (size 15 to 20)
#    0.000    0.727    5.455    1.636    2.545    2.909 
#    0.000    3.636    0.000    0.000    0.000    0.000 
#    0.000    0.000    0.000    0.000    0.000    0.000 
#
# Total GULP energy -272641.076681 kJ/mol
# GULP energy per Si atom -12392.776213 kJ/mol
# Density = 2.134987 g / cm^3
# Si number density = 21.398573 Si / 1000 Ang^3
#
#
#
# Elastic Constant Matrix: (Units=GPa)
#
#
# Indices 1 2 3 4 5 6 
#
# 1 122.0680 37.1062 33.7813 0.0000 -20.0006 0.0000
# 2 37.1062 129.8813 36.8591 0.0000 -11.5188 0.0000
# 3 33.7813 36.8591 109.9854 0.0000 -6.4536 0.0000
# 4 0.0000 0.0000 0.0000 36.1944 0.0000 1.1168
# 5 -20.0006 -11.5188 -6.4536 0.0000 51.0242 0.0000
# 6 0.0000 0.0000 0.0000 1.1168 0.0000 30.8318
#
#
#
# Elastic Compliance Matrix: (Units=1/GPa)
#
#
# Indices 1 2 3 4 5 6 
#
# 1 0.009908 -0.001921 -0.002213 0.000000 0.003170 0.000000
# 2 -0.001921 0.009008 -0.002371 0.000000 0.000981 0.000000
# 3 -0.002213 -0.002371 0.010563 0.000000 -0.000067 0.000000
# 4 0.000000 0.000000 0.000000 0.027660 0.000000 -0.001002
# 5 0.003170 0.000981 -0.000067 0.000000 0.021054 0.000000
# 6 0.000000 0.000000 0.000000 -0.001002 0.000000 0.032470
#
#
# Mechanical properties :
#
#
# Convention : Reuss Voigt Hill
#
# Bulk Modulus (GPa) = 60.72703 64.15865 62.44284
# Shear Modulus (GPa) = 38.71055 40.55594 39.63324
#
# Velocity S-wave (km/s) = 4.25788 4.35819 4.30832
# Velocity P-wave (km/s) = 7.25350 7.44129 7.34800
#
# Compressibility (1/GPa) = 0.01646713
#
# Stress axis : x y z
#
# Youngs Moduli (GPa) = 100.92693 111.01050 94.67330
#
# Poissons Ratio (x) = 0.21330 0.20954
# Poissons Ratio (y) = 0.19392 0.22449
# Poissons Ratio (z) = 0.22338 0.26323
#
# Static dielectric constant tensor:
#      x y z
#    x 3.810100 0.000000 0.063510 
#    y 0.000000 3.419590 0.000000 
#    z 0.063510 0.000000 4.199080 
# 
# 
# High freq. dielectric constant tensor:
#      x y z
#    x 1.838460 0.000000 0.004460 
#    y 0.000000 1.835470 0.000000 
#    z 0.004460 0.000000 1.865010 
# 
# From -- ./inp_files/182391.got.cif
#   From: 2010.06.25/outbox.cif.g09.slc.cpg/sg15_92_cif.got.tgz:182391.got - 2010.06.28 07:06:18.
