data_PCOD8148532
_publ_section_title
;
Structure prediction by ZEFSAII (Michael W. Deem and Ramdas Pophale) SiO2 
 PCOD8148532
Probable space group: C 2/C
;
_chemical_formula_sum "Si O2"
_cell_formula_units_Z 36
_cell_length_a 16.080357
_cell_length_b 8.064478
_cell_length_c 28.695242
_cell_angle_alpha 90.000000
_cell_angle_beta 153.079142
_cell_angle_gamma 90.000000
_cell_volume 1684.803469
_symmetry_space_group_name_H-M "C 2/C"
_symmetry_group_IT_number 15
_symmetry_cell_setting 'monoclinic'
loop_
_space_group_symop_operation_xyz
x,y,z
-x,y,1/2-z
-x,-y,-z
x,-y,1/2+z
1/2+x,1/2+y,z
1/2-x,1/2+y,1/2-z
1/2-x,1/2-y,-z
1/2+x,1/2-y,1/2+z
loop_
_atom_site_type_symbol
_atom_site_label
_atom_site_fract_x
_atom_site_fract_y
_atom_site_fract_z
Si Si1 0.191541 0.581768 0.448328
Si Si2 0.183088 0.697975 0.248237
Si Si3 0.214953 0.025242 0.108503
Si Si4 0.491353 0.561635 0.341404
Si Si5 0.500000 0.742185 0.250000
O O1 0.250000 0.750000 0.500000
O O2 0.220807 0.600068 0.407965
O O3 0.314313 0.437607 0.533145
O O4 0.971844 0.563455 0.346056
O O5 0.240990 0.658458 0.329808
O O6 0.355650 0.687199 0.299998
O O7 0.100567 0.881542 0.205391
O O8 0.319707 0.852168 0.169821
O O9 0.000000 0.000000 0.000000
O O10 0.535220 0.626284 0.311967
#
# Coordination Sequence:
#
# PCOD8148532 Si02
#       5
#     8   8   8   8   4
#     4  10  23  41  71  97 134 172 226 271 342 392
#     4  11  23  45  71  96 139 179 223 279 338 399
#     4  12  24  45  70  99 136 179 222 278 338 401
#     4  11  26  44  69 102 133 178 228 277 338 401
#     4  12  28  44  68 104 140 172 228 278 338 400
#
# _framework density 21.367477000000001
#
# number of rings (size 3 to 8) (size 9 to 14) (size 15 to 20)
#    0.000    0.889    4.444    1.333    9.333    2.667 
#    0.000    2.222    0.000    0.000    0.000    0.000 
#    0.000    0.000    0.000    0.000    0.000    0.000 
#
# Total GULP energy -223163.870071 kJ/mol
# GULP energy per Si atom -12397.992782 kJ/mol
# Density = 2.131884 g / cm^3
# Si number density = 21.367477 Si / 1000 Ang^3
#
#
#
# Elastic Constant Matrix: (Units=GPa)
#
#
# Indices 1 2 3 4 5 6 
#
# 1 74.9860 10.5333 -3.2709 -0.0002 -27.2688 0.0000
# 2 10.5333 69.3864 12.8350 0.0000 -5.1736 -0.0003
# 3 -3.2709 12.8350 98.4199 -0.0004 -4.1302 0.0000
# 4 -0.0002 0.0000 -0.0004 29.9849 -0.0001 -4.5901
# 5 -27.2688 -5.1736 -4.1302 -0.0001 48.7581 0.0000
# 6 0.0000 -0.0003 0.0000 -4.5901 0.0000 39.9578
#
#
#
# Elastic Compliance Matrix: (Units=1/GPa)
#
#
# Indices 1 2 3 4 5 6 
#
# 1 0.017128 -0.002125 0.001243 0.000000 0.009459 0.000000
# 2 -0.002125 0.015129 -0.002033 0.000000 0.000245 0.000000
# 3 0.001243 -0.002033 0.010525 0.000000 0.001371 0.000000
# 4 0.000000 0.000000 0.000000 0.033947 0.000000 0.003900
# 5 0.009459 0.000245 0.001371 0.000000 0.025942 0.000000
# 6 0.000000 0.000000 0.000000 0.003900 0.000000 0.025474
#
#
# Mechanical properties :
#
#
# Convention : Reuss Voigt Hill
#
# Bulk Modulus (GPa) = 27.06204 31.44301 29.25253
# Shear Modulus (GPa) = 34.17814 38.58649 36.38231
#
# Velocity S-wave (km/s) = 4.00376 4.25414 4.13085
# Velocity P-wave (km/s) = 5.83661 6.23519 6.03919
#
# Compressibility (1/GPa) = 0.03695213
#
# Stress axis : x y z
#
# Youngs Moduli (GPa) = 58.38254 66.09829 95.01577
#
# Poissons Ratio (x) = 0.14045 -0.11813
# Poissons Ratio (y) = 0.12406 0.19320
# Poissons Ratio (z) = -0.07259 0.13440
#
# Static dielectric constant tensor:
#      x y z
#    x 4.046960 0.000000 -0.012580 
#    y 0.000000 3.710230 0.000000 
#    z -0.012580 0.000000 5.166490 
# 
# 
# High freq. dielectric constant tensor:
#      x y z
#    x 1.845370 0.000000 -0.001760 
#    y 0.000000 1.826950 0.000000 
#    z -0.001760 0.000000 1.867510 
# 
# From -- ./inp_files/150122.got.cif
#   From: 2010.06.25/outbox.cif.g09.slc.cpg/sg15_76_cif.got.tgz:150122.got - 2010.06.28 07:06:18.
