data_PCOD8148268
_publ_section_title
;
Structure prediction by ZEFSAII (Michael W. Deem and Ramdas Pophale) SiO2 
 PCOD8148268
Probable space group: C 2/C
;
_chemical_formula_sum "Si O2"
_cell_formula_units_Z 40
_cell_length_a 12.461713
_cell_length_b 15.069857
_cell_length_c 9.994329
_cell_angle_alpha 90.000000
_cell_angle_beta 90.004154
_cell_angle_gamma 90.000000
_cell_volume 1876.897331
_symmetry_space_group_name_H-M "C 2/C"
_symmetry_group_IT_number 15
_symmetry_cell_setting 'monoclinic'
loop_
_space_group_symop_operation_xyz
x,y,z
-x,y,1/2-z
-x,-y,-z
x,-y,1/2+z
1/2+x,1/2+y,z
1/2-x,1/2+y,1/2-z
1/2-x,1/2-y,-z
1/2+x,1/2-y,1/2+z
loop_
_atom_site_type_symbol
_atom_site_label
_atom_site_fract_x
_atom_site_fract_y
_atom_site_fract_z
Si Si1 0.627096 0.063862 0.257336
Si Si2 0.898940 0.436952 0.027659
Si Si3 0.215168 0.805488 0.625881
Si Si4 0.011316 0.916484 0.596507
Si Si5 0.855810 0.753466 0.591296
O O1 0.500000 0.079324 0.250000
O O2 0.676045 0.149161 0.325875
O O3 0.660469 0.976342 0.341816
O O4 0.674381 0.055603 0.106291
O O5 0.927200 0.334061 0.057267
O O6 0.000000 0.500000 0.000000
O O7 0.250000 0.750000 0.500000
O O8 0.169409 0.748218 0.750114
O O9 0.129147 0.876929 0.575802
O O10 0.923052 0.841770 0.558756
O O11 0.000000 0.948046 0.750000
O O12 0.000000 0.000000 0.500000
O O13 0.750000 0.750000 0.500000
#
# Coordination Sequence:
#
# PCOD8148268 Si02
#       5
#     8   8   8   8   8
#     4  10  23  40  64  99 134 168 225 275 332 393
#     4  10  23  41  68  95 135 172 221 277 337 387
#     4  11  26  41  68  99 133 177 228 269 332 400
#     4  10  26  47  67  97 135 177 226 271 334 400
#     4  11  24  46  69  95 137 180 219 278 336 394
#
# _framework density 21.311767
#
# number of rings (size 3 to 8) (size 9 to 14) (size 15 to 20)
#    0.000    1.600    2.000    0.000   11.200    7.200 
#    0.000    0.000    0.000    0.000    0.000    0.000 
#    0.000    0.000    0.000    0.000    0.000    0.000 
#
# Total GULP energy -247874.014286 kJ/mol
# GULP energy per Si atom -12393.700714 kJ/mol
# Density = 2.126326 g / cm^3
# Si number density = 21.311767 Si / 1000 Ang^3
#
#
#
# Elastic Constant Matrix: (Units=GPa)
#
#
# Indices 1 2 3 4 5 6 
#
# 1 86.2086 52.0500 54.6226 0.0000 6.8558 0.0000
# 2 52.0500 179.8188 112.9904 0.0000 -7.5978 0.0000
# 3 54.6226 112.9904 196.3365 0.0000 2.6656 0.0000
# 4 0.0000 0.0000 0.0000 54.6764 0.0000 2.5418
# 5 6.8558 -7.5978 2.6656 0.0000 31.2069 0.0000
# 6 0.0000 0.0000 0.0000 2.5418 0.0000 30.9146
#
#
#
# Elastic Compliance Matrix: (Units=1/GPa)
#
#
# Indices 1 2 3 4 5 6 
#
# 1 0.015306 -0.003059 -0.002445 0.000000 -0.003898 0.000000
# 2 -0.003059 0.009530 -0.004680 0.000000 0.003392 0.000000
# 3 -0.002445 -0.004680 0.008485 0.000000 -0.001327 0.000000
# 4 0.000000 0.000000 0.000000 0.018360 0.000000 -0.001510
# 5 -0.003898 0.003392 -0.001327 0.000000 0.033840 0.000000
# 6 0.000000 0.000000 0.000000 -0.001510 0.000000 0.032471
#
#
# Mechanical properties :
#
#
# Convention : Reuss Voigt Hill
#
# Bulk Modulus (GPa) = 77.19715 100.18777 88.69246
# Shear Modulus (GPa) = 35.04430 39.53964 37.29197
#
# Velocity S-wave (km/s) = 4.05947 4.31199 4.18763
# Velocity P-wave (km/s) = 7.63373 8.47960 8.06776
#
# Compressibility (1/GPa) = 0.01295385
#
# Stress axis : x y z
#
# Youngs Moduli (GPa) = 65.33495 104.92703 117.85912
#
# Poissons Ratio (x) = 0.32095 0.28816
# Poissons Ratio (y) = 0.19985 0.55155
# Poissons Ratio (z) = 0.15974 0.49104
#
# Static dielectric constant tensor:
#      x y z
#    x 3.833280 0.000000 -0.070130 
#    y 0.000000 4.027500 0.000000 
#    z -0.070130 0.000000 5.250590 
# 
# 
# High freq. dielectric constant tensor:
#      x y z
#    x 1.819630 0.000000 0.006950 
#    y 0.000000 1.835130 0.000000 
#    z 0.006950 0.000000 1.863550 
# 
# From -- ./inp_files/29325.got.cif
#   From: 2010.06.25/outbox.cif.g09.slc.cpg/sg15_15_cif.got.tgz:29325.got - 2010.06.28 07:06:18.
