data_PCOD8148440
_publ_section_title
;
Structure prediction by ZEFSAII (Michael W. Deem and Ramdas Pophale) SiO2 
 PCOD8148440
Probable space group: C 2/C
;
_chemical_formula_sum "Si O2"
_cell_formula_units_Z 32
_cell_length_a 16.355405
_cell_length_b 6.975795
_cell_length_c 14.097128
_cell_angle_alpha 90.000000
_cell_angle_beta 77.533760
_cell_angle_gamma 90.000000
_cell_volume 1570.448938
_symmetry_space_group_name_H-M "C 2/C"
_symmetry_group_IT_number 15
_symmetry_cell_setting 'monoclinic'
loop_
_space_group_symop_operation_xyz
x,y,z
-x,y,1/2-z
-x,-y,-z
x,-y,1/2+z
1/2+x,1/2+y,z
1/2-x,1/2+y,1/2-z
1/2-x,1/2-y,-z
1/2+x,1/2-y,1/2+z
loop_
_atom_site_type_symbol
_atom_site_label
_atom_site_fract_x
_atom_site_fract_y
_atom_site_fract_z
Si Si1 0.169671 0.717593 0.845063
Si Si2 0.046661 0.617386 0.328667
Si Si3 0.067471 0.871912 0.035090
Si Si4 0.647958 0.447888 0.207866
O O1 0.144629 0.833254 0.945404
O O2 0.264911 0.657264 0.832573
O O3 0.112145 0.531294 0.853227
O O4 0.159946 0.846781 0.753793
O O5 0.091635 0.815479 0.288975
O O6 0.000000 0.524119 0.250000
O O7 0.976681 0.671464 0.424377
O O8 0.102754 0.982554 0.118484
O O9 0.000000 0.000000 0.000000
#
# Coordination Sequence:
#
# PCOD8148440 Si02
#       4
#     8   8   8   8
#     4  12  23  44  67  91 133 172 212 266 325 375
#     4  10  23  41  65  95 127 166 213 261 319 380
#     4  11  24  42  67  97 131 166 216 270 315 383
#     4  11  24  43  64  97 130 168 215 262 319 386
#
# _framework density 20.376339000000002
#
# number of rings (size 3 to 8) (size 9 to 14) (size 15 to 20)
#    0.000    1.000    5.000    1.500    3.500    0.000 
#    0.000    2.500    0.000    0.000    0.000    0.000 
#    0.000    0.000    0.000    0.000    0.000    0.000 
#
# Total GULP energy -198463.885142 kJ/mol
# GULP energy per Si atom -12403.992821 kJ/mol
# Density = 2.032996 g / cm^3
# Si number density = 20.376339 Si / 1000 Ang^3
#
#
#
# Elastic Constant Matrix: (Units=GPa)
#
#
# Indices 1 2 3 4 5 6 
#
# 1 107.8555 21.3396 48.3562 0.0000 1.7030 0.0000
# 2 21.3396 62.8791 44.8756 0.0000 11.5948 0.0000
# 3 48.3562 44.8756 129.1632 0.0000 3.6972 0.0000
# 4 0.0000 0.0000 0.0000 22.7004 0.0000 1.7721
# 5 1.7030 11.5948 3.6972 0.0000 36.5555 0.0000
# 6 0.0000 0.0000 0.0000 1.7721 0.0000 33.9472
#
#
#
# Elastic Compliance Matrix: (Units=1/GPa)
#
#
# Indices 1 2 3 4 5 6 
#
# 1 0.011198 -0.001123 -0.003808 0.000000 0.000220 0.000000
# 2 -0.001123 0.022650 -0.007266 0.000000 -0.006397 0.000000
# 3 -0.003808 -0.007266 0.011655 0.000000 0.001303 0.000000
# 4 0.000000 0.000000 0.000000 0.044232 0.000000 -0.002309
# 5 0.000220 -0.006397 0.001303 0.000000 0.029243 0.000000
# 6 0.000000 0.000000 0.000000 -0.002309 0.000000 0.029578
#
#
# Mechanical properties :
#
#
# Convention : Reuss Voigt Hill
#
# Bulk Modulus (GPa) = 47.37432 58.78228 53.07830
# Shear Modulus (GPa) = 27.78002 30.99572 29.38787
#
# Velocity S-wave (km/s) = 3.69636 3.90444 3.80182
# Velocity P-wave (km/s) = 6.44341 7.01692 6.73627
#
# Compressibility (1/GPa) = 0.02110848
#
# Stress axis : x y z
#
# Youngs Moduli (GPa) = 89.30302 44.15093 85.79985
#
# Poissons Ratio (x) = 0.04957 0.32677
# Poissons Ratio (y) = 0.10026 0.62340
# Poissons Ratio (z) = 0.34011 0.32079
#
# Static dielectric constant tensor:
#      x y z
#    x 3.912180 0.000000 -0.134810 
#    y 0.000000 3.488320 0.000000 
#    z -0.134810 0.000000 3.945580 
# 
# 
# High freq. dielectric constant tensor:
#      x y z
#    x 1.815190 0.000000 -0.004750 
#    y 0.000000 1.781980 0.000000 
#    z -0.004750 0.000000 1.806400 
# 
# From -- ./inp_files/170153.got.cif
#   From: 2010.06.25/outbox.cif.g09.slc.cpg/sg15_86_cif.got.tgz:170153.got - 2010.06.28 07:06:18.
