data_PCOD8148373
_publ_section_title
;
Structure prediction by ZEFSAII (Michael W. Deem and Ramdas Pophale) SiO2 
 PCOD8148373
Probable space group: C 2/C
;
_chemical_formula_sum "Si O2"
_cell_formula_units_Z 40
_cell_length_a 5.052348
_cell_length_b 13.570220
_cell_length_c 25.271680
_cell_angle_alpha 90.000000
_cell_angle_beta 104.654390
_cell_angle_gamma 90.000000
_cell_volume 1676.299126
_symmetry_space_group_name_H-M "C 2/C"
_symmetry_group_IT_number 15
_symmetry_cell_setting 'monoclinic'
loop_
_space_group_symop_operation_xyz
x,y,z
-x,y,1/2-z
-x,-y,-z
x,-y,1/2+z
1/2+x,1/2+y,z
1/2-x,1/2+y,1/2-z
1/2-x,1/2-y,-z
1/2+x,1/2-y,1/2+z
loop_
_atom_site_type_symbol
_atom_site_label
_atom_site_fract_x
_atom_site_fract_y
_atom_site_fract_z
Si Si1 0.595716 0.576390 0.579193
Si Si2 0.792465 0.111101 0.031105
Si Si3 0.839438 0.289089 0.575536
Si Si4 0.075559 0.736259 0.308076
Si Si5 0.078493 0.373450 0.308518
O O1 0.762710 0.581014 0.532415
O O2 0.396455 0.482819 0.569314
O O3 0.416186 0.674462 0.578498
O O4 0.814426 0.559169 0.637663
O O5 0.511572 0.147522 0.042509
O O6 0.020496 0.198340 0.044249
O O7 0.891156 0.331462 0.637809
O O8 0.342808 0.803712 0.318729
O O9 0.000000 0.675627 0.250000
O O10 0.819555 0.805476 0.301354
O O11 0.000000 0.433152 0.250000
#
# Coordination Sequence:
#
# PCOD8148373 Si02
#       5
#     8   8   8   8   8
#     4  10  23  41  62  87 126 159 196 255 296 350
#     4  11  25  38  60  94 121 158 204 240 302 365
#     4  11  22  40  62  88 121 160 201 244 299 360
#     4   9  18  34  59  87 115 154 200 246 297 351
#     4   9  18  34  59  85 111 155 201 239 298 355
#
# _framework density 23.862089000000001
#
# number of rings (size 3 to 8) (size 9 to 14) (size 15 to 20)
#    0.000    2.000    0.000    3.600    0.000   11.200 
#    0.000    1.000    0.000    7.200    0.000    0.000 
#    0.000    0.000    0.000    0.000    0.000    0.000 
#
# Total GULP energy -247806.786155 kJ/mol
# GULP energy per Si atom -12390.339308 kJ/mol
# Density = 2.380778 g / cm^3
# Si number density = 23.862089 Si / 1000 Ang^3
#
#
#
# Elastic Constant Matrix: (Units=GPa)
#
#
# Indices 1 2 3 4 5 6 
#
# 1 87.4944 -6.0933 4.6864 0.0000 -10.6120 0.0000
# 2 -6.0933 65.0588 -1.4592 0.0000 -1.3750 0.0000
# 3 4.6864 -1.4592 207.0593 0.0000 9.5389 0.0000
# 4 0.0000 0.0000 0.0000 13.1461 0.0000 8.8768
# 5 -10.6120 -1.3750 9.5389 0.0000 33.0431 0.0000
# 6 0.0000 0.0000 0.0000 8.8768 0.0000 3.0700
#
#
#
# Elastic Compliance Matrix: (Units=1/GPa)
#
#
# Indices 1 2 3 4 5 6 
#
# 1 0.012027 0.001202 -0.000450 0.000000 0.004043 0.000000
# 2 0.001202 0.015506 0.000035 0.000000 0.001021 0.000000
# 3 -0.000450 0.000035 0.004912 0.000000 -0.001561 0.000000
# 4 0.000000 0.000000 0.000000 -0.079869 0.000000 0.230935
# 5 0.004043 0.001021 -0.001561 0.000000 0.032055 0.000000
# 6 0.000000 0.000000 0.000000 0.230935 0.000000 -0.342004
#
#
# Mechanical properties :
#
#
# Convention : Reuss Voigt Hill
#
# Bulk Modulus (GPa) = 29.39564 39.32004 34.35784
# Shear Modulus (GPa) = -14.38405 34.01707 9.81651
#
# Velocity S-wave (km/s) = -2.45786 3.77977 2.03046
# Velocity P-wave (km/s) = 2.07146 5.96344 4.46395
#
# Compressibility (1/GPa) = 0.03401865
#
# Stress axis : x y z
#
# Youngs Moduli (GPa) = 83.14335 64.49269 203.58800
#
# Poissons Ratio (x) = -0.07751 0.09161
# Poissons Ratio (y) = -0.09992 -0.00713
# Poissons Ratio (z) = 0.03741 -0.00226
#
# Static dielectric constant tensor:
#      x y z
#    x 4.173020 0.000000 0.038550 
#    y 0.000000 3.824690 0.000000 
#    z 0.038550 0.000000 5.898390 
# 
# 
# High freq. dielectric constant tensor:
#      x y z
#    x 1.954080 0.000000 0.000780 
#    y 0.000000 1.894510 0.000000 
#    z 0.000780 0.000000 1.986840 
# 
# From -- ./inp_files/285347.got.cif
#   From: 2010.06.25/outbox.cif.g09.slc.cpg/sg15_143_cif.got.tgz:285347.got - 2010.06.28 07:06:18.
