data_PCOD8148704
_publ_section_title
;
Structure prediction by ZEFSAII (Michael W. Deem and Ramdas Pophale) SiO2 
 PCOD8148704
Probable space group: C 2/C
;
_chemical_formula_sum "Si O2"
_cell_formula_units_Z 32
_cell_length_a 25.730520
_cell_length_b 10.680174
_cell_length_c 10.906837
_cell_angle_alpha 90.000000
_cell_angle_beta 26.025208
_cell_angle_gamma 90.000000
_cell_volume 1315.101325
_symmetry_space_group_name_H-M "C 2/C"
_symmetry_group_IT_number 15
_symmetry_cell_setting 'monoclinic'
loop_
_space_group_symop_operation_xyz
x,y,z
-x,y,1/2-z
-x,-y,-z
x,-y,1/2+z
1/2+x,1/2+y,z
1/2-x,1/2+y,1/2-z
1/2-x,1/2-y,-z
1/2+x,1/2-y,1/2+z
loop_
_atom_site_type_symbol
_atom_site_label
_atom_site_fract_x
_atom_site_fract_y
_atom_site_fract_z
Si Si1 0.032231 0.686960 0.861536
Si Si2 0.862191 0.089554 0.477232
Si Si3 0.111505 0.918986 0.302170
Si Si4 0.653583 0.993264 0.283336
O O1 0.114607 0.761112 0.588441
O O2 0.117077 0.629864 0.785139
O O3 0.938086 0.781308 0.125224
O O4 0.961668 0.575592 0.941344
O O5 0.913758 0.049015 0.499115
O O6 0.931631 0.024120 0.210633
O O7 0.722415 0.055265 0.760289
O O8 0.254250 0.920353 0.988705
#
# Coordination Sequence:
#
# PCOD8148704 Si02
#       4
#     8   8   8   8
#     4  11  20  44  66  94 127 175 219 271 320 386
#     4  10  23  42  67  98 134 173 217 270 325 389
#     4  10  23  42  67  98 134 173 217 270 325 389
#     4   9  24  41  66  94 128 173 222 265 326 384
#
# _framework density 24.332723999999999
#
# number of rings (size 3 to 8) (size 9 to 14) (size 15 to 20)
#    1.500    0.500    0.000    3.000    0.000    4.000 
#    0.000    6.250    0.000    0.000    0.000    0.000 
#    0.000    0.000    0.000    0.000    0.000    0.000 
#
# Total GULP energy -198258.467322 kJ/mol
# GULP energy per Si atom -12391.154208 kJ/mol
# Density = 2.427734 g / cm^3
# Si number density = 24.332724 Si / 1000 Ang^3
#
#
#
# Elastic Constant Matrix: (Units=GPa)
#
#
# Indices 1 2 3 4 5 6 
#
# 1 183.6058 55.7214 23.9834 0.0000 -29.4467 0.0000
# 2 55.7214 94.2806 5.0021 0.0000 -27.1643 0.0000
# 3 23.9834 5.0021 32.9974 0.0000 -11.5538 0.0000
# 4 0.0000 0.0000 0.0000 39.1338 0.0000 -26.7672
# 5 -29.4467 -27.1643 -11.5538 0.0000 34.2079 0.0000
# 6 0.0000 0.0000 0.0000 -26.7672 0.0000 34.3388
#
#
#
# Elastic Compliance Matrix: (Units=1/GPa)
#
#
# Indices 1 2 3 4 5 6 
#
# 1 0.007401 -0.003525 -0.004076 0.000000 0.002194 0.000000
# 2 -0.003525 0.015547 0.003931 0.000000 0.010639 0.000000
# 3 -0.004076 0.003931 0.036901 0.000000 0.012076 0.000000
# 4 0.000000 0.000000 0.000000 0.054739 0.000000 0.042669
# 5 0.002194 0.010639 0.012076 0.000000 0.043649 0.000000
# 6 0.000000 0.000000 0.000000 0.042669 0.000000 0.062382
#
#
# Mechanical properties :
#
#
# Convention : Reuss Voigt Hill
#
# Bulk Modulus (GPa) = 19.04544 53.36639 36.20591
# Shear Modulus (GPa) = 20.36976 36.61455 28.49215
#
# Velocity S-wave (km/s) = 2.89647 3.88331 3.42561
# Velocity P-wave (km/s) = 4.36235 6.48740 5.52795
#
# Compressibility (1/GPa) = 0.05250601
#
# Stress axis : x y z
#
# Youngs Moduli (GPa) = 135.12102 64.32154 27.09982
#
# Poissons Ratio (x) = 0.22676 0.11047
# Poissons Ratio (y) = 0.47636 -0.10652
# Poissons Ratio (z) = 0.55080 -0.25283
#
# Static dielectric constant tensor:
#      x y z
#    x 4.481290 0.000000 -0.439820 
#    y 0.000000 4.157500 0.000000 
#    z -0.439820 0.000000 4.243240 
# 
# 
# High freq. dielectric constant tensor:
#      x y z
#    x 1.991950 0.000000 -0.039090 
#    y 0.000000 1.952610 0.000000 
#    z -0.039090 0.000000 1.973330 
# 
# From -- ./inp_files/125787.got.cif
#   From: 2010.06.25/outbox.cif.g09.slc.cpg/sg15_63_cif.got.tgz:125787.got - 2010.06.28 07:06:18.
