data_PCOD8148035
_publ_section_title
;
Structure prediction by ZEFSAII (Michael W. Deem and Ramdas Pophale) SiO2 
 PCOD8148035
Probable space group: C 2/C
;
_chemical_formula_sum "Si O2"
_cell_formula_units_Z 60
_cell_length_a 23.168848
_cell_length_b 20.671757
_cell_length_c 8.751675
_cell_angle_alpha 90.000000
_cell_angle_beta 134.613900
_cell_angle_gamma 90.000000
_cell_volume 2983.767430
_symmetry_space_group_name_H-M "C 2/C"
_symmetry_group_IT_number 15
_symmetry_cell_setting 'monoclinic'
loop_
_space_group_symop_operation_xyz
x,y,z
-x,y,1/2-z
-x,-y,-z
x,-y,1/2+z
1/2+x,1/2+y,z
1/2-x,1/2+y,1/2-z
1/2-x,1/2-y,-z
1/2+x,1/2-y,1/2+z
loop_
_atom_site_type_symbol
_atom_site_label
_atom_site_fract_x
_atom_site_fract_y
_atom_site_fract_z
Si Si1 0.428650 0.587963 0.367389
Si Si2 0.488028 0.723273 0.548091
Si Si3 0.426885 0.050288 0.396384
Si Si4 0.071827 0.306901 0.489448
Si Si5 0.668715 0.788976 0.384162
Si Si6 0.184261 0.481223 0.066968
Si Si7 0.500000 0.495983 0.250000
Si Si8 0.249463 0.915341 0.035558
O O1 0.486403 0.650437 0.478982
O O2 0.449216 0.540464 0.268153
O O3 0.436493 0.549027 0.540773
O O4 0.337847 0.613878 0.169594
O O5 0.500000 0.721439 0.750000
O O6 0.567790 0.759229 0.628155
O O7 0.405669 0.760695 0.350621
O O8 0.452281 0.120609 0.503263
O O9 0.500000 0.000000 0.500000
O O10 0.369940 0.021999 0.419533
O O11 0.376287 0.062204 0.147347
O O12 0.153025 0.294972 0.539726
O O13 0.000000 0.281567 0.250000
O O14 0.750000 0.750000 0.500000
O O15 0.680484 0.862441 0.351866
O O16 0.246782 0.437812 0.280545
O O17 0.236441 0.525739 0.053012
#
# Coordination Sequence:
#
# PCOD8148035 Si02
#       8
#     8   8   8   8   8   8   4   8
#     4  11  22  43  67  94 124 155 208 260 321 383
#     4  11  25  41  65  93 129 167 214 265 318 386
#     4  11  21  36  58  89 125 165 212 259 305 369
#     4  10  23  40  61  91 125 170 214 262 320 386
#     4  11  23  43  67  88 124 175 216 263 323 385
#     4  10  23  36  59  90 123 165 204 256 315 374
#     4  10  24  40  70 100 118 158 204 262 330 384
#     4  11  22  41  63  89 128 164 209 255 323 372
#
# _framework density 20.108806000000001
#
# number of rings (size 3 to 8) (size 9 to 14) (size 15 to 20)
#    0.000    1.333    3.333    2.000   10.267    0.000 
#    0.000    0.667    5.867    0.000    0.000    0.000 
#    0.000    0.000    0.000    0.000    0.000    0.000 
#
# Total GULP energy -371872.380937 kJ/mol
# GULP energy per Si atom -12395.746031 kJ/mol
# Density = 2.006304 g / cm^3
# Si number density = 20.108806 Si / 1000 Ang^3
#
#
#
# Elastic Constant Matrix: (Units=GPa)
#
#
# Indices 1 2 3 4 5 6 
#
# 1 91.0015 42.3821 40.9507 0.0000 -8.7439 0.0000
# 2 42.3821 112.1494 34.6834 0.0000 -8.2305 0.0000
# 3 40.9507 34.6834 98.8242 0.0000 -14.9131 0.0000
# 4 0.0000 0.0000 0.0000 28.9292 0.0000 4.6639
# 5 -8.7439 -8.2305 -14.9131 0.0000 30.3783 0.0000
# 6 0.0000 0.0000 0.0000 4.6639 0.0000 20.9700
#
#
#
# Elastic Compliance Matrix: (Units=1/GPa)
#
#
# Indices 1 2 3 4 5 6 
#
# 1 0.015133 -0.004212 -0.004652 0.000000 0.000931 0.000000
# 2 -0.004212 0.011207 -0.002066 0.000000 0.000810 0.000000
# 3 -0.004652 -0.002066 0.013484 0.000000 0.004721 0.000000
# 4 0.000000 0.000000 0.000000 0.035853 0.000000 -0.007974
# 5 0.000931 0.000810 0.004721 0.000000 0.035723 0.000000
# 6 0.000000 0.000000 0.000000 -0.007974 0.000000 0.049461
#
#
# Mechanical properties :
#
#
# Convention : Reuss Voigt Hill
#
# Bulk Modulus (GPa) = 55.66482 59.77861 57.72172
# Shear Modulus (GPa) = 26.49593 28.31943 27.40768
#
# Velocity S-wave (km/s) = 3.63385 3.75682 3.69585
# Velocity P-wave (km/s) = 6.73412 6.97211 6.85415
#
# Compressibility (1/GPa) = 0.01796467
#
# Stress axis : x y z
#
# Youngs Moduli (GPa) = 66.07884 89.23288 74.16149
#
# Poissons Ratio (x) = 0.37585 0.34502
# Poissons Ratio (y) = 0.27832 0.15318
# Poissons Ratio (z) = 0.30742 0.18431
#
# Static dielectric constant tensor:
#      x y z
#    x 3.947010 0.000000 -0.298320 
#    y 0.000000 3.312050 0.000000 
#    z -0.298320 0.000000 3.992570 
# 
# 
# High freq. dielectric constant tensor:
#      x y z
#    x 1.786970 0.000000 -0.014460 
#    y 0.000000 1.792100 0.000000 
#    z -0.014460 0.000000 1.780260 
# 
# From -- ./inp_files/63939.got.cif
#   From: 2010.06.25/outbox.cif.g09.slc.cpg/sg15_32_cif.got.tgz:63939.got - 2010.06.28 07:06:18.
