data_PCOD8148135
_publ_section_title
;
Structure prediction by ZEFSAII (Michael W. Deem and Ramdas Pophale) SiO2 
 PCOD8148135
Probable space group: C 2/C
;
_chemical_formula_sum "Si O2"
_cell_formula_units_Z 40
_cell_length_a 26.373661
_cell_length_b 7.918793
_cell_length_c 18.524014
_cell_angle_alpha 90.000000
_cell_angle_beta 29.769654
_cell_angle_gamma 90.000000
_cell_volume 1920.862433
_symmetry_space_group_name_H-M "C 2/C"
_symmetry_group_IT_number 15
_symmetry_cell_setting 'monoclinic'
loop_
_space_group_symop_operation_xyz
x,y,z
-x,y,1/2-z
-x,-y,-z
x,-y,1/2+z
1/2+x,1/2+y,z
1/2-x,1/2+y,1/2-z
1/2-x,1/2-y,-z
1/2+x,1/2-y,1/2+z
loop_
_atom_site_type_symbol
_atom_site_label
_atom_site_fract_x
_atom_site_fract_y
_atom_site_fract_z
Si Si1 0.046669 0.186919 0.945413
Si Si2 0.384179 0.144383 0.403529
Si Si3 0.337919 0.146777 0.702506
Si Si4 0.335007 0.106407 0.084504
Si Si5 0.803069 0.652066 0.345032
O O1 0.095939 0.249155 0.961176
O O2 0.125210 0.207670 0.781980
O O3 0.955827 0.316242 0.043720
O O4 0.000000 0.000000 0.000000
O O5 0.500000 0.208339 0.250000
O O6 0.314280 0.290744 0.526077
O O7 0.328299 0.119409 0.396855
O O8 0.386023 0.971086 0.448846
O O9 0.274013 0.313437 0.798885
O O10 0.302384 0.048884 0.675270
O O11 0.322459 0.030619 0.790114
#
# Coordination Sequence:
#
# PCOD8148135 Si02
#       5
#     8   8   8   8   8
#     4  11  22  39  64  92 119 153 200 253 304 353
#     4  11  22  40  59  83 123 164 199 240 301 360
#     4  11  21  39  61  89 119 148 198 251 298 352
#     4  11  22  37  62  88 117 157 199 245 299 363
#     4  10  23  39  61  89 121 159 197 247 301 360
#
# _framework density 20.823981
#
# number of rings (size 3 to 8) (size 9 to 14) (size 15 to 20)
#    0.000    1.200    0.000    9.600    0.000    2.400 
#    0.000    5.000    0.000    2.400    0.000    0.000 
#    0.000    0.000    0.000    0.000    0.000    0.000 
#
# Total GULP energy -247879.936936 kJ/mol
# GULP energy per Si atom -12393.996847 kJ/mol
# Density = 2.077658 g / cm^3
# Si number density = 20.823981 Si / 1000 Ang^3
#
#
#
# Elastic Constant Matrix: (Units=GPa)
#
#
# Indices 1 2 3 4 5 6 
#
# 1 106.3929 24.2347 61.3067 0.0036 6.8699 -0.0008
# 2 24.2347 98.6855 43.0383 0.0281 1.6808 -0.0184
# 3 61.3067 43.0383 171.1860 0.0180 -15.7294 -0.0033
# 4 0.0036 0.0281 0.0180 37.6636 -0.0063 -11.0025
# 5 6.8699 1.6808 -15.7294 -0.0063 38.8989 0.0015
# 6 -0.0008 -0.0184 -0.0033 -11.0025 0.0015 30.8910
#
#
#
# Elastic Compliance Matrix: (Units=1/GPa)
#
#
# Indices 1 2 3 4 5 6 
#
# 1 0.012546 -0.001001 -0.004612 0.000001 -0.004038 0.000000
# 2 -0.001001 0.011572 -0.002680 -0.000006 -0.001407 0.000004
# 3 -0.004612 -0.002680 0.008571 -0.000001 0.004396 -0.000001
# 4 0.000001 -0.000006 -0.000001 0.029634 0.000004 0.010555
# 5 -0.004038 -0.001407 0.004396 0.000004 0.028259 0.000000
# 6 0.000000 0.000004 -0.000001 0.010555 0.000000 0.036131
#
#
# Mechanical properties :
#
#
# Convention : Reuss Voigt Hill
#
# Bulk Modulus (GPa) = 62.10338 70.38040 66.24189
# Shear Modulus (GPa) = 33.63222 38.00301 35.81761
#
# Velocity S-wave (km/s) = 4.02316 4.27659 4.15181
# Velocity P-wave (km/s) = 7.17418 7.63261 7.40694
#
# Compressibility (1/GPa) = 0.01610218
#
# Stress axis : x y z
#
# Youngs Moduli (GPa) = 79.70974 86.41708 116.66955
#
# Poissons Ratio (x) = 0.08647 0.53812
# Poissons Ratio (y) = 0.07976 0.31270
# Poissons Ratio (z) = 0.36765 0.23162
#
# Static dielectric constant tensor:
#      x y z
#    x 3.832750 0.000000 -0.036980 
#    y 0.000000 3.758950 -0.000010 
#    z -0.036980 -0.000010 4.117160 
# 
# 
# High freq. dielectric constant tensor:
#      x y z
#    x 1.818540 0.000000 -0.008520 
#    y 0.000000 1.810020 0.000000 
#    z -0.008520 0.000000 1.827150 
# 
# From -- ./inp_files/102679.got.cif
#   From: 2010.06.25/outbox.cif.g09.slc.cpg/sg15_52_cif.got.tgz:102679.got - 2010.06.28 07:06:18.
