data_PCOD8148369
_publ_section_title
;
Structure prediction by ZEFSAII (Michael W. Deem and Ramdas Pophale) SiO2 
 PCOD8148369
Probable space group: C 2/C
;
_chemical_formula_sum "Si O2"
_cell_formula_units_Z 40
_cell_length_a 17.141420
_cell_length_b 7.942372
_cell_length_c 25.973667
_cell_angle_alpha 90.000000
_cell_angle_beta 27.787443
_cell_angle_gamma 90.000000
_cell_volume 1648.526059
_symmetry_space_group_name_H-M "C 2/C"
_symmetry_group_IT_number 15
_symmetry_cell_setting 'monoclinic'
loop_
_space_group_symop_operation_xyz
x,y,z
-x,y,1/2-z
-x,-y,-z
x,-y,1/2+z
1/2+x,1/2+y,z
1/2-x,1/2+y,1/2-z
1/2-x,1/2-y,-z
1/2+x,1/2-y,1/2+z
loop_
_atom_site_type_symbol
_atom_site_label
_atom_site_fract_x
_atom_site_fract_y
_atom_site_fract_z
Si Si1 0.058829 0.667190 0.891022
Si Si2 0.237417 0.524898 0.971218
Si Si3 0.096495 0.375205 0.796450
Si Si4 0.029187 0.969100 0.375981
Si Si5 0.308339 0.718702 0.085490
O O1 0.157813 0.521161 0.800607
O O2 0.086976 0.662164 0.936009
O O3 0.122178 0.856735 0.837433
O O4 0.860140 0.639164 0.995028
O O5 0.401627 0.471216 0.905671
O O6 0.286291 0.652580 0.897028
O O7 0.107079 0.622813 0.086050
O O8 0.173358 0.398565 0.694568
O O9 0.147100 0.183044 0.785243
O O10 0.934632 0.903112 0.481795
#
# Coordination Sequence:
#
# PCOD8148369 Si02
#       5
#     8   8   8   8   8
#     4  10  23  41  61  91 123 158 208 250 297 364
#     4   9  22  41  63  89 126 157 200 257 297 364
#     4   9  23  38  63  89 128 154 210 246 300 359
#     4  11  22  41  67  89 124 164 198 254 310 358
#     4  11  21  41  66  88 124 167 198 251 311 353
#
# _framework density 24.264099999999999
#
# number of rings (size 3 to 8) (size 9 to 14) (size 15 to 20)
#    1.200    0.800    0.000    4.200    2.800    3.200 
#    3.600    0.000    4.400    0.000    0.000    0.000 
#    0.000    0.000    0.000    0.000    0.000    0.000 
#
# Total GULP energy -247890.093014 kJ/mol
# GULP energy per Si atom -12394.504651 kJ/mol
# Density = 2.420887 g / cm^3
# Si number density = 24.264100 Si / 1000 Ang^3
#
#
#
# Elastic Constant Matrix: (Units=GPa)
#
#
# Indices 1 2 3 4 5 6 
#
# 1 113.0013 42.1619 39.9080 -0.0004 15.1892 -0.0005
# 2 42.1619 114.7584 27.7076 -0.0021 -6.6668 0.0009
# 3 39.9080 27.7076 79.4006 -0.0002 19.7100 0.0021
# 4 -0.0004 -0.0021 -0.0002 39.7196 0.0006 1.2448
# 5 15.1892 -6.6668 19.7100 0.0006 32.0678 -0.0002
# 6 -0.0005 0.0009 0.0021 1.2448 -0.0002 42.6542
#
#
#
# Elastic Compliance Matrix: (Units=1/GPa)
#
#
# Indices 1 2 3 4 5 6 
#
# 1 0.012162 -0.003818 -0.003721 0.000000 -0.004267 0.000000
# 2 -0.003818 0.011367 -0.003639 0.000000 0.006408 0.000000
# 3 -0.003721 -0.003639 0.018273 0.000000 -0.010225 -0.000001
# 4 0.000000 0.000000 0.000000 0.025200 0.000000 -0.000735
# 5 -0.004267 0.006408 -0.010225 0.000000 0.040822 0.000000
# 6 0.000000 0.000000 -0.000001 -0.000735 0.000000 0.023466
#
#
# Mechanical properties :
#
#
# Convention : Reuss Voigt Hill
#
# Bulk Modulus (GPa) = 51.42269 58.52392 54.97331
# Shear Modulus (GPa) = 31.22548 36.04717 33.63632
#
# Velocity S-wave (km/s) = 3.59123 3.85855 3.72729
# Velocity P-wave (km/s) = 6.19958 6.63499 6.42098
#
# Compressibility (1/GPa) = 0.01944667
#
# Stress axis : x y z
#
# Youngs Moduli (GPa) = 82.22629 87.97166 54.72669
#
# Poissons Ratio (x) = 0.33584 0.20365
# Poissons Ratio (y) = 0.31390 0.19913
# Poissons Ratio (z) = 0.30598 0.32010
#
# Static dielectric constant tensor:
#      x y z
#    x 4.254170 0.000000 -0.053040 
#    y 0.000000 4.273700 0.000000 
#    z -0.053040 0.000000 4.172120 
# 
# 
# High freq. dielectric constant tensor:
#      x y z
#    x 1.973560 0.000000 -0.021740 
#    y 0.000000 1.965310 0.000000 
#    z -0.021740 0.000000 1.974430 
# 
# From -- ./inp_files/298286.got.cif
#   From: 2010.06.25/outbox.cif.g09.slc.cpg/sg15_150_cif.got.tgz:298286.got - 2010.06.28 07:06:18.
