data_PCOD8148825
_publ_section_title
;
Structure prediction by ZEFSAII (Michael W. Deem and Ramdas Pophale) SiO2 
 PCOD8148825
Probable space group: C 2/C
;
_chemical_formula_sum "Si O2"
_cell_formula_units_Z 48
_cell_length_a 11.795460
_cell_length_b 13.037277
_cell_length_c 13.537001
_cell_angle_alpha 90.000000
_cell_angle_beta 84.832454
_cell_angle_gamma 90.000000
_cell_volume 2073.268180
_symmetry_space_group_name_H-M "C 2/C"
_symmetry_group_IT_number 15
_symmetry_cell_setting 'monoclinic'
loop_
_space_group_symop_operation_xyz
x,y,z
-x,y,1/2-z
-x,-y,-z
x,-y,1/2+z
1/2+x,1/2+y,z
1/2-x,1/2+y,1/2-z
1/2-x,1/2-y,-z
1/2+x,1/2-y,1/2+z
loop_
_atom_site_type_symbol
_atom_site_label
_atom_site_fract_x
_atom_site_fract_y
_atom_site_fract_z
Si Si1 0.213751 0.498657 0.717945
Si Si2 0.042079 0.594072 0.588718
Si Si3 0.674306 0.864399 0.901922
Si Si4 0.150484 0.127855 0.436731
Si Si5 0.401200 0.692203 0.471308
Si Si6 0.289777 0.851699 0.121270
O O1 0.099499 0.522848 0.666184
O O2 0.178250 0.401730 0.789497
O O3 0.315605 0.466784 0.636014
O O4 0.261771 0.597620 0.774685
O O5 0.085092 0.566141 0.473578
O O6 0.079480 0.712974 0.606548
O O7 0.907149 0.585874 0.604093
O O8 0.800180 0.879743 0.940030
O O9 0.634662 0.744525 0.919304
O O10 0.211487 0.117713 0.536315
O O11 0.191984 0.230238 0.376010
O O12 0.015918 0.125619 0.469200
#
# Coordination Sequence:
#
# PCOD8148825 Si02
#       6
#     8   8   8   8   8   8
#     4  12  23  35  65 106 128 170 235 278 326 403
#     4   9  20  40  64  92 130 169 221 275 326 391
#     4   9  20  39  68  93 129 172 228 269 332 399
#     4  10  23  43  67  93 140 179 216 282 345 392
#     4   8  19  44  68  87 130 189 214 267 342 408
#     4  10  23  43  62  97 137 177 221 277 339 404
#
# _framework density 23.151854
#
# number of rings (size 3 to 8) (size 9 to 14) (size 15 to 20)
#    1.000    1.333    0.000    1.500    2.333    4.667 
#    0.000    5.000    0.000    2.000    0.000    0.000 
#    0.000    0.000    0.000    0.000    0.000    0.000 
#
# Total GULP energy -297349.572051 kJ/mol
# GULP energy per Si atom -12389.565502 kJ/mol
# Density = 2.309916 g / cm^3
# Si number density = 23.151854 Si / 1000 Ang^3
#
#
#
# Elastic Constant Matrix: (Units=GPa)
#
#
# Indices 1 2 3 4 5 6 
#
# 1 137.3284 9.3434 40.8136 0.0000 -4.9526 0.0000
# 2 9.3434 29.0335 -6.6682 0.0000 7.3277 0.0000
# 3 40.8136 -6.6682 67.4769 0.0000 10.0267 0.0000
# 4 0.0000 0.0000 0.0000 54.4159 0.0000 2.4363
# 5 -4.9526 7.3277 10.0267 0.0000 22.3369 0.0000
# 6 0.0000 0.0000 0.0000 2.4363 0.0000 20.9283
#
#
#
# Elastic Compliance Matrix: (Units=1/GPa)
#
#
# Indices 1 2 3 4 5 6 
#
# 1 0.010614 -0.007529 -0.008444 0.000000 0.008614 0.000000
# 2 -0.007529 0.045253 0.012301 0.000000 -0.022036 0.000000
# 3 -0.008444 0.012301 0.023595 0.000000 -0.016499 0.000000
# 4 0.000000 0.000000 0.000000 0.018473 0.000000 -0.002150
# 5 0.008614 -0.022036 -0.016499 0.000000 0.061314 0.000000
# 6 0.000000 0.000000 0.000000 -0.002150 0.000000 0.048033
#
#
# Mechanical properties :
#
#
# Convention : Reuss Voigt Hill
#
# Bulk Modulus (GPa) = 13.86651 35.64625 24.75638
# Shear Modulus (GPa) = 20.94978 32.22622 26.58800
#
# Velocity S-wave (km/s) = 3.01139 3.73493 3.39251
# Velocity P-wave (km/s) = 4.25367 5.83350 5.10507
#
# Compressibility (1/GPa) = 0.07211620
#
# Stress axis : x y z
#
# Youngs Moduli (GPa) = 94.21237 22.09803 42.38257
#
# Poissons Ratio (x) = 0.16638 0.35789
# Poissons Ratio (y) = 0.70935 -0.52133
# Poissons Ratio (z) = 0.79554 -0.27182
#
# Static dielectric constant tensor:
#      x y z
#    x 4.026580 0.000000 -0.135320 
#    y 0.000000 4.063890 0.000000 
#    z -0.135320 0.000000 4.002350 
# 
# 
# High freq. dielectric constant tensor:
#      x y z
#    x 1.907510 0.000000 -0.007150 
#    y 0.000000 1.918400 0.000000 
#    z -0.007150 0.000000 1.897770 
# 
# From -- ./inp_files/143561.got.cif
#   From: 2010.06.25/outbox.cif.g09.slc.cpg/sg15_72_cif.got.tgz:143561.got - 2010.06.28 07:06:18.
