data_PCOD8148453
_publ_section_title
;
Structure prediction by ZEFSAII (Michael W. Deem and Ramdas Pophale) SiO2 
 PCOD8148453
Probable space group: C 2/C
;
_chemical_formula_sum "Si O2"
_cell_formula_units_Z 52
_cell_length_a 9.637162
_cell_length_b 10.423177
_cell_length_c 25.883170
_cell_angle_alpha 90.000000
_cell_angle_beta 67.812575
_cell_angle_gamma 90.000000
_cell_volume 2407.442425
_symmetry_space_group_name_H-M "C 2/C"
_symmetry_group_IT_number 15
_symmetry_cell_setting 'monoclinic'
loop_
_space_group_symop_operation_xyz
x,y,z
-x,y,1/2-z
-x,-y,-z
x,-y,1/2+z
1/2+x,1/2+y,z
1/2-x,1/2+y,1/2-z
1/2-x,1/2-y,-z
1/2+x,1/2-y,1/2+z
loop_
_atom_site_type_symbol
_atom_site_label
_atom_site_fract_x
_atom_site_fract_y
_atom_site_fract_z
Si Si1 0.375984 0.644248 0.475744
Si Si2 0.126396 0.244039 0.630697
Si Si3 0.875267 0.143331 0.974421
Si Si4 0.538416 0.002773 0.670369
Si Si5 0.500000 0.373631 0.250000
Si Si6 0.750212 0.961589 0.729534
Si Si7 0.077440 0.239798 0.362000
O O1 0.250000 0.750000 0.500000
O O2 0.491131 0.669101 0.505518
O O3 0.309566 0.500451 0.489962
O O4 0.453264 0.653993 0.408424
O O5 0.061555 0.159191 0.593124
O O6 0.103158 0.395901 0.621766
O O7 0.053342 0.215309 0.696140
O O8 0.303789 0.216942 0.611163
O O9 0.750000 0.250000 0.000000
O O10 0.671191 0.035436 0.692753
O O11 0.389690 0.931960 0.713518
O O12 0.503754 0.135693 0.648288
O O13 0.635786 0.456757 0.252661
O O14 0.838980 0.836221 0.696264
#
# Coordination Sequence:
#
# PCOD8148453 Si02
#       7
#     8   8   8   8   4   8   8
#     4  11  27  45  72 105 136 181 241 292 349 411
#     4  11  23  42  70  98 136 183 227 278 351 413
#     4  11  25  48  72  99 139 184 227 293 351 408
#     4  10  23  42  68  96 139 182 221 285 346 409
#     4  12  22  42  66  98 140 174 228 280 334 422
#     4  10  23  41  65  99 137 179 225 275 345 412
#     4  11  22  44  67 100 139 177 232 286 341 419
#
# _framework density 21.599686999999999
#
# number of rings (size 3 to 8) (size 9 to 14) (size 15 to 20)
#    0.000    1.231    3.077    2.769    2.154    5.538 
#    2.769    0.000    0.000    0.000    0.000    0.000 
#    0.000    0.000    0.000    0.000    0.000    0.000 
#
# Total GULP energy -322231.733501 kJ/mol
# GULP energy per Si atom -12393.528212 kJ/mol
# Density = 2.155052 g / cm^3
# Si number density = 21.599687 Si / 1000 Ang^3
#
#
#
# Elastic Constant Matrix: (Units=GPa)
#
#
# Indices 1 2 3 4 5 6 
#
# 1 125.6931 93.2369 36.5932 0.0000 4.5687 0.0000
# 2 93.2369 154.3756 48.7857 0.0000 22.5289 0.0000
# 3 36.5932 48.7857 97.4396 0.0000 10.2246 0.0000
# 4 0.0000 0.0000 0.0000 18.9160 0.0000 7.8701
# 5 4.5687 22.5289 10.2246 0.0000 18.8593 0.0000
# 6 0.0000 0.0000 0.0000 7.8701 0.0000 41.3179
#
#
#
# Elastic Compliance Matrix: (Units=1/GPa)
#
#
# Indices 1 2 3 4 5 6 
#
# 1 0.015834 -0.010406 -0.001737 0.000000 0.009536 0.000000
# 2 -0.010406 0.015695 -0.002383 0.000000 -0.014936 0.000000
# 3 -0.001737 -0.002383 0.012475 0.000000 -0.003496 0.000000
# 4 0.000000 0.000000 0.000000 0.057415 0.000000 -0.010936
# 5 0.009536 -0.014936 -0.003496 0.000000 0.070452 0.000000
# 6 0.000000 0.000000 0.000000 -0.010936 0.000000 0.026286
#
#
# Mechanical properties :
#
#
# Convention : Reuss Voigt Hill
#
# Bulk Modulus (GPa) = 66.87949 81.63776 74.25862
# Shear Modulus (GPa) = 21.53384 29.07814 25.30599
#
# Velocity S-wave (km/s) = 3.16088 3.67308 3.42656
# Velocity P-wave (km/s) = 6.65972 7.47439 7.07879
#
# Compressibility (1/GPa) = 0.01495227
#
# Stress axis : x y z
#
# Youngs Moduli (GPa) = 63.15617 63.71375 80.15959
#
# Poissons Ratio (x) = 0.66299 0.13925
# Poissons Ratio (y) = 0.65719 0.19103
# Poissons Ratio (z) = 0.10971 0.15183
#
# Static dielectric constant tensor:
#      x y z
#    x 3.447390 0.000000 -0.012930 
#    y 0.000000 4.789880 0.000000 
#    z -0.012930 0.000000 4.151020 
# 
# 
# High freq. dielectric constant tensor:
#      x y z
#    x 1.853870 0.000000 0.000930 
#    y 0.000000 1.849280 0.000000 
#    z 0.000930 0.000000 1.850620 
# 
# From -- ./inp_files/287590.got.cif
#   From: 2010.06.25/outbox.cif.g09.slc.cpg/sg15_144_cif.got.tgz:287590.got - 2010.06.28 07:06:18.
