data_PCOD8148971
_publ_section_title
;
Structure prediction by ZEFSAII (Michael W. Deem and Ramdas Pophale) SiO2 
 PCOD8148971
Probable space group: C 2/C
;
_chemical_formula_sum "Si O2"
_cell_formula_units_Z 48
_cell_length_a 12.607700
_cell_length_b 29.213686
_cell_length_c 8.423087
_cell_angle_alpha 90.000000
_cell_angle_beta 134.035906
_cell_angle_gamma 90.000000
_cell_volume 2230.306809
_symmetry_space_group_name_H-M "C 2/C"
_symmetry_group_IT_number 15
_symmetry_cell_setting 'monoclinic'
loop_
_space_group_symop_operation_xyz
x,y,z
-x,y,1/2-z
-x,-y,-z
x,-y,1/2+z
1/2+x,1/2+y,z
1/2-x,1/2+y,1/2-z
1/2-x,1/2-y,-z
1/2+x,1/2-y,1/2+z
loop_
_atom_site_type_symbol
_atom_site_label
_atom_site_fract_x
_atom_site_fract_y
_atom_site_fract_z
Si Si1 0.860991 0.277014 0.504019
Si Si2 0.693262 0.363701 0.297460
Si Si3 0.138616 0.217948 0.288414
Si Si4 0.316805 0.954443 0.902966
Si Si5 0.651720 0.949072 0.192840
Si Si6 0.144409 0.131274 0.113540
O O1 0.750000 0.250000 0.500000
O O2 0.779143 0.318617 0.328083
O O3 0.921381 0.243691 0.430148
O O4 0.000000 0.294894 0.750000
O O5 0.781819 0.407294 0.332752
O O6 0.694248 0.358806 0.487614
O O7 0.531824 0.366203 0.054457
O O8 0.250000 0.250000 0.500000
O O9 0.211838 0.169833 0.303546
O O10 0.000000 0.205161 0.250000
O O11 0.197365 0.919425 0.711071
O O12 0.276564 0.006164 0.813539
O O13 0.475844 0.944919 0.990248
O O14 0.309664 0.948905 0.083102
#
# Coordination Sequence:
#
# PCOD8148971 Si02
#       6
#     8   8   8   8   8   8
#     4  12  25  46  70  99 134 184 230 279 337 409
#     4  11  25  43  69  97 133 178 228 272 333 407
#     4  12  27  44  67  98 137 177 227 283 338 397
#     4  10  23  43  69  99 138 172 220 274 335 400
#     4  10  23  43  69 103 133 175 221 274 333 404
#     4  11  25  44  66  97 135 180 222 279 335 401
#
# _framework density 21.521702999999999
#
# number of rings (size 3 to 8) (size 9 to 14) (size 15 to 20)
#    0.000    1.000    1.667    4.000    7.000    2.000 
#    0.000    0.000    0.000    0.000    0.000    0.000 
#    0.000    0.000    0.000    0.000    0.000    0.000 
#
# Total GULP energy -297670.882256 kJ/mol
# GULP energy per Si atom -12402.953427 kJ/mol
# Density = 2.147272 g / cm^3
# Si number density = 21.521703 Si / 1000 Ang^3
#
#
#
# Elastic Constant Matrix: (Units=GPa)
#
#
# Indices 1 2 3 4 5 6 
#
# 1 95.3500 56.2898 27.6436 0.0000 -4.8434 0.0000
# 2 56.2898 173.5397 45.9235 0.0000 6.4328 0.0000
# 3 27.6436 45.9235 83.7345 0.0000 6.2048 0.0000
# 4 0.0000 0.0000 0.0000 46.4816 0.0000 -0.6881
# 5 -4.8434 6.4328 6.2048 0.0000 26.4339 0.0000
# 6 0.0000 0.0000 0.0000 -0.6881 0.0000 48.9973
#
#
#
# Elastic Compliance Matrix: (Units=1/GPa)
#
#
# Indices 1 2 3 4 5 6 
#
# 1 0.013790 -0.003907 -0.002715 0.000000 0.004115 0.000000
# 2 -0.003907 0.007864 -0.002878 0.000000 -0.001954 0.000000
# 3 -0.002715 -0.002878 0.014657 0.000000 -0.003237 0.000000
# 4 0.000000 0.000000 0.000000 0.021518 0.000000 0.000302
# 5 0.004115 -0.001954 -0.003237 0.000000 0.039820 0.000000
# 6 0.000000 0.000000 0.000000 0.000302 0.000000 0.020414
#
#
# Mechanical properties :
#
#
# Convention : Reuss Voigt Hill
#
# Bulk Modulus (GPa) = 57.76619 68.03756 62.90187
# Shear Modulus (GPa) = 35.00588 39.23374 37.11981
#
# Velocity S-wave (km/s) = 4.03741 4.27427 4.15753
# Velocity P-wave (km/s) = 6.97377 7.48608 7.23446
#
# Compressibility (1/GPa) = 0.01731117
#
# Stress axis : x y z
#
# Youngs Moduli (GPa) = 72.51448 127.16512 68.22629
#
# Poissons Ratio (x) = 0.49686 0.18521
# Poissons Ratio (y) = 0.28333 0.19636
# Poissons Ratio (z) = 0.19685 0.36600
#
# Static dielectric constant tensor:
#      x y z
#    x 4.091730 0.000000 -0.046260 
#    y 0.000000 4.040290 0.000000 
#    z -0.046260 0.000000 4.371480 
# 
# 
# High freq. dielectric constant tensor:
#      x y z
#    x 1.852270 0.000000 -0.013290 
#    y 0.000000 1.860020 0.000000 
#    z -0.013290 0.000000 1.842280 
# 
# From -- ./inp_files/43915.got.cif
#   From: 2010.06.25/outbox.cif.g09.slc.cpg/sg15_22_cif.got.tgz:43915.got - 2010.06.28 07:06:18.
