data_PCOD8148264
_publ_section_title
;
Structure prediction by ZEFSAII (Michael W. Deem and Ramdas Pophale) SiO2 
 PCOD8148264
Probable space group: C 2/C
;
_chemical_formula_sum "Si O2"
_cell_formula_units_Z 36
_cell_length_a 6.507359
_cell_length_b 30.231037
_cell_length_c 10.425584
_cell_angle_alpha 90.000000
_cell_angle_beta 116.242256
_cell_angle_gamma 90.000000
_cell_volume 1839.576996
_symmetry_space_group_name_H-M "C 2/C"
_symmetry_group_IT_number 15
_symmetry_cell_setting 'monoclinic'
loop_
_space_group_symop_operation_xyz
x,y,z
-x,y,1/2-z
-x,-y,-z
x,-y,1/2+z
1/2+x,1/2+y,z
1/2-x,1/2+y,1/2-z
1/2-x,1/2-y,-z
1/2+x,1/2-y,1/2+z
loop_
_atom_site_type_symbol
_atom_site_label
_atom_site_fract_x
_atom_site_fract_y
_atom_site_fract_z
Si Si1 0.044757 0.061335 0.117542
Si Si2 0.500000 0.222404 0.250000
Si Si3 0.250086 0.218798 0.620046
Si Si4 0.933255 0.835908 0.876534
Si Si5 0.638297 0.010457 0.908953
O O1 0.116227 0.112261 0.132246
O O2 0.000000 0.045038 0.250000
O O3 0.248510 0.035265 0.105597
O O4 0.812963 0.050574 0.978530
O O5 0.420817 0.256396 0.334399
O O6 0.293728 0.190928 0.144983
O O7 0.500000 0.209187 0.750000
O O8 0.250000 0.250000 0.500000
O O9 0.135193 0.173479 0.535588
O O10 0.000000 0.820904 0.750000
O O11 0.500000 0.028984 0.750000
O O12 0.500000 0.000000 0.000000
#
# Coordination Sequence:
#
# PCOD8148264 Si02
#       5
#     8   4   8   8   8
#     4  10  23  40  64  98 125 162 214 255 312 383
#     4  12  22  38  70  86 126 168 212 250 322 366
#     4  12  23  42  62  92 125 164 213 261 314 372
#     4  11  24  41  64  95 129 165 213 261 308 379
#     4  11  22  41  68  93 127 168 207 259 322 377
#
# _framework density 19.569717000000001
#
# number of rings (size 3 to 8) (size 9 to 14) (size 15 to 20)
#    0.000    0.889    6.667    0.667    1.556    0.889 
#    0.000    2.222    0.000    0.000    0.000    0.000 
#    0.000    0.000    0.000    0.000    0.000    0.000 
#
# Total GULP energy -223112.199111 kJ/mol
# GULP energy per Si atom -12395.122173 kJ/mol
# Density = 1.952518 g / cm^3
# Si number density = 19.569717 Si / 1000 Ang^3
#
#
#
# Elastic Constant Matrix: (Units=GPa)
#
#
# Indices 1 2 3 4 5 6 
#
# 1 131.3753 47.0655 60.8693 0.0000 -12.5546 0.0000
# 2 47.0655 75.9578 40.7995 0.0000 -3.7082 0.0000
# 3 60.8693 40.7995 162.3261 0.0000 10.2543 0.0000
# 4 0.0000 0.0000 0.0000 29.4177 0.0000 -5.8451
# 5 -12.5546 -3.7082 10.2543 0.0000 42.1879 0.0000
# 6 0.0000 0.0000 0.0000 -5.8451 0.0000 12.1426
#
#
#
# Elastic Compliance Matrix: (Units=1/GPa)
#
#
# Indices 1 2 3 4 5 6 
#
# 1 0.011257 -0.005091 -0.003174 0.000000 0.003674 0.000000
# 2 -0.005091 0.017746 -0.002594 0.000000 0.000675 0.000000
# 3 -0.003174 -0.002594 0.008202 0.000000 -0.003166 0.000000
# 4 0.000000 0.000000 0.000000 0.037588 0.000000 0.018094
# 5 0.003674 0.000675 -0.003166 0.000000 0.025626 0.000000
# 6 0.000000 0.000000 0.000000 0.018094 0.000000 0.091065
#
#
# Mechanical properties :
#
#
# Convention : Reuss Voigt Hill
#
# Bulk Modulus (GPa) = 64.56535 74.12529 69.34532
# Shear Modulus (GPa) = 22.89746 31.47797 27.18772
#
# Velocity S-wave (km/s) = 3.42430 4.01497 3.73134
# Velocity P-wave (km/s) = 6.97844 7.71058 7.35363
#
# Compressibility (1/GPa) = 0.01548818
#
# Stress axis : x y z
#
# Youngs Moduli (GPa) = 88.83145 56.35040 121.91425
#
# Poissons Ratio (x) = 0.28689 0.38692
# Poissons Ratio (y) = 0.45226 0.31623
# Poissons Ratio (z) = 0.28192 0.14617
#
# Static dielectric constant tensor:
#      x y z
#    x 3.654300 0.000000 -0.026360 
#    y 0.000000 3.551950 0.000000 
#    z -0.026360 0.000000 3.349420 
# 
# 
# High freq. dielectric constant tensor:
#      x y z
#    x 1.774470 0.000000 0.001140 
#    y 0.000000 1.752980 0.000000 
#    z 0.001140 0.000000 1.775900 
# 
# From -- ./inp_files/73535.got.cif
#   From: 2010.06.25/outbox.cif.g09.slc.cpg/sg15_37_cif.got.tgz:73535.got - 2010.06.28 07:06:18.
