data_PCOD8148133
_publ_section_title
;
Structure prediction by ZEFSAII (Michael W. Deem and Ramdas Pophale) SiO2 
 PCOD8148133
Probable space group: C 2/C
;
_chemical_formula_sum "Si O2"
_cell_formula_units_Z 60
_cell_length_a 22.157790
_cell_length_b 9.100802
_cell_length_c 17.234674
_cell_angle_alpha 90.000000
_cell_angle_beta 123.505260
_cell_angle_gamma 90.000000
_cell_volume 2897.939928
_symmetry_space_group_name_H-M "C 2/C"
_symmetry_group_IT_number 15
_symmetry_cell_setting 'monoclinic'
loop_
_space_group_symop_operation_xyz
x,y,z
-x,y,1/2-z
-x,-y,-z
x,-y,1/2+z
1/2+x,1/2+y,z
1/2-x,1/2+y,1/2-z
1/2-x,1/2-y,-z
1/2+x,1/2-y,1/2+z
loop_
_atom_site_type_symbol
_atom_site_label
_atom_site_fract_x
_atom_site_fract_y
_atom_site_fract_z
Si Si1 0.395270 0.087131 0.958403
Si Si2 0.387342 0.022894 0.620785
Si Si3 0.402872 0.222214 0.251504
Si Si4 0.546193 0.789674 0.544490
Si Si5 0.274087 0.515034 0.500798
Si Si6 0.500000 0.545843 0.750000
Si Si7 0.245440 0.715469 0.617676
Si Si8 0.082691 0.162426 0.415674
O O1 0.462579 0.172824 0.969256
O O2 0.396583 0.086348 0.053572
O O3 0.320539 0.161081 0.874088
O O4 0.398037 0.922184 0.929597
O O5 0.427276 0.177356 0.632399
O O6 0.418782 0.933559 0.718314
O O7 0.302831 0.057710 0.575864
O O8 0.447605 0.249705 0.361228
O O9 0.429339 0.354938 0.215813
O O10 0.317684 0.232267 0.212959
O O11 0.567755 0.665242 0.497795
O O12 0.270186 0.575794 0.584950
O O13 0.289808 0.653042 0.456523
O O14 0.335906 0.393343 0.538367
O O15 0.477942 0.444128 0.662113
#
# Coordination Sequence:
#
# PCOD8148133 Si02
#       8
#     8   8   8   8   8   4   8   8
#     4   9  19  39  61  87 113 170 205 252 297 389
#     4   9  20  38  69  85 115 162 216 253 299 364
#     4  11  22  41  61  94 117 169 203 257 305 385
#     4  10  23  39  61  86 132 158 205 254 333 369
#     4   9  17  35  64  91 115 158 208 255 299 368
#     4  12  26  38  64  90 128 160 216 260 300 380
#     4   9  18  36  63  88 120 159 215 249 300 374
#     4  11  23  40  59  98 128 160 199 269 320 359
#
# _framework density 20.704363000000001
#
# number of rings (size 3 to 8) (size 9 to 14) (size 15 to 20)
#    0.000    2.133    1.333    2.000    1.867    4.267 
#    4.800    0.000    0.000    0.000    0.000    0.000 
#    0.000    0.000    0.000    0.000    0.000    0.000 
#
# Total GULP energy -371834.095277 kJ/mol
# GULP energy per Si atom -12394.469843 kJ/mol
# Density = 2.065724 g / cm^3
# Si number density = 20.704363 Si / 1000 Ang^3
#
#
#
# Elastic Constant Matrix: (Units=GPa)
#
#
# Indices 1 2 3 4 5 6 
#
# 1 90.9158 36.9440 12.9380 0.0000 7.2915 0.0000
# 2 36.9440 89.1345 30.9663 0.0000 0.2480 0.0000
# 3 12.9380 30.9663 65.1192 0.0000 -7.9038 0.0000
# 4 0.0000 0.0000 0.0000 26.1158 0.0000 3.7186
# 5 7.2915 0.2480 -7.9038 0.0000 27.6053 0.0000
# 6 0.0000 0.0000 0.0000 3.7186 0.0000 26.8728
#
#
#
# Elastic Compliance Matrix: (Units=1/GPa)
#
#
# Indices 1 2 3 4 5 6 
#
# 1 0.013580 -0.005420 -0.000570 0.000000 -0.003701 0.000000
# 2 -0.005420 0.015712 -0.006463 0.000000 -0.000560 0.000000
# 3 -0.000570 -0.006463 0.019237 0.000000 0.005716 0.000000
# 4 0.000000 0.000000 0.000000 0.039061 0.000000 -0.005405
# 5 -0.003701 -0.000560 0.005716 0.000000 0.038844 0.000000
# 6 0.000000 0.000000 0.000000 -0.005405 0.000000 0.037960
#
#
# Mechanical properties :
#
#
# Convention : Reuss Voigt Hill
#
# Bulk Modulus (GPa) = 42.33131 45.20735 43.76933
# Shear Modulus (GPa) = 25.35835 27.07353 26.21594
#
# Velocity S-wave (km/s) = 3.50349 3.62003 3.56224
# Velocity P-wave (km/s) = 6.07090 6.27335 6.17296
#
# Compressibility (1/GPa) = 0.02362317
#
# Stress axis : x y z
#
# Youngs Moduli (GPa) = 73.63970 63.64431 51.98387
#
# Poissons Ratio (x) = 0.34496 0.02962
# Poissons Ratio (y) = 0.39914 0.33596
# Poissons Ratio (z) = 0.04196 0.41132
#
# Static dielectric constant tensor:
#      x y z
#    x 3.852180 0.000000 0.086770 
#    y 0.000000 3.678550 0.000000 
#    z 0.086770 0.000000 3.429930 
# 
# 
# High freq. dielectric constant tensor:
#      x y z
#    x 1.816900 0.000000 0.016700 
#    y 0.000000 1.802540 0.000000 
#    z 0.016700 0.000000 1.780640 
# 
# From -- ./inp_files/214299.got.cif
#   From: 2010.06.25/outbox.cif.g09.slc.cpg/sg15_108_cif.got.tgz:214299.got - 2010.06.28 07:06:18.
