data_PCOD8148821
_publ_section_title
;
Structure prediction by ZEFSAII (Michael W. Deem and Ramdas Pophale) SiO2 
 PCOD8148821
Probable space group: C 2/C
;
_chemical_formula_sum "Si O2"
_cell_formula_units_Z 40
_cell_length_a 11.496712
_cell_length_b 8.595468
_cell_length_c 19.349671
_cell_angle_alpha 90.000000
_cell_angle_beta 107.598473
_cell_angle_gamma 90.000000
_cell_volume 1822.637151
_symmetry_space_group_name_H-M "C 2/C"
_symmetry_group_IT_number 15
_symmetry_cell_setting 'monoclinic'
loop_
_space_group_symop_operation_xyz
x,y,z
-x,y,1/2-z
-x,-y,-z
x,-y,1/2+z
1/2+x,1/2+y,z
1/2-x,1/2+y,1/2-z
1/2-x,1/2-y,-z
1/2+x,1/2-y,1/2+z
loop_
_atom_site_type_symbol
_atom_site_label
_atom_site_fract_x
_atom_site_fract_y
_atom_site_fract_z
Si Si1 0.456356 0.878581 0.865520
Si Si2 0.111210 0.625278 0.814782
Si Si3 0.971490 0.927202 0.067987
Si Si4 0.295310 0.447656 0.633439
Si Si5 0.647096 0.411097 0.215191
O O1 0.516204 0.760395 0.932360
O O2 0.349379 0.975844 0.884162
O O3 0.391290 0.773000 0.793370
O O4 0.562163 0.989899 0.856217
O O5 0.174387 0.764202 0.868576
O O6 0.211768 0.558500 0.779850
O O7 0.000000 0.692142 0.750000
O O8 0.064252 0.999880 0.142657
O O9 0.835523 0.971272 0.069174
O O10 0.000000 0.000000 0.000000
O O11 0.371226 0.524369 0.710849
#
# Coordination Sequence:
#
# PCOD8148821 Si02
#       5
#     8   8   8   8   8
#     4   9  23  38  60  92 121 154 199 253 300 354
#     4  11  20  36  63  93 123 149 196 262 303 345
#     4  10  23  43  62  84 129 169 197 244 302 363
#     4  11  21  39  65  89 118 157 205 253 300 355
#     4   9  21  37  63  91 118 155 202 246 304 357
#
# _framework density 21.946223
#
# number of rings (size 3 to 8) (size 9 to 14) (size 15 to 20)
#    1.200    0.800    2.000    1.800    2.800    0.800 
#    3.600    2.000    0.000    0.000    0.000    0.000 
#    0.000    0.000    0.000    0.000    0.000    0.000 
#
# Total GULP energy -247859.220330 kJ/mol
# GULP energy per Si atom -12392.961016 kJ/mol
# Density = 2.189627 g / cm^3
# Si number density = 21.946223 Si / 1000 Ang^3
#
#
#
# Elastic Constant Matrix: (Units=GPa)
#
#
# Indices 1 2 3 4 5 6 
#
# 1 101.7122 28.9326 27.0651 0.0000 -30.5020 0.0000
# 2 28.9326 50.8819 7.5459 0.0000 -9.0284 0.0000
# 3 27.0651 7.5459 67.6317 0.0000 -30.3607 0.0000
# 4 0.0000 0.0000 0.0000 20.2466 0.0000 -10.0101
# 5 -30.5020 -9.0284 -30.3607 0.0000 29.5896 0.0000
# 6 0.0000 0.0000 0.0000 -10.0101 0.0000 44.4905
#
#
#
# Elastic Compliance Matrix: (Units=1/GPa)
#
#
# Indices 1 2 3 4 5 6 
#
# 1 0.016149 -0.006529 0.001566 0.000000 0.016261 0.000000
# 2 -0.006529 0.023453 0.000347 0.000000 0.000781 0.000000
# 3 0.001566 0.000347 0.027610 0.000000 0.030050 0.000000
# 4 0.000000 0.000000 0.000000 0.055573 0.000000 0.012503
# 5 0.016261 0.000781 0.030050 0.000000 0.081630 0.000000
# 6 0.000000 0.000000 0.000000 0.012503 0.000000 0.025290
#
#
# Mechanical properties :
#
#
# Convention : Reuss Voigt Hill
#
# Bulk Modulus (GPa) = 17.24754 38.59030 27.91892
# Shear Modulus (GPa) = 19.36000 29.31083 24.33541
#
# Velocity S-wave (km/s) = 2.97333 3.65852 3.33358
# Velocity P-wave (km/s) = 4.43437 5.95555 5.25034
#
# Compressibility (1/GPa) = 0.05797929
#
# Stress axis : x y z
#
# Youngs Moduli (GPa) = 61.92409 42.63790 36.21819
#
# Poissons Ratio (x) = 0.27840 -0.05671
# Poissons Ratio (y) = 0.40433 -0.01257
# Poissons Ratio (z) = -0.09696 -0.01479
#
# Static dielectric constant tensor:
#      x y z
#    x 4.084470 0.000000 -0.116530 
#    y 0.000000 3.695250 0.000000 
#    z -0.116530 0.000000 3.335200 
# 
# 
# High freq. dielectric constant tensor:
#      x y z
#    x 1.883990 0.000000 -0.018460 
#    y 0.000000 1.848910 0.000000 
#    z -0.018460 0.000000 1.810400 
# 
# From -- ./inp_files/195236.got.cif
#   From: 2010.06.25/outbox.cif.g09.slc.cpg/sg15_98_cif.got.tgz:195236.got - 2010.06.28 07:06:18.
