data_PCOD8148445
_publ_section_title
;
Structure prediction by ZEFSAII (Michael W. Deem and Ramdas Pophale) SiO2 
 PCOD8148445
Probable space group: C 2/C
;
_chemical_formula_sum "Si O2"
_cell_formula_units_Z 64
_cell_length_a 11.782165
_cell_length_b 29.992094
_cell_length_c 18.255185
_cell_angle_alpha 90.000000
_cell_angle_beta 28.933497
_cell_angle_gamma 90.000000
_cell_volume 3120.891846
_symmetry_space_group_name_H-M "C 2/C"
_symmetry_group_IT_number 15
_symmetry_cell_setting 'monoclinic'
loop_
_space_group_symop_operation_xyz
x,y,z
-x,y,1/2-z
-x,-y,-z
x,-y,1/2+z
1/2+x,1/2+y,z
1/2-x,1/2+y,1/2-z
1/2-x,1/2-y,-z
1/2+x,1/2-y,1/2+z
loop_
_atom_site_type_symbol
_atom_site_label
_atom_site_fract_x
_atom_site_fract_y
_atom_site_fract_z
Si Si1 0.427366 0.957317 0.870407
Si Si2 0.176312 0.293757 0.084680
Si Si3 0.637264 0.626325 0.488696
Si Si4 0.583938 0.123622 0.786522
Si Si5 0.301620 0.952425 0.512757
Si Si6 0.170805 0.836509 0.816632
Si Si7 0.099998 0.290309 0.614032
Si Si8 0.694324 0.423720 0.735038
O O1 0.500000 0.976834 0.750000
O O2 0.653521 0.937679 0.782023
O O3 0.227399 0.919969 0.972422
O O4 0.338492 0.996054 0.973913
O O5 0.000000 0.279999 0.250000
O O6 0.043161 0.331350 0.110096
O O7 0.250000 0.250000 0.000000
O O8 0.419292 0.314900 0.975965
O O9 0.358438 0.626921 0.643524
O O10 0.741278 0.633767 0.348369
O O11 0.730450 0.666805 0.485578
O O12 0.500000 0.121495 0.750000
O O13 0.512702 0.078440 0.866930
O O14 0.285419 0.945147 0.608784
O O15 0.068635 0.939424 0.600778
O O16 0.371902 0.799162 0.691318
O O17 0.178309 0.869466 0.742050
O O18 0.250000 0.250000 0.500000
O O19 0.000000 0.278262 0.750000
#
# Coordination Sequence:
#
# PCOD8148445 Si02
#       8
#     8   8   8   8   8   8   8   8
#     4  12  24  41  71  98 125 176 234 272 333 410
#     4  11  24  39  65 101 138 175 229 285 339 406
#     4  11  21  42  68  96 128 172 229 283 324 400
#     4  11  22  43  64  94 134 169 222 277 335 399
#     4  11  26  41  65  98 135 175 214 284 346 401
#     4  11  20  43  72  91 133 181 225 277 337 402
#     4  10  23  41  65  95 131 175 224 280 336 403
#     4  11  23  46  64  94 137 175 221 275 342 403
#
# _framework density 20.506958999999998
#
# number of rings (size 3 to 8) (size 9 to 14) (size 15 to 20)
#    0.000    1.000    6.250    1.125    3.500    1.500 
#    2.250    0.000    0.000    0.000    0.000    0.000 
#    0.000    0.000    0.000    0.000    0.000    0.000 
#
# Total GULP energy -396649.897689 kJ/mol
# GULP energy per Si atom -12395.309303 kJ/mol
# Density = 2.046028 g / cm^3
# Si number density = 20.506959 Si / 1000 Ang^3
#
#
#
# Elastic Constant Matrix: (Units=GPa)
#
#
# Indices 1 2 3 4 5 6 
#
# 1 87.4450 34.4589 49.7892 -0.0051 -15.8681 -0.0021
# 2 34.4589 149.6471 66.8709 0.0009 6.8507 -0.0027
# 3 49.7892 66.8709 121.4428 0.0109 -17.5367 -0.0032
# 4 -0.0051 0.0009 0.0109 41.0245 0.0006 2.5820
# 5 -15.8681 6.8507 -17.5367 0.0006 35.4999 0.0033
# 6 -0.0021 -0.0027 -0.0032 2.5820 0.0033 28.1979
#
#
#
# Elastic Compliance Matrix: (Units=1/GPa)
#
#
# Indices 1 2 3 4 5 6 
#
# 1 0.015746 -0.001715 -0.004789 0.000003 0.005004 0.000000
# 2 -0.001715 0.009751 -0.005436 0.000001 -0.005334 0.000001
# 3 -0.004789 -0.005436 0.014034 -0.000004 0.005841 0.000000
# 4 0.000003 0.000001 -0.000004 0.024517 -0.000001 -0.002245
# 5 0.005004 -0.005334 0.005841 -0.000001 0.034321 -0.000003
# 6 0.000000 0.000001 0.000000 -0.002245 -0.000003 0.035669
#
#
# Mechanical properties :
#
#
# Convention : Reuss Voigt Hill
#
# Bulk Modulus (GPa) = 63.89145 73.41922 68.65534
# Shear Modulus (GPa) = 30.64944 34.77218 32.71081
#
# Velocity S-wave (km/s) = 3.87018 4.12227 3.99821
# Velocity P-wave (km/s) = 7.15505 7.65097 7.40716
#
# Compressibility (1/GPa) = 0.01565155
#
# Stress axis : x y z
#
# Youngs Moduli (GPa) = 63.50744 102.55718 71.25308
#
# Poissons Ratio (x) = 0.17589 0.34121
# Poissons Ratio (y) = 0.10892 0.38734
# Poissons Ratio (z) = 0.30412 0.55752
#
# Static dielectric constant tensor:
#      x y z
#    x 3.719570 -0.000020 -0.250910 
#    y -0.000020 3.903230 0.000010 
#    z -0.250910 0.000010 3.718940 
# 
# 
# High freq. dielectric constant tensor:
#      x y z
#    x 1.794500 0.000000 -0.024950 
#    y 0.000000 1.811390 0.000000 
#    z -0.024950 0.000000 1.803070 
# 
# From -- ./inp_files/201442.got.cif
#   From: 2010.06.25/outbox.cif.g09.slc.cpg/sg15_101_cif.got.tgz:201442.got - 2010.06.28 07:06:18.
