data_PCOD8148057
_publ_section_title
;
Structure prediction by ZEFSAII (Michael W. Deem and Ramdas Pophale) SiO2 
 PCOD8148057
Probable space group: C 2/C
;
_chemical_formula_sum "Si O2"
_cell_formula_units_Z 56
_cell_length_a 26.520830
_cell_length_b 6.251966
_cell_length_c 22.249392
_cell_angle_alpha 90.000000
_cell_angle_beta 131.156437
_cell_angle_gamma 90.000000
_cell_volume 2777.589793
_symmetry_space_group_name_H-M "C 2/C"
_symmetry_group_IT_number 15
_symmetry_cell_setting 'monoclinic'
loop_
_space_group_symop_operation_xyz
x,y,z
-x,y,1/2-z
-x,-y,-z
x,-y,1/2+z
1/2+x,1/2+y,z
1/2-x,1/2+y,1/2-z
1/2-x,1/2-y,-z
1/2+x,1/2-y,1/2+z
loop_
_atom_site_type_symbol
_atom_site_label
_atom_site_fract_x
_atom_site_fract_y
_atom_site_fract_z
Si Si1 0.732726 0.276895 0.389651
Si Si2 0.594175 0.336144 0.975543
Si Si3 0.819370 0.464363 0.243432
Si Si4 0.469702 0.307071 0.014039
Si Si5 0.460367 0.919430 0.390079
Si Si6 0.295923 0.877399 0.859267
Si Si7 0.699597 0.442847 0.969944
O O1 0.682773 0.157082 0.305724
O O2 0.784344 0.416005 0.391269
O O3 0.689249 0.428405 0.399851
O O4 0.774793 0.103437 0.459171
O O5 0.583855 0.587279 0.983330
O O6 0.637792 0.236012 0.063539
O O7 0.523610 0.212621 0.914276
O O8 0.630906 0.334345 0.939755
O O9 0.895261 0.374515 0.298351
O O10 0.767659 0.279720 0.185349
O O11 0.805172 0.559421 0.297779
O O12 0.438070 0.144477 0.940754
O O13 0.500000 0.500000 0.000000
O O14 0.523050 0.173250 0.095656
O O15 0.750000 0.250000 0.000000
#
# Coordination Sequence:
#
# PCOD8148057 Si02
#       7
#     8   8   8   8   8   8   8
#     4  11  24  41  64  97 130 169 222 281 325 390
#     4  11  23  39  67  97 125 176 229 270 324 400
#     4  12  24  39  62  99 141 174 206 278 346 405
#     4   9  19  37  57  91 126 169 213 260 321 397
#     4  10  23  37  61  92 139 169 211 270 338 398
#     4  12  24  38  66 100 133 172 220 273 343 393
#     4  11  23  43  69  95 124 171 233 280 316 388
#
# _framework density 20.161363999999999
#
# number of rings (size 3 to 8) (size 9 to 14) (size 15 to 20)
#    0.000    1.143    4.286    2.571    6.000    2.286 
#    0.000    0.000    0.000   12.857    0.000    0.000 
#    0.000    0.000    0.000    0.000    0.000    0.000 
#
# Total GULP energy -347127.317915 kJ/mol
# GULP energy per Si atom -12397.404211 kJ/mol
# Density = 2.011548 g / cm^3
# Si number density = 20.161364 Si / 1000 Ang^3
#
#
#
# Elastic Constant Matrix: (Units=GPa)
#
#
# Indices 1 2 3 4 5 6 
#
# 1 136.5228 57.3195 52.5486 -0.0002 0.6973 -0.0008
# 2 57.3195 123.2872 49.3496 -0.0024 5.4175 0.0080
# 3 52.5486 49.3496 96.2734 0.0004 7.2606 0.0000
# 4 -0.0002 -0.0024 0.0004 34.4035 -0.0002 -5.1634
# 5 0.6973 5.4175 7.2606 -0.0002 40.1890 -0.0001
# 6 -0.0008 0.0080 0.0000 -5.1634 -0.0001 44.1509
#
#
#
# Elastic Compliance Matrix: (Units=1/GPa)
#
#
# Indices 1 2 3 4 5 6 
#
# 1 0.010198 -0.003179 -0.004011 0.000000 0.000976 0.000001
# 2 -0.003179 0.011204 -0.003952 0.000000 -0.000741 -0.000002
# 3 -0.004011 -0.003952 0.014758 0.000000 -0.002064 0.000001
# 4 0.000000 0.000000 0.000000 0.029586 0.000000 0.003460
# 5 0.000976 -0.000741 -0.002064 0.000000 0.025338 0.000000
# 6 0.000001 -0.000002 0.000001 0.003460 0.000000 0.023054
#
#
# Mechanical properties :
#
#
# Convention : Reuss Voigt Hill
#
# Bulk Modulus (GPa) = 72.06412 74.94654 73.50533
# Shear Modulus (GPa) = 35.44941 36.87305 36.16123
#
# Velocity S-wave (km/s) = 4.19774 4.28120 4.23967
# Velocity P-wave (km/s) = 7.70169 7.85444 7.77844
#
# Compressibility (1/GPa) = 0.01387653
#
# Stress axis : x y z
#
# Youngs Moduli (GPa) = 98.05675 89.25742 67.76214
#
# Poissons Ratio (x) = 0.28375 0.27176
# Poissons Ratio (y) = 0.31172 0.26779
# Poissons Ratio (z) = 0.39326 0.35273
#
# Static dielectric constant tensor:
#      x y z
#    x 3.920540 -0.000020 -0.095620 
#    y -0.000020 4.126320 0.000000 
#    z -0.095620 0.000000 3.518420 
# 
# 
# High freq. dielectric constant tensor:
#      x y z
#    x 1.786230 0.000000 0.000320 
#    y 0.000000 1.809910 0.000000 
#    z 0.000320 0.000000 1.760410 
# 
# From -- ./inp_files/282974.got.cif
#   From: 2010.06.25/outbox.cif.g09.slc.cpg/sg15_142_cif.got.tgz:282974.got - 2010.06.28 07:06:18.
