data_PCOD8148053
_publ_section_title
;
Structure prediction by ZEFSAII (Michael W. Deem and Ramdas Pophale) SiO2 
 PCOD8148053
Probable space group: C 2/C
;
_chemical_formula_sum "Si O2"
_cell_formula_units_Z 40
_cell_length_a 5.082432
_cell_length_b 23.747809
_cell_length_c 14.727058
_cell_angle_alpha 90.000000
_cell_angle_beta 90.024235
_cell_angle_gamma 90.000000
_cell_volume 1777.506029
_symmetry_space_group_name_H-M "C 2/C"
_symmetry_group_IT_number 15
_symmetry_cell_setting 'monoclinic'
loop_
_space_group_symop_operation_xyz
x,y,z
-x,y,1/2-z
-x,-y,-z
x,-y,1/2+z
1/2+x,1/2+y,z
1/2-x,1/2+y,1/2-z
1/2-x,1/2-y,-z
1/2+x,1/2-y,1/2+z
loop_
_atom_site_type_symbol
_atom_site_label
_atom_site_fract_x
_atom_site_fract_y
_atom_site_fract_z
Si Si1 0.000000 0.293193 0.750000
Si Si2 0.514215 0.902764 0.499635
Si Si3 0.500000 0.632469 0.250000
Si Si4 0.702083 0.038446 0.167559
Si Si5 0.514351 0.549289 0.927436
Si Si6 0.004844 0.725283 0.049963
O O1 0.253418 0.330004 0.778537
O O2 0.966147 0.256995 0.842632
O O3 0.531081 0.951459 0.576873
O O4 0.738705 0.916658 0.423045
O O5 0.535605 0.841775 0.544671
O O6 0.232080 0.904451 0.452780
O O7 0.404915 0.591228 0.169434
O O8 0.500000 0.035201 0.250000
O O9 0.882757 0.981866 0.164438
O O10 0.500000 0.500000 0.000000
O O11 0.750000 0.750000 0.000000
O O12 0.250000 0.750000 0.000000
#
# Coordination Sequence:
#
# PCOD8148053 Si02
#       6
#     4   8   4   8   8   8
#     4  12  26  44  70 103 138 167 230 306 352 392
#     4  11  23  42  62  94 132 170 224 276 332 398
#     4  12  22  36  66 101 138 169 218 298 342 380
#     4  11  23  35  64  97 135 171 221 268 335 393
#     4  10  23  37  60  90 135 176 204 256 328 407
#     4  12  26  45  75 103 130 180 233 290 357 410
#
# _framework density 22.503440000000001
#
# number of rings (size 3 to 8) (size 9 to 14) (size 15 to 20)
#    0.000    0.800    3.000    4.800   14.000    0.000 
#    0.000    0.000    8.800    0.000    0.000    0.000 
#    0.000    0.000    0.000    0.000    0.000    0.000 
#
# Total GULP energy -247818.672136 kJ/mol
# GULP energy per Si atom -12390.933607 kJ/mol
# Density = 2.245222 g / cm^3
# Si number density = 22.503440 Si / 1000 Ang^3
#
#
#
# Elastic Constant Matrix: (Units=GPa)
#
#
# Indices 1 2 3 4 5 6 
#
# 1 158.7813 28.4611 54.5847 0.0000 -16.6266 0.0000
# 2 28.4611 56.2690 39.6472 0.0000 -12.1425 0.0000
# 3 54.5847 39.6472 132.2528 0.0000 -17.7503 0.0000
# 4 0.0000 0.0000 0.0000 -48.4507 0.0000 -34.3834
# 5 -16.6266 -12.1425 -17.7503 0.0000 32.4758 0.0000
# 6 0.0000 0.0000 0.0000 -34.3834 0.0000 30.7758
#
#
#
# Elastic Compliance Matrix: (Units=1/GPa)
#
#
# Indices 1 2 3 4 5 6 
#
# 1 0.007631 -0.001779 -0.002354 0.000000 0.001955 0.000000
# 2 -0.001779 0.023759 -0.005739 0.000000 0.004836 0.000000
# 3 -0.002354 -0.005739 0.010580 0.000000 0.002432 0.000000
# 4 0.000000 0.000000 0.000000 -0.011512 0.000000 -0.012862
# 5 0.001955 0.004836 0.002432 0.000000 0.034930 0.000000
# 6 0.000000 0.000000 0.000000 -0.012862 0.000000 0.018124
#
#
# Mechanical properties :
#
#
# Convention : Reuss Voigt Hill
#
# Bulk Modulus (GPa) = 44.99438 65.85435 55.42436
# Shear Modulus (GPa) = 45.18190 17.93418 31.55804
#
# Velocity S-wave (km/s) = 4.48568 2.82610 3.74888
# Velocity P-wave (km/s) = 6.84590 6.32272 6.58950
#
# Compressibility (1/GPa) = 0.02222500
#
# Stress axis : x y z
#
# Youngs Moduli (GPa) = 131.04872 42.08916 94.52203
#
# Poissons Ratio (x) = 0.07490 0.22247
# Poissons Ratio (y) = 0.23319 0.54248
# Poissons Ratio (z) = 0.30844 0.24156
#
# Static dielectric constant tensor:
#      x y z
#    x 4.756990 0.000000 -0.325090 
#    y 0.000000 4.029620 0.000000 
#    z -0.325090 0.000000 4.109650 
# 
# 
# High freq. dielectric constant tensor:
#      x y z
#    x 1.917140 0.000000 -0.010730 
#    y 0.000000 1.858240 0.000000 
#    z -0.010730 0.000000 1.867400 
# 
# From -- ./inp_files/129133.got.cif
#   From: 2010.06.25/outbox.cif.g09.slc.cpg/sg15_65_cif.got.tgz:129133.got - 2010.06.28 07:06:18.
