data_PCOD8148476
_publ_section_title
;
Structure prediction by ZEFSAII (Michael W. Deem and Ramdas Pophale) SiO2 
 PCOD8148476
Probable space group: C 2/C
;
_chemical_formula_sum "Si O2"
_cell_formula_units_Z 64
_cell_length_a 15.333530
_cell_length_b 13.285288
_cell_length_c 17.757028
_cell_angle_alpha 90.000000
_cell_angle_beta 50.119226
_cell_angle_gamma 90.000000
_cell_volume 2775.837735
_symmetry_space_group_name_H-M "C 2/C"
_symmetry_group_IT_number 15
_symmetry_cell_setting 'monoclinic'
loop_
_space_group_symop_operation_xyz
x,y,z
-x,y,1/2-z
-x,-y,-z
x,-y,1/2+z
1/2+x,1/2+y,z
1/2-x,1/2+y,1/2-z
1/2-x,1/2-y,-z
1/2+x,1/2-y,1/2+z
loop_
_atom_site_type_symbol
_atom_site_label
_atom_site_fract_x
_atom_site_fract_y
_atom_site_fract_z
Si Si1 0.968352 0.458469 0.850210
Si Si2 0.729851 0.697502 0.273732
Si Si3 0.062334 0.977650 0.888195
Si Si4 0.089708 0.381898 0.923510
Si Si5 0.274145 0.009967 0.554606
Si Si6 0.586187 0.360851 0.637552
Si Si7 0.988114 0.678441 0.628654
Si Si8 0.387572 0.647328 0.764644
O O1 0.000000 0.417600 0.750000
O O2 0.024559 0.385612 0.880468
O O3 0.020258 0.569150 0.830663
O O4 0.832264 0.458257 0.942823
O O5 0.674855 0.593348 0.337397
O O6 0.791622 0.671568 0.161461
O O7 0.635216 0.773711 0.296795
O O8 0.818489 0.751526 0.281536
O O9 0.962225 0.913187 0.908890
O O10 0.090775 0.077042 0.821228
O O11 0.000000 0.000000 0.000000
O O12 0.120605 0.491157 0.944531
O O13 0.020539 0.317633 0.022505
O O14 0.213239 0.901384 0.579981
O O15 0.189129 0.092604 0.630758
O O16 0.500000 0.396710 0.750000
O O17 0.581046 0.240664 0.626624
O O18 0.500000 0.676419 0.750000
#
# Coordination Sequence:
#
# PCOD8148476 Si02
#       8
#     8   8   8   8   8   8   8   8
#     4  11  25  41  63  95 139 183 235 293 358 432
#     4  11  25  41  72  99 137 187 238 293 366 427
#     4  11  24  44  70 106 144 186 244 304 356 439
#     4  11  23  43  65  93 140 188 230 288 361 444
#     4  11  20  43  69  93 136 188 223 295 375 415
#     4  11  20  40  69 104 137 171 237 298 361 427
#     4  10  23  41  67 103 133 175 239 297 357 435
#     4  12  23  46  73 105 141 196 242 296 366 437
#
# _framework density 23.056101999999999
#
# number of rings (size 3 to 8) (size 9 to 14) (size 15 to 20)
#    0.000    1.000    3.750    4.125    3.500    4.500 
#    0.000    0.625    0.000    0.000    0.000    0.000 
#    0.000    0.000    0.000    0.000    0.000    0.000 
#
# Total GULP energy -396566.112127 kJ/mol
# GULP energy per Si atom -12392.691004 kJ/mol
# Density = 2.300363 g / cm^3
# Si number density = 23.056102 Si / 1000 Ang^3
#
#
#
# Elastic Constant Matrix: (Units=GPa)
#
#
# Indices 1 2 3 4 5 6 
#
# 1 101.9826 26.9121 34.3936 0.0000 6.0944 0.0000
# 2 26.9121 60.8279 21.7783 0.0000 1.0697 0.0000
# 3 34.3936 21.7783 155.4294 0.0000 8.0397 0.0000
# 4 0.0000 0.0000 0.0000 26.7259 0.0000 -1.1746
# 5 6.0944 1.0697 8.0397 0.0000 30.3368 0.0000
# 6 0.0000 0.0000 0.0000 -1.1746 0.0000 40.2441
#
#
#
# Elastic Compliance Matrix: (Units=1/GPa)
#
#
# Indices 1 2 3 4 5 6 
#
# 1 0.011724 -0.004485 -0.001878 0.000000 -0.001699 0.000000
# 2 -0.004485 0.019024 -0.001708 0.000000 0.000683 0.000000
# 3 -0.001878 -0.001708 0.007164 0.000000 -0.001461 0.000000
# 4 0.000000 0.000000 0.000000 0.037465 0.000000 0.001093
# 5 -0.001699 0.000683 -0.001461 0.000000 0.033668 0.000000
# 6 0.000000 0.000000 0.000000 0.001093 0.000000 0.024880
#
#
# Mechanical properties :
#
#
# Convention : Reuss Voigt Hill
#
# Bulk Modulus (GPa) = 45.93579 53.82309 49.87944
# Shear Modulus (GPa) = 31.78154 35.13843 33.45998
#
# Velocity S-wave (km/s) = 3.71677 3.90813 3.81365
# Velocity P-wave (km/s) = 6.19563 6.61511 6.40881
#
# Compressibility (1/GPa) = 0.02176952
#
# Stress axis : x y z
#
# Youngs Moduli (GPa) = 85.29515 52.56595 139.58066
#
# Poissons Ratio (x) = 0.23575 0.26213
# Poissons Ratio (y) = 0.38253 0.23847
# Poissons Ratio (z) = 0.16018 0.08981
#
# Static dielectric constant tensor:
#      x y z
#    x 4.260230 0.000000 -0.098940 
#    y 0.000000 4.197700 0.000000 
#    z -0.098940 0.000000 4.359580 
# 
# 
# High freq. dielectric constant tensor:
#      x y z
#    x 1.907530 0.000000 -0.007930 
#    y 0.000000 1.900360 0.000000 
#    z -0.007930 0.000000 1.926150 
# 
# From -- ./inp_files/205690.got.cif
#   From: 2010.06.25/outbox.cif.g09.slc.cpg/sg15_103_cif.got.tgz:205690.got - 2010.06.28 07:06:18.
