data_PCOD8148859
_publ_section_title
;
Structure prediction by ZEFSAII (Michael W. Deem and Ramdas Pophale) SiO2 
 PCOD8148859
Probable space group: C 2/C
;
_chemical_formula_sum "Si O2"
_cell_formula_units_Z 60
_cell_length_a 15.085560
_cell_length_b 8.224031
_cell_length_c 25.682855
_cell_angle_alpha 90.000000
_cell_angle_beta 67.771923
_cell_angle_gamma 90.000000
_cell_volume 2949.530223
_symmetry_space_group_name_H-M "C 2/C"
_symmetry_group_IT_number 15
_symmetry_cell_setting 'monoclinic'
loop_
_space_group_symop_operation_xyz
x,y,z
-x,y,1/2-z
-x,-y,-z
x,-y,1/2+z
1/2+x,1/2+y,z
1/2-x,1/2+y,1/2-z
1/2-x,1/2-y,-z
1/2+x,1/2-y,1/2+z
loop_
_atom_site_type_symbol
_atom_site_label
_atom_site_fract_x
_atom_site_fract_y
_atom_site_fract_z
Si Si1 0.889426 0.969483 0.852307
Si Si2 0.925213 0.465129 0.060294
Si Si3 0.621661 0.932321 0.773716
Si Si4 0.441336 0.764742 0.152305
Si Si5 0.735500 0.432361 0.848848
Si Si6 0.259926 0.712304 0.937226
Si Si7 0.000000 0.178909 0.750000
Si Si8 0.796247 0.702165 0.143926
O O1 0.806934 0.841817 0.856489
O O2 0.982304 0.873685 0.851552
O O3 0.849698 0.092592 0.905518
O O4 0.917260 0.068575 0.794145
O O5 0.978076 0.361680 0.093446
O O6 0.838497 0.368770 0.055618
O O7 0.885534 0.633248 0.091783
O O8 0.000000 0.500000 0.000000
O O9 0.670300 0.949796 0.706938
O O10 0.542552 0.790710 0.786623
O O11 0.698799 0.875381 0.799500
O O12 0.572983 0.105990 0.797747
O O13 0.337671 0.690153 0.162609
O O14 0.768662 0.372734 0.898888
O O15 0.686026 0.606882 0.863126
O O16 0.250000 0.750000 0.000000
#
# Coordination Sequence:
#
# PCOD8148859 Si02
#       8
#     8   8   8   8   8   8   4   8
#     4  11  25  42  60 101 129 166 213 261 319 379
#     4   9  21  43  64  89 122 166 212 259 314 373
#     4  11  24  41  60  92 126 171 204 260 319 378
#     4  10  24  40  65  92 130 164 212 262 319 383
#     4  11  22  42  62  91 125 168 211 255 319 378
#     4  10  23  43  65  90 128 169 213 269 313 371
#     4  12  26  38  64  90 132 164 214 256 318 384
#     4  10  24  40  65  91 129 164 206 260 319 373
#
# _framework density 20.342220999999999
#
# number of rings (size 3 to 8) (size 9 to 14) (size 15 to 20)
#    0.000    1.600    1.333    2.400    7.467    5.333 
#    0.000    5.333    0.000    0.000    0.000    0.000 
#    0.000    0.000    0.000    0.000    0.000    0.000 
#
# Total GULP energy -372025.892331 kJ/mol
# GULP energy per Si atom -12400.863078 kJ/mol
# Density = 2.029592 g / cm^3
# Si number density = 20.342221 Si / 1000 Ang^3
#
#
#
# Elastic Constant Matrix: (Units=GPa)
#
#
# Indices 1 2 3 4 5 6 
#
# 1 70.6658 30.3091 35.9089 0.0000 -0.7055 0.0000
# 2 30.3091 126.9686 62.6620 0.0000 -3.6122 0.0001
# 3 35.9089 62.6620 164.1351 0.0000 -6.7353 0.0000
# 4 0.0000 0.0000 0.0000 28.0715 0.0000 0.3239
# 5 -0.7055 -3.6122 -6.7353 0.0000 27.7030 0.0000
# 6 0.0000 0.0001 0.0000 0.3239 0.0000 30.7434
#
#
#
# Elastic Compliance Matrix: (Units=1/GPa)
#
#
# Indices 1 2 3 4 5 6 
#
# 1 0.016638 -0.002686 -0.002638 0.000000 -0.000568 0.000000
# 2 -0.002686 0.010142 -0.003265 0.000000 0.000460 0.000000
# 3 -0.002638 -0.003265 0.007976 0.000000 0.001446 0.000000
# 4 0.000000 0.000000 0.000000 0.035628 0.000000 -0.000375
# 5 -0.000568 0.000460 0.001446 0.000000 0.036494 0.000000
# 6 0.000000 0.000000 0.000000 -0.000375 0.000000 0.032531
#
#
# Mechanical properties :
#
#
# Convention : Reuss Voigt Hill
#
# Bulk Modulus (GPa) = 56.89280 68.83662 62.86471
# Shear Modulus (GPa) = 30.77952 32.82957 31.80454
#
# Velocity S-wave (km/s) = 3.89406 4.02165 3.95837
# Velocity P-wave (km/s) = 6.94599 7.44833 7.20154
#
# Compressibility (1/GPa) = 0.01757692
#
# Stress axis : x y z
#
# Youngs Moduli (GPa) = 60.10367 98.60240 125.38277
#
# Poissons Ratio (x) = 0.26485 0.33074
# Poissons Ratio (y) = 0.16144 0.40941
# Poissons Ratio (z) = 0.15854 0.32197
#
# Static dielectric constant tensor:
#      x y z
#    x 3.582360 0.000000 0.080770 
#    y 0.000000 3.910170 0.000000 
#    z 0.080770 0.000000 3.307690 
# 
# 
# High freq. dielectric constant tensor:
#      x y z
#    x 1.793900 0.000000 -0.001720 
#    y 0.000000 1.807830 0.000000 
#    z -0.001720 0.000000 1.792350 
# 
# From -- ./inp_files/272797.got.cif
#   From: 2010.06.25/outbox.cif.g09.slc.cpg/sg15_137_cif.got.tgz:272797.got - 2010.06.28 07:06:18.
