data_PCOD8148179
_publ_section_title
;
Structure prediction by ZEFSAII (Michael W. Deem and Ramdas Pophale) SiO2 
 PCOD8148179
Probable space group: C 2/C
;
_chemical_formula_sum "Si O2"
_cell_formula_units_Z 40
_cell_length_a 13.592368
_cell_length_b 22.930752
_cell_length_c 9.128732
_cell_angle_alpha 90.000000
_cell_angle_beta 38.638793
_cell_angle_gamma 90.000000
_cell_volume 1776.612653
_symmetry_space_group_name_H-M "C 2/C"
_symmetry_group_IT_number 15
_symmetry_cell_setting 'monoclinic'
loop_
_space_group_symop_operation_xyz
x,y,z
-x,y,1/2-z
-x,-y,-z
x,-y,1/2+z
1/2+x,1/2+y,z
1/2-x,1/2+y,1/2-z
1/2-x,1/2-y,-z
1/2+x,1/2-y,1/2+z
loop_
_atom_site_type_symbol
_atom_site_label
_atom_site_fract_x
_atom_site_fract_y
_atom_site_fract_z
Si Si1 0.298364 0.114358 0.939700
Si Si2 0.283399 0.289327 0.755480
Si Si3 0.862178 0.169842 0.611501
Si Si4 0.422395 0.938868 0.551774
Si Si5 0.830722 0.649222 0.387131
O O1 0.146096 0.121055 0.009706
O O2 0.445022 0.106145 0.659328
O O3 0.320190 0.172645 0.012543
O O4 0.294657 0.060297 0.063901
O O5 0.253281 0.221024 0.814037
O O6 0.464649 0.306016 0.568681
O O7 0.232841 0.301338 0.647279
O O8 0.795886 0.141229 0.836660
O O9 0.344110 0.913316 0.789624
O O10 0.500000 0.000000 0.500000
O O11 0.000000 0.669852 0.250000
#
# Coordination Sequence:
#
# PCOD8148179 Si02
#       5
#     8   8   8   8   8
#     4  10  23  39  65  95 132 162 223 273 338 379
#     4  11  25  40  63  96 139 183 220 265 335 400
#     4  12  23  40  66  93 139 181 221 265 332 406
#     4  10  23  42  70  99 126 168 230 289 332 387
#     4  11  22  41  64  98 132 171 224 278 330 394
#
# _framework density 22.514756999999999
#
# number of rings (size 3 to 8) (size 9 to 14) (size 15 to 20)
#    0.000    1.200    2.000    3.600    8.400    0.000 
#    0.000    0.000    0.000   21.600    0.000    0.000 
#    0.000    0.000    0.000    0.000    0.000    0.000 
#
# Total GULP energy -247789.204328 kJ/mol
# GULP energy per Si atom -12389.460216 kJ/mol
# Density = 2.246351 g / cm^3
# Si number density = 22.514757 Si / 1000 Ang^3
#
#
#
# Elastic Constant Matrix: (Units=GPa)
#
#
# Indices 1 2 3 4 5 6 
#
# 1 188.9857 52.0506 49.1958 0.0000 2.6359 0.0000
# 2 52.0506 98.7795 61.2023 0.0000 10.1747 0.0000
# 3 49.1958 61.2023 106.2415 0.0000 0.8088 0.0000
# 4 0.0000 0.0000 0.0000 25.7871 0.0000 -1.6548
# 5 2.6359 10.1747 0.8088 0.0000 41.1520 0.0000
# 6 0.0000 0.0000 0.0000 -1.6548 0.0000 39.2642
#
#
#
# Elastic Compliance Matrix: (Units=1/GPa)
#
#
# Indices 1 2 3 4 5 6 
#
# 1 0.006357 -0.002406 -0.001559 0.000000 0.000218 0.000000
# 2 -0.002406 0.017242 -0.008788 0.000000 -0.003936 0.000000
# 3 -0.001559 -0.008788 0.015182 0.000000 0.001974 0.000000
# 4 0.000000 0.000000 0.000000 0.038884 0.000000 0.001639
# 5 0.000218 -0.003936 0.001974 0.000000 0.025221 0.000000
# 6 0.000000 0.000000 0.000000 0.001639 0.000000 0.025538
#
#
# Mechanical properties :
#
#
# Convention : Reuss Voigt Hill
#
# Bulk Modulus (GPa) = 75.33714 79.87824 77.60769
# Shear Modulus (GPa) = 31.57448 36.67787 34.12617
#
# Velocity S-wave (km/s) = 3.74891 4.04054 3.89745
# Velocity P-wave (km/s) = 7.23001 7.57120 7.40257
#
# Compressibility (1/GPa) = 0.01327367
#
# Stress axis : x y z
#
# Youngs Moduli (GPa) = 157.30831 57.99760 65.86652
#
# Poissons Ratio (x) = 0.13955 0.10270
# Poissons Ratio (y) = 0.37851 0.57887
# Poissons Ratio (z) = 0.24527 0.50971
#
# Static dielectric constant tensor:
#      x y z
#    x 4.635660 0.000000 0.393340 
#    y 0.000000 3.725400 0.000000 
#    z 0.393340 0.000000 4.137340 
# 
# 
# High freq. dielectric constant tensor:
#      x y z
#    x 1.910360 0.000000 0.028860 
#    y 0.000000 1.846240 0.000000 
#    z 0.028860 0.000000 1.888400 
# 
# From -- ./inp_files/41921.got.cif
#   From: 2010.06.25/outbox.cif.g09.slc.cpg/sg15_21_cif.got.tgz:41921.got - 2010.06.28 07:06:18.
