data_PCOD8148632
_publ_section_title
;
Structure prediction by ZEFSAII (Michael W. Deem and Ramdas Pophale) SiO2 
 PCOD8148632
Probable space group: C 2/C
;
_chemical_formula_sum "Si O2"
_cell_formula_units_Z 40
_cell_length_a 11.127770
_cell_length_b 10.410197
_cell_length_c 15.717409
_cell_angle_alpha 90.000000
_cell_angle_beta 83.627301
_cell_angle_gamma 90.000000
_cell_volume 1809.489961
_symmetry_space_group_name_H-M "C 2/C"
_symmetry_group_IT_number 15
_symmetry_cell_setting 'monoclinic'
loop_
_space_group_symop_operation_xyz
x,y,z
-x,y,1/2-z
-x,-y,-z
x,-y,1/2+z
1/2+x,1/2+y,z
1/2-x,1/2+y,1/2-z
1/2-x,1/2-y,-z
1/2+x,1/2-y,1/2+z
loop_
_atom_site_type_symbol
_atom_site_label
_atom_site_fract_x
_atom_site_fract_y
_atom_site_fract_z
Si Si1 0.690697 0.433833 0.519478
Si Si2 0.916117 0.720470 0.070447
Si Si3 0.863599 0.978663 0.791158
Si Si4 0.824096 0.656860 0.434954
Si Si5 0.202064 0.751330 0.249783
O O1 0.800302 0.350209 0.544779
O O2 0.585183 0.357627 0.478137
O O3 0.632956 0.500909 0.606882
O O4 0.751445 0.524776 0.444198
O O5 0.904668 0.733489 0.173332
O O6 0.039837 0.646623 0.038252
O O7 0.817964 0.834754 0.769560
O O8 0.000000 0.995843 0.750000
O O9 0.776960 0.093003 0.759596
O O10 0.750000 0.750000 0.500000
O O11 0.839566 0.702225 0.337929
#
# Coordination Sequence:
#
# PCOD8148632 Si02
#       5
#     8   8   8   8   8
#     4  10  23  42  65  95 125 172 215 267 325 387
#     4  10  23  43  65  89 133 167 212 272 326 383
#     4  11  24  43  68  96 137 171 220 271 327 390
#     4  12  23  37  65  94 125 164 217 261 322 387
#     4  11  24  44  65  98 130 175 218 269 331 390
#
# _framework density 22.105677
#
# number of rings (size 3 to 8) (size 9 to 14) (size 15 to 20)
#    0.000    1.200    2.000    3.600    2.800    0.800 
#    0.000    5.000    0.000    0.000    0.000    0.000 
#    0.000    0.000    0.000    0.000    0.000    0.000 
#
# Total GULP energy -247825.285967 kJ/mol
# GULP energy per Si atom -12391.264298 kJ/mol
# Density = 2.205536 g / cm^3
# Si number density = 22.105677 Si / 1000 Ang^3
#
#
#
# Elastic Constant Matrix: (Units=GPa)
#
#
# Indices 1 2 3 4 5 6 
#
# 1 85.8287 22.2827 35.1718 0.0000 -12.6935 0.0000
# 2 22.2827 105.3538 40.3202 0.0000 -6.5052 0.0000
# 3 35.1718 40.3202 120.8794 0.0000 -10.9379 0.0000
# 4 0.0000 0.0000 0.0000 41.2198 0.0000 2.1251
# 5 -12.6935 -6.5052 -10.9379 0.0000 26.9640 0.0000
# 6 0.0000 0.0000 0.0000 2.1251 0.0000 5.9221
#
#
#
# Elastic Compliance Matrix: (Units=1/GPa)
#
#
# Indices 1 2 3 4 5 6 
#
# 1 0.014060 -0.001459 -0.003153 0.000000 0.004988 0.000000
# 2 -0.001459 0.011070 -0.003206 0.000000 0.000683 0.000000
# 3 -0.003153 -0.003206 0.010438 0.000000 0.001977 0.000000
# 4 0.000000 0.000000 0.000000 0.024717 0.000000 -0.008870
# 5 0.004988 0.000683 0.001977 0.000000 0.040401 0.000000
# 6 0.000000 0.000000 0.000000 -0.008870 0.000000 0.172043
#
#
# Mechanical properties :
#
#
# Convention : Reuss Voigt Hill
#
# Bulk Modulus (GPa) = 50.17135 56.40123 53.28629
# Shear Modulus (GPa) = 16.94867 29.10700 23.02783
#
# Velocity S-wave (km/s) = 2.77196 3.63260 3.23106
# Velocity P-wave (km/s) = 5.74373 6.56994 6.17068
#
# Compressibility (1/GPa) = 0.01993169
#
# Stress axis : x y z
#
# Youngs Moduli (GPa) = 71.12591 90.33772 95.80092
#
# Poissons Ratio (x) = 0.13181 0.30205
# Poissons Ratio (y) = 0.10378 0.30714
# Poissons Ratio (z) = 0.22425 0.28962
#
# Static dielectric constant tensor:
#      x y z
#    x 3.826310 0.000000 -0.332060 
#    y 0.000000 4.466150 0.000000 
#    z -0.332060 0.000000 5.299900 
# 
# 
# High freq. dielectric constant tensor:
#      x y z
#    x 1.854970 0.000000 -0.005530 
#    y 0.000000 1.873440 0.000000 
#    z -0.005530 0.000000 1.889970 
# 
# From -- ./inp_files/141721.got.cif
#   From: 2010.06.25/outbox.cif.g09.slc.cpg/sg15_71_cif.got.tgz:141721.got - 2010.06.28 07:06:18.
