data_PCOD8148285
_publ_section_title
;
Structure prediction by ZEFSAII (Michael W. Deem and Ramdas Pophale) SiO2 
 PCOD8148285
Probable space group: C 2/C
;
_chemical_formula_sum "Si O2"
_cell_formula_units_Z 36
_cell_length_a 10.124691
_cell_length_b 17.528012
_cell_length_c 15.170380
_cell_angle_alpha 90.000000
_cell_angle_beta 37.976756
_cell_angle_gamma 90.000000
_cell_volume 1656.636688
_symmetry_space_group_name_H-M "C 2/C"
_symmetry_group_IT_number 15
_symmetry_cell_setting 'monoclinic'
loop_
_space_group_symop_operation_xyz
x,y,z
-x,y,1/2-z
-x,-y,-z
x,-y,1/2+z
1/2+x,1/2+y,z
1/2-x,1/2+y,1/2-z
1/2-x,1/2-y,-z
1/2+x,1/2-y,1/2+z
loop_
_atom_site_type_symbol
_atom_site_label
_atom_site_fract_x
_atom_site_fract_y
_atom_site_fract_z
Si Si1 0.071240 0.104900 0.890934
Si Si2 0.058068 0.751032 0.942928
Si Si3 0.713811 0.037886 0.186121
Si Si4 0.500000 0.689173 0.750000
Si Si5 0.809550 0.160440 0.285945
O O1 0.039664 0.133617 0.809655
O O2 0.284105 0.051256 0.784231
O O3 0.075078 0.175852 0.955053
O O4 0.881755 0.048550 0.018571
O O5 0.286405 0.741420 0.874439
O O6 0.114287 0.764224 0.809976
O O7 0.901682 0.679407 0.043845
O O8 0.500000 0.061463 0.250000
O O9 0.752280 0.092334 0.249832
O O10 0.000000 0.133966 0.250000
#
# Coordination Sequence:
#
# PCOD8148285 Si02
#       5
#     8   8   8   4   8
#     4  10  23  40  65  97 129 171 220 272 325 394
#     4  11  23  42  69  97 136 174 220 275 335 386
#     4  10  23  45  66  90 136 177 219 267 336 388
#     4  12  22  40  70 104 128 170 234 268 324 400
#     4  11  24  42  68 100 137 173 219 276 331 395
#
# _framework density 21.730775000000001
#
# number of rings (size 3 to 8) (size 9 to 14) (size 15 to 20)
#    0.000    1.333    2.222    2.667    7.778    0.889 
#   12.000    2.222    0.000    0.000    0.000    0.000 
#    0.000    0.000    0.000    0.000    0.000    0.000 
#
# Total GULP energy -223074.425506 kJ/mol
# GULP energy per Si atom -12393.023639 kJ/mol
# Density = 2.168131 g / cm^3
# Si number density = 21.730775 Si / 1000 Ang^3
#
#
#
# Elastic Constant Matrix: (Units=GPa)
#
#
# Indices 1 2 3 4 5 6 
#
# 1 137.6919 39.5280 38.2449 0.0041 -14.2497 0.0012
# 2 39.5280 97.6308 36.5382 0.0031 -8.6817 -0.0010
# 3 38.2449 36.5382 84.6142 -0.0022 -6.2666 -0.0023
# 4 0.0041 0.0031 -0.0022 11.6119 -0.0047 -5.9060
# 5 -14.2497 -8.6817 -6.2666 -0.0047 39.7067 0.0002
# 6 0.0012 -0.0010 -0.0023 -5.9060 0.0002 35.6111
#
#
#
# Elastic Compliance Matrix: (Units=1/GPa)
#
#
# Indices 1 2 3 4 5 6 
#
# 1 0.008969 -0.002357 -0.002869 -0.000003 0.002251 -0.000001
# 2 -0.002357 0.012974 -0.004441 -0.000003 0.001290 0.000000
# 3 -0.002869 -0.004441 0.015061 0.000006 0.000376 0.000002
# 4 -0.000003 -0.000003 0.000006 0.094052 0.000010 0.015598
# 5 0.002251 0.001290 0.000376 0.000010 0.026334 0.000001
# 6 -0.000001 0.000000 0.000002 0.015598 0.000001 0.030668
#
#
# Mechanical properties :
#
#
# Convention : Reuss Voigt Hill
#
# Bulk Modulus (GPa) = 56.59979 60.95101 58.77540
# Shear Modulus (GPa) = 23.44290 31.09431 27.26861
#
# Velocity S-wave (km/s) = 3.28805 3.78681 3.54621
# Velocity P-wave (km/s) = 6.36534 6.87234 6.62369
#
# Compressibility (1/GPa) = 0.01766791
#
# Stress axis : x y z
#
# Youngs Moduli (GPa) = 111.49220 77.07725 66.39652
#
# Poissons Ratio (x) = 0.18170 0.19052
# Poissons Ratio (y) = 0.26283 0.29489
# Poissons Ratio (z) = 0.31991 0.34233
#
# Static dielectric constant tensor:
#      x y z
#    x 3.859910 0.000000 0.073370 
#    y 0.000000 4.018020 0.000010 
#    z 0.073370 0.000010 4.291000 
# 
# 
# High freq. dielectric constant tensor:
#      x y z
#    x 1.844650 0.000000 0.004200 
#    y 0.000000 1.851390 0.000000 
#    z 0.004200 0.000000 1.861130 
# 
# From -- ./inp_files/22555.got.cif
#   From: 2010.06.25/outbox.cif.g09.slc.cpg/sg15_12_cif.got.tgz:22555.got - 2010.06.28 07:06:18.
