data_PCOD8148258
_publ_section_title
;
Structure prediction by ZEFSAII (Michael W. Deem and Ramdas Pophale) SiO2 
 PCOD8148258
Probable space group: C 2/C
;
_chemical_formula_sum "Si O2"
_cell_formula_units_Z 56
_cell_length_a 27.727343
_cell_length_b 8.505841
_cell_length_c 11.556048
_cell_angle_alpha 90.000000
_cell_angle_beta 65.109228
_cell_angle_gamma 90.000000
_cell_volume 2472.268727
_symmetry_space_group_name_H-M "C 2/C"
_symmetry_group_IT_number 15
_symmetry_cell_setting 'monoclinic'
loop_
_space_group_symop_operation_xyz
x,y,z
-x,y,1/2-z
-x,-y,-z
x,-y,1/2+z
1/2+x,1/2+y,z
1/2-x,1/2+y,1/2-z
1/2-x,1/2-y,-z
1/2+x,1/2-y,1/2+z
loop_
_atom_site_type_symbol
_atom_site_label
_atom_site_fract_x
_atom_site_fract_y
_atom_site_fract_z
Si Si1 0.841382 0.979700 0.349732
Si Si2 0.841383 0.649050 0.446978
Si Si3 0.541903 0.496469 0.298531
Si Si4 0.045074 0.534129 0.109322
Si Si5 0.756252 0.536282 0.902085
Si Si6 0.294785 0.686131 0.210663
Si Si7 0.987023 0.249600 0.496117
O O1 0.835441 0.790619 0.360607
O O2 0.901916 0.023434 0.321794
O O3 0.801656 0.057865 0.482234
O O4 0.829610 0.047419 0.233878
O O5 0.899939 0.574364 0.382277
O O6 0.798914 0.515404 0.455891
O O7 0.830719 0.711382 0.587384
O O8 0.500000 0.423550 0.250000
O O9 0.520917 0.663270 0.363445
O O10 0.549351 0.373865 0.396710
O O11 0.051296 0.375898 0.026624
O O12 0.000000 0.508344 0.250000
O O13 0.029694 0.673459 0.038644
O O14 0.753263 0.399341 0.808238
O O15 0.771689 0.703039 0.833575
#
# Coordination Sequence:
#
# PCOD8148258 Si02
#       7
#     8   8   8   8   8   8   8
#     4  11  23  41  66  93 127 170 214 261 318 377
#     4  11  24  42  65  95 130 169 214 263 319 381
#     4  11  23  42  64  94 130 164 211 267 314 376
#     4  11  23  43  64  92 130 168 213 263 313 380
#     4  11  24  43  66  96 129 170 216 262 320 378
#     4  11  23  43  66  92 131 167 211 267 317 380
#     4  10  23  40  64  94 125 170 213 254 325 379
#
# _framework density 22.651260000000001
#
# number of rings (size 3 to 8) (size 9 to 14) (size 15 to 20)
#    0.000    1.143    0.000    7.286    0.000    9.143 
#    0.000    4.286    0.000    0.000    0.000    0.000 
#    0.000    0.000    0.000    0.000    0.000    0.000 
#
# Total GULP energy -347303.816851 kJ/mol
# GULP energy per Si atom -12403.707745 kJ/mol
# Density = 2.259970 g / cm^3
# Si number density = 22.651260 Si / 1000 Ang^3
#
#
#
# Elastic Constant Matrix: (Units=GPa)
#
#
# Indices 1 2 3 4 5 6 
#
# 1 138.3081 46.6822 64.8278 0.0000 -14.3377 0.0000
# 2 46.6822 108.4427 45.2685 0.0000 3.0402 0.0000
# 3 64.8278 45.2685 107.9135 0.0000 -6.5756 0.0000
# 4 0.0000 0.0000 0.0000 41.8143 0.0000 13.2119
# 5 -14.3377 3.0402 -6.5756 0.0000 36.8514 0.0000
# 6 0.0000 0.0000 0.0000 13.2119 0.0000 32.8526
#
#
#
# Elastic Compliance Matrix: (Units=1/GPa)
#
#
# Indices 1 2 3 4 5 6 
#
# 1 0.010946 -0.002614 -0.005264 0.000000 0.003535 0.000000
# 2 -0.002614 0.011920 -0.003591 0.000000 -0.002641 0.000000
# 3 -0.005264 -0.003591 0.013981 0.000000 0.000743 0.000000
# 4 0.000000 0.000000 0.000000 0.027396 0.000000 -0.011018
# 5 0.003535 -0.002641 0.000743 0.000000 0.028862 0.000000
# 6 0.000000 0.000000 0.000000 -0.011018 0.000000 0.034870
#
#
# Mechanical properties :
#
#
# Convention : Reuss Voigt Hill
#
# Bulk Modulus (GPa) = 71.89509 74.24681 73.07095
# Shear Modulus (GPa) = 32.14436 35.49607 33.82021
#
# Velocity S-wave (km/s) = 3.77118 3.96292 3.86824
# Velocity P-wave (km/s) = 7.12540 7.33410 7.23050
#
# Compressibility (1/GPa) = 0.01390916
#
# Stress axis : x y z
#
# Youngs Moduli (GPa) = 91.35535 83.89490 71.52805
#
# Poissons Ratio (x) = 0.21929 0.37652
# Poissons Ratio (y) = 0.23879 0.25685
# Poissons Ratio (z) = 0.48089 0.30125
#
# Static dielectric constant tensor:
#      x y z
#    x 4.019540 0.000000 0.150690 
#    y 0.000000 4.150860 0.000000 
#    z 0.150690 0.000000 4.103040 
# 
# 
# High freq. dielectric constant tensor:
#      x y z
#    x 1.884180 0.000000 0.007080 
#    y 0.000000 1.902780 0.000000 
#    z 0.007080 0.000000 1.895950 
# 
# From -- ./inp_files/125845.got.cif
#   From: 2010.06.25/outbox.cif.g09.slc.cpg/sg15_63_cif.got.tgz:125845.got - 2010.06.28 07:06:18.
