data_PCOD8148754
_publ_section_title
;
Structure prediction by ZEFSAII (Michael W. Deem and Ramdas Pophale) SiO2 
 PCOD8148754
Probable space group: C 2/C
;
_chemical_formula_sum "Si O2"
_cell_formula_units_Z 48
_cell_length_a 16.552581
_cell_length_b 8.426790
_cell_length_c 30.188412
_cell_angle_alpha 90.000000
_cell_angle_beta 148.801649
_cell_angle_gamma 90.000000
_cell_volume 2181.222285
_symmetry_space_group_name_H-M "C 2/C"
_symmetry_group_IT_number 15
_symmetry_cell_setting 'monoclinic'
loop_
_space_group_symop_operation_xyz
x,y,z
-x,y,1/2-z
-x,-y,-z
x,-y,1/2+z
1/2+x,1/2+y,z
1/2-x,1/2+y,1/2-z
1/2-x,1/2-y,-z
1/2+x,1/2-y,1/2+z
loop_
_atom_site_type_symbol
_atom_site_label
_atom_site_fract_x
_atom_site_fract_y
_atom_site_fract_z
Si Si1 0.429913 0.406455 0.562857
Si Si2 0.372645 0.321441 0.358450
Si Si3 0.756606 0.237538 0.711182
Si Si4 0.577199 0.027678 0.742267
Si Si5 0.179046 0.783007 0.899218
Si Si6 0.160297 0.469552 0.601108
O O1 0.460629 0.588656 0.562030
O O2 0.593897 0.320677 0.643264
O O3 0.330368 0.324988 0.477744
O O4 0.342766 0.401703 0.569374
O O5 0.299739 0.357210 0.275696
O O6 0.247138 0.398798 0.333516
O O7 0.391306 0.139696 0.381434
O O8 0.896434 0.367119 0.773405
O O9 0.741146 0.124306 0.660676
O O10 0.500000 0.962993 0.750000
O O11 0.470545 0.167291 0.671807
O O12 0.209212 0.888411 0.869459
O O13 0.000000 0.500000 0.500000
#
# Coordination Sequence:
#
# PCOD8148754 Si02
#       6
#     8   8   8   8   8   8
#     4  10  23  42  69  98 137 186 222 283 352 415
#     4  11  24  43  70  96 142 182 230 280 354 405
#     4  11  24  43  68 101 135 182 233 284 348 413
#     4  11  23  41  64  95 128 178 225 286 332 410
#     4  11  23  43  69  99 140 177 233 287 346 405
#     4  12  25  44  72 104 141 180 233 291 347 413
#
# _framework density 22.006011999999998
#
# number of rings (size 3 to 8) (size 9 to 14) (size 15 to 20)
#    0.000    1.000    5.000    2.000    0.000    3.333 
#    0.000    1.667    0.000    0.000    0.000    0.000 
#    0.000    0.000    0.000    0.000    0.000    0.000 
#
# Total GULP energy -297467.117723 kJ/mol
# GULP energy per Si atom -12394.463238 kJ/mol
# Density = 2.195592 g / cm^3
# Si number density = 22.006012 Si / 1000 Ang^3
#
#
#
# Elastic Constant Matrix: (Units=GPa)
#
#
# Indices 1 2 3 4 5 6 
#
# 1 91.0271 40.4569 30.7240 0.0001 -3.0655 0.0000
# 2 40.4569 106.6381 29.1101 0.0000 1.3256 0.0000
# 3 30.7240 29.1101 76.8003 -0.0002 0.1334 0.0000
# 4 0.0001 0.0000 -0.0002 40.9634 0.0000 4.1521
# 5 -3.0655 1.3256 0.1334 0.0000 33.6185 0.0000
# 6 0.0000 0.0000 0.0000 4.1521 0.0000 29.4186
#
#
#
# Elastic Compliance Matrix: (Units=1/GPa)
#
#
# Indices 1 2 3 4 5 6 
#
# 1 0.014350 -0.004344 -0.004097 0.000000 0.001496 0.000000
# 2 -0.004344 0.011780 -0.002726 0.000000 -0.000850 0.000000
# 3 -0.004097 -0.002726 0.015693 0.000000 -0.000328 0.000000
# 4 0.000000 0.000000 0.000000 0.024766 0.000000 -0.003495
# 5 0.001496 -0.000850 -0.000328 0.000000 0.029917 0.000000
# 6 0.000000 0.000000 0.000000 -0.003495 0.000000 0.034486
#
#
# Mechanical properties :
#
#
# Convention : Reuss Voigt Hill
#
# Bulk Modulus (GPa) = 51.30814 52.78304 52.04559
# Shear Modulus (GPa) = 31.28483 32.41171 31.84827
#
# Velocity S-wave (km/s) = 3.77457 3.84195 3.80841
# Velocity P-wave (km/s) = 6.50866 6.61200 6.56053
#
# Compressibility (1/GPa) = 0.01949009
#
# Stress axis : x y z
#
# Youngs Moduli (GPa) = 69.68810 84.88724 63.72138
#
# Poissons Ratio (x) = 0.36878 0.26104
# Poissons Ratio (y) = 0.30275 0.17369
# Poissons Ratio (z) = 0.28548 0.23138
#
# Static dielectric constant tensor:
#      x y z
#    x 4.157250 0.000000 0.033740 
#    y 0.000000 4.080740 0.000000 
#    z 0.033740 0.000000 3.860650 
# 
# 
# High freq. dielectric constant tensor:
#      x y z
#    x 1.876390 0.000000 0.000330 
#    y 0.000000 1.865720 0.000000 
#    z 0.000330 0.000000 1.852900 
# 
# From -- ./inp_files/315795.got.cif
#   From: 2010.06.25/outbox.cif.g09.slc.cpg/sg15_158_cif.got.tgz:315795.got - 2010.06.28 07:06:18.
