data_PCOD8148050
_publ_section_title
;
Structure prediction by ZEFSAII (Michael W. Deem and Ramdas Pophale) SiO2 
 PCOD8148050
Probable space group: C 2/C
;
_chemical_formula_sum "Si O2"
_cell_formula_units_Z 56
_cell_length_a 24.731134
_cell_length_b 13.595467
_cell_length_c 8.519341
_cell_angle_alpha 90.000000
_cell_angle_beta 111.012423
_cell_angle_gamma 90.000000
_cell_volume 2673.989774
_symmetry_space_group_name_H-M "C 2/C"
_symmetry_group_IT_number 15
_symmetry_cell_setting 'monoclinic'
loop_
_space_group_symop_operation_xyz
x,y,z
-x,y,1/2-z
-x,-y,-z
x,-y,1/2+z
1/2+x,1/2+y,z
1/2-x,1/2+y,1/2-z
1/2-x,1/2-y,-z
1/2+x,1/2-y,1/2+z
loop_
_atom_site_type_symbol
_atom_site_label
_atom_site_fract_x
_atom_site_fract_y
_atom_site_fract_z
Si Si1 0.560702 0.011134 0.148502
Si Si2 0.388876 0.570740 0.707086
Si Si3 0.242993 0.633658 0.018793
Si Si4 0.000000 0.335043 0.750000
Si Si5 0.000000 0.058820 0.250000
Si Si6 0.805748 0.022269 0.361805
Si Si7 0.540992 0.288108 0.033287
Si Si8 0.390183 0.875062 0.065652
O O1 0.555904 0.094489 0.281011
O O2 0.575484 0.908574 0.243894
O O3 0.608450 0.047240 0.075306
O O4 0.500000 0.000000 0.000000
O O5 0.441872 0.504127 0.701791
O O6 0.337543 0.587673 0.527799
O O7 0.359720 0.523162 0.827913
O O8 0.414691 0.674899 0.786386
O O9 0.268508 0.594766 0.211866
O O10 0.250000 0.750000 0.000000
O O11 0.268323 0.566114 0.903373
O O12 0.174933 0.626916 0.949498
O O13 0.007155 0.273412 0.919477
O O14 0.006582 0.124987 0.412366
O O15 0.579363 0.227330 0.948792
#
# Coordination Sequence:
#
# PCOD8148050 Si02
#       8
#     8   8   8   4   4   8   8   8
#     4  11  21  41  62  93 131 180 206 270 334 401
#     4  11  22  45  62  95 133 177 212 271 336 395
#     4  11  24  48  70 103 128 181 237 289 339 404
#     4  10  23  37  58  90 144 162 220 259 317 398
#     4  12  25  37  70  92 140 176 212 255 335 410
#     4  10  24  44  72  92 138 174 227 291 337 390
#     4  11  25  38  60 103 129 173 221 265 315 416
#     4  11  24  40  68  90 134 170 225 270 331 393
#
# _framework density 20.942488000000001
#
# number of rings (size 3 to 8) (size 9 to 14) (size 15 to 20)
#    0.000    1.143    2.857    2.571    8.000    0.000 
#    2.571    7.857    0.000    0.000    0.000    0.000 
#    0.000    0.000    0.000    0.000    0.000    0.000 
#
# Total GULP energy -346956.769572 kJ/mol
# GULP energy per Si atom -12391.313199 kJ/mol
# Density = 2.089482 g / cm^3
# Si number density = 20.942488 Si / 1000 Ang^3
#
#
#
# Elastic Constant Matrix: (Units=GPa)
#
#
# Indices 1 2 3 4 5 6 
#
# 1 130.5715 43.3274 43.7740 0.0000 -0.2253 0.0000
# 2 43.3274 125.8252 67.3313 0.0000 4.3144 0.0000
# 3 43.7740 67.3313 119.9135 0.0000 8.6238 0.0000
# 4 0.0000 0.0000 0.0000 25.5185 0.0000 -1.7337
# 5 -0.2253 4.3144 8.6238 0.0000 27.0849 0.0000
# 6 0.0000 0.0000 0.0000 -1.7337 0.0000 13.6928
#
#
#
# Elastic Compliance Matrix: (Units=1/GPa)
#
#
# Indices 1 2 3 4 5 6 
#
# 1 0.009075 -0.001926 -0.002312 0.000000 0.001118 0.000000
# 2 -0.001926 0.011771 -0.005906 0.000000 -0.000011 0.000000
# 3 -0.002312 -0.005906 0.012724 0.000000 -0.003130 0.000000
# 4 0.000000 0.000000 0.000000 0.039527 0.000000 0.005005
# 5 0.001118 -0.000011 -0.003130 0.000000 0.037928 0.000000
# 6 0.000000 0.000000 0.000000 0.005005 0.000000 0.073664
#
#
# Mechanical properties :
#
#
# Convention : Reuss Voigt Hill
#
# Bulk Modulus (GPa) = 75.28149 76.13061 75.70605
# Shear Modulus (GPa) = 23.87713 28.05109 25.96411
#
# Velocity S-wave (km/s) = 3.38024 3.66380 3.52487
# Velocity P-wave (km/s) = 7.15958 7.37082 7.26597
#
# Compressibility (1/GPa) = 0.01328348
#
# Stress axis : x y z
#
# Youngs Moduli (GPa) = 110.19656 84.95135 78.58982
#
# Poissons Ratio (x) = 0.16364 0.18166
# Poissons Ratio (y) = 0.21226 0.46413
# Poissons Ratio (z) = 0.25472 0.50170
#
# Static dielectric constant tensor:
#      x y z
#    x 3.864870 0.000000 -0.209680 
#    y 0.000000 44.577460 0.000000 
#    z -0.209680 0.000000 3.911200 
# 
# 
# High freq. dielectric constant tensor:
#      x y z
#    x 1.827120 0.000000 -0.019560 
#    y 0.000000 1.821520 0.000000 
#    z -0.019560 0.000000 1.824640 
# 
# From -- ./inp_files/62036.got.cif
#   From: 2010.06.25/outbox.cif.g09.slc.cpg/sg15_32_cif.got.tgz:62036.got - 2010.06.28 07:06:18.
