data_PCOD8148785
_publ_section_title
;
Structure prediction by ZEFSAII (Michael W. Deem and Ramdas Pophale) SiO2 
 PCOD8148785
Probable space group: C 2/C
;
_chemical_formula_sum "Si O2"
_cell_formula_units_Z 56
_cell_length_a 28.069100
_cell_length_b 5.430577
_cell_length_c 14.108184
_cell_angle_alpha 90.000000
_cell_angle_beta 87.675405
_cell_angle_gamma 90.000000
_cell_volume 2148.760641
_symmetry_space_group_name_H-M "C 2/C"
_symmetry_group_IT_number 15
_symmetry_cell_setting 'monoclinic'
loop_
_space_group_symop_operation_xyz
x,y,z
-x,y,1/2-z
-x,-y,-z
x,-y,1/2+z
1/2+x,1/2+y,z
1/2-x,1/2+y,1/2-z
1/2-x,1/2-y,-z
1/2+x,1/2-y,1/2+z
loop_
_atom_site_type_symbol
_atom_site_label
_atom_site_fract_x
_atom_site_fract_y
_atom_site_fract_z
Si Si1 0.445860 0.808191 0.914927
Si Si2 0.530081 0.140162 0.883390
Si Si3 0.139432 0.640330 0.577878
Si Si4 0.882661 0.308450 0.620280
Si Si5 0.789291 0.433555 0.152434
Si Si6 0.086293 0.946098 0.732013
Si Si7 0.742439 0.066161 0.630064
O O1 0.447430 0.588453 0.839747
O O2 0.476318 0.041259 0.871714
O O3 0.391168 0.891005 0.928997
O O4 0.466234 0.719704 0.015203
O O5 0.546849 0.307953 0.796584
O O6 0.563155 0.899156 0.885585
O O7 0.129871 0.801722 0.483076
O O8 0.124803 0.781217 0.674216
O O9 0.193763 0.552416 0.574774
O O10 0.846854 0.536132 0.647285
O O11 0.879038 0.107353 0.703594
O O12 0.769102 0.678707 0.100300
O O13 0.768763 0.432272 0.258625
O O14 0.774037 0.177222 0.102495
#
# Coordination Sequence:
#
# PCOD8148785 Si02
#       7
#     8   8   8   8   8   8   8
#     4  10  24  46  71 104 144 185 238 300 366 442
#     4  10  24  46  71 104 144 185 238 300 366 442
#     4  11  26  44  68 105 144 188 241 301 367 444
#     4  11  26  44  68 105 144 188 241 301 367 444
#     4  10  23  42  71 106 142 192 247 303 368 444
#     4  12  24  43  76 104 142 192 244 304 369 444
#     4  10  23  42  71 106 142 192 247 303 368 444
#
# _framework density 26.061533000000001
#
# number of rings (size 3 to 8) (size 9 to 14) (size 15 to 20)
#    0.000    1.429    0.000    3.429   10.000    5.714 
#    0.000    4.286    0.000    2.571    0.000    0.000 
#    0.000    0.000    0.000    0.000    0.000    0.000 
#
# Total GULP energy -347246.004346 kJ/mol
# GULP energy per Si atom -12401.643012 kJ/mol
# Density = 2.600222 g / cm^3
# Si number density = 26.061533 Si / 1000 Ang^3
#
#
#
# Elastic Constant Matrix: (Units=GPa)
#
#
# Indices 1 2 3 4 5 6 
#
# 1 84.2268 5.7798 14.0633 0.0000 -3.9072 0.0000
# 2 5.7798 91.7433 44.1189 0.0000 -6.1378 0.0000
# 3 14.0633 44.1189 129.1318 0.0000 -11.0243 0.0000
# 4 0.0000 0.0000 0.0000 -22.6020 0.0000 18.9334
# 5 -3.9072 -6.1378 -11.0243 0.0000 32.1129 0.0000
# 6 0.0000 0.0000 0.0000 18.9334 0.0000 18.9428
#
#
#
# Elastic Compliance Matrix: (Units=1/GPa)
#
#
# Indices 1 2 3 4 5 6 
#
# 1 0.012128 -0.000122 -0.001190 0.000000 0.001044 0.000000
# 2 -0.000122 0.013075 -0.004370 0.000000 0.000984 0.000000
# 3 -0.001190 -0.004370 0.009563 0.000000 0.002303 0.000000
# 4 0.000000 0.000000 0.000000 -0.024081 0.000000 0.024069
# 5 0.001044 0.000984 0.002303 0.000000 0.032246 0.000000
# 6 0.000000 0.000000 0.000000 0.024069 0.000000 0.028733
#
#
# Mechanical properties :
#
#
# Convention : Reuss Voigt Hill
#
# Bulk Modulus (GPa) = 42.73025 48.11400 45.42213
# Shear Modulus (GPa) = 55.04874 21.76674 38.40774
#
# Velocity S-wave (km/s) = 4.60092 2.89313 3.84309
# Velocity P-wave (km/s) = 6.68252 5.44629 6.09582
#
# Compressibility (1/GPa) = 0.02340262
#
# Stress axis : x y z
#
# Youngs Moduli (GPa) = 82.45252 76.48218 104.56709
#
# Poissons Ratio (x) = 0.00933 0.12444
# Poissons Ratio (y) = 0.01005 0.45694
# Poissons Ratio (z) = 0.09812 0.33422
#
# Static dielectric constant tensor:
#      x y z
#    x 4.640200 0.000000 -0.014100 
#    y 0.000000 4.545840 0.000000 
#    z -0.014100 0.000000 4.944310 
# 
# 
# High freq. dielectric constant tensor:
#      x y z
#    x 2.049570 0.000000 -0.000710 
#    y 0.000000 2.021450 0.000000 
#    z -0.000710 0.000000 2.063730 
# 
# From -- ./inp_files/180114.got.cif
#   From: 2010.06.25/outbox.cif.g09.slc.cpg/sg15_91_cif.got.tgz:180114.got - 2010.06.28 07:06:18.
