data_PCOD8148976
_publ_section_title
;
Structure prediction by ZEFSAII (Michael W. Deem and Ramdas Pophale) SiO2 
 PCOD8148976
Probable space group: C 2/C
;
_chemical_formula_sum "Si O2"
_cell_formula_units_Z 64
_cell_length_a 29.790693
_cell_length_b 18.286799
_cell_length_c 9.432889
_cell_angle_alpha 90.000000
_cell_angle_beta 143.294131
_cell_angle_gamma 90.000000
_cell_volume 3071.507367
_symmetry_space_group_name_H-M "C 2/C"
_symmetry_group_IT_number 15
_symmetry_cell_setting 'monoclinic'
loop_
_space_group_symop_operation_xyz
x,y,z
-x,y,1/2-z
-x,-y,-z
x,-y,1/2+z
1/2+x,1/2+y,z
1/2-x,1/2+y,1/2-z
1/2-x,1/2-y,-z
1/2+x,1/2-y,1/2+z
loop_
_atom_site_type_symbol
_atom_site_label
_atom_site_fract_x
_atom_site_fract_y
_atom_site_fract_z
Si Si1 0.840480 0.107399 0.331114
Si Si2 0.682326 0.940647 0.039967
Si Si3 0.171990 0.417329 0.334434
Si Si4 0.559470 0.346809 0.661464
Si Si5 0.573211 0.182950 0.764358
Si Si6 0.098212 0.675621 0.143913
Si Si7 0.852636 0.058038 0.906643
Si Si8 0.114334 0.839941 0.265114
O O1 0.897755 0.151819 0.378615
O O2 0.836158 0.149791 0.468901
O O3 0.872694 0.025806 0.428180
O O4 0.758046 0.107651 0.055112
O O5 0.649793 0.938150 0.117228
O O6 0.771870 0.936318 0.275972
O O7 0.653393 0.872970 0.875869
O O8 0.655680 0.014851 0.896869
O O9 0.120425 0.350296 0.254723
O O10 0.578839 0.270411 0.784982
O O11 0.471537 0.357299 0.414160
O O12 0.585094 0.411631 0.829314
O O13 0.486724 0.161267 0.520347
O O14 0.604887 0.154423 0.995016
O O15 0.124136 0.758835 0.230636
O O16 0.852436 0.102111 0.760466
#
# Coordination Sequence:
#
# PCOD8148976 Si02
#       8
#     8   8   8   8   8   8   8   8
#     4  11  25  39  61  95 130 166 216 261 309 366
#     4  11  25  43  68  95 127 162 208 258 317 377
#     4  11  25  44  67  95 126 165 204 263 315 376
#     4  11  22  43  61  93 132 166 213 262 308 369
#     4  10  23  43  69  92 128 164 207 261 313 374
#     4  10  23  44  66  96 125 165 209 257 315 378
#     4  11  23  41  63  92 127 170 213 262 305 374
#     4  11  24  39  65  92 129 172 212 257 314 367
#
# _framework density 20.836673999999999
#
# number of rings (size 3 to 8) (size 9 to 14) (size 15 to 20)
#    0.000    1.250    2.500    2.250    8.750    6.000 
#    0.000    0.000    0.000    0.000    0.000    0.000 
#    0.000    0.000    0.000    0.000    0.000    0.000 
#
# Total GULP energy -397010.012030 kJ/mol
# GULP energy per Si atom -12406.562876 kJ/mol
# Density = 2.078925 g / cm^3
# Si number density = 20.836674 Si / 1000 Ang^3
#
#
#
# Elastic Constant Matrix: (Units=GPa)
#
#
# Indices 1 2 3 4 5 6 
#
# 1 87.0873 19.6516 7.3245 0.0000 -16.9164 0.0000
# 2 19.6516 62.4616 21.6658 0.0000 8.5164 0.0000
# 3 7.3245 21.6658 65.5829 0.0000 -19.2425 0.0000
# 4 0.0000 0.0000 0.0000 32.4589 0.0000 -0.7551
# 5 -16.9164 8.5164 -19.2425 0.0000 33.8130 0.0000
# 6 0.0000 0.0000 0.0000 -0.7551 0.0000 36.1717
#
#
#
# Elastic Compliance Matrix: (Units=1/GPa)
#
#
# Indices 1 2 3 4 5 6 
#
# 1 0.015308 -0.008075 0.004564 0.000000 0.012290 0.000000
# 2 -0.008075 0.025334 -0.012635 0.000000 -0.017611 0.000000
# 3 0.004564 -0.012635 0.024628 0.000000 0.019481 0.000000
# 4 0.000000 0.000000 0.000000 0.030823 0.000000 0.000643
# 5 0.012290 -0.017611 0.019481 0.000000 0.051245 0.000000
# 6 0.000000 0.000000 0.000000 0.000643 0.000000 0.027659
#
#
# Mechanical properties :
#
#
# Convention : Reuss Voigt Hill
#
# Bulk Modulus (GPa) = 30.32253 34.71286 32.51770
# Shear Modulus (GPa) = 22.90617 31.58803 27.24710
#
# Velocity S-wave (km/s) = 3.31920 3.89779 3.62007
# Velocity P-wave (km/s) = 5.41050 6.07887 5.75440
#
# Compressibility (1/GPa) = 0.03297878
#
# Stress axis : x y z
#
# Youngs Moduli (GPa) = 65.32416 39.47262 40.60434
#
# Poissons Ratio (x) = 0.31874 -0.18531
# Poissons Ratio (y) = 0.52749 0.51302
# Poissons Ratio (z) = -0.29813 0.49872
#
# Static dielectric constant tensor:
#      x y z
#    x 3.896280 0.000000 -0.082080 
#    y 0.000000 3.732020 0.000000 
#    z -0.082080 0.000000 3.718140 
# 
# 
# High freq. dielectric constant tensor:
#      x y z
#    x 1.823050 0.000000 -0.009400 
#    y 0.000000 1.817450 0.000000 
#    z -0.009400 0.000000 1.817340 
# 
# From -- ./inp_files/70641.got.cif
#   From: 2010.06.25/outbox.cif.g09.slc.cpg/sg15_36_cif.got.tgz:70641.got - 2010.06.28 07:06:18.
