data_PCOD8148874
_publ_section_title
;
Structure prediction by ZEFSAII (Michael W. Deem and Ramdas Pophale) SiO2 
 PCOD8148874
Probable space group: C 2/C
;
_chemical_formula_sum "Si O2"
_cell_formula_units_Z 40
_cell_length_a 22.318941
_cell_length_b 20.709212
_cell_length_c 11.250991
_cell_angle_alpha 90.000000
_cell_angle_beta 159.212668
_cell_angle_gamma 90.000000
_cell_volume 1845.585883
_symmetry_space_group_name_H-M "C 2/C"
_symmetry_group_IT_number 15
_symmetry_cell_setting 'monoclinic'
loop_
_space_group_symop_operation_xyz
x,y,z
-x,y,1/2-z
-x,-y,-z
x,-y,1/2+z
1/2+x,1/2+y,z
1/2-x,1/2+y,1/2-z
1/2-x,1/2-y,-z
1/2+x,1/2-y,1/2+z
loop_
_atom_site_type_symbol
_atom_site_label
_atom_site_fract_x
_atom_site_fract_y
_atom_site_fract_z
Si Si1 0.392676 0.476072 0.191946
Si Si2 0.394482 0.091161 0.232502
Si Si3 0.743771 0.410843 0.198191
Si Si4 0.688392 0.210439 0.273968
Si Si5 0.000000 0.141760 0.750000
Si Si6 0.000000 0.199905 0.250000
O O1 0.500000 0.500000 0.500000
O O2 0.485670 0.408050 0.333862
O O3 0.197961 0.466576 0.870020
O O4 0.376454 0.526964 0.051744
O O5 0.583909 0.074833 0.550301
O O6 0.407065 0.149903 0.347700
O O7 0.278066 0.102841 0.900376
O O8 0.650083 0.346158 0.978678
O O9 0.750000 0.250000 0.500000
O O10 0.836590 0.188481 0.456122
O O11 0.555224 0.254346 0.959180
#
# Coordination Sequence:
#
# PCOD8148874 Si02
#       6
#     8   8   8   8   4   4
#     4  11  22  41  68  99 131 172 219 274 337 399
#     4  10  23  43  65  95 137 172 217 275 332 395
#     4  11  23  41  67  99 129 173 222 272 334 402
#     4  11  25  44  64  94 134 176 222 271 331 393
#     4  10  25  42  64  92 135 172 218 280 322 398
#     4  12  25  40  66  98 127 176 228 268 332 402
#
# _framework density 21.673335999999999
#
# number of rings (size 3 to 8) (size 9 to 14) (size 15 to 20)
#    0.000    1.200    2.000    3.600    5.600    2.400 
#    0.000    8.000    0.000    0.000    0.000    0.000 
#    0.000    0.000    0.000    0.000    0.000    0.000 
#
# Total GULP energy -247786.526301 kJ/mol
# GULP energy per Si atom -12389.326315 kJ/mol
# Density = 2.162401 g / cm^3
# Si number density = 21.673336 Si / 1000 Ang^3
#
#
#
# Elastic Constant Matrix: (Units=GPa)
#
#
# Indices 1 2 3 4 5 6 
#
# 1 101.8692 39.8889 55.1706 0.0000 12.1433 0.0000
# 2 39.8889 120.6520 65.5826 0.0000 -7.8142 0.0000
# 3 55.1706 65.5826 120.3223 0.0000 -7.0767 0.0000
# 4 0.0000 0.0000 0.0000 43.1085 0.0000 -6.0762
# 5 12.1433 -7.8142 -7.0767 0.0000 38.5437 0.0000
# 6 0.0000 0.0000 0.0000 -6.0762 0.0000 35.4939
#
#
#
# Elastic Compliance Matrix: (Units=1/GPa)
#
#
# Indices 1 2 3 4 5 6 
#
# 1 0.014531 -0.001963 -0.005950 0.000000 -0.006068 0.000000
# 2 -0.001963 0.012100 -0.005575 0.000000 0.002048 0.000000
# 3 -0.005950 -0.005575 0.014276 0.000000 0.003365 0.000000
# 4 0.000000 0.000000 0.000000 0.023771 0.000000 0.004069
# 5 -0.006068 0.002048 0.003365 0.000000 0.028889 0.000000
# 6 0.000000 0.000000 0.000000 0.004069 0.000000 0.028870
#
#
# Mechanical properties :
#
#
# Convention : Reuss Voigt Hill
#
# Bulk Modulus (GPa) = 71.77888 73.79197 72.78542
# Shear Modulus (GPa) = 32.45574 35.57600 34.01587
#
# Velocity S-wave (km/s) = 3.87395 4.05589 3.96596
# Velocity P-wave (km/s) = 7.29386 7.48699 7.39105
#
# Compressibility (1/GPa) = 0.01393167
#
# Stress axis : x y z
#
# Youngs Moduli (GPa) = 68.81960 82.64327 70.04981
#
# Poissons Ratio (x) = 0.16223 0.41677
# Poissons Ratio (y) = 0.13509 0.39051
# Poissons Ratio (z) = 0.40945 0.46072
#
# Static dielectric constant tensor:
#      x y z
#    x 3.961230 0.000000 0.179440 
#    y 0.000000 3.973360 0.000000 
#    z 0.179440 0.000000 3.858330 
# 
# 
# High freq. dielectric constant tensor:
#      x y z
#    x 1.858590 0.000000 0.015850 
#    y 0.000000 1.862680 0.000000 
#    z 0.015850 0.000000 1.849130 
# 
# From -- ./inp_files/77893.got.cif
#   From: 2010.06.25/outbox.cif.g09.slc.cpg/sg15_39_cif.got.tgz:77893.got - 2010.06.28 07:06:18.
