data_PCOD8148724
_publ_section_title
;
Structure prediction by ZEFSAII (Michael W. Deem and Ramdas Pophale) SiO2 
 PCOD8148724
Probable space group: C 2/C
;
_chemical_formula_sum "Si O2"
_cell_formula_units_Z 64
_cell_length_a 14.299494
_cell_length_b 18.027910
_cell_length_c 14.690928
_cell_angle_alpha 90.000000
_cell_angle_beta 51.159302
_cell_angle_gamma 90.000000
_cell_volume 2949.802269
_symmetry_space_group_name_H-M "C 2/C"
_symmetry_group_IT_number 15
_symmetry_cell_setting 'monoclinic'
loop_
_space_group_symop_operation_xyz
x,y,z
-x,y,1/2-z
-x,-y,-z
x,-y,1/2+z
1/2+x,1/2+y,z
1/2-x,1/2+y,1/2-z
1/2-x,1/2-y,-z
1/2+x,1/2-y,1/2+z
loop_
_atom_site_type_symbol
_atom_site_label
_atom_site_fract_x
_atom_site_fract_y
_atom_site_fract_z
Si Si1 0.369965 0.635071 0.856796
Si Si2 0.280207 0.422252 0.732008
Si Si3 0.662213 0.434729 0.413258
Si Si4 0.129023 0.966475 0.644732
Si Si5 0.882538 0.328740 0.047097
Si Si6 0.433203 0.335803 0.512977
Si Si7 0.514310 0.040186 0.396019
Si Si8 0.071565 0.607676 0.787042
O O1 0.500000 0.669555 0.750000
O O2 0.359195 0.551123 0.829549
O O3 0.261988 0.680560 0.873807
O O4 0.359657 0.633440 0.971820
O O5 0.350500 0.491751 0.641276
O O6 0.282230 0.423239 0.841094
O O7 0.348062 0.349541 0.652750
O O8 0.140735 0.421627 0.794710
O O9 0.654974 0.454384 0.523794
O O10 0.561376 0.375973 0.444452
O O11 0.789178 0.396982 0.321078
O O12 0.000000 0.934691 0.750000
O O13 0.949648 0.251817 0.986024
O O14 0.933924 0.350264 0.114196
O O15 0.917492 0.392886 0.951381
O O16 0.500000 0.000000 0.500000
O O17 0.501835 0.972330 0.332896
O O18 0.000000 0.651209 0.750000
#
# Coordination Sequence:
#
# PCOD8148724 Si02
#       8
#     8   8   8   8   8   8   8   8
#     4  11  23  41  69  94 129 174 219 280 335 384
#     4  11  22  39  63  99 129 171 224 276 325 396
#     4  11  22  41  66 100 131 169 227 275 331 391
#     4  11  20  35  67  99 129 164 223 280 328 380
#     4  11  25  44  62  99 135 175 222 264 343 410
#     4  12  24  42  64  94 140 173 214 275 333 413
#     4   9  21  40  64  88 124 168 219 272 322 382
#     4  10  23  42  68  94 129 170 221 279 325 396
#
# _framework density 21.696369000000001
#
# number of rings (size 3 to 8) (size 9 to 14) (size 15 to 20)
#    0.000    1.250    2.500    5.250    5.250    2.000 
#    2.250    1.250    0.000    0.000    0.000    0.000 
#    0.000    0.000    0.000    0.000    0.000    0.000 
#
# Total GULP energy -396572.181589 kJ/mol
# GULP energy per Si atom -12392.880675 kJ/mol
# Density = 2.164699 g / cm^3
# Si number density = 21.696369 Si / 1000 Ang^3
#
#
#
# Elastic Constant Matrix: (Units=GPa)
#
#
# Indices 1 2 3 4 5 6 
#
# 1 104.4885 25.7409 20.9891 0.0000 14.6062 0.0000
# 2 25.7409 70.6145 27.1584 0.0000 -11.3055 0.0000
# 3 20.9891 27.1584 83.1601 0.0000 1.6170 0.0000
# 4 0.0000 0.0000 0.0000 14.4644 0.0000 -3.0273
# 5 14.6062 -11.3055 1.6170 0.0000 42.2672 0.0000
# 6 0.0000 0.0000 0.0000 -3.0273 0.0000 19.9819
#
#
#
# Elastic Compliance Matrix: (Units=1/GPa)
#
#
# Indices 1 2 3 4 5 6 
#
# 1 0.011700 -0.004578 -0.001356 0.000000 -0.005216 0.000000
# 2 -0.004578 0.018906 -0.005152 0.000000 0.006836 0.000000
# 3 -0.001356 -0.005152 0.014078 0.000000 -0.001448 0.000000
# 4 0.000000 0.000000 0.000000 0.071399 0.000000 0.010817
# 5 -0.005216 0.006836 -0.001448 0.000000 0.027345 0.000000
# 6 0.000000 0.000000 0.000000 0.010817 0.000000 0.051684
#
#
# Mechanical properties :
#
#
# Convention : Reuss Voigt Hill
#
# Bulk Modulus (GPa) = 44.42254 45.11555 44.76905
# Shear Modulus (GPa) = 22.24306 27.63434 24.93870
#
# Velocity S-wave (km/s) = 3.20534 3.57274 3.39402
# Velocity P-wave (km/s) = 5.84962 6.15293 6.00319
#
# Compressibility (1/GPa) = 0.02251109
#
# Stress axis : x y z
#
# Youngs Moduli (GPa) = 85.47100 52.89275 71.03308
#
# Poissons Ratio (x) = 0.24216 0.09635
# Poissons Ratio (y) = 0.39131 0.36595
# Poissons Ratio (z) = 0.11593 0.27249
#
# Static dielectric constant tensor:
#      x y z
#    x 1.471220 0.000000 -3.617770 
#    y 0.000000 3.702700 0.000000 
#    z -3.617770 0.000000 -1.265430 
# 
# 
# High freq. dielectric constant tensor:
#      x y z
#    x 1.856820 0.000000 0.001760 
#    y 0.000000 1.815050 0.000000 
#    z 0.001760 0.000000 1.865840 
# 
# From -- ./inp_files/155499.got.cif
#   From: 2010.06.25/outbox.cif.g09.slc.cpg/sg15_78_cif.got.tgz:155499.got - 2010.06.28 07:06:18.
