data_PCOD8148489
_publ_section_title
;
Structure prediction by ZEFSAII (Michael W. Deem and Ramdas Pophale) SiO2 
 PCOD8148489
Probable space group: C 2/C
;
_chemical_formula_sum "Si O2"
_cell_formula_units_Z 48
_cell_length_a 18.268759
_cell_length_b 6.913244
_cell_length_c 21.184683
_cell_angle_alpha 90.000000
_cell_angle_beta 54.641542
_cell_angle_gamma 90.000000
_cell_volume 2182.037492
_symmetry_space_group_name_H-M "C 2/C"
_symmetry_group_IT_number 15
_symmetry_cell_setting 'monoclinic'
loop_
_space_group_symop_operation_xyz
x,y,z
-x,y,1/2-z
-x,-y,-z
x,-y,1/2+z
1/2+x,1/2+y,z
1/2-x,1/2+y,1/2-z
1/2-x,1/2-y,-z
1/2+x,1/2-y,1/2+z
loop_
_atom_site_type_symbol
_atom_site_label
_atom_site_fract_x
_atom_site_fract_y
_atom_site_fract_z
Si Si1 0.863115 0.187518 0.680036
Si Si2 0.228645 0.535280 0.989136
Si Si3 0.083212 0.627117 0.475424
Si Si4 0.857065 0.257099 0.370534
Si Si5 0.016825 0.828723 0.871243
Si Si6 0.166814 0.580517 0.755379
O O1 0.867775 0.280359 0.608448
O O2 0.864730 0.356589 0.732160
O O3 0.768615 0.075147 0.730197
O O4 0.947601 0.048597 0.651620
O O5 0.148314 0.520637 0.979206
O O6 0.316348 0.450021 0.910854
O O7 0.250000 0.750000 0.000000
O O8 0.201001 0.420689 0.065737
O O9 0.000000 0.500000 0.500000
O O10 0.051090 0.805622 0.535878
O O11 0.846847 0.301803 0.302150
O O12 0.962204 0.242123 0.336338
O O13 0.102707 0.688666 0.837809
#
# Coordination Sequence:
#
# PCOD8148489 Si02
#       6
#     8   8   8   8   8   8
#     4  12  25  43  71 102 138 186 226 288 358 415
#     4  10  23  41  67  96 133 180 226 276 347 412
#     4  11  23  43  69 102 138 176 237 288 342 421
#     4  10  24  43  63  96 138 175 223 290 339 404
#     4  11  25  43  68 100 136 181 232 286 348 414
#     4  12  24  44  67 100 139 177 230 285 348 422
#
# _framework density 21.997788
#
# number of rings (size 3 to 8) (size 9 to 14) (size 15 to 20)
#    0.000    1.000    5.000    1.000    2.333    4.000 
#    0.000    1.667    0.000    0.000    0.000    0.000 
#    0.000    0.000    0.000    0.000    0.000    0.000 
#
# Total GULP energy -297603.878731 kJ/mol
# GULP energy per Si atom -12400.161614 kJ/mol
# Density = 2.194772 g / cm^3
# Si number density = 21.997788 Si / 1000 Ang^3
#
#
#
# Elastic Constant Matrix: (Units=GPa)
#
#
# Indices 1 2 3 4 5 6 
#
# 1 88.7769 38.1125 30.4529 0.0013 -14.2854 0.0020
# 2 38.1125 160.5669 37.2367 0.0035 -9.4922 -0.0004
# 3 30.4529 37.2367 78.8747 -0.0015 -8.2983 -0.0010
# 4 0.0013 0.0035 -0.0015 34.8148 -0.0002 -8.3086
# 5 -14.2854 -9.4922 -8.2983 -0.0002 33.9192 -0.0008
# 6 0.0020 -0.0004 -0.0010 -8.3086 -0.0008 39.1729
#
#
#
# Elastic Compliance Matrix: (Units=1/GPa)
#
#
# Indices 1 2 3 4 5 6 
#
# 1 0.014299 -0.002201 -0.004016 -0.000001 0.004423 -0.000001
# 2 -0.002201 0.007379 -0.002580 -0.000001 0.000507 0.000000
# 3 -0.004016 -0.002580 0.015595 0.000001 0.001402 0.000001
# 4 -0.000001 -0.000001 0.000001 0.030255 0.000000 0.006417
# 5 0.004423 0.000507 0.001402 0.000000 0.031830 0.000001
# 6 -0.000001 0.000000 0.000001 0.006417 0.000001 0.026889
#
#
# Mechanical properties :
#
#
# Convention : Reuss Voigt Hill
#
# Bulk Modulus (GPa) = 50.82113 59.98032 55.40072
# Shear Modulus (GPa) = 33.24488 36.40914 34.82701
#
# Velocity S-wave (km/s) = 3.89174 4.07274 3.98327
# Velocity P-wave (km/s) = 6.58386 7.03150 6.81136
#
# Compressibility (1/GPa) = 0.01967685
#
# Stress axis : x y z
#
# Youngs Moduli (GPa) = 69.93724 135.52429 64.12484
#
# Poissons Ratio (x) = 0.29830 0.25753
# Poissons Ratio (y) = 0.15394 0.16547
# Poissons Ratio (z) = 0.28087 0.34971
#
# Static dielectric constant tensor:
#      x y z
#    x 4.103140 0.000290 0.112550 
#    y 0.000290 3.260280 0.000630 
#    z 0.112550 0.000630 4.887040 
# 
# 
# High freq. dielectric constant tensor:
#      x y z
#    x 1.866900 0.000000 -0.015690 
#    y 0.000000 1.858470 0.000000 
#    z -0.015690 0.000000 1.877890 
# 
# From -- ./inp_files/278845.got.cif
#   From: 2010.06.25/outbox.cif.g09.slc.cpg/sg15_140_cif.got.tgz:278845.got - 2010.06.28 07:06:18.
