data_PCOD8148394
_publ_section_title
;
Structure prediction by ZEFSAII (Michael W. Deem and Ramdas Pophale) SiO2 
 PCOD8148394
Probable space group: C 2/C
;
_chemical_formula_sum "Si O2"
_cell_formula_units_Z 64
_cell_length_a 23.524844
_cell_length_b 8.939313
_cell_length_c 27.695893
_cell_angle_alpha 90.000000
_cell_angle_beta 33.340434
_cell_angle_gamma 90.000000
_cell_volume 3201.126840
_symmetry_space_group_name_H-M "C 2/C"
_symmetry_group_IT_number 15
_symmetry_cell_setting 'monoclinic'
loop_
_space_group_symop_operation_xyz
x,y,z
-x,y,1/2-z
-x,-y,-z
x,-y,1/2+z
1/2+x,1/2+y,z
1/2-x,1/2+y,1/2-z
1/2-x,1/2-y,-z
1/2+x,1/2-y,1/2+z
loop_
_atom_site_type_symbol
_atom_site_label
_atom_site_fract_x
_atom_site_fract_y
_atom_site_fract_z
Si Si1 0.507011 0.076283 0.603448
Si Si2 0.344294 0.575964 0.656174
Si Si3 0.007017 0.076265 0.103444
Si Si4 0.571016 0.075582 0.244684
Si Si5 0.782841 0.420616 0.591902
Si Si6 0.344281 0.075946 0.156189
Si Si7 0.071015 0.924368 0.244686
Si Si8 0.782832 0.920539 0.091903
O O1 0.477705 0.250010 0.621449
O O2 0.630066 0.051218 0.510614
O O3 0.469849 0.014616 0.680734
O O4 0.450815 0.994039 0.599204
O O5 0.450834 0.505986 0.599185
O O6 0.343502 0.750007 0.669220
O O7 0.250013 0.499991 0.749988
O O8 0.334949 0.544659 0.606216
O O9 0.130078 0.051258 0.010610
O O10 0.969850 0.014570 0.180731
O O11 0.500000 0.033760 0.250000
O O12 0.567091 0.249974 0.259750
O O13 0.687883 0.030092 0.148864
O O14 0.834950 0.455394 0.606222
O O15 0.687895 0.530181 0.648863
O O16 0.742535 0.250039 0.618804
O O17 0.000000 0.966191 0.250000
#
# Coordination Sequence:
#
# PCOD8148394 Si02
#       8
#     8   8   8   8   8   8   8   8
#     4  11  23  40  63  92 124 160 202 247 302 362
#     4  11  21  36  61  93 126 162 200 242 299 360
#     4  11  23  40  63  92 124 160 202 247 302 362
#     4  11  25  43  63  88 119 159 206 255 305 357
#     4  10  23  41  63  91 123 161 202 246 300 362
#     4  11  21  36  61  93 126 162 200 242 299 360
#     4  11  25  43  63  88 119 159 206 255 305 357
#     4  10  23  41  63  91 123 161 202 246 300 362
#
# _framework density 19.992961000000001
#
# number of rings (size 3 to 8) (size 9 to 14) (size 15 to 20)
#    0.000    1.250    2.500    3.000    0.000    6.000 
#    0.000    5.000    0.000    0.000    0.000    0.000 
#    0.000    0.000    0.000    0.000    0.000    0.000 
#
# Total GULP energy -396975.076291 kJ/mol
# GULP energy per Si atom -12405.471134 kJ/mol
# Density = 1.994746 g / cm^3
# Si number density = 19.992961 Si / 1000 Ang^3
#
#
#
# Elastic Constant Matrix: (Units=GPa)
#
#
# Indices 1 2 3 4 5 6 
#
# 1 95.1985 53.4362 35.1367 0.0023 -25.9453 -0.0037
# 2 53.4362 108.3536 43.9758 0.0027 -18.7333 0.0003
# 3 35.1367 43.9758 110.7065 -0.0024 -17.0347 -0.0005
# 4 0.0023 0.0027 -0.0024 30.7213 -0.0040 -7.5542
# 5 -25.9453 -18.7333 -17.0347 -0.0040 13.4085 0.0033
# 6 -0.0037 0.0003 -0.0005 -7.5542 0.0033 26.9050
#
#
#
# Elastic Compliance Matrix: (Units=1/GPa)
#
#
# Indices 1 2 3 4 5 6 
#
# 1 0.024184 -0.005202 0.000588 0.000004 0.040274 0.000000
# 2 -0.005202 0.014004 -0.003045 -0.000001 0.005630 -0.000002
# 3 0.000588 -0.003045 0.011903 0.000003 0.012005 0.000000
# 4 0.000004 -0.000001 0.000003 0.034965 0.000018 0.009817
# 5 0.040274 0.005630 0.012005 0.000018 0.175629 -0.000011
# 6 0.000000 -0.000002 0.000000 0.009817 -0.000011 0.039924
#
#
# Mechanical properties :
#
#
# Convention : Reuss Voigt Hill
#
# Bulk Modulus (GPa) = 28.75887 64.37290 46.56588
# Shear Modulus (GPa) = 15.26632 26.32094 20.79363
#
# Velocity S-wave (km/s) = 2.76630 3.63231 3.22848
# Velocity P-wave (km/s) = 4.96175 7.06111 6.10239
#
# Compressibility (1/GPa) = 0.03477188
#
# Stress axis : x y z
#
# Youngs Moduli (GPa) = 41.35009 71.40851 84.01041
#
# Poissons Ratio (x) = 0.37148 -0.04940
# Poissons Ratio (y) = 0.21511 0.25584
# Poissons Ratio (z) = -0.02431 0.21746
#
# Static dielectric constant tensor:
#      x y z
#    x 3.235570 -0.000270 -0.884560 
#    y -0.000270 3.847770 -0.000440 
#    z -0.884560 -0.000440 2.233170 
# 
# 
# High freq. dielectric constant tensor:
#      x y z
#    x 1.775830 0.000000 -0.001400 
#    y 0.000000 1.791090 0.000000 
#    z -0.001400 0.000000 1.793370 
# 
# From -- ./inp_files/318595.got.cif
#   From: 2010.06.25/outbox.cif.g09.slc.cpg/sg15_160_cif.got.tgz:318595.got - 2010.06.28 07:06:18.
