data_PCOD8148185
_publ_section_title
;
Structure prediction by ZEFSAII (Michael W. Deem and Ramdas Pophale) SiO2 
 PCOD8148185
Probable space group: C 2/C
;
_chemical_formula_sum "Si O2"
_cell_formula_units_Z 56
_cell_length_a 25.075595
_cell_length_b 14.741111
_cell_length_c 8.152427
_cell_angle_alpha 90.000000
_cell_angle_beta 45.580878
_cell_angle_gamma 90.000000
_cell_volume 2152.345682
_symmetry_space_group_name_H-M "C 2/C"
_symmetry_group_IT_number 15
_symmetry_cell_setting 'monoclinic'
loop_
_space_group_symop_operation_xyz
x,y,z
-x,y,1/2-z
-x,-y,-z
x,-y,1/2+z
1/2+x,1/2+y,z
1/2-x,1/2+y,1/2-z
1/2-x,1/2-y,-z
1/2+x,1/2-y,1/2+z
loop_
_atom_site_type_symbol
_atom_site_label
_atom_site_fract_x
_atom_site_fract_y
_atom_site_fract_z
Si Si1 0.070944 0.753133 0.496054
Si Si2 0.191048 0.427113 0.044501
Si Si3 0.566766 0.071560 0.322551
Si Si4 0.782218 0.043589 0.041075
Si Si5 0.075282 0.870117 0.157320
Si Si6 0.226319 0.812089 0.199236
Si Si7 0.125423 0.693086 0.922873
O O1 0.067230 0.645134 0.467556
O O2 0.069322 0.810247 0.332533
O O3 0.145752 0.777284 0.437358
O O4 0.000000 0.784468 0.750000
O O5 0.145336 0.520709 0.149204
O O6 0.255475 0.441471 0.050495
O O7 0.134450 0.346389 0.218660
O O8 0.225422 0.407670 0.791975
O O9 0.500000 0.000000 0.500000
O O10 0.567476 0.127621 0.147917
O O11 0.864659 0.049454 0.944849
O O12 0.781704 0.087548 0.860081
O O13 0.000000 0.917017 0.250000
O O14 0.096940 0.796121 0.970998
O O15 0.290292 0.803869 0.194033
O O16 0.250000 0.750000 0.000000
#
# Coordination Sequence:
#
# PCOD8148185 Si02
#       7
#     8   8   8   8   8   8   8
#     4  10  23  39  66  95 127 174 216 262 320 398
#     4  12  24  40  63  99 127 171 225 262 332 382
#     4  11  24  37  57  93 139 171 202 255 327 395
#     4  11  22  43  68  92 129 174 217 276 316 396
#     4  10  24  45  63  92 134 168 214 276 333 374
#     4  11  18  43  66  87 128 176 222 261 318 385
#     4  11  23  41  64  93 132 173 217 271 316 400
#
# _framework density 26.018125000000001
#
# number of rings (size 3 to 8) (size 9 to 14) (size 15 to 20)
#    0.000    1.143    7.143    0.000    6.000    2.857 
#    0.000    0.714    0.000    1.714    0.000    0.000 
#    0.000    0.000    0.000    0.000    0.000    0.000 
#
# Total GULP energy -346932.874793 kJ/mol
# GULP energy per Si atom -12390.459814 kJ/mol
# Density = 2.595891 g / cm^3
# Si number density = 26.018125 Si / 1000 Ang^3
#
#
#
# Elastic Constant Matrix: (Units=GPa)
#
#
# Indices 1 2 3 4 5 6 
#
# 1 63.8612 -1.2856 21.7779 0.0000 -33.3553 0.0000
# 2 -1.2856 48.1192 17.6913 0.0000 -11.9914 0.0000
# 3 21.7779 17.6913 127.2775 0.0000 -22.6674 0.0000
# 4 0.0000 0.0000 0.0000 27.6395 0.0000 -15.0512
# 5 -33.3553 -11.9914 -22.6674 0.0000 46.9457 0.0000
# 6 0.0000 0.0000 0.0000 -15.0512 0.0000 30.4708
#
#
#
# Elastic Compliance Matrix: (Units=1/GPa)
#
#
# Indices 1 2 3 4 5 6 
#
# 1 0.026720 0.006330 -0.001951 0.000000 0.019660 0.000000
# 2 0.006330 0.024311 -0.002796 0.000000 0.009358 0.000000
# 3 -0.001951 -0.002796 0.008977 0.000000 0.002235 0.000000
# 4 0.000000 0.000000 0.000000 0.049493 0.000000 0.024447
# 5 0.019660 0.009358 0.002235 0.000000 0.038739 0.000000
# 6 0.000000 0.000000 0.000000 0.024447 0.000000 0.044894
#
#
# Mechanical properties :
#
#
# Convention : Reuss Voigt Hill
#
# Bulk Modulus (GPa) = 15.82873 35.06946 25.44910
# Shear Modulus (GPa) = 23.69389 34.41615 29.05502
#
# Velocity S-wave (km/s) = 3.02100 3.64094 3.34536
# Velocity P-wave (km/s) = 4.27382 5.58421 4.97237
#
# Compressibility (1/GPa) = 0.06317625
#
# Stress axis : x y z
#
# Youngs Moduli (GPa) = 37.42479 41.13418 111.39372
#
# Poissons Ratio (x) = -0.26039 0.21728
# Poissons Ratio (y) = -0.23691 0.31143
# Poissons Ratio (z) = 0.07300 0.11500
#
# Static dielectric constant tensor:
#      x y z
#    x 4.397900 0.000000 -0.319370 
#    y 0.000000 4.890080 0.000000 
#    z -0.319370 0.000000 4.918810 
# 
# 
# High freq. dielectric constant tensor:
#      x y z
#    x 2.035170 0.000000 -0.011870 
#    y 0.000000 2.023650 0.000000 
#    z -0.011870 0.000000 2.041890 
# 
# From -- ./inp_files/67142.got.cif
#   From: 2010.06.25/outbox.cif.g09.slc.cpg/sg15_34_cif.got.tgz:67142.got - 2010.06.28 07:06:18.
