data_PCOD8148904
_publ_section_title
;
Structure prediction by ZEFSAII (Michael W. Deem and Ramdas Pophale) SiO2 
 PCOD8148904
Probable space group: C 2/C
;
_chemical_formula_sum "Si O2"
_cell_formula_units_Z 36
_cell_length_a 12.331797
_cell_length_b 6.002818
_cell_length_c 20.143512
_cell_angle_alpha 90.000000
_cell_angle_beta 109.030307
_cell_angle_gamma 90.000000
_cell_volume 1409.638109
_symmetry_space_group_name_H-M "C 2/C"
_symmetry_group_IT_number 15
_symmetry_cell_setting 'monoclinic'
loop_
_space_group_symop_operation_xyz
x,y,z
-x,y,1/2-z
-x,-y,-z
x,-y,1/2+z
1/2+x,1/2+y,z
1/2-x,1/2+y,1/2-z
1/2-x,1/2-y,-z
1/2+x,1/2-y,1/2+z
loop_
_atom_site_type_symbol
_atom_site_label
_atom_site_fract_x
_atom_site_fract_y
_atom_site_fract_z
Si Si1 0.685945 0.543955 0.952045
Si Si2 0.090980 0.338718 0.671980
Si Si3 0.000000 0.351713 0.250000
Si Si4 0.086885 0.708348 0.027810
Si Si5 0.329886 0.477398 0.196053
O O1 0.781581 0.365354 0.950518
O O2 0.630774 0.615813 0.869412
O O3 0.750000 0.750000 0.000000
O O4 0.586447 0.425935 0.978404
O O5 0.054840 0.212230 0.596637
O O6 0.194329 0.505144 0.673603
O O7 0.121431 0.176626 0.737276
O O8 0.994583 0.502923 0.681342
O O9 0.116890 0.217339 0.279404
O O10 0.000000 0.500000 0.000000
#
# Coordination Sequence:
#
# PCOD8148904 Si02
#       5
#     8   8   4   8   8
#     4  10  24  41  67  98 138 179 230 292 351 418
#     4  11  24  41  69  97 140 180 229 290 342 416
#     4  12  24  42  68  98 134 184 230 280 352 408
#     4  10  23  43  66  99 136 184 233 286 353 424
#     4  11  24  42  66 100 137 180 229 287 346 415
#
# _framework density 25.53847
#
# number of rings (size 3 to 8) (size 9 to 14) (size 15 to 20)
#    0.000    1.333    2.222    2.000    3.111    6.222 
#    0.000    0.000    0.000    0.000    0.000    0.000 
#    0.000    0.000    0.000    0.000    0.000    0.000 
#
# Total GULP energy -223015.756454 kJ/mol
# GULP energy per Si atom -12389.764247 kJ/mol
# Density = 2.548034 g / cm^3
# Si number density = 25.538470 Si / 1000 Ang^3
#
#
#
# Elastic Constant Matrix: (Units=GPa)
#
#
# Indices 1 2 3 4 5 6 
#
# 1 52.7022 12.2795 27.4420 0.0000 -37.4675 0.0000
# 2 12.2795 100.5053 79.9168 0.0000 -24.9526 0.0000
# 3 27.4420 79.9168 256.9138 0.0000 -41.2976 0.0000
# 4 0.0000 0.0000 0.0000 -13.6092 0.0000 -57.3907
# 5 -37.4675 -24.9526 -41.2976 0.0000 46.2723 0.0000
# 6 0.0000 0.0000 0.0000 -57.3907 0.0000 -6.0028
#
#
#
# Elastic Compliance Matrix: (Units=1/GPa)
#
#
# Indices 1 2 3 4 5 6 
#
# 1 0.046212 0.004081 0.000190 0.000000 0.039789 0.000000
# 2 0.004081 0.014259 -0.003624 0.000000 0.007759 0.000000
# 3 0.000190 -0.003624 0.005499 0.000000 0.003107 0.000000
# 4 0.000000 0.000000 0.000000 0.001869 0.000000 -0.017868
# 5 0.039789 0.007759 0.003107 0.000000 0.060787 0.000000
# 6 0.000000 0.000000 0.000000 -0.017868 0.000000 0.004237
#
#
# Mechanical properties :
#
#
# Convention : Reuss Voigt Hill
#
# Bulk Modulus (GPa) = 14.86668 72.15533 43.51100
# Shear Modulus (GPa) = 32.46969 24.69760 28.58365
#
# Velocity S-wave (km/s) = 3.56954 3.11316 3.34913
# Velocity P-wave (km/s) = 4.77732 6.42162 5.65951
#
# Compressibility (1/GPa) = 0.06726453
#
# Stress axis : x y z
#
# Youngs Moduli (GPa) = 21.63949 70.12948 181.85467
#
# Poissons Ratio (x) = -0.28621 -0.03461
# Poissons Ratio (y) = -0.08831 0.65908
# Poissons Ratio (z) = -0.00412 0.25416
#
# Static dielectric constant tensor:
#      x y z
#    x 3.868010 0.000000 -1.083460 
#    y 0.000000 4.576880 0.000000 
#    z -1.083460 0.000000 4.835780 
# 
# 
# High freq. dielectric constant tensor:
#      x y z
#    x 2.040540 0.000000 -0.025220 
#    y 0.000000 2.012070 0.000000 
#    z -0.025220 0.000000 2.038590 
# 
# From -- ./inp_files/241519.got.cif
#   From: 2010.06.25/outbox.cif.g09.slc.cpg/sg15_121_cif.got.tgz:241519.got - 2010.06.28 07:06:18.
