data_PCOD8148194
_publ_section_title
;
Structure prediction by ZEFSAII (Michael W. Deem and Ramdas Pophale) SiO2 
 PCOD8148194
Probable space group: C 2/C
;
_chemical_formula_sum "Si O2"
_cell_formula_units_Z 60
_cell_length_a 7.748483
_cell_length_b 16.388021
_cell_length_c 22.555848
_cell_angle_alpha 90.000000
_cell_angle_beta 66.298349
_cell_angle_gamma 90.000000
_cell_volume 2622.601678
_symmetry_space_group_name_H-M "C 2/C"
_symmetry_group_IT_number 15
_symmetry_cell_setting 'monoclinic'
loop_
_space_group_symop_operation_xyz
x,y,z
-x,y,1/2-z
-x,-y,-z
x,-y,1/2+z
1/2+x,1/2+y,z
1/2-x,1/2+y,1/2-z
1/2-x,1/2-y,-z
1/2+x,1/2-y,1/2+z
loop_
_atom_site_type_symbol
_atom_site_label
_atom_site_fract_x
_atom_site_fract_y
_atom_site_fract_z
Si Si1 0.882684 0.294524 0.026816
Si Si2 0.271185 0.466206 0.075734
Si Si3 0.585432 0.637966 0.410030
Si Si4 0.299380 0.912364 0.548942
Si Si5 0.981804 0.312527 0.819070
Si Si6 0.122263 0.479618 0.843048
Si Si7 0.500000 0.440055 0.250000
Si Si8 0.480125 0.647024 0.874555
O O1 0.980807 0.219106 0.046166
O O2 0.747666 0.355819 0.083544
O O3 0.750000 0.250000 0.000000
O O4 0.040461 0.344286 0.970693
O O5 0.367397 0.555833 0.058173
O O6 0.404598 0.399063 0.089412
O O7 0.073189 0.470247 0.140241
O O8 0.232207 0.441224 0.013702
O O9 0.400340 0.618947 0.396802
O O10 0.764178 0.660604 0.347076
O O11 0.357180 0.981838 0.587811
O O12 0.109434 0.388717 0.818708
O O13 0.000000 0.279310 0.750000
O O14 0.030646 0.243208 0.861132
O O15 0.304743 0.511588 0.783920
O O16 0.467076 0.389805 0.195523
#
# Coordination Sequence:
#
# PCOD8148194 Si02
#       8
#     8   8   8   8   8   8   4   8
#     4  11  23  43  70  99 141 181 231 288 345 412
#     4  11  24  44  71 103 140 180 231 290 351 410
#     4  10  23  39  68 103 133 182 225 274 348 404
#     4  12  23  42  68 108 141 179 231 286 344 416
#     4  10  23  46  69  95 137 183 230 280 340 414
#     4  11  27  42  69 100 138 186 232 283 345 408
#     4  12  26  46  68 102 142 182 236 290 340 422
#     4  11  24  45  71 102 137 187 229 290 355 407
#
# _framework density 22.878046000000001
#
# number of rings (size 3 to 8) (size 9 to 14) (size 15 to 20)
#    0.000    1.067    0.667    6.000    5.600    3.200 
#    0.000    1.333    2.933    0.000    0.000    0.000 
#    0.000    0.000    0.000    0.000    0.000    0.000 
#
# Total GULP energy -371657.794023 kJ/mol
# GULP energy per Si atom -12388.593134 kJ/mol
# Density = 2.282597 g / cm^3
# Si number density = 22.878046 Si / 1000 Ang^3
#
#
#
# Elastic Constant Matrix: (Units=GPa)
#
#
# Indices 1 2 3 4 5 6 
#
# 1 120.3424 56.1315 38.1216 0.0000 -21.8061 0.0000
# 2 56.1315 112.6542 44.1163 0.0000 -16.6244 0.0000
# 3 38.1216 44.1163 92.8608 0.0000 -3.9694 0.0000
# 4 0.0000 0.0000 0.0000 34.4651 0.0000 0.6032
# 5 -21.8061 -16.6244 -3.9694 0.0000 47.5158 0.0000
# 6 0.0000 0.0000 0.0000 0.6032 0.0000 25.2132
#
#
#
# Elastic Compliance Matrix: (Units=1/GPa)
#
#
# Indices 1 2 3 4 5 6 
#
# 1 0.011830 -0.004311 -0.002651 0.000000 0.003700 0.000000
# 2 -0.004311 0.013051 -0.004335 0.000000 0.002226 0.000000
# 3 -0.002651 -0.004335 0.013849 0.000000 -0.001576 0.000000
# 4 0.000000 0.000000 0.000000 0.029027 0.000000 -0.000694
# 5 0.003700 0.002226 -0.001576 0.000000 0.023390 0.000000
# 6 0.000000 0.000000 0.000000 -0.000694 0.000000 0.039678
#
#
# Mechanical properties :
#
#
# Convention : Reuss Voigt Hill
#
# Bulk Modulus (GPa) = 61.96932 66.95512 64.46222
# Shear Modulus (GPa) = 31.48648 33.93802 32.71225
#
# Velocity S-wave (km/s) = 3.71384 3.85571 3.78544
# Velocity P-wave (km/s) = 6.74802 7.01082 6.88068
#
# Compressibility (1/GPa) = 0.01613702
#
# Stress axis : x y z
#
# Youngs Moduli (GPa) = 84.52914 76.62372 72.20628
#
# Poissons Ratio (x) = 0.33030 0.19139
# Poissons Ratio (y) = 0.36438 0.31304
# Poissons Ratio (z) = 0.22405 0.33219
#
# Static dielectric constant tensor:
#      x y z
#    x 4.427010 0.000000 -0.594830 
#    y 0.000000 4.173450 0.000000 
#    z -0.594830 0.000000 4.745970 
# 
# 
# High freq. dielectric constant tensor:
#      x y z
#    x 1.908000 0.000000 -0.016030 
#    y 0.000000 1.913690 0.000000 
#    z -0.016030 0.000000 1.903130 
# 
# From -- ./inp_files/265528.got.cif
#   From: 2010.06.25/outbox.cif.g09.slc.cpg/sg15_133_cif.got.tgz:265528.got - 2010.06.28 07:06:18.
