data_PCOD8148676
_publ_section_title
;
Structure prediction by ZEFSAII (Michael W. Deem and Ramdas Pophale) SiO2 
 PCOD8148676
Probable space group: C 2/C
;
_chemical_formula_sum "Si O2"
_cell_formula_units_Z 64
_cell_length_a 8.557513
_cell_length_b 32.952226
_cell_length_c 16.615004
_cell_angle_alpha 90.000000
_cell_angle_beta 41.314101
_cell_angle_gamma 90.000000
_cell_volume 3093.139032
_symmetry_space_group_name_H-M "C 2/C"
_symmetry_group_IT_number 15
_symmetry_cell_setting 'monoclinic'
loop_
_space_group_symop_operation_xyz
x,y,z
-x,y,1/2-z
-x,-y,-z
x,-y,1/2+z
1/2+x,1/2+y,z
1/2-x,1/2+y,1/2-z
1/2-x,1/2-y,-z
1/2+x,1/2-y,1/2+z
loop_
_atom_site_type_symbol
_atom_site_label
_atom_site_fract_x
_atom_site_fract_y
_atom_site_fract_z
Si Si1 0.468104 0.329909 0.586004
Si Si2 0.952124 0.447544 0.862014
Si Si3 0.765140 0.897741 0.287464
Si Si4 0.030588 0.672034 0.530806
Si Si5 0.539172 0.409190 0.459326
Si Si6 0.241921 0.748978 0.101598
Si Si7 0.074197 0.461653 0.128385
Si Si8 0.253496 0.124014 0.190583
O O1 0.712914 0.317313 0.533244
O O2 0.515172 0.366104 0.508281
O O3 0.368659 0.292472 0.575396
O O4 0.270227 0.345453 0.725173
O O5 0.933119 0.492984 0.905116
O O6 0.000000 0.449542 0.750000
O O7 0.159032 0.421069 0.821751
O O8 0.708205 0.425790 0.975420
O O9 0.633578 0.855014 0.348417
O O10 0.806266 0.900450 0.177595
O O11 0.588503 0.935711 0.370685
O O12 0.000000 0.901404 0.250000
O O13 0.057283 0.645908 0.439388
O O14 0.901514 0.713976 0.567258
O O15 0.663661 0.441235 0.472588
O O16 0.000000 0.751870 0.250000
O O17 0.250000 0.750000 0.000000
O O18 0.000000 0.462721 0.250000
O O19 0.000000 0.116997 0.250000
#
# Coordination Sequence:
#
# PCOD8148676 Si02
#       8
#     8   8   8   8   8   8   8   8
#     4  11  24  44  70  95 133 172 216 269 333 394
#     4  11  21  36  66  93 130 175 221 271 330 391
#     4  11  23  40  64  93 131 171 215 275 325 387
#     4  11  24  46  68  93 134 177 215 263 335 401
#     4  11  22  40  65  95 127 171 220 272 324 393
#     4  12  29  46  71 107 137 170 224 282 332 406
#     4   9  21  40  59  95 130 172 221 272 326 391
#     4  10  23  42  66  99 134 175 219 270 329 396
#
# _framework density 20.690954999999999
#
# number of rings (size 3 to 8) (size 9 to 14) (size 15 to 20)
#    0.000    1.250    2.500    2.625    7.000    0.500 
#    0.000    3.750    0.000    0.000    0.000    0.000 
#    0.000    0.000    0.000    0.000    0.000    0.000 
#
# Total GULP energy -396622.182788 kJ/mol
# GULP energy per Si atom -12394.443212 kJ/mol
# Density = 2.064386 g / cm^3
# Si number density = 20.690955 Si / 1000 Ang^3
#
#
#
# Elastic Constant Matrix: (Units=GPa)
#
#
# Indices 1 2 3 4 5 6 
#
# 1 82.5665 62.0712 35.4508 0.0000 -3.0907 0.0000
# 2 62.0712 186.9291 48.9519 0.0000 -3.8327 0.0000
# 3 35.4508 48.9519 83.9229 0.0000 -5.5975 0.0000
# 4 0.0000 0.0000 0.0000 31.2082 0.0000 -6.1948
# 5 -3.0907 -3.8327 -5.5975 0.0000 29.4976 0.0000
# 6 0.0000 0.0000 0.0000 -6.1948 0.0000 51.8340
#
#
#
# Elastic Compliance Matrix: (Units=1/GPa)
#
#
# Indices 1 2 3 4 5 6 
#
# 1 0.017618 -0.004603 -0.004734 0.000000 0.000350 0.000000
# 2 -0.004603 0.007517 -0.002438 0.000000 0.000032 0.000000
# 3 -0.004734 -0.002438 0.015479 0.000000 0.002125 0.000000
# 4 0.000000 0.000000 0.000000 0.032821 0.000000 0.003923
# 5 0.000350 0.000032 0.002125 0.000000 0.034345 0.000000
# 6 0.000000 0.000000 0.000000 0.003923 0.000000 0.019761
#
#
# Mechanical properties :
#
#
# Convention : Reuss Voigt Hill
#
# Bulk Modulus (GPa) = 58.60333 71.81845 65.21089
# Shear Modulus (GPa) = 31.89184 36.30425 34.09804
#
# Velocity S-wave (km/s) = 3.93025 4.19333 4.06392
# Velocity P-wave (km/s) = 6.99861 7.63091 7.32159
#
# Compressibility (1/GPa) = 0.01706388
#
# Stress axis : x y z
#
# Youngs Moduli (GPa) = 56.76146 133.02615 64.60288
#
# Poissons Ratio (x) = 0.61235 0.30581
# Poissons Ratio (y) = 0.26129 0.15751
# Poissons Ratio (z) = 0.26869 0.32434
#
# Static dielectric constant tensor:
#      x y z
#    x 3.851720 0.000000 -0.035190 
#    y 0.000000 3.961390 0.000000 
#    z -0.035190 0.000000 4.032620 
# 
# 
# High freq. dielectric constant tensor:
#      x y z
#    x 1.810210 0.000000 -0.007580 
#    y 0.000000 1.823610 0.000000 
#    z -0.007580 0.000000 1.817460 
# 
# From -- ./inp_files/194242.got.cif
#   From: 2010.06.25/outbox.cif.g09.slc.cpg/sg15_98_cif.got.tgz:194242.got - 2010.06.28 07:06:18.
