data_PCOD8148127
_publ_section_title
;
Structure prediction by ZEFSAII (Michael W. Deem and Ramdas Pophale) SiO2 
 PCOD8148127
Probable space group: C 2/C
;
_chemical_formula_sum "Si O2"
_cell_formula_units_Z 56
_cell_length_a 22.210402
_cell_length_b 8.862269
_cell_length_c 14.185725
_cell_angle_alpha 90.000000
_cell_angle_beta 112.279391
_cell_angle_gamma 90.000000
_cell_volume 2583.789356
_symmetry_space_group_name_H-M "C 2/C"
_symmetry_group_IT_number 15
_symmetry_cell_setting 'monoclinic'
loop_
_space_group_symop_operation_xyz
x,y,z
-x,y,1/2-z
-x,-y,-z
x,-y,1/2+z
1/2+x,1/2+y,z
1/2-x,1/2+y,1/2-z
1/2-x,1/2-y,-z
1/2+x,1/2-y,1/2+z
loop_
_atom_site_type_symbol
_atom_site_label
_atom_site_fract_x
_atom_site_fract_y
_atom_site_fract_z
Si Si1 0.421910 0.183666 0.726454
Si Si2 0.890771 0.824293 0.036963
Si Si3 0.203364 0.160499 0.696009
Si Si4 0.108273 0.342382 0.764874
Si Si5 0.613222 0.334641 0.975113
Si Si6 0.830700 0.178456 0.312638
Si Si7 0.987251 0.332226 0.954910
O O1 0.500000 0.190576 0.750000
O O2 0.377970 0.249825 0.617103
O O3 0.401126 0.278681 0.807440
O O4 0.392343 0.018336 0.716513
O O5 0.882609 0.744563 0.131813
O O6 0.944719 0.747194 0.006010
O O7 0.908894 0.997203 0.064277
O O8 0.830446 0.810856 0.927375
O O9 0.168004 0.290423 0.735712
O O10 0.179875 0.170046 0.573755
O O11 0.279358 0.199243 0.743658
O O12 0.188011 0.993476 0.727941
O O13 0.041178 0.315672 0.668048
O O14 0.556764 0.254217 0.998345
O O15 0.000000 0.500000 0.000000
#
# Coordination Sequence:
#
# PCOD8148127 Si02
#       7
#     8   8   8   8   8   8   8
#     4  12  24  40  64  97 128 166 209 257 317 378
#     4  11  22  38  60  91 124 165 207 259 319 373
#     4  10  24  45  65  92 122 168 217 262 318 371
#     4  11  23  39  63  93 127 163 209 258 311 378
#     4  10  23  39  60  89 126 164 210 262 315 376
#     4  11  24  43  67  90 126 166 213 265 313 379
#     4  11  21  38  61  90 127 166 210 258 313 375
#
# _framework density 21.673591999999999
#
# number of rings (size 3 to 8) (size 9 to 14) (size 15 to 20)
#    0.000    1.143    0.000    6.857    0.000    8.000 
#    0.000    0.714    0.000    0.000    0.000    0.000 
#    0.000    0.000    0.000    0.000    0.000    0.000 
#
# Total GULP energy -347016.759945 kJ/mol
# GULP energy per Si atom -12393.455712 kJ/mol
# Density = 2.162426 g / cm^3
# Si number density = 21.673592 Si / 1000 Ang^3
#
#
#
# Elastic Constant Matrix: (Units=GPa)
#
#
# Indices 1 2 3 4 5 6 
#
# 1 71.7967 42.6797 37.2514 0.0000 3.9687 0.0000
# 2 42.6797 148.1149 48.8701 0.0000 -4.6016 0.0000
# 3 37.2514 48.8701 129.2165 0.0000 -19.7594 0.0000
# 4 0.0000 0.0000 0.0000 42.8432 0.0000 -5.1912
# 5 3.9687 -4.6016 -19.7594 0.0000 28.1103 0.0000
# 6 0.0000 0.0000 0.0000 -5.1912 0.0000 46.4085
#
#
#
# Elastic Compliance Matrix: (Units=1/GPa)
#
#
# Indices 1 2 3 4 5 6 
#
# 1 0.019420 -0.004128 -0.005109 0.000000 -0.007009 0.000000
# 2 -0.004128 0.008611 -0.001974 0.000000 0.000605 0.000000
# 3 -0.005109 -0.001974 0.011226 0.000000 0.008289 0.000000
# 4 0.000000 0.000000 0.000000 0.023662 0.000000 0.002647
# 5 -0.007009 0.000605 0.008289 0.000000 0.042489 0.000000
# 6 0.000000 0.000000 0.000000 0.002647 0.000000 0.021844
#
#
# Mechanical properties :
#
#
# Convention : Reuss Voigt Hill
#
# Bulk Modulus (GPa) = 59.40093 67.41449 63.40771
# Shear Modulus (GPa) = 32.19839 38.16085 35.17962
#
# Velocity S-wave (km/s) = 3.85854 4.20063 4.03321
# Velocity P-wave (km/s) = 6.87878 7.39588 7.14201
#
# Compressibility (1/GPa) = 0.01683475
#
# Stress axis : x y z
#
# Youngs Moduli (GPa) = 51.49212 116.12774 89.07814
#
# Poissons Ratio (x) = 0.47938 0.45512
# Poissons Ratio (y) = 0.21256 0.17586
# Poissons Ratio (z) = 0.26308 0.22927
#
# Static dielectric constant tensor:
#      x y z
#    x 3.689110 0.000000 -0.043530 
#    y 0.000000 4.088470 0.000000 
#    z -0.043530 0.000000 4.352460 
# 
# 
# High freq. dielectric constant tensor:
#      x y z
#    x 1.832240 0.000000 -0.004330 
#    y 0.000000 1.867970 0.000000 
#    z -0.004330 0.000000 1.872240 
# 
# From -- ./inp_files/172483.got.cif
#   From: 2010.06.25/outbox.cif.g09.slc.cpg/sg15_87_cif.got.tgz:172483.got - 2010.06.28 07:06:18.
