data_PCOD8148586
_publ_section_title
;
Structure prediction by ZEFSAII (Michael W. Deem and Ramdas Pophale) SiO2 
 PCOD8148586
Probable space group: C 2/C
;
_chemical_formula_sum "Si O2"
_cell_formula_units_Z 40
_cell_length_a 28.106084
_cell_length_b 12.130244
_cell_length_c 4.977209
_cell_angle_alpha 90.000000
_cell_angle_beta 108.060455
_cell_angle_gamma 90.000000
_cell_volume 1613.291781
_symmetry_space_group_name_H-M "C 2/C"
_symmetry_group_IT_number 15
_symmetry_cell_setting 'monoclinic'
loop_
_space_group_symop_operation_xyz
x,y,z
-x,y,1/2-z
-x,-y,-z
x,-y,1/2+z
1/2+x,1/2+y,z
1/2-x,1/2+y,1/2-z
1/2-x,1/2-y,-z
1/2+x,1/2-y,1/2+z
loop_
_atom_site_type_symbol
_atom_site_label
_atom_site_fract_x
_atom_site_fract_y
_atom_site_fract_z
Si Si1 0.942250 0.427554 0.667992
Si Si2 0.810536 0.571935 0.375526
Si Si3 0.558337 0.429161 0.863418
Si Si4 0.876834 0.253958 0.269428
Si Si5 0.303759 0.573106 0.270472
O O1 0.930033 0.529279 0.445417
O O2 0.908484 0.322690 0.541578
O O3 0.000000 0.391287 0.750000
O O4 0.821186 0.467674 0.590433
O O5 0.846212 0.672233 0.506891
O O6 0.753490 0.612551 0.305315
O O7 0.500000 0.401704 0.750000
O O8 0.573616 0.525449 0.681391
O O9 0.586267 0.316087 0.852599
O O10 0.838779 0.178899 0.375333
O O11 0.315845 0.476157 0.499701
#
# Coordination Sequence:
#
# PCOD8148586 Si02
#       5
#     8   8   8   8   8
#     4  10  24  43  61  88 126 163 206 261 315 369
#     4  10  23  42  63  94 133 167 207 262 320 380
#     4  10  24  43  61  88 126 163 206 261 315 369
#     4  12  23  40  70  96 122 170 221 260 314 380
#     4  10  23  42  63  94 133 167 207 262 320 380
#
# _framework density 24.794028000000001
#
# number of rings (size 3 to 8) (size 9 to 14) (size 15 to 20)
#    0.000    1.600    0.000    3.000    0.000   11.200 
#    0.000    6.000    0.000    0.000    0.000    0.000 
#    0.000    0.000    0.000    0.000    0.000    0.000 
#
# Total GULP energy -248188.164351 kJ/mol
# GULP energy per Si atom -12409.408218 kJ/mol
# Density = 2.473760 g / cm^3
# Si number density = 24.794028 Si / 1000 Ang^3
#
#
#
# Elastic Constant Matrix: (Units=GPa)
#
#
# Indices 1 2 3 4 5 6 
#
# 1 77.8737 72.2142 38.5287 0.0000 19.2738 0.0000
# 2 72.2142 124.0874 26.5936 0.0000 30.6589 0.0000
# 3 38.5287 26.5936 89.6384 0.0000 10.1850 0.0000
# 4 0.0000 0.0000 0.0000 27.3487 0.0000 10.7208
# 5 19.2738 30.6589 10.1850 0.0000 44.5778 0.0000
# 6 0.0000 0.0000 0.0000 10.7208 0.0000 30.8958
#
#
#
# Elastic Compliance Matrix: (Units=1/GPa)
#
#
# Indices 1 2 3 4 5 6 
#
# 1 0.033885 -0.017629 -0.009288 0.000000 -0.000404 0.000000
# 2 -0.017629 0.019313 0.002557 0.000000 -0.006245 0.000000
# 3 -0.009288 0.002557 0.014510 0.000000 -0.001058 0.000000
# 4 0.000000 0.000000 0.000000 0.042322 0.000000 -0.014686
# 5 -0.000404 -0.006245 -0.001058 0.000000 0.027144 0.000000
# 6 0.000000 0.000000 0.000000 -0.014686 0.000000 0.037463
#
#
# Mechanical properties :
#
#
# Convention : Reuss Voigt Hill
#
# Bulk Modulus (GPa) = 52.66755 62.91918 57.79337
# Shear Modulus (GPa) = 21.76880 30.84866 26.30873
#
# Velocity S-wave (km/s) = 2.96630 3.53114 3.26097
# Velocity P-wave (km/s) = 5.74631 6.48515 6.12687
#
# Compressibility (1/GPa) = 0.01898702
#
# Stress axis : x y z
#
# Youngs Moduli (GPa) = 29.51169 51.77754 68.91868
#
# Poissons Ratio (x) = 0.91281 0.64015
# Poissons Ratio (y) = 0.52027 -0.17624
# Poissons Ratio (z) = 0.27412 -0.13241
#
# Static dielectric constant tensor:
#      x y z
#    x 4.830330 0.000000 0.250700 
#    y 0.000000 4.187310 0.000000 
#    z 0.250700 0.000000 4.516820 
# 
# 
# High freq. dielectric constant tensor:
#      x y z
#    x 2.015850 0.000000 0.011740 
#    y 0.000000 1.975080 0.000000 
#    z 0.011740 0.000000 1.993400 
# 
# From -- ./inp_files/18045.got.cif
#   From: 2010.06.25/outbox.cif.g09.slc.cpg/sg15_10_cif.got.tgz:18045.got - 2010.06.28 07:06:18.
