data_PCOD8148792
_publ_section_title
;
Structure prediction by ZEFSAII (Michael W. Deem and Ramdas Pophale) SiO2 
 PCOD8148792
Probable space group: C 2/C
;
_chemical_formula_sum "Si O2"
_cell_formula_units_Z 56
_cell_length_a 16.272088
_cell_length_b 14.749473
_cell_length_c 22.775599
_cell_angle_alpha 90.000000
_cell_angle_beta 151.322572
_cell_angle_gamma 90.000000
_cell_volume 2623.133223
_symmetry_space_group_name_H-M "C 2/C"
_symmetry_group_IT_number 15
_symmetry_cell_setting 'monoclinic'
loop_
_space_group_symop_operation_xyz
x,y,z
-x,y,1/2-z
-x,-y,-z
x,-y,1/2+z
1/2+x,1/2+y,z
1/2-x,1/2+y,1/2-z
1/2-x,1/2-y,-z
1/2+x,1/2-y,1/2+z
loop_
_atom_site_type_symbol
_atom_site_label
_atom_site_fract_x
_atom_site_fract_y
_atom_site_fract_z
Si Si1 0.500000 0.498721 0.750000
Si Si2 0.258357 0.669423 0.751217
Si Si3 0.863542 0.115885 0.062011
Si Si4 0.521587 0.191676 0.831494
Si Si5 0.595021 0.488623 0.620138
Si Si6 0.275920 0.860513 0.398431
Si Si7 0.000000 0.714997 0.250000
Si Si8 0.921345 0.359173 0.824524
O O1 0.602381 0.434248 0.856800
O O2 0.358579 0.558156 0.694490
O O3 0.147170 0.658986 0.740511
O O4 0.390789 0.586267 0.839612
O O5 0.155066 0.661077 0.624377
O O6 0.355917 0.764934 0.811241
O O7 0.919145 0.219839 0.097011
O O8 0.963114 0.071925 0.071961
O O9 0.660122 0.111189 0.923208
O O10 0.500000 0.215391 0.750000
O O11 0.500000 0.500000 0.500000
O O12 0.777198 0.436724 0.731316
O O13 0.173354 0.774704 0.360798
O O14 0.428240 0.890660 0.537011
O O15 0.002385 0.653436 0.193057
#
# Coordination Sequence:
#
# PCOD8148792 Si02
#       8
#     4   8   8   8   8   8   4   8
#     4  11  22  44  68  99 136 174 232 297 338 413
#     4  11  25  44  70 103 139 178 238 293 348 418
#     4  11  24  44  68  94 138 181 227 287 344 404
#     4  11  24  44  69  97 132 186 231 281 347 415
#     4  12  27  46  67 102 142 186 232 294 349 412
#     4  10  23  42  72 100 135 179 228 284 359 419
#     4   9  22  44  68 107 134 176 220 283 356 423
#     4  11  25  44  73 101 143 184 230 287 352 421
#
# _framework density 21.348516
#
# number of rings (size 3 to 8) (size 9 to 14) (size 15 to 20)
#    0.000    1.143    3.571    1.286    6.000    5.143 
#    1.286    0.000    0.000    0.000    0.000    0.000 
#    0.000    0.000    0.000    0.000    0.000    0.000 
#
# Total GULP energy -347171.283456 kJ/mol
# GULP energy per Si atom -12398.974409 kJ/mol
# Density = 2.129993 g / cm^3
# Si number density = 21.348516 Si / 1000 Ang^3
#
#
#
# Elastic Constant Matrix: (Units=GPa)
#
#
# Indices 1 2 3 4 5 6 
#
# 1 138.1230 12.9578 31.9868 0.0018 -2.5760 0.0006
# 2 12.9578 76.0912 27.5736 0.0065 2.8930 0.0024
# 3 31.9868 27.5736 106.1754 0.0093 -5.5308 0.0040
# 4 0.0018 0.0065 0.0093 26.0364 0.0020 -9.1214
# 5 -2.5760 2.8930 -5.5308 0.0020 33.2122 0.0002
# 6 0.0006 0.0024 0.0040 -9.1214 0.0002 27.6523
#
#
#
# Elastic Compliance Matrix: (Units=1/GPa)
#
#
# Indices 1 2 3 4 5 6 
#
# 1 0.007805 -0.000545 -0.002195 0.000000 0.000287 0.000000
# 2 -0.000545 0.014666 -0.003746 -0.000003 -0.001944 -0.000002
# 3 -0.002195 -0.003746 0.011157 -0.000004 0.002014 -0.000003
# 4 0.000000 -0.000003 -0.000004 0.043426 -0.000003 0.014325
# 5 0.000287 -0.001944 0.002014 -0.000003 0.030636 -0.000001
# 6 0.000000 -0.000002 -0.000003 0.014325 -0.000001 0.040888
#
#
# Mechanical properties :
#
#
# Convention : Reuss Voigt Hill
#
# Bulk Modulus (GPa) = 48.40902 51.71402 50.06152
# Shear Modulus (GPa) = 29.68488 33.90494 31.79491
#
# Velocity S-wave (km/s) = 3.73297 3.98950 3.86337
# Velocity P-wave (km/s) = 6.42689 6.74520 6.58797
#
# Compressibility (1/GPa) = 0.02065731
#
# Stress axis : x y z
#
# Youngs Moduli (GPa) = 128.12848 68.18396 89.62707
#
# Poissons Ratio (x) = 0.03714 0.19672
# Poissons Ratio (y) = 0.06978 0.33574
# Poissons Ratio (z) = 0.28122 0.25541
#
# Static dielectric constant tensor:
#      x y z
#    x 3.912310 -0.000020 0.051030 
#    y -0.000020 3.971020 -0.000020 
#    z 0.051030 -0.000020 3.809680 
# 
# 
# High freq. dielectric constant tensor:
#      x y z
#    x 1.848920 0.000000 -0.007760 
#    y 0.000000 1.843170 0.000000 
#    z -0.007760 0.000000 1.834720 
# 
# From -- ./inp_files/245196.got.cif
#   From: 2010.06.25/outbox.cif.g09.slc.cpg/sg15_123_cif.got.tgz:245196.got - 2010.06.28 07:06:18.
