data_PCOD8148384
_publ_section_title
;
Structure prediction by ZEFSAII (Michael W. Deem and Ramdas Pophale) SiO2 
 PCOD8148384
Probable space group: C 2/C
;
_chemical_formula_sum "Si O2"
_cell_formula_units_Z 60
_cell_length_a 12.251585
_cell_length_b 13.163191
_cell_length_c 16.560709
_cell_angle_alpha 90.000000
_cell_angle_beta 88.257260
_cell_angle_gamma 90.000000
_cell_volume 2669.509422
_symmetry_space_group_name_H-M "C 2/C"
_symmetry_group_IT_number 15
_symmetry_cell_setting 'monoclinic'
loop_
_space_group_symop_operation_xyz
x,y,z
-x,y,1/2-z
-x,-y,-z
x,-y,1/2+z
1/2+x,1/2+y,z
1/2-x,1/2+y,1/2-z
1/2-x,1/2-y,-z
1/2+x,1/2-y,1/2+z
loop_
_atom_site_type_symbol
_atom_site_label
_atom_site_fract_x
_atom_site_fract_y
_atom_site_fract_z
Si Si1 0.846318 0.427874 0.452972
Si Si2 0.886934 0.101225 0.587891
Si Si3 0.411185 0.185926 0.681642
Si Si4 0.674271 0.330886 0.235378
Si Si5 0.929070 0.211280 0.427030
Si Si6 0.434626 0.521812 0.331102
Si Si7 0.500000 0.820695 0.750000
Si Si8 0.051193 0.471159 0.882693
O O1 0.719745 0.457949 0.444693
O O2 0.858028 0.313399 0.417420
O O3 0.881868 0.426013 0.544643
O O4 0.922860 0.508000 0.404282
O O5 0.853015 0.160280 0.669450
O O6 0.932784 0.180586 0.520814
O O7 0.981039 0.019980 0.603789
O O8 0.500000 0.184246 0.750000
O O9 0.293815 0.216090 0.719797
O O10 0.448940 0.263726 0.610088
O O11 0.393286 0.075240 0.644916
O O12 0.656603 0.438638 0.190389
O O13 0.587948 0.250116 0.201637
O O14 0.878020 0.120208 0.373320
O O15 0.500000 0.556787 0.250000
O O16 0.562719 0.889652 0.812445
#
# Coordination Sequence:
#
# PCOD8148384 Si02
#       8
#     8   8   8   8   8   8   4   8
#     4  10  23  41  63 100 133 174 218 282 333 406
#     4  11  22  42  67  96 135 176 227 275 337 399
#     4  11  24  46  66 101 136 174 227 283 336 401
#     4  11  24  45  69  95 137 176 230 278 335 406
#     4  11  23  41  67 100 135 172 223 279 339 395
#     4  10  23  44  65  96 133 175 225 276 333 405
#     4  12  22  44  72  96 126 184 226 276 328 408
#     4  10  23  42  66  95 135 170 228 277 341 394
#
# _framework density 22.476040000000001
#
# number of rings (size 3 to 8) (size 9 to 14) (size 15 to 20)
#    0.000    1.333    2.667    3.600    1.867    2.133 
#    2.400    0.667    0.000    0.000    0.000    0.000 
#    0.000    0.000    0.000    0.000    0.000    0.000 
#
# Total GULP energy -372004.907374 kJ/mol
# GULP energy per Si atom -12400.163579 kJ/mol
# Density = 2.242488 g / cm^3
# Si number density = 22.476040 Si / 1000 Ang^3
#
#
#
# Elastic Constant Matrix: (Units=GPa)
#
#
# Indices 1 2 3 4 5 6 
#
# 1 111.5141 16.6641 39.5801 0.0000 -3.8887 0.0000
# 2 16.6641 90.3668 40.1419 0.0000 -3.3390 0.0000
# 3 39.5801 40.1419 104.5775 0.0000 -3.3400 0.0000
# 4 0.0000 0.0000 0.0000 35.2618 0.0000 -11.2040
# 5 -3.8887 -3.3390 -3.3400 0.0000 28.1670 0.0000
# 6 0.0000 0.0000 0.0000 -11.2040 0.0000 10.6372
#
#
#
# Elastic Compliance Matrix: (Units=1/GPa)
#
#
# Indices 1 2 3 4 5 6 
#
# 1 0.010388 -0.000178 -0.003833 0.000000 0.000959 0.000000
# 2 -0.000178 0.013371 -0.005034 0.000000 0.000964 0.000000
# 3 -0.003833 -0.005034 0.012958 0.000000 0.000411 0.000000
# 4 0.000000 0.000000 0.000000 0.042624 0.000000 0.044895
# 5 0.000959 0.000964 0.000411 0.000000 0.035798 0.000000
# 6 0.000000 0.000000 0.000000 0.044895 0.000000 0.141297
#
#
# Mechanical properties :
#
#
# Convention : Reuss Voigt Hill
#
# Bulk Modulus (GPa) = 53.68389 55.47007 54.57698
# Shear Modulus (GPa) = 17.81045 28.81805 23.31425
#
# Velocity S-wave (km/s) = 2.81805 3.58462 3.22420
# Velocity P-wave (km/s) = 5.87582 6.47039 6.18026
#
# Compressibility (1/GPa) = 0.01862756
#
# Stress axis : x y z
#
# Youngs Moduli (GPa) = 96.26671 74.79064 77.16993
#
# Poissons Ratio (x) = 0.01328 0.29577
# Poissons Ratio (y) = 0.01710 0.38850
# Poissons Ratio (z) = 0.36897 0.37652
#
# Static dielectric constant tensor:
#      x y z
#    x 4.008370 0.000000 -0.186010 
#    y 0.000000 4.019380 0.000000 
#    z -0.186010 0.000000 4.145000 
# 
# 
# High freq. dielectric constant tensor:
#      x y z
#    x 1.873840 0.000000 -0.008740 
#    y 0.000000 1.883220 0.000000 
#    z -0.008740 0.000000 1.892470 
# 
# From -- ./inp_files/197923.got.cif
#   From: 2010.06.25/outbox.cif.g09.slc.cpg/sg15_99_cif.got.tgz:197923.got - 2010.06.28 07:06:18.
