data_PCOD8148422
_publ_section_title
;
Structure prediction by ZEFSAII (Michael W. Deem and Ramdas Pophale) SiO2 
 PCOD8148422
Probable space group: C 2/C
;
_chemical_formula_sum "Si O2"
_cell_formula_units_Z 48
_cell_length_a 14.060752
_cell_length_b 7.526435
_cell_length_c 24.153289
_cell_angle_alpha 90.000000
_cell_angle_beta 130.430808
_cell_angle_gamma 90.000000
_cell_volume 1945.660428
_symmetry_space_group_name_H-M "C 2/C"
_symmetry_group_IT_number 15
_symmetry_cell_setting 'monoclinic'
loop_
_space_group_symop_operation_xyz
x,y,z
-x,y,1/2-z
-x,-y,-z
x,-y,1/2+z
1/2+x,1/2+y,z
1/2-x,1/2+y,1/2-z
1/2-x,1/2-y,-z
1/2+x,1/2-y,1/2+z
loop_
_atom_site_type_symbol
_atom_site_label
_atom_site_fract_x
_atom_site_fract_y
_atom_site_fract_z
Si Si1 0.447602 0.389498 0.670269
Si Si2 0.391093 0.060913 0.347457
Si Si3 0.369211 0.601481 0.448293
Si Si4 0.686786 0.999625 0.066097
Si Si5 0.324803 0.347898 0.811594
Si Si6 0.647918 0.947460 0.429996
O O1 0.500000 0.340292 0.750000
O O2 0.336544 0.535568 0.631079
O O3 0.564602 0.457014 0.677748
O O4 0.380620 0.217576 0.619604
O O5 0.362752 0.117078 0.400463
O O6 0.370023 0.851235 0.335491
O O7 0.535161 0.093197 0.384483
O O8 0.302400 0.161712 0.271131
O O9 0.500000 0.500000 0.500000
O O10 0.386728 0.812725 0.463848
O O11 0.305395 0.563571 0.364245
O O12 0.277809 0.535247 0.461725
O O13 0.660663 0.109856 0.999692
#
# Coordination Sequence:
#
# PCOD8148422 Si02
#       6
#     8   8   8   8   8   8
#     4  11  23  43  68 101 138 176 230 284 342 418
#     4  10  23  41  64  97 133 176 223 275 337 412
#     4  11  26  45  67  98 140 179 233 288 346 413
#     4  11  23  45  67 100 133 186 226 282 349 412
#     4  10  23  41  64  95 136 176 225 272 340 408
#     4  11  25  41  70 100 135 176 231 282 351 411
#
# _framework density 24.670286999999998
#
# number of rings (size 3 to 8) (size 9 to 14) (size 15 to 20)
#    0.000    1.333    1.667    2.500    4.667    6.667 
#    0.000    0.000    0.000    0.000    0.000    0.000 
#    0.000    0.000    0.000    0.000    0.000    0.000 
#
# Total GULP energy -297565.514278 kJ/mol
# GULP energy per Si atom -12398.563095 kJ/mol
# Density = 2.461414 g / cm^3
# Si number density = 24.670287 Si / 1000 Ang^3
#
#
#
# Elastic Constant Matrix: (Units=GPa)
#
#
# Indices 1 2 3 4 5 6 
#
# 1 147.4027 7.2346 58.7414 0.0000 0.9204 0.0000
# 2 7.2346 29.1837 23.0322 0.0000 -11.9046 0.0000
# 3 58.7414 23.0322 165.4006 0.0000 -12.7402 0.0000
# 4 0.0000 0.0000 0.0000 28.0835 0.0000 7.1294
# 5 0.9204 -11.9046 -12.7402 0.0000 58.0295 0.0000
# 6 0.0000 0.0000 0.0000 7.1294 0.0000 20.0285
#
#
#
# Elastic Compliance Matrix: (Units=1/GPa)
#
#
# Indices 1 2 3 4 5 6 
#
# 1 0.007935 -0.000007 -0.002876 0.000000 -0.000759 0.000000
# 2 -0.000007 0.041361 -0.005191 0.000000 0.007345 0.000000
# 3 -0.002876 -0.005191 0.007844 0.000000 0.000703 0.000000
# 4 0.000000 0.000000 0.000000 0.039146 0.000000 -0.013934
# 5 -0.000759 0.007345 0.000703 0.000000 0.018906 0.000000
# 6 0.000000 0.000000 0.000000 -0.013934 0.000000 0.054889
#
#
# Mechanical properties :
#
#
# Convention : Reuss Voigt Hill
#
# Bulk Modulus (GPa) = 24.39484 57.77817 41.08651
# Shear Modulus (GPa) = 25.01343 38.09355 31.55349
#
# Velocity S-wave (km/s) = 3.18765 3.93378 3.58020
# Velocity P-wave (km/s) = 4.84334 6.64107 5.81213
#
# Compressibility (1/GPa) = 0.04099228
#
# Stress axis : x y z
#
# Youngs Moduli (GPa) = 126.02115 24.17751 127.48270
#
# Poissons Ratio (x) = 0.00017 0.36659
# Poissons Ratio (y) = 0.00090 0.66179
# Poissons Ratio (z) = 0.36239 0.12551
#
# Static dielectric constant tensor:
#      x y z
#    x 5.110250 0.000000 0.134270 
#    y 0.000000 3.948980 0.000000 
#    z 0.134270 0.000000 4.889210 
# 
# 
# High freq. dielectric constant tensor:
#      x y z
#    x 2.001850 0.000000 0.001580 
#    y 0.000000 1.941280 0.000000 
#    z 0.001580 0.000000 2.002230 
# 
# From -- ./inp_files/295465.got.cif
#   From: 2010.06.25/outbox.cif.g09.slc.cpg/sg15_148_cif.got.tgz:295465.got - 2010.06.28 07:06:18.
