data_PCOD8148891
_publ_section_title
;
Structure prediction by ZEFSAII (Michael W. Deem and Ramdas Pophale) SiO2 
 PCOD8148891
Probable space group: C 2/C
;
_chemical_formula_sum "Si O2"
_cell_formula_units_Z 64
_cell_length_a 18.037919
_cell_length_b 14.447453
_cell_length_c 16.587022
_cell_angle_alpha 90.000000
_cell_angle_beta 45.567624
_cell_angle_gamma 90.000000
_cell_volume 3086.677918
_symmetry_space_group_name_H-M "C 2/C"
_symmetry_group_IT_number 15
_symmetry_cell_setting 'monoclinic'
loop_
_space_group_symop_operation_xyz
x,y,z
-x,y,1/2-z
-x,-y,-z
x,-y,1/2+z
1/2+x,1/2+y,z
1/2-x,1/2+y,1/2-z
1/2-x,1/2-y,-z
1/2+x,1/2-y,1/2+z
loop_
_atom_site_type_symbol
_atom_site_label
_atom_site_fract_x
_atom_site_fract_y
_atom_site_fract_z
Si Si1 0.499401 0.770847 0.450264
Si Si2 0.324437 0.582651 0.771974
Si Si3 0.179415 0.161782 0.550176
Si Si4 0.661873 0.904841 0.262285
Si Si5 0.847109 0.122346 0.218254
Si Si6 0.970404 0.755696 0.149030
Si Si7 0.264622 0.251678 0.082992
Si Si8 0.691591 0.106501 0.193604
O O1 0.553973 0.852135 0.357859
O O2 0.549838 0.671000 0.393910
O O3 0.512696 0.791914 0.535494
O O4 0.381770 0.772612 0.513861
O O5 0.310250 0.599659 0.877933
O O6 0.214812 0.587585 0.809885
O O7 0.376169 0.483040 0.716316
O O8 0.397414 0.659885 0.677076
O O9 0.250000 0.250000 0.500000
O O10 0.222539 0.101764 0.442778
O O11 0.061989 0.199286 0.632062
O O12 0.734655 0.850328 0.144145
O O13 0.639626 0.005795 0.242393
O O14 0.810627 0.171756 0.327219
O O15 0.752927 0.134892 0.227170
O O16 0.900893 0.681042 0.252111
O O17 0.250000 0.250000 0.000000
#
# Coordination Sequence:
#
# PCOD8148891 Si02
#       8
#     8   8   8   8   8   8   8   8
#     4  11  21  43  70  93 128 171 216 271 328 386
#     4  11  23  42  64 100 134 170 219 268 322 393
#     4  12  25  41  66  95 137 176 213 271 324 381
#     4  10  24  44  67  96 132 172 221 268 327 395
#     4  10  23  43  66  96 130 169 220 270 325 391
#     4  12  22  42  67  97 131 174 219 263 328 395
#     4  11  24  44  66  91 127 172 219 274 329 379
#     4  11  23  43  67  98 131 173 218 265 327 392
#
# _framework density 20.734265000000001
#
# number of rings (size 3 to 8) (size 9 to 14) (size 15 to 20)
#    0.000    1.000    5.000    1.875    1.750    4.000 
#    4.500    1.250    0.000    0.000    0.000    0.000 
#    0.000    0.000    0.000    0.000    0.000    0.000 
#
# Total GULP energy -396862.710518 kJ/mol
# GULP energy per Si atom -12401.959704 kJ/mol
# Density = 2.068707 g / cm^3
# Si number density = 20.734265 Si / 1000 Ang^3
#
#
#
# Elastic Constant Matrix: (Units=GPa)
#
#
# Indices 1 2 3 4 5 6 
#
# 1 73.7213 21.4141 34.5726 0.0000 14.7336 0.0000
# 2 21.4141 125.8236 32.7576 0.0000 -8.1408 0.0000
# 3 34.5726 32.7576 111.1977 0.0000 5.9303 0.0000
# 4 0.0000 0.0000 0.0000 24.4589 0.0000 5.3789
# 5 14.7336 -8.1408 5.9303 0.0000 41.2250 0.0000
# 6 0.0000 0.0000 0.0000 5.3789 0.0000 21.0338
#
#
#
# Elastic Compliance Matrix: (Units=1/GPa)
#
#
# Indices 1 2 3 4 5 6 
#
# 1 0.017512 -0.002208 -0.004472 0.000000 -0.006052 0.000000
# 2 -0.002208 0.009067 -0.002139 0.000000 0.002887 0.000000
# 3 -0.004472 -0.002139 0.011035 0.000000 -0.000412 0.000000
# 4 0.000000 0.000000 0.000000 0.043321 0.000000 -0.011078
# 5 -0.006052 0.002887 -0.000412 0.000000 0.027049 0.000000
# 6 0.000000 0.000000 0.000000 -0.011078 0.000000 0.050376
#
#
# Mechanical properties :
#
#
# Convention : Reuss Voigt Hill
#
# Bulk Modulus (GPa) = 50.05384 54.24791 52.15088
# Shear Modulus (GPa) = 27.37383 32.14343 29.75863
#
# Velocity S-wave (km/s) = 3.63743 3.94160 3.79256
# Velocity P-wave (km/s) = 6.46794 6.85092 6.66218
#
# Compressibility (1/GPa) = 0.01997849
#
# Stress axis : x y z
#
# Youngs Moduli (GPa) = 57.10239 110.29069 90.61892
#
# Poissons Ratio (x) = 0.24350 0.40522
# Poissons Ratio (y) = 0.12607 0.19379
# Poissons Ratio (z) = 0.25534 0.23586
#
# Static dielectric constant tensor:
#      x y z
#    x 1.206130 0.000000 -1.069330 
#    y 0.000000 3.812950 0.000000 
#    z -1.069330 0.000000 3.630030 
# 
# 
# High freq. dielectric constant tensor:
#      x y z
#    x 1.803810 0.000000 0.006680 
#    y 0.000000 1.811900 0.000000 
#    z 0.006680 0.000000 1.825150 
# 
# From -- ./inp_files/211358.got.cif
#   From: 2010.06.25/outbox.cif.g09.slc.cpg/sg15_106_cif.got.tgz:211358.got - 2010.06.28 07:06:18.
