data_PCOD8148708
_publ_section_title
;
Structure prediction by ZEFSAII (Michael W. Deem and Ramdas Pophale) SiO2 
 PCOD8148708
Probable space group: C 2/C
;
_chemical_formula_sum "Si O2"
_cell_formula_units_Z 48
_cell_length_a 13.410980
_cell_length_b 18.575040
_cell_length_c 17.190439
_cell_angle_alpha 90.000000
_cell_angle_beta 32.678347
_cell_angle_gamma 90.000000
_cell_volume 2312.109905
_symmetry_space_group_name_H-M "C 2/C"
_symmetry_group_IT_number 15
_symmetry_cell_setting 'monoclinic'
loop_
_space_group_symop_operation_xyz
x,y,z
-x,y,1/2-z
-x,-y,-z
x,-y,1/2+z
1/2+x,1/2+y,z
1/2-x,1/2+y,1/2-z
1/2-x,1/2-y,-z
1/2+x,1/2-y,1/2+z
loop_
_atom_site_type_symbol
_atom_site_label
_atom_site_fract_x
_atom_site_fract_y
_atom_site_fract_z
Si Si1 0.394697 0.196002 0.737552
Si Si2 0.717116 0.706133 0.598174
Si Si3 0.516332 0.040279 0.829628
Si Si4 0.653451 0.556783 0.416828
Si Si5 0.030728 0.790219 0.949865
Si Si6 0.682503 0.449334 0.081097
O O1 0.500000 0.201269 0.750000
O O2 0.424367 0.118082 0.675249
O O3 0.477700 0.260521 0.631986
O O4 0.176385 0.208115 0.883447
O O5 0.500000 0.711287 0.750000
O O6 0.750000 0.750000 0.500000
O O7 0.835415 0.738090 0.590174
O O8 0.774544 0.622529 0.555372
O O9 0.500000 0.056681 0.750000
O O10 0.659814 0.974726 0.743459
O O11 0.324748 0.015799 0.995397
O O12 0.500000 0.500000 0.500000
O O13 0.615606 0.630202 0.396153
O O14 0.650441 0.568658 0.511415
O O15 0.500000 0.470812 0.250000
#
# Coordination Sequence:
#
# PCOD8148708 Si02
#       6
#     8   8   8   8   8   8
#     4  11  25  48  67  95 133 180 236 289 326 399
#     4  11  23  38  63 100 141 167 213 273 338 415
#     4   9  21  42  68  90 129 178 222 273 339 400
#     4  11  22  42  67  96 135 180 225 268 332 418
#     4  12  25  42  71  98 134 183 227 273 349 401
#     4  10  23  42  67  99 138 172 217 285 344 399
#
# _framework density 20.760258
#
# number of rings (size 3 to 8) (size 9 to 14) (size 15 to 20)
#    0.000    1.333    3.333    1.500    7.000    0.000 
#    3.000    1.667    0.000    0.000    0.000    0.000 
#    0.000    0.000    0.000    0.000    0.000    0.000 
#
# Total GULP energy -297510.730891 kJ/mol
# GULP energy per Si atom -12396.280454 kJ/mol
# Density = 2.071301 g / cm^3
# Si number density = 20.760258 Si / 1000 Ang^3
#
#
#
# Elastic Constant Matrix: (Units=GPa)
#
#
# Indices 1 2 3 4 5 6 
#
# 1 81.0689 57.1339 25.0389 -0.0097 -10.2359 0.0155
# 2 57.1339 169.7094 78.2213 -0.0516 -1.5869 0.0312
# 3 25.0389 78.2213 122.3809 -0.0499 -7.8018 0.0406
# 4 -0.0097 -0.0516 -0.0499 8.6858 0.0333 12.3414
# 5 -10.2359 -1.5869 -7.8018 0.0333 30.9077 -0.0201
# 6 0.0155 0.0312 0.0406 12.3414 -0.0201 41.4029
#
#
#
# Elastic Compliance Matrix: (Units=1/GPa)
#
#
# Indices 1 2 3 4 5 6 
#
# 1 0.017053 -0.006016 0.000708 -0.000059 0.005517 0.000018
# 2 -0.006016 0.010502 -0.005665 0.000063 -0.002883 -0.000020
# 3 0.000708 -0.005665 0.011834 0.000057 0.002931 -0.000023
# 4 -0.000059 0.000063 0.000057 0.199721 -0.000256 -0.059533
# 5 0.005517 -0.002883 0.002931 -0.000256 0.034774 0.000090
# 6 0.000018 -0.000020 -0.000023 -0.059533 0.000090 0.041899
#
#
# Mechanical properties :
#
#
# Convention : Reuss Voigt Hill
#
# Bulk Modulus (GPa) = 57.33146 77.10524 67.21835
# Shear Modulus (GPa) = 14.55424 30.38364 22.46894
#
# Velocity S-wave (km/s) = 2.65063 3.82978 3.29341
# Velocity P-wave (km/s) = 6.08635 7.53510 6.84914
#
# Compressibility (1/GPa) = 0.01744243
#
# Stress axis : x y z
#
# Youngs Moduli (GPa) = 58.64175 95.22058 84.49920
#
# Poissons Ratio (x) = 0.57280 -0.05979
# Poissons Ratio (y) = 0.35276 0.47873
# Poissons Ratio (z) = -0.04150 0.53947
#
# Static dielectric constant tensor:
#      x y z
#    x 3.531370 -0.000220 -0.157680 
#    y -0.000220 3.735750 0.000210 
#    z -0.157680 0.000210 3.631520 
# 
# 
# High freq. dielectric constant tensor:
#      x y z
#    x 1.807550 0.000000 -0.013020 
#    y 0.000000 1.829240 0.000010 
#    z -0.013020 0.000010 1.815630 
# 
# From -- ./inp_files/206396.got.cif
#   From: 2010.06.25/outbox.cif.g09.slc.cpg/sg15_104_cif.got.tgz:206396.got - 2010.06.28 07:06:18.
