data_PCOD8148769
_publ_section_title
;
Structure prediction by ZEFSAII (Michael W. Deem and Ramdas Pophale) SiO2 
 PCOD8148769
Probable space group: C 2/C
;
_chemical_formula_sum "Si O2"
_cell_formula_units_Z 44
_cell_length_a 11.093732
_cell_length_b 16.305852
_cell_length_c 12.458615
_cell_angle_alpha 90.000000
_cell_angle_beta 63.026678
_cell_angle_gamma 90.000000
_cell_volume 2008.513663
_symmetry_space_group_name_H-M "C 2/C"
_symmetry_group_IT_number 15
_symmetry_cell_setting 'monoclinic'
loop_
_space_group_symop_operation_xyz
x,y,z
-x,y,1/2-z
-x,-y,-z
x,-y,1/2+z
1/2+x,1/2+y,z
1/2-x,1/2+y,1/2-z
1/2-x,1/2-y,-z
1/2+x,1/2-y,1/2+z
loop_
_atom_site_type_symbol
_atom_site_label
_atom_site_fract_x
_atom_site_fract_y
_atom_site_fract_z
Si Si1 0.473231 0.700708 0.060043
Si Si2 0.235339 0.930571 0.854804
Si Si3 0.931329 0.305805 0.886815
Si Si4 0.737043 0.398957 0.441449
Si Si5 0.000000 0.318657 0.250000
Si Si6 0.891736 0.565952 0.084688
O O1 0.390102 0.622599 0.136994
O O2 0.473680 0.766256 0.154427
O O3 0.391470 0.731801 0.984620
O O4 0.625356 0.671837 0.971109
O O5 0.320433 0.874556 0.904013
O O6 0.327123 0.964769 0.721286
O O7 0.178490 0.012795 0.931073
O O8 0.000000 0.270693 0.750000
O O9 0.041479 0.347009 0.919150
O O10 0.774069 0.412077 0.550016
O O11 0.869458 0.375542 0.319567
O O12 0.000000 0.500000 0.000000
#
# Coordination Sequence:
#
# PCOD8148769 Si02
#       6
#     8   8   8   8   4   8
#     4  12  26  45  66 103 141 169 223 285 347 399
#     4  11  25  43  69  97 136 180 224 272 345 403
#     4  10  23  42  70  94 135 178 223 274 335 403
#     4  12  25  44  69 100 132 178 225 282 336 397
#     4  12  26  42  72  98 130 182 224 276 334 402
#     4  11  21  42  68  99 130 176 232 276 315 409
#
# _framework density 21.906745999999998
#
# number of rings (size 3 to 8) (size 9 to 14) (size 15 to 20)
#    0.000    0.727    3.636    3.818    6.364    0.000 
#    3.273    0.000    0.000    0.000    0.000    0.000 
#    0.000    0.000    0.000    0.000    0.000    0.000 
#
# Total GULP energy -272724.156337 kJ/mol
# GULP energy per Si atom -12396.552561 kJ/mol
# Density = 2.185688 g / cm^3
# Si number density = 21.906746 Si / 1000 Ang^3
#
#
#
# Elastic Constant Matrix: (Units=GPa)
#
#
# Indices 1 2 3 4 5 6 
#
# 1 70.8469 33.0526 34.1082 0.0000 7.0263 0.0000
# 2 33.0526 98.0094 50.4140 0.0000 10.7413 0.0000
# 3 34.1082 50.4140 109.2078 0.0000 16.2902 0.0000
# 4 0.0000 0.0000 0.0000 34.6117 0.0000 -15.3256
# 5 7.0263 10.7413 16.2902 0.0000 31.5740 0.0000
# 6 0.0000 0.0000 0.0000 -15.3256 0.0000 31.1324
#
#
#
# Elastic Compliance Matrix: (Units=1/GPa)
#
#
# Indices 1 2 3 4 5 6 
#
# 1 0.017814 -0.004094 -0.003565 0.000000 -0.000732 0.000000
# 2 -0.004094 0.014385 -0.005166 0.000000 -0.001318 0.000000
# 3 -0.003565 -0.005166 0.013298 0.000000 -0.004310 0.000000
# 4 0.000000 0.000000 0.000000 0.036945 0.000000 0.018187
# 5 -0.000732 -0.001318 -0.004310 0.000000 0.034507 0.000000
# 6 0.000000 0.000000 0.000000 0.018187 0.000000 0.041074
#
#
# Mechanical properties :
#
#
# Convention : Reuss Voigt Hill
#
# Bulk Modulus (GPa) = 50.38084 57.02373 53.70229
# Shear Modulus (GPa) = 26.27633 30.16292 28.21962
#
# Velocity S-wave (km/s) = 3.46708 3.71466 3.59300
# Velocity P-wave (km/s) = 6.25103 6.66970 6.46376
#
# Compressibility (1/GPa) = 0.01984881
#
# Stress axis : x y z
#
# Youngs Moduli (GPa) = 56.13717 69.51640 75.20096
#
# Poissons Ratio (x) = 0.28457 0.26806
# Poissons Ratio (y) = 0.22980 0.38846
# Poissons Ratio (z) = 0.20011 0.35909
#
# Static dielectric constant tensor:
#      x y z
#    x 3.953440 0.000000 -0.054410 
#    y 0.000000 4.045160 0.000000 
#    z -0.054410 0.000000 4.711750 
# 
# 
# High freq. dielectric constant tensor:
#      x y z
#    x 1.860580 0.000000 0.007550 
#    y 0.000000 1.868540 0.000000 
#    z 0.007550 0.000000 1.864980 
# 
# From -- ./inp_files/87708.got.cif
#   From: 2010.06.25/outbox.cif.g09.slc.cpg/sg15_44_cif.got.tgz:87708.got - 2010.06.28 07:06:18.
