data_PCOD8148671
_publ_section_title
;
Structure prediction by ZEFSAII (Michael W. Deem and Ramdas Pophale) SiO2 
 PCOD8148671
Probable space group: C 2/C
;
_chemical_formula_sum "Si O2"
_cell_formula_units_Z 60
_cell_length_a 18.914436
_cell_length_b 12.471482
_cell_length_c 16.408396
_cell_angle_alpha 90.000000
_cell_angle_beta 42.750399
_cell_angle_gamma 90.000000
_cell_volume 2627.381703
_symmetry_space_group_name_H-M "C 2/C"
_symmetry_group_IT_number 15
_symmetry_cell_setting 'monoclinic'
loop_
_space_group_symop_operation_xyz
x,y,z
-x,y,1/2-z
-x,-y,-z
x,-y,1/2+z
1/2+x,1/2+y,z
1/2-x,1/2+y,1/2-z
1/2-x,1/2-y,-z
1/2+x,1/2-y,1/2+z
loop_
_atom_site_type_symbol
_atom_site_label
_atom_site_fract_x
_atom_site_fract_y
_atom_site_fract_z
Si Si1 0.251432 0.186418 0.806939
Si Si2 0.881413 0.111781 0.253104
Si Si3 0.639857 0.871361 0.520647
Si Si4 0.500000 0.259336 0.250000
Si Si5 0.880129 0.167338 0.429515
Si Si6 0.852293 0.129263 0.760389
Si Si7 0.051615 0.390963 0.431528
Si Si8 0.575156 0.895063 0.112337
O O1 0.305958 0.301952 0.773340
O O2 0.165080 0.196293 0.808372
O O3 0.334549 0.096975 0.706758
O O4 0.198445 0.137393 0.932027
O O5 0.853490 0.097362 0.372638
O O6 0.000929 0.148300 0.142919
O O7 0.861496 0.996362 0.229367
O O8 0.595346 0.814144 0.638147
O O9 0.759683 0.844018 0.402718
O O10 0.569686 0.830244 0.502440
O O11 0.638209 0.000424 0.533136
O O12 0.540675 0.333371 0.288732
O O13 0.858134 0.291363 0.417754
O O14 0.000000 0.500000 0.500000
O O15 0.979176 0.341289 0.422556
O O16 0.500000 0.927836 0.250000
#
# Coordination Sequence:
#
# PCOD8148671 Si02
#       8
#     8   8   8   4   8   8   8   8
#     4  11  23  42  67 105 131 180 236 272 346 417
#     4  11  23  46  65  99 144 179 220 290 347 403
#     4  10  23  42  66  97 130 180 227 282 345 410
#     4  12  24  46  70  92 136 182 236 282 350 418
#     4  11  22  38  71 100 138 182 222 281 344 412
#     4  11  27  46  66  96 138 183 227 286 346 414
#     4   9  20  38  62  91 138 167 212 286 330 385
#     4  11  18  37  65 102 133 172 225 274 342 398
#
# _framework density 22.836421999999999
#
# number of rings (size 3 to 8) (size 9 to 14) (size 15 to 20)
#    0.000    1.333    3.333    2.400    1.867    1.600 
#    4.800    2.667    0.000    0.000    0.000    0.000 
#    0.000    0.000    0.000    0.000    0.000    0.000 
#
# Total GULP energy -371764.695463 kJ/mol
# GULP energy per Si atom -12392.156515 kJ/mol
# Density = 2.278445 g / cm^3
# Si number density = 22.836422 Si / 1000 Ang^3
#
#
#
# Elastic Constant Matrix: (Units=GPa)
#
#
# Indices 1 2 3 4 5 6 
#
# 1 104.6196 43.5901 5.0175 0.0000 4.5220 0.0000
# 2 43.5901 87.7686 29.1746 0.0000 -1.1099 0.0000
# 3 5.0175 29.1746 114.5329 0.0000 14.4194 0.0000
# 4 0.0000 0.0000 0.0000 22.6733 0.0000 -0.1683
# 5 4.5220 -1.1099 14.4194 0.0000 24.0676 0.0000
# 6 0.0000 0.0000 0.0000 -0.1683 0.0000 29.7098
#
#
#
# Elastic Compliance Matrix: (Units=1/GPa)
#
#
# Indices 1 2 3 4 5 6 
#
# 1 0.012462 -0.006780 0.001639 0.000000 -0.003636 0.000000
# 2 -0.006780 0.016298 -0.004445 0.000000 0.004688 0.000000
# 3 0.001639 -0.004445 0.010660 0.000000 -0.006900 0.000000
# 4 0.000000 0.000000 0.000000 0.044107 0.000000 0.000250
# 5 -0.003636 0.004688 -0.006900 0.000000 0.046583 0.000000
# 6 0.000000 0.000000 0.000000 0.000250 0.000000 0.033660
#
#
# Mechanical properties :
#
#
# Convention : Reuss Voigt Hill
#
# Bulk Modulus (GPa) = 49.38732 51.38730 50.38731
# Shear Modulus (GPa) = 26.35883 30.56607 28.46245
#
# Velocity S-wave (km/s) = 3.40110 3.66249 3.53422
# Velocity P-wave (km/s) = 6.09072 6.35896 6.22628
#
# Compressibility (1/GPa) = 0.02024811
#
# Stress axis : x y z
#
# Youngs Moduli (GPa) = 80.24487 61.35906 93.80759
#
# Poissons Ratio (x) = 0.41601 -0.15374
# Poissons Ratio (y) = 0.54405 0.41694
# Poissons Ratio (z) = -0.13151 0.27272
#
# Static dielectric constant tensor:
#      x y z
#    x 4.544930 0.000000 0.159420 
#    y 0.000000 3.757010 0.000000 
#    z 0.159420 0.000000 4.203340 
# 
# 
# High freq. dielectric constant tensor:
#      x y z
#    x 1.910900 0.000000 0.002110 
#    y 0.000000 1.874390 0.000000 
#    z 0.002110 0.000000 1.906710 
# 
# From -- ./inp_files/215188.got.cif
#   From: 2010.06.25/outbox.cif.g09.slc.cpg/sg15_108_cif.got.tgz:215188.got - 2010.06.28 07:06:18.
