data_PCOD8148418
_publ_section_title
;
Structure prediction by ZEFSAII (Michael W. Deem and Ramdas Pophale) SiO2 
 PCOD8148418
Probable space group: C 2/C
;
_chemical_formula_sum "Si O2"
_cell_formula_units_Z 48
_cell_length_a 12.565509
_cell_length_b 7.676985
_cell_length_c 24.628412
_cell_angle_alpha 90.000000
_cell_angle_beta 70.584864
_cell_angle_gamma 90.000000
_cell_volume 2240.685961
_symmetry_space_group_name_H-M "C 2/C"
_symmetry_group_IT_number 15
_symmetry_cell_setting 'monoclinic'
loop_
_space_group_symop_operation_xyz
x,y,z
-x,y,1/2-z
-x,-y,-z
x,-y,1/2+z
1/2+x,1/2+y,z
1/2-x,1/2+y,1/2-z
1/2-x,1/2-y,-z
1/2+x,1/2-y,1/2+z
loop_
_atom_site_type_symbol
_atom_site_label
_atom_site_fract_x
_atom_site_fract_y
_atom_site_fract_z
Si Si1 0.733753 0.630582 0.316993
Si Si2 0.358525 0.763547 0.059023
Si Si3 0.085628 0.332629 0.068140
Si Si4 0.629124 0.522133 0.731226
Si Si5 0.207344 0.984925 0.019086
Si Si6 0.097602 0.322898 0.189485
O O1 0.666797 0.645634 0.384505
O O2 0.645192 0.567608 0.287200
O O3 0.825050 0.481398 0.306877
O O4 0.788798 0.815106 0.291478
O O5 0.475450 0.866555 0.049806
O O6 0.369959 0.644824 0.003187
O O7 0.255557 0.897263 0.065852
O O8 0.184424 0.465245 0.035962
O O9 0.051840 0.356644 0.136652
O O10 0.127800 0.138910 0.050227
O O11 0.500000 0.588391 0.750000
O O12 0.657449 0.368258 0.682609
O O13 0.000000 0.315807 0.250000
#
# Coordination Sequence:
#
# PCOD8148418 Si02
#       6
#     8   8   8   8   8   8
#     4  12  23  42  66  94 131 169 214 267 323 382
#     4  11  22  40  65  93 125 165 209 267 315 376
#     4  11  22  42  65  92 128 169 207 264 323 373
#     4  11  24  42  63  92 129 170 216 262 320 390
#     4  10  23  41  64  95 126 162 219 258 318 381
#     4  11  23  43  67  96 131 172 215 265 325 389
#
# _framework density 21.422013
#
# number of rings (size 3 to 8) (size 9 to 14) (size 15 to 20)
#    0.000    1.000    3.333    4.500    0.000    0.000 
#    0.000    0.000    0.000    0.000    0.000    0.000 
#    0.000    0.000    0.000    0.000    0.000    0.000 
#
# Total GULP energy -297603.949179 kJ/mol
# GULP energy per Si atom -12400.164549 kJ/mol
# Density = 2.137326 g / cm^3
# Si number density = 21.422013 Si / 1000 Ang^3
#
#
#
# Elastic Constant Matrix: (Units=GPa)
#
#
# Indices 1 2 3 4 5 6 
#
# 1 109.0719 19.3252 38.7144 0.0000 31.0223 0.0000
# 2 19.3252 66.7595 1.5824 0.0000 -3.0594 0.0000
# 3 38.7144 1.5824 86.0276 0.0000 9.6367 0.0000
# 4 0.0000 0.0000 0.0000 23.1262 0.0000 3.3885
# 5 31.0223 -3.0594 9.6367 0.0000 29.9015 0.0000
# 6 0.0000 0.0000 0.0000 3.3885 0.0000 22.7159
#
#
#
# Elastic Compliance Matrix: (Units=1/GPa)
#
#
# Indices 1 2 3 4 5 6 
#
# 1 0.016693 -0.005435 -0.005613 0.000000 -0.016066 0.000000
# 2 -0.005435 0.016838 0.001361 0.000000 0.006923 0.000000
# 3 -0.005613 0.001361 0.013961 0.000000 0.001463 0.000000
# 4 0.000000 0.000000 0.000000 0.044207 0.000000 -0.006594
# 5 -0.016066 0.006923 0.001463 0.000000 0.050348 0.000000
# 6 0.000000 0.000000 0.000000 -0.006594 0.000000 0.045006
#
#
# Mechanical properties :
#
#
# Convention : Reuss Voigt Hill
#
# Bulk Modulus (GPa) = 35.56533 42.34478 38.95505
# Shear Modulus (GPa) = 23.16964 28.63118 25.90041
#
# Velocity S-wave (km/s) = 3.29231 3.65983 3.48092
# Velocity P-wave (km/s) = 5.57590 6.13750 5.86343
#
# Compressibility (1/GPa) = 0.02811727
#
# Stress axis : x y z
#
# Youngs Moduli (GPa) = 59.90556 59.39094 71.62775
#
# Poissons Ratio (x) = 0.32281 0.40201
# Poissons Ratio (y) = 0.32561 -0.09747
# Poissons Ratio (z) = 0.33622 -0.08082
#
# Static dielectric constant tensor:
#      x y z
#    x 4.088570 0.000000 0.278800 
#    y 0.000000 4.254860 0.000000 
#    z 0.278800 0.000000 3.774950 
# 
# 
# High freq. dielectric constant tensor:
#      x y z
#    x 1.848120 0.000000 0.020520 
#    y 0.000000 1.849280 0.000000 
#    z 0.020520 0.000000 1.837720 
# 
# From -- ./inp_files/267661.got.cif
#   From: 2010.06.25/outbox.cif.g09.slc.cpg/sg15_134_cif.got.tgz:267661.got - 2010.06.28 07:06:18.
