data_PCOD8148221
_publ_section_title
;
Structure prediction by ZEFSAII (Michael W. Deem and Ramdas Pophale) SiO2 
 PCOD8148221
Probable space group: C 2/C
;
_chemical_formula_sum "Si O2"
_cell_formula_units_Z 56
_cell_length_a 25.159396
_cell_length_b 11.168943
_cell_length_c 24.970269
_cell_angle_alpha 90.000000
_cell_angle_beta 159.275470
_cell_angle_gamma 90.000000
_cell_volume 2483.051686
_symmetry_space_group_name_H-M "C 2/C"
_symmetry_group_IT_number 15
_symmetry_cell_setting 'monoclinic'
loop_
_space_group_symop_operation_xyz
x,y,z
-x,y,1/2-z
-x,-y,-z
x,-y,1/2+z
1/2+x,1/2+y,z
1/2-x,1/2+y,1/2-z
1/2-x,1/2-y,-z
1/2+x,1/2-y,1/2+z
loop_
_atom_site_type_symbol
_atom_site_label
_atom_site_fract_x
_atom_site_fract_y
_atom_site_fract_z
Si Si1 0.214185 0.477016 0.540112
Si Si2 0.382797 0.720535 0.329615
Si Si3 0.414549 0.120223 0.406778
Si Si4 0.004094 0.127037 0.694701
Si Si5 0.175862 0.787902 0.048490
Si Si6 0.212470 0.512196 0.915362
Si Si7 0.031808 0.633097 0.162881
O O1 0.390624 0.509005 0.707647
O O2 0.177187 0.353826 0.535887
O O3 0.158622 0.474586 0.425745
O O4 0.140913 0.589243 0.503428
O O5 0.473483 0.777829 0.464718
O O6 0.255235 0.625462 0.228878
O O7 0.290429 0.815146 0.205798
O O8 0.510629 0.665282 0.410843
O O9 0.388752 0.131236 0.319422
O O10 0.500000 0.000000 0.500000
O O11 0.054509 0.231817 0.703050
O O12 0.000000 0.184027 0.750000
O O13 0.838155 0.087313 0.523663
O O14 0.228226 0.857069 0.045344
O O15 0.085594 0.468543 0.755274
#
# Coordination Sequence:
#
# PCOD8148221 Si02
#       7
#     8   8   8   8   8   8   8
#     4  11  23  40  67  97 135 171 213 276 338 407
#     4  10  24  44  64  97 127 170 226 272 333 382
#     4  11  25  46  67  95 132 173 228 282 330 393
#     4  10  23  40  60  94 136 171 216 268 326 407
#     4  11  21  43  68  96 132 173 218 281 342 398
#     4  11  23  39  65 101 129 173 220 266 337 413
#     4  12  24  40  65  90 131 176 221 270 337 398
#
# _framework density 22.552893999999998
#
# number of rings (size 3 to 8) (size 9 to 14) (size 15 to 20)
#    0.000    1.143    0.000    6.857    4.000    2.286 
#    0.000    6.429    0.000    0.000    0.000    0.000 
#    0.000    0.000    0.000    0.000    0.000    0.000 
#
# Total GULP energy -347019.084842 kJ/mol
# GULP energy per Si atom -12393.538744 kJ/mol
# Density = 2.250156 g / cm^3
# Si number density = 22.552894 Si / 1000 Ang^3
#
#
#
# Elastic Constant Matrix: (Units=GPa)
#
#
# Indices 1 2 3 4 5 6 
#
# 1 132.5645 36.8147 33.2655 -0.0023 7.6646 -0.0008
# 2 36.8147 93.7886 12.1568 -0.0054 2.5806 -0.0017
# 3 33.2655 12.1568 85.5819 -0.0149 9.1714 -0.0035
# 4 -0.0023 -0.0054 -0.0149 19.1073 -0.0034 5.6721
# 5 7.6646 2.5806 9.1714 -0.0034 36.3333 -0.0002
# 6 -0.0008 -0.0017 -0.0035 5.6721 -0.0002 36.9290
#
#
#
# Elastic Compliance Matrix: (Units=1/GPa)
#
#
# Indices 1 2 3 4 5 6 
#
# 1 0.009253 -0.003212 -0.003038 -0.000002 -0.000957 0.000000
# 2 -0.003212 0.011983 -0.000447 0.000003 -0.000061 0.000000
# 3 -0.003038 -0.000447 0.013214 0.000009 -0.002663 0.000000
# 4 -0.000002 0.000003 0.000009 0.054836 0.000003 -0.008423
# 5 -0.000957 -0.000061 -0.002663 0.000003 0.028401 -0.000001
# 6 0.000000 0.000000 0.000000 -0.008423 -0.000001 0.028373
#
#
# Mechanical properties :
#
#
# Convention : Reuss Voigt Hill
#
# Bulk Modulus (GPa) = 47.49178 52.93432 50.21305
# Shear Modulus (GPa) = 30.03484 33.78712 31.91098
#
# Velocity S-wave (km/s) = 3.65328 3.87476 3.76565
# Velocity P-wave (km/s) = 6.23690 6.59853 6.42026
#
# Compressibility (1/GPa) = 0.02105627
#
# Stress axis : x y z
#
# Youngs Moduli (GPa) = 108.07115 83.45349 75.67486
#
# Poissons Ratio (x) = 0.26806 0.22989
# Poissons Ratio (y) = 0.34713 0.03384
# Poissons Ratio (z) = 0.32831 0.03731
#
# Static dielectric constant tensor:
#      x y z
#    x 4.230870 0.000000 -0.085600 
#    y 0.000000 3.671330 0.000000 
#    z -0.085600 0.000000 4.380610 
# 
# 
# High freq. dielectric constant tensor:
#      x y z
#    x 1.900620 0.000000 0.004630 
#    y 0.000000 1.865810 0.000000 
#    z 0.004630 0.000000 1.906090 
# 
# From -- ./inp_files/303292.got.cif
#   From: 2010.06.25/outbox.cif.g09.slc.cpg/sg15_152_cif.got.tgz:303292.got - 2010.06.28 07:06:18.
