data_PCOD8148147
_publ_section_title
;
Structure prediction by ZEFSAII (Michael W. Deem and Ramdas Pophale) SiO2 
 PCOD8148147
Probable space group: C 2/C
;
_chemical_formula_sum "Si O2"
_cell_formula_units_Z 56
_cell_length_a 24.770885
_cell_length_b 16.917519
_cell_length_c 9.213379
_cell_angle_alpha 90.000000
_cell_angle_beta 41.502426
_cell_angle_gamma 90.000000
_cell_volume 2558.482720
_symmetry_space_group_name_H-M "C 2/C"
_symmetry_group_IT_number 15
_symmetry_cell_setting 'monoclinic'
loop_
_space_group_symop_operation_xyz
x,y,z
-x,y,1/2-z
-x,-y,-z
x,-y,1/2+z
1/2+x,1/2+y,z
1/2-x,1/2+y,1/2-z
1/2-x,1/2-y,-z
1/2+x,1/2-y,1/2+z
loop_
_atom_site_type_symbol
_atom_site_label
_atom_site_fract_x
_atom_site_fract_y
_atom_site_fract_z
Si Si1 0.559554 0.530542 0.758775
Si Si2 0.582715 0.293877 0.176890
Si Si3 0.284211 0.558171 0.642447
Si Si4 0.906753 0.376190 0.291020
Si Si5 0.198268 0.291209 0.226137
Si Si6 0.412153 0.161736 0.098122
Si Si7 0.189985 0.477414 0.591080
O O1 0.500000 0.545828 0.750000
O O2 0.599881 0.617069 0.701394
O O3 0.625643 0.462398 0.593810
O O4 0.500000 0.500000 0.000000
O O5 0.500000 0.284476 0.250000
O O6 0.578853 0.243850 0.333904
O O7 0.659556 0.268234 0.922463
O O8 0.262926 0.650442 0.672694
O O9 0.214917 0.511179 0.694977
O O10 0.273709 0.531433 0.830149
O O11 0.874721 0.334242 0.210582
O O12 0.883643 0.327920 0.486605
O O13 0.870981 0.464417 0.371668
O O14 0.002931 0.384491 0.079123
O O15 0.250000 0.250000 0.000000
O O16 0.350124 0.108270 0.313930
#
# Coordination Sequence:
#
# PCOD8148147 Si02
#       7
#     8   8   8   8   8   8   8
#     4  11  27  50  73  98 133 186 237 286 336 409
#     4  11  24  45  71 100 137 181 230 282 346 408
#     4  11  24  42  70  95 135 176 233 277 342 411
#     4  10  23  39  62  96 137 184 218 272 337 421
#     4  11  25  43  70  98 135 176 226 289 348 405
#     4  11  21  41  63  99 141 174 224 276 337 409
#     4  11  21  39  62 100 136 178 222 273 343 412
#
# _framework density 21.887972000000001
#
# number of rings (size 3 to 8) (size 9 to 14) (size 15 to 20)
#    0.000    1.143    4.286    1.286    8.000    0.000 
#   10.286    1.429    0.000    0.000    0.000    0.000 
#    0.000    0.000    0.000    0.000    0.000    0.000 
#
# Total GULP energy -347097.646303 kJ/mol
# GULP energy per Si atom -12396.344511 kJ/mol
# Density = 2.183815 g / cm^3
# Si number density = 21.887972 Si / 1000 Ang^3
#
#
#
# Elastic Constant Matrix: (Units=GPa)
#
#
# Indices 1 2 3 4 5 6 
#
# 1 29.9178 14.5920 7.2895 0.0000 4.3875 0.0000
# 2 14.5920 115.9853 59.0759 0.0000 -0.4065 0.0000
# 3 7.2895 59.0759 164.3917 0.0000 -2.3732 0.0000
# 4 0.0000 0.0000 0.0000 35.9057 0.0000 -5.3442
# 5 4.3875 -0.4065 -2.3732 0.0000 38.4214 0.0000
# 6 0.0000 0.0000 0.0000 -5.3442 0.0000 23.2978
#
#
#
# Elastic Compliance Matrix: (Units=1/GPa)
#
#
# Indices 1 2 3 4 5 6 
#
# 1 0.036272 -0.004563 -0.000029 0.000000 -0.004192 0.000000
# 2 -0.004563 0.011128 -0.003791 0.000000 0.000405 0.000000
# 3 -0.000029 -0.003791 0.007453 0.000000 0.000424 0.000000
# 4 0.000000 0.000000 0.000000 0.028835 0.000000 0.006614
# 5 -0.004192 0.000405 0.000424 0.000000 0.026536 0.000000
# 6 0.000000 0.000000 0.000000 0.006614 0.000000 0.044440
#
#
# Mechanical properties :
#
#
# Convention : Reuss Voigt Hill
#
# Bulk Modulus (GPa) = 26.25573 52.46773 39.36173
# Shear Modulus (GPa) = 27.15525 34.81416 30.98470
#
# Velocity S-wave (km/s) = 3.52610 3.99251 3.76653
# Velocity P-wave (km/s) = 5.34784 6.72879 6.07766
#
# Compressibility (1/GPa) = 0.03808693
#
# Stress axis : x y z
#
# Youngs Moduli (GPa) = 27.56915 89.86250 134.17952
#
# Poissons Ratio (x) = 0.41007 0.00390
# Poissons Ratio (y) = 0.12581 0.50865
# Poissons Ratio (z) = 0.00080 0.34065
#
# Static dielectric constant tensor:
#      x y z
#    x 4.251710 0.000000 0.219430 
#    y 0.000000 4.203140 0.000000 
#    z 0.219430 0.000000 3.963110 
# 
# 
# High freq. dielectric constant tensor:
#      x y z
#    x 1.861630 0.000000 0.007420 
#    y 0.000000 1.853350 0.000000 
#    z 0.007420 0.000000 1.873890 
# 
# From -- ./inp_files/67128.got.cif
#   From: 2010.06.25/outbox.cif.g09.slc.cpg/sg15_34_cif.got.tgz:67128.got - 2010.06.28 07:06:18.
