data_PCOD8148396
_publ_section_title
;
Structure prediction by ZEFSAII (Michael W. Deem and Ramdas Pophale) SiO2 
 PCOD8148396
Probable space group: C 2/C
;
_chemical_formula_sum "Si O2"
_cell_formula_units_Z 40
_cell_length_a 12.881661
_cell_length_b 24.265689
_cell_length_c 11.165784
_cell_angle_alpha 90.000000
_cell_angle_beta 29.970347
_cell_angle_gamma 90.000000
_cell_volume 1743.549096
_symmetry_space_group_name_H-M "C 2/C"
_symmetry_group_IT_number 15
_symmetry_cell_setting 'monoclinic'
loop_
_space_group_symop_operation_xyz
x,y,z
-x,y,1/2-z
-x,-y,-z
x,-y,1/2+z
1/2+x,1/2+y,z
1/2-x,1/2+y,1/2-z
1/2-x,1/2-y,-z
1/2+x,1/2-y,1/2+z
loop_
_atom_site_type_symbol
_atom_site_label
_atom_site_fract_x
_atom_site_fract_y
_atom_site_fract_z
Si Si1 0.945899 0.127906 0.429108
Si Si2 0.803577 0.317369 0.855728
Si Si3 0.848072 0.198930 0.742912
Si Si4 0.150798 0.469865 0.208069
Si Si5 0.317625 0.078601 0.210437
O O1 0.812504 0.168806 0.650169
O O2 0.817927 0.075934 0.507801
O O3 0.000000 0.159996 0.250000
O O4 0.150245 0.104637 0.288759
O O5 0.872925 0.265029 0.704053
O O6 0.906685 0.373633 0.707833
O O7 0.837885 0.309256 0.968263
O O8 0.557125 0.326203 0.087258
O O9 0.271177 0.526234 0.125967
O O10 0.000000 0.484209 0.250000
O O11 0.022264 0.444098 0.444340
#
# Coordination Sequence:
#
# PCOD8148396 Si02
#       5
#     8   8   8   8   8
#     4  11  22  42  63  90 131 167 204 257 311 379
#     4   9  19  39  60  90 123 153 209 261 308 366
#     4   9  20  37  62  91 118 163 205 255 317 365
#     4  11  23  41  63  94 121 166 210 256 315 370
#     4  10  23  41  63  91 126 161 209 258 313 372
#
# _framework density 22.941711999999999
#
# number of rings (size 3 to 8) (size 9 to 14) (size 15 to 20)
#    0.000    2.000    2.000    0.600    2.800    3.200 
#   10.800    5.000    0.000    0.000    0.000    0.000 
#    0.000    0.000    0.000    0.000    0.000    0.000 
#
# Total GULP energy -247869.949691 kJ/mol
# GULP energy per Si atom -12393.497485 kJ/mol
# Density = 2.288950 g / cm^3
# Si number density = 22.941712 Si / 1000 Ang^3
#
#
#
# Elastic Constant Matrix: (Units=GPa)
#
#
# Indices 1 2 3 4 5 6 
#
# 1 108.6751 55.1085 32.5392 0.0077 24.6138 -0.0024
# 2 55.1085 166.3322 56.6666 0.0058 35.2260 -0.0016
# 3 32.5392 56.6666 75.1294 0.0589 33.7427 -0.0171
# 4 0.0077 0.0058 0.0589 27.9936 -0.0119 4.5282
# 5 24.6138 35.2260 33.7427 -0.0119 40.9891 0.0018
# 6 -0.0024 -0.0016 -0.0171 4.5282 0.0018 28.1166
#
#
#
# Elastic Compliance Matrix: (Units=1/GPa)
#
#
# Indices 1 2 3 4 5 6 
#
# 1 0.011802 -0.002636 -0.001519 -0.000001 -0.003571 0.000000
# 2 -0.002636 0.008930 -0.004534 0.000008 -0.002358 -0.000004
# 3 -0.001519 -0.004534 0.024162 -0.000060 -0.015081 0.000025
# 4 -0.000001 0.000008 -0.000060 0.036678 0.000054 -0.005907
# 5 -0.003571 -0.002358 -0.015081 0.000054 0.040983 -0.000021
# 6 0.000000 -0.000004 0.000025 -0.005907 -0.000021 0.036518
#
#
# Mechanical properties :
#
#
# Convention : Reuss Voigt Hill
#
# Bulk Modulus (GPa) = 36.34557 70.97394 53.65975
# Shear Modulus (GPa) = 26.93620 33.14134 30.03877
#
# Velocity S-wave (km/s) = 3.43025 3.80490 3.62242
# Velocity P-wave (km/s) = 5.61835 7.09273 6.39815
#
# Compressibility (1/GPa) = 0.02751367
#
# Stress axis : x y z
#
# Youngs Moduli (GPa) = 84.72894 111.98508 41.38768
#
# Poissons Ratio (x) = 0.29524 0.06289
# Poissons Ratio (y) = 0.22338 0.18766
# Poissons Ratio (z) = 0.12874 0.50776
#
# Static dielectric constant tensor:
#      x y z
#    x 4.188130 -0.000030 0.220350 
#    y -0.000030 4.390070 0.000010 
#    z 0.220350 0.000010 4.438680 
# 
# 
# High freq. dielectric constant tensor:
#      x y z
#    x 1.904970 0.000000 -0.006080 
#    y 0.000000 1.906550 0.000000 
#    z -0.006080 0.000000 1.913650 
# 
# From -- ./inp_files/100590.got.cif
#   From: 2010.06.25/outbox.cif.g09.slc.cpg/sg15_51_cif.got.tgz:100590.got - 2010.06.28 07:06:18.
