data_PCOD8148729
_publ_section_title
;
Structure prediction by ZEFSAII (Michael W. Deem and Ramdas Pophale) SiO2 
 PCOD8148729
Probable space group: C 2/C
;
_chemical_formula_sum "Si O2"
_cell_formula_units_Z 64
_cell_length_a 11.400802
_cell_length_b 18.046251
_cell_length_c 28.984645
_cell_angle_alpha 90.000000
_cell_angle_beta 150.498004
_cell_angle_gamma 90.000000
_cell_volume 2936.675406
_symmetry_space_group_name_H-M "C 2/C"
_symmetry_group_IT_number 15
_symmetry_cell_setting 'monoclinic'
loop_
_space_group_symop_operation_xyz
x,y,z
-x,y,1/2-z
-x,-y,-z
x,-y,1/2+z
1/2+x,1/2+y,z
1/2-x,1/2+y,1/2-z
1/2-x,1/2-y,-z
1/2+x,1/2-y,1/2+z
loop_
_atom_site_type_symbol
_atom_site_label
_atom_site_fract_x
_atom_site_fract_y
_atom_site_fract_z
Si Si1 0.921585 0.541279 0.389854
Si Si2 0.568261 0.900687 0.845381
Si Si3 0.410206 0.565162 0.591619
Si Si4 0.789052 0.193472 0.143798
Si Si5 0.384359 0.305471 0.013704
Si Si6 0.645006 0.574319 0.141886
Si Si7 0.212427 0.106688 0.851049
Si Si8 0.264435 0.174337 0.477129
O O1 0.827040 0.622058 0.372030
O O2 0.737223 0.476540 0.338722
O O3 0.989942 0.543638 0.359349
O O4 0.157544 0.523568 0.499679
O O5 0.748456 0.942852 0.872322
O O6 0.331612 0.876919 0.735948
O O7 0.705578 0.827676 0.910999
O O8 0.460159 0.621848 0.567466
O O9 0.613768 0.503100 0.658568
O O10 0.396837 0.606903 0.635352
O O11 0.616355 0.263129 0.075567
O O12 0.864856 0.174941 0.117424
O O13 0.000000 0.219539 0.250000
O O14 0.250000 0.250000 0.000000
O O15 0.392828 0.615452 0.048342
O O16 0.000000 0.146659 0.750000
O O17 0.459054 0.151141 0.932592
O O18 0.250000 0.250000 0.500000
#
# Coordination Sequence:
#
# PCOD8148729 Si02
#       8
#     8   8   8   8   8   8   8   8
#     4  11  20  41  70  98 131 174 228 279 337 407
#     4  10  23  42  68  96 130 184 222 279 336 413
#     4  11  22  41  70  94 131 180 224 287 330 414
#     4  12  24  43  70 101 133 176 227 281 344 414
#     4  11  22  42  66  95 134 174 227 267 340 409
#     4  11  23  44  67  96 134 176 234 276 347 401
#     4  12  24  43  68  99 134 177 224 285 349 404
#     4  12  26  45  64 100 139 172 226 288 346 411
#
# _framework density 21.793351000000001
#
# number of rings (size 3 to 8) (size 9 to 14) (size 15 to 20)
#    0.000    0.750    5.000    3.750    0.000    3.000 
#    9.000    0.000    0.000    0.000    0.000    0.000 
#    0.000    0.000    0.000    0.000    0.000    0.000 
#
# Total GULP energy -396693.793497 kJ/mol
# GULP energy per Si atom -12396.681047 kJ/mol
# Density = 2.174375 g / cm^3
# Si number density = 21.793351 Si / 1000 Ang^3
#
#
#
# Elastic Constant Matrix: (Units=GPa)
#
#
# Indices 1 2 3 4 5 6 
#
# 1 117.6102 29.0254 31.1726 0.0021 -8.3926 0.0004
# 2 29.0254 96.9335 33.7028 0.0020 7.5302 0.0005
# 3 31.1726 33.7028 114.9842 0.0070 -10.6895 0.0019
# 4 0.0021 0.0020 0.0070 29.9811 0.0023 6.9649
# 5 -8.3926 7.5302 -10.6895 0.0023 33.2814 0.0007
# 6 0.0004 0.0005 0.0019 6.9649 0.0007 36.5915
#
#
#
# Elastic Compliance Matrix: (Units=1/GPa)
#
#
# Indices 1 2 3 4 5 6 
#
# 1 0.009748 -0.002533 -0.001668 0.000000 0.002495 0.000000
# 2 -0.002533 0.012629 -0.003443 0.000000 -0.004602 0.000000
# 3 -0.001668 -0.003443 0.010505 -0.000002 0.003732 0.000000
# 4 0.000000 0.000000 -0.000002 0.034897 -0.000003 -0.006642
# 5 0.002495 -0.004602 0.003732 -0.000003 0.032916 0.000000
# 6 0.000000 0.000000 0.000000 -0.006642 0.000000 0.028593
#
#
# Mechanical properties :
#
#
# Convention : Reuss Voigt Hill
#
# Bulk Modulus (GPa) = 56.83575 57.48105 57.15840
# Shear Modulus (GPa) = 33.23538 35.67927 34.45732
#
# Velocity S-wave (km/s) = 3.90939 4.05058 3.98061
# Velocity P-wave (km/s) = 6.82010 6.95047 6.88559
#
# Compressibility (1/GPa) = 0.01759456
#
# Stress axis : x y z
#
# Youngs Moduli (GPa) = 102.58531 79.18095 95.19008
#
# Poissons Ratio (x) = 0.20054 0.15881
# Poissons Ratio (y) = 0.25981 0.32774
# Poissons Ratio (z) = 0.17115 0.27262
#
# Static dielectric constant tensor:
#      x y z
#    x 3.517170 0.000000 -0.250320 
#    y 0.000000 4.965340 -0.000060 
#    z -0.250320 -0.000060 4.079410 
# 
# 
# High freq. dielectric constant tensor:
#      x y z
#    x 1.871160 0.000000 -0.001120 
#    y 0.000000 1.836250 0.000000 
#    z -0.001120 0.000000 1.861670 
# 
# From -- ./inp_files/311651.got.cif
#   From: 2010.06.25/outbox.cif.g09.slc.cpg/sg15_156_cif.got.tgz:311651.got - 2010.06.28 07:06:18.
