data_PCOD8148136
_publ_section_title
;
Structure prediction by ZEFSAII (Michael W. Deem and Ramdas Pophale) SiO2 
 PCOD8148136
Probable space group: C 2/C
;
_chemical_formula_sum "Si O2"
_cell_formula_units_Z 56
_cell_length_a 13.662860
_cell_length_b 11.135912
_cell_length_c 19.171808
_cell_angle_alpha 90.000000
_cell_angle_beta 112.009283
_cell_angle_gamma 90.000000
_cell_volume 2704.381177
_symmetry_space_group_name_H-M "C 2/C"
_symmetry_group_IT_number 15
_symmetry_cell_setting 'monoclinic'
loop_
_space_group_symop_operation_xyz
x,y,z
-x,y,1/2-z
-x,-y,-z
x,-y,1/2+z
1/2+x,1/2+y,z
1/2-x,1/2+y,1/2-z
1/2-x,1/2-y,-z
1/2+x,1/2-y,1/2+z
loop_
_atom_site_type_symbol
_atom_site_label
_atom_site_fract_x
_atom_site_fract_y
_atom_site_fract_z
Si Si1 0.242879 0.068578 0.107638
Si Si2 0.028538 0.013768 0.831480
Si Si3 0.852025 0.434655 0.493258
Si Si4 0.424886 0.830572 0.941770
Si Si5 0.992187 0.115196 0.449868
Si Si6 0.782710 0.814124 0.155219
Si Si7 0.320006 0.647074 0.819709
O O1 0.266401 0.053399 0.032064
O O2 0.131850 0.135676 0.092671
O O3 0.318779 0.173929 0.158199
O O4 0.250473 0.940099 0.149091
O O5 0.123089 0.105273 0.847977
O O6 0.000000 0.953473 0.750000
O O7 0.932158 0.087101 0.837750
O O8 0.052455 0.907702 0.892335
O O9 0.861005 0.566400 0.463581
O O10 0.815555 0.345585 0.421625
O O11 0.962922 0.385088 0.554688
O O12 0.347743 0.777181 0.860928
O O13 0.446288 0.725738 0.002085
O O14 0.000000 0.000000 0.500000
O O15 0.757236 0.838686 0.230034
#
# Coordination Sequence:
#
# PCOD8148136 Si02
#       7
#     8   8   8   8   8   8   8
#     4  11  22  38  65  91 113 157 214 246 291 360
#     4   9  19  36  57  89 115 155 201 246 302 350
#     4  11  25  39  63  90 120 163 205 246 304 359
#     4  11  23  42  60  85 129 159 198 249 309 360
#     4  11  19  37  62  83 115 157 200 248 296 353
#     4  11  22  38  64  90 123 157 208 249 293 365
#     4  10  23  39  61  90 125 158 196 252 312 344
#
# _framework density 20.707141
#
# number of rings (size 3 to 8) (size 9 to 14) (size 15 to 20)
#    0.000    1.429    4.286    2.143    2.000    0.571 
#    0.000    0.000    0.000    0.000    0.000    0.000 
#    0.000    0.000    0.000    0.000    0.000    0.000 
#
# Total GULP energy -347005.617653 kJ/mol
# GULP energy per Si atom -12393.057773 kJ/mol
# Density = 2.066001 g / cm^3
# Si number density = 20.707141 Si / 1000 Ang^3
#
#
#
# Elastic Constant Matrix: (Units=GPa)
#
#
# Indices 1 2 3 4 5 6 
#
# 1 59.0769 33.0360 42.3399 0.0000 -16.4824 0.0000
# 2 33.0360 113.7431 50.7522 0.0000 -27.5901 0.0000
# 3 42.3399 50.7522 128.6615 0.0000 -30.9203 0.0000
# 4 0.0000 0.0000 0.0000 32.1869 0.0000 -1.5696
# 5 -16.4824 -27.5901 -30.9203 0.0000 22.6927 0.0000
# 6 0.0000 0.0000 0.0000 -1.5696 0.0000 9.9194
#
#
#
# Elastic Compliance Matrix: (Units=1/GPa)
#
#
# Indices 1 2 3 4 5 6 
#
# 1 0.024233 -0.003091 -0.005098 0.000000 0.006898 0.000000
# 2 -0.003091 0.013182 -0.001295 0.000000 0.012018 0.000000
# 3 -0.005098 -0.001295 0.012925 0.000000 0.012334 0.000000
# 4 0.000000 0.000000 0.000000 0.031310 0.000000 0.004954
# 5 0.006898 0.012018 0.012334 0.000000 0.080495 0.000000
# 6 0.000000 0.000000 0.000000 0.004954 0.000000 0.101596
#
#
# Mechanical properties :
#
#
# Convention : Reuss Voigt Hill
#
# Bulk Modulus (GPa) = 31.87331 61.52642 46.69986
# Shear Modulus (GPa) = 17.05518 24.65004 20.85261
#
# Velocity S-wave (km/s) = 2.87302 3.45398 3.17681
# Velocity P-wave (km/s) = 5.14116 6.75898 6.00480
#
# Compressibility (1/GPa) = 0.03137422
#
# Stress axis : x y z
#
# Youngs Moduli (GPa) = 41.26528 75.85945 77.37065
#
# Poissons Ratio (x) = 0.23445 0.39443
# Poissons Ratio (y) = 0.12754 0.10016
# Poissons Ratio (z) = 0.21037 0.09820
#
# Static dielectric constant tensor:
#      x y z
#    x 4.799600 0.000000 -0.068090 
#    y 0.000000 3.807730 0.000000 
#    z -0.068090 0.000000 3.936550 
# 
# 
# High freq. dielectric constant tensor:
#      x y z
#    x 1.790920 0.000000 -0.009060 
#    y 0.000000 1.815360 0.000000 
#    z -0.009060 0.000000 1.812850 
# 
# From -- ./inp_files/204097.got.cif
#   From: 2010.06.25/outbox.cif.g09.slc.cpg/sg15_103_cif.got.tgz:204097.got - 2010.06.28 07:06:18.
