data_PCOD8148146
_publ_section_title
;
Structure prediction by ZEFSAII (Michael W. Deem and Ramdas Pophale) SiO2 
 PCOD8148146
Probable space group: C 2/C
;
_chemical_formula_sum "Si O2"
_cell_formula_units_Z 56
_cell_length_a 12.624466
_cell_length_b 16.762031
_cell_length_c 17.131136
_cell_angle_alpha 90.000000
_cell_angle_beta 51.736090
_cell_angle_gamma 90.000000
_cell_volume 2846.345664
_symmetry_space_group_name_H-M "C 2/C"
_symmetry_group_IT_number 15
_symmetry_cell_setting 'monoclinic'
loop_
_space_group_symop_operation_xyz
x,y,z
-x,y,1/2-z
-x,-y,-z
x,-y,1/2+z
1/2+x,1/2+y,z
1/2-x,1/2+y,1/2-z
1/2-x,1/2-y,-z
1/2+x,1/2-y,1/2+z
loop_
_atom_site_type_symbol
_atom_site_label
_atom_site_fract_x
_atom_site_fract_y
_atom_site_fract_z
Si Si1 0.363366 0.383267 0.263390
Si Si2 0.148701 0.505595 0.398003
Si Si3 0.642054 0.947852 0.725168
Si Si4 0.428653 0.295937 0.956822
Si Si5 0.379463 0.445696 0.083979
Si Si6 0.267736 0.715449 0.210207
Si Si7 0.263524 0.330039 0.889449
O O1 0.500000 0.383080 0.250000
O O2 0.242415 0.427190 0.366120
O O3 0.396029 0.428746 0.168179
O O4 0.317556 0.293593 0.268545
O O5 0.125911 0.518602 0.318059
O O6 0.230346 0.576935 0.400823
O O7 0.000000 0.500000 0.500000
O O8 0.500000 0.952147 0.750000
O O9 0.690680 0.857044 0.705024
O O10 0.743727 0.004004 0.630386
O O11 0.586478 0.281841 0.896347
O O12 0.397226 0.318863 0.881160
O O13 0.372040 0.364326 0.039262
O O14 0.360048 0.212966 0.010906
O O15 0.500000 0.500000 0.000000
O O16 0.287090 0.706559 0.293764
#
# Coordination Sequence:
#
# PCOD8148146 Si02
#       7
#     8   8   8   8   8   8   8
#     4  11  25  42  66  93 126 168 207 262 317 377
#     4  10  23  41  61  91 126 159 209 256 307 377
#     4  10  23  39  63  90 124 165 202 260 313 362
#     4  11  22  40  67  91 126 167 207 261 318 370
#     4  11  23  43  64  96 127 163 213 260 308 386
#     4  11  21  43  61  91 130 160 213 256 310 376
#     4  10  23  39  62  94 123 163 206 259 313 372
#
# _framework density 19.67435
#
# number of rings (size 3 to 8) (size 9 to 14) (size 15 to 20)
#    0.000    1.429    2.857    1.714    4.000    0.000 
#    2.571    0.714    0.000    0.000    0.000    0.000 
#    0.000    0.000    0.000    0.000    0.000    0.000 
#
# Total GULP energy -347270.729284 kJ/mol
# GULP energy per Si atom -12402.526046 kJ/mol
# Density = 1.962957 g / cm^3
# Si number density = 19.674350 Si / 1000 Ang^3
#
#
#
# Elastic Constant Matrix: (Units=GPa)
#
#
# Indices 1 2 3 4 5 6 
#
# 1 118.4097 49.6939 40.3145 0.0000 -23.2563 0.0001
# 2 49.6939 95.1309 38.5008 0.0000 -3.1983 0.0001
# 3 40.3145 38.5008 92.6877 -0.0001 -22.3257 0.0002
# 4 0.0000 0.0000 -0.0001 35.0876 0.0001 -6.0320
# 5 -23.2563 -3.1983 -22.3257 0.0001 31.8480 -0.0001
# 6 0.0001 0.0001 0.0002 -6.0320 -0.0001 -3.4297
#
#
#
# Elastic Compliance Matrix: (Units=1/GPa)
#
#
# Indices 1 2 3 4 5 6 
#
# 1 0.012950 -0.006006 -0.001210 0.000000 0.008005 0.000000
# 2 -0.006006 0.015648 -0.005493 0.000000 -0.006665 0.000000
# 3 -0.001210 -0.005493 0.015943 0.000000 0.009741 0.000000
# 4 0.000000 0.000000 0.000000 0.021884 0.000000 -0.038487
# 5 0.008005 -0.006665 0.009741 0.000000 0.043404 -0.000001
# 6 0.000000 0.000000 0.000000 -0.038487 -0.000001 -0.223879
#
#
# Mechanical properties :
#
#
# Convention : Reuss Voigt Hill
#
# Bulk Modulus (GPa) = 52.29018 62.58297 57.43657
# Shear Modulus (GPa) = -60.78457 24.54913 -18.11772
#
# Velocity S-wave (km/s) = -5.56439 3.53622 -3.03789
# Velocity P-wave (km/s) = 3.82723 6.96790 4.11727
#
# Compressibility (1/GPa) = 0.01912405
#
# Stress axis : x y z
#
# Youngs Moduli (GPa) = 77.22024 63.90468 62.72290
#
# Poissons Ratio (x) = 0.38382 0.07586
# Poissons Ratio (y) = 0.46379 0.34454
# Poissons Ratio (z) = 0.09340 0.35103
#
# Static dielectric constant tensor:
#      x y z
#    x 3.293070 0.000000 0.302610 
#    y 0.000000 3.949120 0.000000 
#    z 0.302610 0.000000 3.084110 
# 
# 
# High freq. dielectric constant tensor:
#      x y z
#    x 1.767720 0.000000 -0.005380 
#    y 0.000000 1.781100 0.000000 
#    z -0.005380 0.000000 1.774750 
# 
# From -- ./inp_files/199434.got.cif
#   From: 2010.06.25/outbox.cif.g09.slc.cpg/sg15_100_cif.got.tgz:199434.got - 2010.06.28 07:06:18.
