data_PCOD8148621
_publ_section_title
;
Structure prediction by ZEFSAII (Michael W. Deem and Ramdas Pophale) SiO2 
 PCOD8148621
Probable space group: C 2/C
;
_chemical_formula_sum "Si O2"
_cell_formula_units_Z 44
_cell_length_a 11.572067
_cell_length_b 19.426750
_cell_length_c 14.692397
_cell_angle_alpha 90.000000
_cell_angle_beta 139.817415
_cell_angle_gamma 90.000000
_cell_volume 2131.156143
_symmetry_space_group_name_H-M "C 2/C"
_symmetry_group_IT_number 15
_symmetry_cell_setting 'monoclinic'
loop_
_space_group_symop_operation_xyz
x,y,z
-x,y,1/2-z
-x,-y,-z
x,-y,1/2+z
1/2+x,1/2+y,z
1/2-x,1/2+y,1/2-z
1/2-x,1/2-y,-z
1/2+x,1/2-y,1/2+z
loop_
_atom_site_type_symbol
_atom_site_label
_atom_site_fract_x
_atom_site_fract_y
_atom_site_fract_z
Si Si1 0.792926 0.431354 0.631664
Si Si2 0.880333 0.212277 0.509361
Si Si3 0.319483 0.595019 0.245889
Si Si4 0.500000 0.836932 0.250000
Si Si5 0.726022 0.432362 0.981475
Si Si6 0.728551 0.749020 0.248016
O O1 0.675449 0.366887 0.530505
O O2 0.751870 0.449995 0.712225
O O3 0.737677 0.493682 0.534494
O O4 0.000000 0.411990 0.750000
O O5 0.750000 0.250000 0.500000
O O6 0.881548 0.248906 0.411785
O O7 0.083975 0.215381 0.665266
O O8 0.251890 0.557492 0.113793
O O9 0.533937 0.602057 0.383404
O O10 0.237147 0.671423 0.197317
O O11 0.620215 0.883836 0.387132
O O12 0.624821 0.789916 0.263199
#
# Coordination Sequence:
#
# PCOD8148621 Si02
#       6
#     8   8   8   4   8   8
#     4  11  23  43  64  91 130 168 210 264 314 378
#     4  11  23  44  66  92 128 167 218 264 319 374
#     4  10  23  42  65  88 130 168 209 260 326 369
#     4  12  22  38  64 100 130 156 224 254 322 392
#     4  11  23  42  62  95 127 172 206 260 319 385
#     4  11  23  40  67  97 126 169 206 273 319 374
#
# _framework density 20.646069000000001
#
# number of rings (size 3 to 8) (size 9 to 14) (size 15 to 20)
#    0.000    1.091    0.909    7.636    0.000    2.909 
#    9.818    0.000    0.000    0.000    0.000    0.000 
#    0.000    0.000    0.000    0.000    0.000    0.000 
#
# Total GULP energy -272898.570115 kJ/mol
# GULP energy per Si atom -12404.480460 kJ/mol
# Density = 2.059908 g / cm^3
# Si number density = 20.646069 Si / 1000 Ang^3
#
#
#
# Elastic Constant Matrix: (Units=GPa)
#
#
# Indices 1 2 3 4 5 6 
#
# 1 133.8704 47.4259 36.2175 -0.0003 -16.7786 -0.0002
# 2 47.4259 111.3884 47.7852 -0.0001 -12.6619 0.0000
# 3 36.2175 47.7852 100.9477 0.0007 -5.8500 0.0001
# 4 -0.0003 -0.0001 0.0007 15.0871 0.0009 -8.1907
# 5 -16.7786 -12.6619 -5.8500 0.0009 45.0851 0.0003
# 6 -0.0002 0.0000 0.0001 -8.1907 0.0003 28.7368
#
#
#
# Elastic Compliance Matrix: (Units=1/GPa)
#
#
# Indices 1 2 3 4 5 6 
#
# 1 0.009292 -0.002902 -0.001821 0.000000 0.002407 0.000000
# 2 -0.002902 0.012456 -0.004751 0.000000 0.001802 0.000000
# 3 -0.001821 -0.004751 0.012788 -0.000001 -0.000353 0.000000
# 4 0.000000 0.000000 -0.000001 0.078416 -0.000002 0.022351
# 5 0.002407 0.001802 -0.000353 -0.000002 0.023536 -0.000001
# 6 0.000000 0.000000 0.000000 0.022351 -0.000001 0.041169
#
#
# Mechanical properties :
#
#
# Convention : Reuss Voigt Hill
#
# Bulk Modulus (GPa) = 64.14556 67.67372 65.90964
# Shear Modulus (GPa) = 24.77701 32.10030 28.43866
#
# Velocity S-wave (km/s) = 3.46798 3.94736 3.71541
# Velocity P-wave (km/s) = 6.86822 7.32289 7.09920
#
# Compressibility (1/GPa) = 0.01558954
#
# Stress axis : x y z
#
# Youngs Moduli (GPa) = 107.61801 80.28331 78.19963
#
# Poissons Ratio (x) = 0.23295 0.14238
# Poissons Ratio (y) = 0.31226 0.37151
# Poissons Ratio (z) = 0.19595 0.38141
#
# Static dielectric constant tensor:
#      x y z
#    x 4.027630 0.000000 -0.093460 
#    y 0.000000 3.592640 0.000000 
#    z -0.093460 0.000000 3.809940 
# 
# 
# High freq. dielectric constant tensor:
#      x y z
#    x 1.828010 0.000000 -0.002700 
#    y 0.000000 1.800740 0.000000 
#    z -0.002700 0.000000 1.818220 
# 
# From -- ./inp_files/147276.got.cif
#   From: 2010.06.25/outbox.cif.g09.slc.cpg/sg15_74_cif.got.tgz:147276.got - 2010.06.28 07:06:18.
