data_PCOD8148151
_publ_section_title
;
Structure prediction by ZEFSAII (Michael W. Deem and Ramdas Pophale) SiO2 
 PCOD8148151
Probable space group: C 2/C
;
_chemical_formula_sum "Si O2"
_cell_formula_units_Z 48
_cell_length_a 15.433333
_cell_length_b 10.136197
_cell_length_c 15.228583
_cell_angle_alpha 90.000000
_cell_angle_beta 87.453076
_cell_angle_gamma 90.000000
_cell_volume 2379.934694
_symmetry_space_group_name_H-M "C 2/C"
_symmetry_group_IT_number 15
_symmetry_cell_setting 'monoclinic'
loop_
_space_group_symop_operation_xyz
x,y,z
-x,y,1/2-z
-x,-y,-z
x,-y,1/2+z
1/2+x,1/2+y,z
1/2-x,1/2+y,1/2-z
1/2-x,1/2-y,-z
1/2+x,1/2-y,1/2+z
loop_
_atom_site_type_symbol
_atom_site_label
_atom_site_fract_x
_atom_site_fract_y
_atom_site_fract_z
Si Si1 0.994366 0.843107 0.498683
Si Si2 0.517414 0.167536 0.654447
Si Si3 0.860281 0.496554 0.137432
Si Si4 0.682011 0.728751 0.925339
Si Si5 0.166047 0.325296 0.533316
Si Si6 0.193746 0.455463 0.167579
O O1 0.981940 0.784980 0.596149
O O2 0.085151 0.794567 0.459634
O O3 0.913584 0.778778 0.448653
O O4 0.000000 0.000000 0.500000
O O5 0.500000 0.228322 0.750000
O O6 0.463061 0.029562 0.647869
O O7 0.617169 0.135230 0.630420
O O8 0.826915 0.644775 0.135719
O O9 0.809847 0.445565 0.226458
O O10 0.843500 0.430120 0.044462
O O11 0.714496 0.605871 0.865459
O O12 0.750000 0.750000 0.000000
O O13 0.250000 0.250000 0.500000
O O14 0.182227 0.398854 0.625850
#
# Coordination Sequence:
#
# PCOD8148151 Si02
#       6
#     8   8   8   8   8   8
#     4  11  23  40  62  92 126 161 205 257 315 373
#     4   9  19  40  63  88 116 160 207 259 303 367
#     4  10  23  39  63  90 121 164 214 252 305 370
#     4  12  22  40  64  91 125 165 204 253 313 368
#     4  11  23  40  63  90 127 164 204 256 313 364
#     4  11  22  39  65  90 122 163 210 254 307 371
#
# _framework density 20.168621000000002
#
# number of rings (size 3 to 8) (size 9 to 14) (size 15 to 20)
#    0.000    1.333    3.333    2.000    2.333    2.667 
#    3.000    1.667    0.000    0.000    0.000    0.000 
#    0.000    0.000    0.000    0.000    0.000    0.000 
#
# Total GULP energy -297350.905119 kJ/mol
# GULP energy per Si atom -12389.621047 kJ/mol
# Density = 2.012272 g / cm^3
# Si number density = 20.168621 Si / 1000 Ang^3
#
#
#
# Elastic Constant Matrix: (Units=GPa)
#
#
# Indices 1 2 3 4 5 6 
#
# 1 122.1457 34.5762 20.5461 0.0000 -16.0430 0.0000
# 2 34.5762 114.8311 23.8173 0.0000 0.4205 0.0000
# 3 20.5461 23.8173 71.7765 0.0000 -8.5337 0.0000
# 4 0.0000 0.0000 0.0000 20.4573 0.0000 -2.3793
# 5 -16.0430 0.4205 -8.5337 0.0000 22.5130 0.0000
# 6 0.0000 0.0000 0.0000 -2.3793 0.0000 38.0058
#
#
#
# Elastic Compliance Matrix: (Units=1/GPa)
#
#
# Indices 1 2 3 4 5 6 
#
# 1 0.010070 -0.002821 -0.001138 0.000000 0.006797 0.000000
# 2 -0.002821 0.010186 -0.002968 0.000000 -0.003325 0.000000
# 3 -0.001138 -0.002968 0.015868 0.000000 0.005259 0.000000
# 4 0.000000 0.000000 0.000000 0.049241 0.000000 0.003083
# 5 0.006797 -0.003325 0.005259 0.000000 0.051318 0.000000
# 6 0.000000 0.000000 0.000000 0.003083 0.000000 0.026505
#
#
# Mechanical properties :
#
#
# Convention : Reuss Voigt Hill
#
# Bulk Modulus (GPa) = 44.90448 51.84806 48.37627
# Shear Modulus (GPa) = 27.10561 31.51612 29.31086
#
# Velocity S-wave (km/s) = 3.66997 3.95730 3.81634
# Velocity P-wave (km/s) = 6.34595 6.82960 6.59221
#
# Compressibility (1/GPa) = 0.02226949
#
# Stress axis : x y z
#
# Youngs Moduli (GPa) = 99.30827 98.17859 63.01981
#
# Poissons Ratio (x) = 0.27694 0.07174
# Poissons Ratio (y) = 0.28013 0.18702
# Poissons Ratio (z) = 0.11305 0.29137
#
# Static dielectric constant tensor:
#      x y z
#    x 0.745910 0.000000 -0.676600 
#    y 0.000000 3.614460 0.000000 
#    z -0.676600 0.000000 3.239250 
# 
# 
# High freq. dielectric constant tensor:
#      x y z
#    x 1.796520 0.000000 -0.008950 
#    y 0.000000 1.777240 0.000000 
#    z -0.008950 0.000000 1.791110 
# 
# From -- ./inp_files/202994.got.cif
#   From: 2010.06.25/outbox.cif.g09.slc.cpg/sg15_102_cif.got.tgz:202994.got - 2010.06.28 07:06:18.
