data_PCOD8148626
_publ_section_title
;
Structure prediction by ZEFSAII (Michael W. Deem and Ramdas Pophale) SiO2 
 PCOD8148626
Probable space group: C 2/C
;
_chemical_formula_sum "Si O2"
_cell_formula_units_Z 52
_cell_length_a 6.526353
_cell_length_b 15.567429
_cell_length_c 27.758964
_cell_angle_alpha 90.000000
_cell_angle_beta 120.074195
_cell_angle_gamma 90.000000
_cell_volume 2440.597480
_symmetry_space_group_name_H-M "C 2/C"
_symmetry_group_IT_number 15
_symmetry_cell_setting 'monoclinic'
loop_
_space_group_symop_operation_xyz
x,y,z
-x,y,1/2-z
-x,-y,-z
x,-y,1/2+z
1/2+x,1/2+y,z
1/2-x,1/2+y,1/2-z
1/2-x,1/2-y,-z
1/2+x,1/2-y,1/2+z
loop_
_atom_site_type_symbol
_atom_site_label
_atom_site_fract_x
_atom_site_fract_y
_atom_site_fract_z
Si Si1 0.886057 0.978655 0.129575
Si Si2 0.753579 0.888673 0.790518
Si Si3 0.000000 0.768788 0.750000
Si Si4 0.579197 0.435219 0.968959
Si Si5 0.169557 0.182663 0.639142
Si Si6 0.752171 0.703558 0.108851
Si Si7 0.946840 0.628022 0.580931
O O1 0.619802 0.952780 0.115554
O O2 0.031936 0.891208 0.150860
O O3 0.866732 0.015964 0.073917
O O4 0.022916 0.046387 0.179764
O O5 0.500000 0.935342 0.750000
O O6 0.722175 0.832472 0.834548
O O7 0.798258 0.826712 0.750572
O O8 0.102384 0.708139 0.803516
O O9 0.364621 0.368118 0.938534
O O10 0.500000 0.500000 0.000000
O O11 0.819540 0.389897 0.014987
O O12 0.247169 0.142583 0.597594
O O13 0.003144 0.267619 0.614890
O O14 0.586286 0.785380 0.090210
#
# Coordination Sequence:
#
# PCOD8148626 Si02
#       7
#     8   8   4   8   8   8   8
#     4  10  25  43  63  93 132 166 216 271 325 393
#     4  11  23  43  65  93 126 168 217 269 328 394
#     4  12  24  40  66  92 124 172 210 266 332 386
#     4  11  22  42  66  94 131 173 212 270 325 384
#     4  11  23  42  65  95 127 170 218 270 321 393
#     4  10  23  42  65  93 129 169 217 263 321 396
#     4  11  22  43  65  95 128 170 215 264 326 392
#
# _framework density 21.306259000000001
#
# number of rings (size 3 to 8) (size 9 to 14) (size 15 to 20)
#    0.000    1.231    4.615    0.923    1.077    3.077 
#    2.769    0.000    0.000    0.000    0.000    0.000 
#    0.000    0.000    0.000    0.000    0.000    0.000 
#
# Total GULP energy -322357.477113 kJ/mol
# GULP energy per Si atom -12398.364504 kJ/mol
# Density = 2.125777 g / cm^3
# Si number density = 21.306259 Si / 1000 Ang^3
#
#
#
# Elastic Constant Matrix: (Units=GPa)
#
#
# Indices 1 2 3 4 5 6 
#
# 1 95.0667 35.7471 34.9064 0.0000 14.7728 0.0000
# 2 35.7471 98.1757 43.3055 0.0000 8.8497 0.0000
# 3 34.9064 43.3055 103.5155 0.0000 14.6099 0.0000
# 4 0.0000 0.0000 0.0000 42.8285 0.0000 18.7037
# 5 14.7728 8.8497 14.6099 0.0000 25.4931 0.0000
# 6 0.0000 0.0000 0.0000 18.7037 0.0000 49.4191
#
#
#
# Elastic Compliance Matrix: (Units=1/GPa)
#
#
# Indices 1 2 3 4 5 6 
#
# 1 0.013487 -0.003382 -0.002389 0.000000 -0.005272 0.000000
# 2 -0.003382 0.013389 -0.004441 0.000000 -0.000143 0.000000
# 3 -0.002389 -0.004441 0.012959 0.000000 -0.004501 0.000000
# 4 0.000000 0.000000 0.000000 0.027972 0.000000 -0.010587
# 5 -0.005272 -0.000143 -0.004501 0.000000 0.044911 0.000000
# 6 0.000000 0.000000 0.000000 -0.010587 0.000000 0.024242
#
#
# Mechanical properties :
#
#
# Convention : Reuss Voigt Hill
#
# Bulk Modulus (GPa) = 51.51459 58.29730 54.90594
# Shear Modulus (GPa) = 30.51513 35.73474 33.12493
#
# Velocity S-wave (km/s) = 3.78857 4.09980 3.94725
# Velocity P-wave (km/s) = 6.58546 7.05919 6.82643
#
# Compressibility (1/GPa) = 0.01941198
#
# Stress axis : x y z
#
# Youngs Moduli (GPa) = 74.14518 74.68911 77.16675
#
# Poissons Ratio (x) = 0.25258 0.18436
# Poissons Ratio (y) = 0.25074 0.34267
# Poissons Ratio (z) = 0.17714 0.33167
#
# Static dielectric constant tensor:
#      x y z
#    x 4.034730 0.000000 0.112260 
#    y 0.000000 4.014020 0.000000 
#    z 0.112260 0.000000 5.218290 
# 
# 
# High freq. dielectric constant tensor:
#      x y z
#    x 1.833580 0.000000 0.016850 
#    y 0.000000 1.843090 0.000000 
#    z 0.016850 0.000000 1.841750 
# 
# From -- ./inp_files/286158.got.cif
#   From: 2010.06.25/outbox.cif.g09.slc.cpg/sg15_144_cif.got.tgz:286158.got - 2010.06.28 07:06:18.
