data_PCOD8148501
_publ_section_title
;
Structure prediction by ZEFSAII (Michael W. Deem and Ramdas Pophale) SiO2 
 PCOD8148501
Probable space group: C 2/C
;
_chemical_formula_sum "Si O2"
_cell_formula_units_Z 36
_cell_length_a 12.930543
_cell_length_b 18.752622
_cell_length_c 9.709291
_cell_angle_alpha 90.000000
_cell_angle_beta 38.275706
_cell_angle_gamma 90.000000
_cell_volume 1458.377278
_symmetry_space_group_name_H-M "C 2/C"
_symmetry_group_IT_number 15
_symmetry_cell_setting 'monoclinic'
loop_
_space_group_symop_operation_xyz
x,y,z
-x,y,1/2-z
-x,-y,-z
x,-y,1/2+z
1/2+x,1/2+y,z
1/2-x,1/2+y,1/2-z
1/2-x,1/2-y,-z
1/2+x,1/2-y,1/2+z
loop_
_atom_site_type_symbol
_atom_site_label
_atom_site_fract_x
_atom_site_fract_y
_atom_site_fract_z
Si Si1 0.419359 0.842473 0.089773
Si Si2 0.275614 0.075036 0.501367
Si Si3 0.554645 0.422225 0.992377
Si Si4 0.056025 0.794816 0.542360
Si Si5 0.000000 0.555025 0.750000
O O1 0.411405 0.876092 0.942505
O O2 0.244960 0.818850 0.337673
O O3 0.532463 0.771540 0.961825
O O4 0.489947 0.900306 0.121458
O O5 0.235910 0.084964 0.379257
O O6 0.100079 0.096977 0.748950
O O7 0.335803 0.993429 0.450470
O O8 0.500000 0.500000 0.000000
O O9 0.562579 0.363045 0.864808
O O10 0.000000 0.766692 0.750000
#
# Coordination Sequence:
#
# PCOD8148501 Si02
#       5
#     8   8   8   8   4
#     4  11  25  42  66  95 130 171 213 268 321 381
#     4  10  23  42  62  97 127 168 217 262 322 378
#     4  10  23  41  68  93 128 173 211 264 321 388
#     4  11  24  42  65  96 128 168 215 264 321 386
#     4  12  24  42  64  98 132 166 216 268 322 380
#
# _framework density 24.68497
#
# number of rings (size 3 to 8) (size 9 to 14) (size 15 to 20)
#    0.000    1.333    1.111    4.000    6.222    2.667 
#    0.000    2.222    0.000    0.000    0.000    0.000 
#    0.000    0.000    0.000    0.000    0.000    0.000 
#
# Total GULP energy -223015.329890 kJ/mol
# GULP energy per Si atom -12389.740549 kJ/mol
# Density = 2.462879 g / cm^3
# Si number density = 24.684970 Si / 1000 Ang^3
#
#
#
# Elastic Constant Matrix: (Units=GPa)
#
#
# Indices 1 2 3 4 5 6 
#
# 1 172.9669 70.8191 11.1523 -0.0034 0.0853 0.0023
# 2 70.8191 167.3058 -2.5169 -0.0018 8.3768 0.0011
# 3 11.1523 -2.5169 23.3058 0.0001 11.1121 0.0002
# 4 -0.0034 -0.0018 0.0001 27.4155 0.0017 1.3008
# 5 0.0853 8.3768 11.1121 0.0017 26.0873 -0.0019
# 6 0.0023 0.0011 0.0002 1.3008 -0.0019 44.7506
#
#
#
# Elastic Compliance Matrix: (Units=1/GPa)
#
#
# Indices 1 2 3 4 5 6 
#
# 1 0.007562 -0.003461 -0.005660 0.000001 0.003498 0.000000
# 2 -0.003461 0.007733 0.004605 0.000000 -0.004434 0.000000
# 3 -0.005660 0.004605 0.058740 0.000001 -0.026481 -0.000001
# 4 0.000001 0.000000 0.000001 0.036526 -0.000003 -0.001062
# 5 0.003498 -0.004434 -0.026481 -0.000003 0.051025 0.000002
# 6 0.000000 0.000000 -0.000001 -0.001062 0.000002 0.022377
#
#
# Mechanical properties :
#
#
# Convention : Reuss Voigt Hill
#
# Bulk Modulus (GPa) = 15.38379 58.05417 36.71898
# Shear Modulus (GPa) = 23.29244 38.59227 30.94235
#
# Velocity S-wave (km/s) = 3.07512 3.95826 3.54431
# Velocity P-wave (km/s) = 4.34213 6.66780 5.62644
#
# Compressibility (1/GPa) = 0.06500350
#
# Stress axis : x y z
#
# Youngs Moduli (GPa) = 132.24438 129.30935 17.02428
#
# Poissons Ratio (x) = 0.44755 0.09636
# Poissons Ratio (y) = 0.45771 -0.07840
# Poissons Ratio (z) = 0.74849 -0.59551
#
# Static dielectric constant tensor:
#      x y z
#    x -1.576560 0.000030 4.568930 
#    y 0.000030 4.669330 -0.000030 
#    z 4.568930 -0.000030 1.032350 
# 
# 
# High freq. dielectric constant tensor:
#      x y z
#    x 2.005550 0.000000 -0.011300 
#    y 0.000000 1.984680 0.000000 
#    z -0.011300 0.000000 1.972250 
# 
# From -- ./inp_files/38780.got.cif
#   From: 2010.06.25/outbox.cif.g09.slc.cpg/sg15_20_cif.got.tgz:38780.got - 2010.06.28 07:06:18.
