data_PCOD8148593
_publ_section_title
;
Structure prediction by ZEFSAII (Michael W. Deem and Ramdas Pophale) SiO2 
 PCOD8148593
Probable space group: C 2/C
;
_chemical_formula_sum "Si O2"
_cell_formula_units_Z 56
_cell_length_a 27.470523
_cell_length_b 13.622236
_cell_length_c 9.464363
_cell_angle_alpha 90.000000
_cell_angle_beta 53.299727
_cell_angle_gamma 90.000000
_cell_volume 2839.605665
_symmetry_space_group_name_H-M "C 2/C"
_symmetry_group_IT_number 15
_symmetry_cell_setting 'monoclinic'
loop_
_space_group_symop_operation_xyz
x,y,z
-x,y,1/2-z
-x,-y,-z
x,-y,1/2+z
1/2+x,1/2+y,z
1/2-x,1/2+y,1/2-z
1/2-x,1/2-y,-z
1/2+x,1/2-y,1/2+z
loop_
_atom_site_type_symbol
_atom_site_label
_atom_site_fract_x
_atom_site_fract_y
_atom_site_fract_z
Si Si1 0.848594 0.894664 0.169291
Si Si2 0.530851 0.283810 0.551031
Si Si3 0.775498 0.289226 0.811166
Si Si4 0.392480 0.901022 0.675195
Si Si5 0.163678 0.091367 0.471833
Si Si6 0.946692 0.789573 0.453101
Si Si7 0.569029 0.922996 0.587458
O O1 0.807481 0.804240 0.181721
O O2 0.839381 0.914771 0.352538
O O3 0.827155 0.984804 0.111278
O O4 0.919299 0.869523 0.017806
O O5 0.500000 0.252317 0.750000
O O6 0.561006 0.189236 0.424954
O O7 0.475158 0.323153 0.552444
O O8 0.824945 0.373795 0.747306
O O9 0.719566 0.338961 0.824206
O O10 0.750000 0.250000 0.000000
O O11 0.389873 0.929119 0.844143
O O12 0.413103 0.993378 0.551175
O O13 0.102724 0.133232 0.510860
O O14 0.918584 0.680414 0.512106
O O15 0.000000 0.787489 0.250000
O O16 0.500000 0.939027 0.750000
#
# Coordination Sequence:
#
# PCOD8148593 Si02
#       7
#     8   8   8   8   8   8   8
#     4  10  23  42  64  90 118 157 201 246 298 357
#     4  11  23  39  61  87 124 160 199 248 300 355
#     4   9  21  43  65  82 121 163 199 242 303 357
#     4  11  22  37  60  90 122 163 203 245 301 357
#     4  11  23  41  66  89 119 158 201 248 297 356
#     4  11  21  40  60  86 124 162 197 242 306 362
#     4  11  21  35  59  90 126 161 200 246 297 360
#
# _framework density 19.721049000000001
#
# number of rings (size 3 to 8) (size 9 to 14) (size 15 to 20)
#    0.000    1.429    4.286    2.571    4.000    4.571 
#    0.000    0.714    0.000    0.000    0.000    0.000 
#    0.000    0.000    0.000    0.000    0.000    0.000 
#
# Total GULP energy -347176.303461 kJ/mol
# GULP energy per Si atom -12399.153695 kJ/mol
# Density = 1.967616 g / cm^3
# Si number density = 19.721049 Si / 1000 Ang^3
#
#
#
# Elastic Constant Matrix: (Units=GPa)
#
#
# Indices 1 2 3 4 5 6 
#
# 1 91.9618 45.2832 25.3916 0.0000 0.8974 0.0000
# 2 45.2832 108.9623 17.0372 0.0000 -6.4409 0.0000
# 3 25.3916 17.0372 48.1470 0.0000 2.2069 0.0000
# 4 0.0000 0.0000 0.0000 24.8374 0.0000 6.5002
# 5 0.8974 -6.4409 2.2069 0.0000 25.6269 0.0000
# 6 0.0000 0.0000 0.0000 6.5002 0.0000 33.4680
#
#
#
# Elastic Compliance Matrix: (Units=1/GPa)
#
#
# Indices 1 2 3 4 5 6 
#
# 1 0.015253 -0.005476 -0.006042 0.000000 -0.001390 0.000000
# 2 -0.005476 0.011878 -0.001467 0.000000 0.003303 0.000000
# 3 -0.006042 -0.001467 0.024579 0.000000 -0.002274 0.000000
# 4 0.000000 0.000000 0.000000 0.042418 0.000000 -0.008238
# 5 -0.001390 0.003303 -0.002274 0.000000 0.040096 0.000000
# 6 0.000000 0.000000 0.000000 -0.008238 0.000000 0.031479
#
#
# Mechanical properties :
#
#
# Convention : Reuss Voigt Hill
#
# Bulk Modulus (GPa) = 38.85019 47.16613 43.00816
# Shear Modulus (GPa) = 24.96839 27.54373 26.25606
#
# Velocity S-wave (km/s) = 3.56206 3.74125 3.65276
# Velocity P-wave (km/s) = 6.05478 6.52926 6.29649
#
# Compressibility (1/GPa) = 0.02573990
#
# Stress axis : x y z
#
# Youngs Moduli (GPa) = 65.56296 84.19019 40.68438
#
# Poissons Ratio (x) = 0.46104 0.24583
# Poissons Ratio (y) = 0.35903 0.05966
# Poissons Ratio (z) = 0.39615 0.12347
#
# Static dielectric constant tensor:
#      x y z
#    x 3.539970 0.000000 -0.211980 
#    y 0.000000 3.836080 0.000000 
#    z -0.211980 0.000000 3.472250 
# 
# 
# High freq. dielectric constant tensor:
#      x y z
#    x 1.774770 0.000000 -0.007450 
#    y 0.000000 1.773020 0.000000 
#    z -0.007450 0.000000 1.753910 
# 
# From -- ./inp_files/61838.got.cif
#   From: 2010.06.25/outbox.cif.g09.slc.cpg/sg15_31_cif.got.tgz:61838.got - 2010.06.28 07:06:18.
