data_PCOD8148761
_publ_section_title
;
Structure prediction by ZEFSAII (Michael W. Deem and Ramdas Pophale) SiO2 
 PCOD8148761
Probable space group: C 2/C
;
_chemical_formula_sum "Si O2"
_cell_formula_units_Z 36
_cell_length_a 24.379508
_cell_length_b 5.318024
_cell_length_c 14.296529
_cell_angle_alpha 90.000000
_cell_angle_beta 130.439038
_cell_angle_gamma 90.000000
_cell_volume 1410.735473
_symmetry_space_group_name_H-M "C 2/C"
_symmetry_group_IT_number 15
_symmetry_cell_setting 'monoclinic'
loop_
_space_group_symop_operation_xyz
x,y,z
-x,y,1/2-z
-x,-y,-z
x,-y,1/2+z
1/2+x,1/2+y,z
1/2-x,1/2+y,1/2-z
1/2-x,1/2-y,-z
1/2+x,1/2-y,1/2+z
loop_
_atom_site_type_symbol
_atom_site_label
_atom_site_fract_x
_atom_site_fract_y
_atom_site_fract_z
Si Si1 0.043025 0.764576 0.639232
Si Si2 0.000000 0.592475 0.250000
Si Si3 0.582514 0.370375 0.490814
Si Si4 0.312428 0.500706 0.162029
Si Si5 0.264804 0.497463 0.896329
O O1 0.045535 0.554150 0.721750
O O2 0.062810 0.677309 0.554634
O O3 0.101348 0.978082 0.731962
O O4 0.963401 0.877121 0.549444
O O5 0.936623 0.748621 0.130096
O O6 0.665204 0.454760 0.591052
O O7 0.288143 0.237864 0.181284
O O8 0.274418 0.739890 0.171807
O O9 0.291521 0.504549 0.031458
#
# Coordination Sequence:
#
# PCOD8148761 Si02
#       5
#     8   4   8   8   8
#     4  11  26  45  70 103 140 187 240 297 362 431
#     4  12  24  44  72 100 136 184 242 304 354 434
#     4  11  26  45  70 103 140 187 240 297 362 431
#     4  10  23  42  70 103 140 187 234 289 355 423
#     4  10  23  42  70 103 140 187 234 289 355 423
#
# _framework density 25.518605999999998
#
# number of rings (size 3 to 8) (size 9 to 14) (size 15 to 20)
#    0.000    1.333    0.000    4.000   15.556    1.778 
#    0.000    0.000    0.000    0.000    0.000    0.000 
#    0.000    0.000    0.000    0.000    0.000    0.000 
#
# Total GULP energy -223201.055633 kJ/mol
# GULP energy per Si atom -12400.058646 kJ/mol
# Density = 2.546052 g / cm^3
# Si number density = 25.518606 Si / 1000 Ang^3
#
#
#
# Elastic Constant Matrix: (Units=GPa)
#
#
# Indices 1 2 3 4 5 6 
#
# 1 113.3819 27.0190 12.7011 0.0000 -2.6527 -0.0001
# 2 27.0190 99.9743 13.1186 0.0000 -9.0189 0.0001
# 3 12.7011 13.1186 85.0148 -0.0001 -6.6465 -0.0001
# 4 0.0000 0.0000 -0.0001 21.4430 0.0000 -4.6507
# 5 -2.6527 -9.0189 -6.6465 0.0000 52.0322 0.0000
# 6 -0.0001 0.0001 -0.0001 -4.6507 0.0000 27.7415
#
#
#
# Elastic Compliance Matrix: (Units=1/GPa)
#
#
# Indices 1 2 3 4 5 6 
#
# 1 0.009517 -0.002441 -0.001051 0.000000 -0.000072 0.000000
# 2 -0.002441 0.010966 -0.001201 0.000000 0.001623 0.000000
# 3 -0.001051 -0.001201 0.012206 0.000000 0.001298 0.000000
# 4 0.000000 0.000000 0.000000 0.048395 0.000000 0.008113
# 5 -0.000072 0.001623 0.001298 0.000000 0.019662 0.000000
# 6 0.000000 0.000000 0.000000 0.008113 0.000000 0.037407
#
#
# Mechanical properties :
#
#
# Convention : Reuss Voigt Hill
#
# Bulk Modulus (GPa) = 42.90864 44.89427 43.90145
# Shear Modulus (GPa) = 32.19424 36.61218 34.40321
#
# Velocity S-wave (km/s) = 3.55575 3.79189 3.67572
# Velocity P-wave (km/s) = 5.80594 6.06648 5.93764
#
# Compressibility (1/GPa) = 0.02330533
#
# Stress axis : x y z
#
# Youngs Moduli (GPa) = 105.07045 91.18944 81.92446
#
# Poissons Ratio (x) = 0.22257 0.08609
# Poissons Ratio (y) = 0.25645 0.09836
# Poissons Ratio (z) = 0.11042 0.10949
#
# Static dielectric constant tensor:
#      x y z
#    x 4.666330 0.000000 -0.124560 
#    y 0.000000 4.486370 0.000000 
#    z -0.124560 0.000000 4.768770 
# 
# 
# High freq. dielectric constant tensor:
#      x y z
#    x 2.027570 0.000000 -0.005410 
#    y 0.000000 2.000670 0.000000 
#    z -0.005410 0.000000 2.035410 
# 
# From -- ./inp_files/175571.got.cif
#   From: 2010.06.25/outbox.cif.g09.slc.cpg/sg15_88_cif.got.tgz:175571.got - 2010.06.28 07:06:18.
