data_PCOD8148782
_publ_section_title
;
Structure prediction by ZEFSAII (Michael W. Deem and Ramdas Pophale) SiO2 
 PCOD8148782
Probable space group: C 2/C
;
_chemical_formula_sum "Si O2"
_cell_formula_units_Z 36
_cell_length_a 14.163152
_cell_length_b 20.664185
_cell_length_c 5.314794
_cell_angle_alpha 90.000000
_cell_angle_beta 112.363267
_cell_angle_gamma 90.000000
_cell_volume 1438.493255
_symmetry_space_group_name_H-M "C 2/C"
_symmetry_group_IT_number 15
_symmetry_cell_setting 'monoclinic'
loop_
_space_group_symop_operation_xyz
x,y,z
-x,y,1/2-z
-x,-y,-z
x,-y,1/2+z
1/2+x,1/2+y,z
1/2-x,1/2+y,1/2-z
1/2-x,1/2-y,-z
1/2+x,1/2-y,1/2+z
loop_
_atom_site_type_symbol
_atom_site_label
_atom_site_fract_x
_atom_site_fract_y
_atom_site_fract_z
Si Si1 0.107960 0.659301 0.763488
Si Si2 0.638538 0.764776 0.793405
Si Si3 0.889779 0.966950 0.988550
Si Si4 0.835918 0.478625 0.233141
Si Si5 0.000000 0.152722 0.750000
O O1 0.087319 0.697015 0.479221
O O2 0.183384 0.598600 0.789541
O O3 0.000000 0.631508 0.750000
O O4 0.152780 0.700544 0.039375
O O5 0.574834 0.699589 0.666516
O O6 0.750000 0.750000 0.000000
O O7 0.934540 0.008858 0.803202
O O8 0.767846 0.977894 0.866678
O O9 0.924745 0.891711 0.999844
O O10 0.897673 0.498763 0.546962
#
# Coordination Sequence:
#
# PCOD8148782 Si02
#       5
#     8   8   8   8   4
#     4  12  25  50  73 108 151 190 258 301 369 449
#     4  12  29  47  75 109 148 208 241 309 367 439
#     4  10  24  42  68 106 141 184 232 304 368 434
#     4  10  23  42  71 101 142 185 236 300 370 426
#     4  12  26  48  76 106 150 182 260 294 378 432
#
# _framework density 25.026188000000001
#
# number of rings (size 3 to 8) (size 9 to 14) (size 15 to 20)
#    0.000    0.889    2.222    2.667   12.444    4.444 
#    0.000    0.000    0.000    0.000    0.000    0.000 
#    0.000    0.000    0.000    0.000    0.000    0.000 
#
# Total GULP energy -223028.179553 kJ/mol
# GULP energy per Si atom -12390.454420 kJ/mol
# Density = 2.496923 g / cm^3
# Si number density = 25.026188 Si / 1000 Ang^3
#
#
#
# Elastic Constant Matrix: (Units=GPa)
#
#
# Indices 1 2 3 4 5 6 
#
# 1 57.3181 35.5812 21.8609 0.0000 0.9583 0.0000
# 2 35.5812 185.8665 64.2548 0.0000 -6.7238 0.0000
# 3 21.8609 64.2548 191.8528 0.0000 -39.1692 0.0000
# 4 0.0000 0.0000 0.0000 34.5298 0.0000 6.9473
# 5 0.9583 -6.7238 -39.1692 0.0000 46.2908 0.0000
# 6 0.0000 0.0000 0.0000 6.9473 0.0000 53.5888
#
#
#
# Elastic Compliance Matrix: (Units=1/GPa)
#
#
# Indices 1 2 3 4 5 6 
#
# 1 0.020211 -0.003386 -0.001638 0.000000 -0.002296 0.000000
# 2 -0.003386 0.006692 -0.001986 0.000000 -0.000638 0.000000
# 3 -0.001638 -0.001986 0.007267 0.000000 0.005895 0.000000
# 4 0.000000 0.000000 0.000000 0.029736 0.000000 -0.003855
# 5 -0.002296 -0.000638 0.005895 0.000000 0.026545 0.000000
# 6 0.000000 0.000000 0.000000 -0.003855 0.000000 0.019160
#
#
# Mechanical properties :
#
#
# Convention : Reuss Voigt Hill
#
# Bulk Modulus (GPa) = 49.62315 75.38124 62.50219
# Shear Modulus (GPa) = 38.35865 47.77125 43.06495
#
# Velocity S-wave (km/s) = 3.91927 4.37378 4.15275
# Velocity P-wave (km/s) = 6.35236 7.46277 6.92984
#
# Compressibility (1/GPa) = 0.02015189
#
# Stress axis : x y z
#
# Youngs Moduli (GPa) = 49.47692 149.43734 137.59926
#
# Poissons Ratio (x) = 0.50600 0.22535
# Poissons Ratio (y) = 0.16753 0.27322
# Poissons Ratio (z) = 0.08103 0.29673
#
# Static dielectric constant tensor:
#      x y z
#    x 5.449730 0.000000 -1.767230 
#    y 0.000000 4.436090 0.000000 
#    z -1.767230 0.000000 7.583000 
# 
# 
# High freq. dielectric constant tensor:
#      x y z
#    x 2.013740 0.000000 -0.000610 
#    y 0.000000 1.989570 0.000000 
#    z -0.000610 0.000000 2.016450 
# 
# From -- ./inp_files/9942.got.cif
#   From: 2010.06.25/outbox.cif.g09.slc.cpg/sg15_5_cif.got.tgz:9942.got - 2010.06.28 07:06:18.
