data_PCOD8148101
_publ_section_title
;
Structure prediction by ZEFSAII (Michael W. Deem and Ramdas Pophale) SiO2 
 PCOD8148101
Probable space group: C 2/C
;
_chemical_formula_sum "Si O2"
_cell_formula_units_Z 48
_cell_length_a 19.763103
_cell_length_b 17.770189
_cell_length_c 15.387935
_cell_angle_alpha 90.000000
_cell_angle_beta 27.081486
_cell_angle_gamma 90.000000
_cell_volume 2460.279084
_symmetry_space_group_name_H-M "C 2/C"
_symmetry_group_IT_number 15
_symmetry_cell_setting 'monoclinic'
loop_
_space_group_symop_operation_xyz
x,y,z
-x,y,1/2-z
-x,-y,-z
x,-y,1/2+z
1/2+x,1/2+y,z
1/2-x,1/2+y,1/2-z
1/2-x,1/2-y,-z
1/2+x,1/2-y,1/2+z
loop_
_atom_site_type_symbol
_atom_site_label
_atom_site_fract_x
_atom_site_fract_y
_atom_site_fract_z
Si Si1 0.637208 0.228112 0.841367
Si Si2 0.164776 0.264285 0.729375
Si Si3 0.619236 0.368936 0.738188
Si Si4 0.177991 0.490165 0.053060
Si Si5 0.659048 0.363850 0.096564
Si Si6 0.803679 0.118316 0.534345
O O1 0.753590 0.224688 0.785193
O O2 0.636537 0.309510 0.795647
O O3 0.677343 0.165153 0.726223
O O4 0.484213 0.202992 0.059210
O O5 0.257657 0.333146 0.583944
O O6 0.125812 0.203851 0.700281
O O7 0.737174 0.438317 0.616956
O O8 0.653091 0.335001 0.603161
O O9 0.447233 0.397151 0.931294
O O10 0.230348 0.461148 0.088825
O O11 0.000000 0.486089 0.250000
O O12 0.236279 0.575162 0.976118
O O13 0.500000 0.398675 0.250000
#
# Coordination Sequence:
#
# PCOD8148101 Si02
#       6
#     8   8   8   8   8   8
#     4  12  21  39  62 100 124 151 205 251 306 357
#     4  11  26  38  67  92 118 159 203 260 298 358
#     4   9  20  38  61  90 128 167 190 238 310 364
#     4  10  23  38  65  89 117 168 205 247 295 368
#     4  11  23  47  63  83 121 165 208 246 312 357
#     4   9  20  38  61  90 128 166 193 237 306 369
#
# _framework density 19.509982000000001
#
# number of rings (size 3 to 8) (size 9 to 14) (size 15 to 20)
#    1.000    0.667    3.333    1.500    4.667    0.000 
#    0.000    3.333    0.000    0.000    0.000    0.000 
#    0.000    0.000    0.000    0.000    0.000    0.000 
#
# Total GULP energy -297397.140118 kJ/mol
# GULP energy per Si atom -12391.547505 kJ/mol
# Density = 1.946558 g / cm^3
# Si number density = 19.509982 Si / 1000 Ang^3
#
#
#
# Elastic Constant Matrix: (Units=GPa)
#
#
# Indices 1 2 3 4 5 6 
#
# 1 54.8986 0.1875 30.0645 -0.0002 -8.2852 -0.0016
# 2 0.1875 67.2222 43.5849 0.0051 0.6264 -0.0060
# 3 30.0645 43.5849 157.7149 0.0087 -13.0927 -0.0116
# 4 -0.0002 0.0051 0.0087 21.0592 -0.0060 -11.7275
# 5 -8.2852 0.6264 -13.0927 -0.0060 39.6233 0.0085
# 6 -0.0016 -0.0060 -0.0116 -11.7275 0.0085 13.8367
#
#
#
# Elastic Compliance Matrix: (Units=1/GPa)
#
#
# Indices 1 2 3 4 5 6 
#
# 1 0.021153 0.002893 -0.004595 0.000002 0.002859 0.000000
# 2 0.002893 0.018674 -0.005847 0.000000 -0.001622 0.000005
# 3 -0.004595 -0.005847 0.009007 0.000000 0.002108 0.000003
# 4 0.000002 0.000000 0.000000 0.089932 -0.000002 0.076223
# 5 0.002859 -0.001622 0.002108 -0.000002 0.026558 -0.000017
# 6 0.000000 0.000005 0.000003 0.076223 -0.000017 0.136875
#
#
# Mechanical properties :
#
#
# Convention : Reuss Voigt Hill
#
# Bulk Modulus (GPa) = 29.63991 47.50103 38.57047
# Shear Modulus (GPa) = 15.21876 28.63710 21.92793
#
# Velocity S-wave (km/s) = 2.79597 3.83537 3.35615
# Velocity P-wave (km/s) = 5.06443 6.63425 5.90177
#
# Compressibility (1/GPa) = 0.03373829
#
# Stress axis : x y z
#
# Youngs Moduli (GPa) = 47.27420 53.55041 111.02268
#
# Poissons Ratio (x) = -0.15494 0.51010
# Poissons Ratio (y) = -0.13678 0.64913
# Poissons Ratio (z) = 0.21720 0.31310
#
# Static dielectric constant tensor:
#      x y z
#    x 3.397170 0.000000 0.015490 
#    y 0.000000 3.216180 0.000000 
#    z 0.015490 0.000000 3.583650 
# 
# 
# High freq. dielectric constant tensor:
#      x y z
#    x 1.750600 0.000000 -0.010960 
#    y 0.000000 1.732880 0.000000 
#    z -0.010960 0.000000 1.776040 
# 
# From -- ./inp_files/163199.got.cif
#   From: 2010.06.25/outbox.cif.g09.slc.cpg/sg15_82_cif.got.tgz:163199.got - 2010.06.28 07:06:18.
