data_PCOD8148499
_publ_section_title
;
Structure prediction by ZEFSAII (Michael W. Deem and Ramdas Pophale) SiO2 
 PCOD8148499
Probable space group: C 2/C
;
_chemical_formula_sum "Si O2"
_cell_formula_units_Z 48
_cell_length_a 20.907717
_cell_length_b 9.718048
_cell_length_c 13.379728
_cell_angle_alpha 90.000000
_cell_angle_beta 122.438656
_cell_angle_gamma 90.000000
_cell_volume 2294.341201
_symmetry_space_group_name_H-M "C 2/C"
_symmetry_group_IT_number 15
_symmetry_cell_setting 'monoclinic'
loop_
_space_group_symop_operation_xyz
x,y,z
-x,y,1/2-z
-x,-y,-z
x,-y,1/2+z
1/2+x,1/2+y,z
1/2-x,1/2+y,1/2-z
1/2-x,1/2-y,-z
1/2+x,1/2-y,1/2+z
loop_
_atom_site_type_symbol
_atom_site_label
_atom_site_fract_x
_atom_site_fract_y
_atom_site_fract_z
Si Si1 0.442950 0.552160 0.118362
Si Si2 0.217810 0.958296 0.937831
Si Si3 0.017524 0.240662 0.879737
Si Si4 0.767490 0.307931 0.173714
Si Si5 0.155383 0.416706 0.070231
Si Si6 0.107231 0.718082 0.071631
O O1 0.500000 0.604258 0.250000
O O2 0.365707 0.492368 0.102689
O O3 0.477146 0.421246 0.088289
O O4 0.433503 0.685264 0.042749
O O5 0.205723 0.839095 0.845107
O O6 0.267289 0.081605 0.930935
O O7 0.261006 0.908590 0.073710
O O8 0.000000 0.264915 0.750000
O O9 0.945839 0.302379 0.877677
O O10 0.095883 0.312086 0.974242
O O11 0.827364 0.370737 0.301628
O O12 0.687612 0.288707 0.165152
O O13 0.120253 0.568865 0.034882
#
# Coordination Sequence:
#
# PCOD8148499 Si02
#       6
#     8   8   8   8   8   8
#     4  10  23  41  68  90 128 177 207 265 317 387
#     4   9  21  42  62  96 127 162 221 254 317 382
#     4  11  26  42  60 100 134 164 211 272 323 375
#     4   9  21  40  67  91 128 167 207 268 313 382
#     4  11  24  40  72  95 125 174 208 274 321 373
#     4  10  23  45  63  97 128 168 218 256 319 391
#
# _framework density 20.921039
#
# number of rings (size 3 to 8) (size 9 to 14) (size 15 to 20)
#    0.000    2.000    0.000    2.000    9.333    6.667 
#    0.000    0.000    0.000    0.000    0.000    0.000 
#    0.000    0.000    0.000    0.000    0.000    0.000 
#
# Total GULP energy -297596.487257 kJ/mol
# GULP energy per Si atom -12399.853636 kJ/mol
# Density = 2.087342 g / cm^3
# Si number density = 20.921039 Si / 1000 Ang^3
#
#
#
# Elastic Constant Matrix: (Units=GPa)
#
#
# Indices 1 2 3 4 5 6 
#
# 1 81.5578 -3.5669 23.3525 0.0000 -13.3548 0.0000
# 2 -3.5669 67.7130 56.3995 0.0000 4.4623 0.0000
# 3 23.3525 56.3995 130.4623 0.0000 5.2943 0.0000
# 4 0.0000 0.0000 0.0000 11.6564 0.0000 4.2101
# 5 -13.3548 4.4623 5.2943 0.0000 23.4265 0.0000
# 6 0.0000 0.0000 0.0000 4.2101 0.0000 31.7868
#
#
#
# Elastic Compliance Matrix: (Units=1/GPa)
#
#
# Indices 1 2 3 4 5 6 
#
# 1 0.015374 0.004393 -0.005019 0.000000 0.009062 0.000000
# 2 0.004393 0.024442 -0.011370 0.000000 0.000418 0.000000
# 3 -0.005019 -0.011370 0.013632 0.000000 -0.003776 0.000000
# 4 0.000000 0.000000 0.000000 0.090100 0.000000 -0.011933
# 5 0.009062 0.000418 -0.003776 0.000000 0.048626 0.000000
# 6 0.000000 0.000000 0.000000 -0.011933 0.000000 0.033040
#
#
# Mechanical properties :
#
#
# Convention : Reuss Voigt Hill
#
# Bulk Modulus (GPa) = 33.94772 48.01146 40.97959
# Shear Modulus (GPa) = 19.30318 26.94381 23.12350
#
# Velocity S-wave (km/s) = 3.04084 3.59260 3.32817
# Velocity P-wave (km/s) = 5.34703 6.34096 5.86509
#
# Compressibility (1/GPa) = 0.02945706
#
# Stress axis : x y z
#
# Youngs Moduli (GPa) = 65.04379 40.91290 73.35771
#
# Poissons Ratio (x) = -0.17973 0.36817
# Poissons Ratio (y) = -0.28573 0.83406
# Poissons Ratio (z) = 0.32644 0.46517
#
# Static dielectric constant tensor:
#      x y z
#    x 4.022250 0.000000 0.012690 
#    y 0.000000 3.669580 0.000000 
#    z 0.012690 0.000000 3.592790 
# 
# 
# High freq. dielectric constant tensor:
#      x y z
#    x 1.831710 0.000000 0.001090 
#    y 0.000000 1.812820 0.000000 
#    z 0.001090 0.000000 1.814430 
# 
# From -- ./inp_files/111219.got.cif
#   From: 2010.06.25/outbox.cif.g09.slc.cpg/sg15_56_cif.got.tgz:111219.got - 2010.06.28 07:06:18.
