data_PCOD8148839
_publ_section_title
;
Structure prediction by ZEFSAII (Michael W. Deem and Ramdas Pophale) SiO2 
 PCOD8148839
Probable space group: C 2/C
;
_chemical_formula_sum "Si O2"
_cell_formula_units_Z 40
_cell_length_a 10.922303
_cell_length_b 13.379021
_cell_length_c 13.207034
_cell_angle_alpha 90.000000
_cell_angle_beta 83.914530
_cell_angle_gamma 90.000000
_cell_volume 1919.064714
_symmetry_space_group_name_H-M "C 2/C"
_symmetry_group_IT_number 15
_symmetry_cell_setting 'monoclinic'
loop_
_space_group_symop_operation_xyz
x,y,z
-x,y,1/2-z
-x,-y,-z
x,-y,1/2+z
1/2+x,1/2+y,z
1/2-x,1/2+y,1/2-z
1/2-x,1/2-y,-z
1/2+x,1/2-y,1/2+z
loop_
_atom_site_type_symbol
_atom_site_label
_atom_site_fract_x
_atom_site_fract_y
_atom_site_fract_z
Si Si1 0.648073 0.331972 0.032811
Si Si2 0.762792 0.638221 0.036677
Si Si3 0.997431 0.331036 0.867389
Si Si4 0.864927 0.998466 0.810013
Si Si5 0.264194 0.030090 0.381060
O O1 0.523177 0.270030 0.063592
O O2 0.672439 0.398704 0.130700
O O3 0.750000 0.250000 0.000000
O O4 0.647157 0.408023 0.937781
O O5 0.646146 0.595603 0.111097
O O6 0.877034 0.622455 0.102931
O O7 0.750000 0.750000 0.000000
O O8 0.780543 0.575912 0.933111
O O9 0.889772 0.411136 0.890702
O O10 0.000000 0.299012 0.750000
O O11 0.761193 0.987170 0.733653
O O12 0.000000 0.002629 0.750000
#
# Coordination Sequence:
#
# PCOD8148839 Si02
#       5
#     8   8   8   8   8
#     4   9  22  39  65  93 124 165 210 259 326 382
#     4  11  26  41  64  96 127 166 217 267 317 381
#     4  11  21  42  67  91 127 166 214 262 319 383
#     4  11  24  41  66  94 130 170 214 266 321 384
#     4  10  23  43  64  90 130 167 214 260 325 377
#
# _framework density 20.843488000000001
#
# number of rings (size 3 to 8) (size 9 to 14) (size 15 to 20)
#    0.000    1.600    2.000    1.200    8.400    1.600 
#    0.000    1.000    0.000    0.000    0.000    0.000 
#    0.000    0.000    0.000    0.000    0.000    0.000 
#
# Total GULP energy -247846.966635 kJ/mol
# GULP energy per Si atom -12392.348332 kJ/mol
# Density = 2.079605 g / cm^3
# Si number density = 20.843488 Si / 1000 Ang^3
#
#
#
# Elastic Constant Matrix: (Units=GPa)
#
#
# Indices 1 2 3 4 5 6 
#
# 1 68.7310 38.7841 33.2198 0.0000 -8.2127 0.0000
# 2 38.7841 150.0788 63.4366 0.0000 -16.6198 0.0000
# 3 33.2198 63.4366 116.2636 0.0000 -12.5907 0.0000
# 4 0.0000 0.0000 0.0000 40.0197 0.0000 -3.1460
# 5 -8.2127 -16.6198 -12.5907 0.0000 33.6500 0.0000
# 6 0.0000 0.0000 0.0000 -3.1460 0.0000 20.6819
#
#
#
# Elastic Compliance Matrix: (Units=1/GPa)
#
#
# Indices 1 2 3 4 5 6 
#
# 1 0.018089 -0.003097 -0.003300 0.000000 0.001650 0.000000
# 2 -0.003097 0.009417 -0.003993 0.000000 0.002401 0.000000
# 3 -0.003300 -0.003993 0.011905 0.000000 0.001677 0.000000
# 4 0.000000 0.000000 0.000000 0.025290 0.000000 0.003847
# 5 0.001650 0.002401 0.001677 0.000000 0.031934 0.000000
# 6 0.000000 0.000000 0.000000 0.003847 0.000000 0.048937
#
#
# Mechanical properties :
#
#
# Convention : Reuss Voigt Hill
#
# Bulk Modulus (GPa) = 53.67630 67.32827 60.50228
# Shear Modulus (GPa) = 28.97491 32.17916 30.57704
#
# Velocity S-wave (km/s) = 3.73247 3.93345 3.83428
# Velocity P-wave (km/s) = 6.66207 7.28020 6.97798
#
# Compressibility (1/GPa) = 0.01863020
#
# Stress axis : x y z
#
# Youngs Moduli (GPa) = 55.28110 106.18613 84.00145
#
# Poissons Ratio (x) = 0.32887 0.27721
# Poissons Ratio (y) = 0.17121 0.33546
# Poissons Ratio (z) = 0.18243 0.42405
#
# Static dielectric constant tensor:
#      x y z
#    x 3.783500 0.000000 -0.398380 
#    y 0.000000 3.959860 0.000000 
#    z -0.398380 0.000000 4.153870 
# 
# 
# High freq. dielectric constant tensor:
#      x y z
#    x 1.799060 0.000000 -0.014290 
#    y 0.000000 1.828890 0.000000 
#    z -0.014290 0.000000 1.831800 
# 
# From -- ./inp_files/85512.got.cif
#   From: 2010.06.25/outbox.cif.g09.slc.cpg/sg15_43_cif.got.tgz:85512.got - 2010.06.28 07:06:18.
