data_PCOD8148485
_publ_section_title
;
Structure prediction by ZEFSAII (Michael W. Deem and Ramdas Pophale) SiO2 
 PCOD8148485
Probable space group: C 2/C
;
_chemical_formula_sum "Si O2"
_cell_formula_units_Z 48
_cell_length_a 22.005611
_cell_length_b 15.065559
_cell_length_c 12.051060
_cell_angle_alpha 90.000000
_cell_angle_beta 142.687640
_cell_angle_gamma 90.000000
_cell_volume 2421.760528
_symmetry_space_group_name_H-M "C 2/C"
_symmetry_group_IT_number 15
_symmetry_cell_setting 'monoclinic'
loop_
_space_group_symop_operation_xyz
x,y,z
-x,y,1/2-z
-x,-y,-z
x,-y,1/2+z
1/2+x,1/2+y,z
1/2-x,1/2+y,1/2-z
1/2-x,1/2-y,-z
1/2+x,1/2-y,1/2+z
loop_
_atom_site_type_symbol
_atom_site_label
_atom_site_fract_x
_atom_site_fract_y
_atom_site_fract_z
Si Si1 0.807336 0.650459 0.701984
Si Si2 0.597558 0.285724 0.824881
Si Si3 0.255713 0.027810 0.012959
Si Si4 0.884762 0.659495 0.061563
Si Si5 0.889804 0.861646 0.053207
Si Si6 0.408394 0.564110 0.347824
O O1 0.695600 0.694523 0.543743
O O2 0.879598 0.712751 0.734897
O O3 0.812240 0.555113 0.649689
O O4 0.850183 0.636781 0.887065
O O5 0.500000 0.251991 0.750000
O O6 0.566545 0.378146 0.723557
O O7 0.187862 0.069872 0.009503
O O8 0.189735 0.995227 0.813411
O O9 0.329858 0.101400 0.073925
O O10 0.862746 0.762803 0.053420
O O11 0.000000 0.637928 0.250000
O O12 0.000000 0.890694 0.250000
O O13 0.885161 0.868428 0.913807
O O14 0.500000 0.500000 0.500000
#
# Coordination Sequence:
#
# PCOD8148485 Si02
#       6
#     8   8   8   8   8   8
#     4  10  23  45  62  95 131 162 224 264 306 400
#     4  10  23  41  67  94 127 171 205 264 332 376
#     4  11  24  39  67  93 126 175 215 261 319 384
#     4  11  25  45  63  90 135 172 215 267 319 378
#     4  11  22  40  62  97 131 161 210 269 333 381
#     4  11  22  37  65  99 129 160 208 270 324 384
#
# _framework density 19.820291000000001
#
# number of rings (size 3 to 8) (size 9 to 14) (size 15 to 20)
#    0.000    1.333    3.333    1.500    7.000    1.333 
#    3.000    0.000    0.000    0.000    0.000    0.000 
#    0.000    0.000    0.000    0.000    0.000    0.000 
#
# Total GULP energy -297651.317546 kJ/mol
# GULP energy per Si atom -12402.138231 kJ/mol
# Density = 1.977518 g / cm^3
# Si number density = 19.820291 Si / 1000 Ang^3
#
#
#
# Elastic Constant Matrix: (Units=GPa)
#
#
# Indices 1 2 3 4 5 6 
#
# 1 100.1836 38.8744 40.4586 0.0000 10.4743 0.0000
# 2 38.8744 96.7070 26.8193 0.0000 15.3919 0.0000
# 3 40.4586 26.8193 112.6412 0.0000 -4.5092 0.0000
# 4 0.0000 0.0000 0.0000 39.1515 0.0000 3.9954
# 5 10.4743 15.3919 -4.5092 0.0000 28.3016 0.0000
# 6 0.0000 0.0000 0.0000 3.9954 0.0000 42.1726
#
#
#
# Elastic Compliance Matrix: (Units=1/GPa)
#
#
# Indices 1 2 3 4 5 6 
#
# 1 0.013447 -0.003694 -0.004096 0.000000 -0.003621 0.000000
# 2 -0.003694 0.013409 -0.002117 0.000000 -0.006263 0.000000
# 3 -0.004096 -0.002117 0.011030 0.000000 0.004424 0.000000
# 4 0.000000 0.000000 0.000000 0.025791 0.000000 -0.002443
# 5 -0.003621 -0.006263 0.004424 0.000000 0.040785 0.000000
# 6 0.000000 0.000000 0.000000 -0.002443 0.000000 0.023944
#
#
# Mechanical properties :
#
#
# Convention : Reuss Voigt Hill
#
# Bulk Modulus (GPa) = 55.32587 57.98182 56.65384
# Shear Modulus (GPa) = 32.41658 35.48379 33.95018
#
# Velocity S-wave (km/s) = 4.04855 4.23576 4.14321
# Velocity P-wave (km/s) = 7.05894 7.29654 7.17872
#
# Compressibility (1/GPa) = 0.01807473
#
# Stress axis : x y z
#
# Youngs Moduli (GPa) = 74.36391 74.57654 90.66284
#
# Poissons Ratio (x) = 0.27545 0.37132
# Poissons Ratio (y) = 0.27467 0.19190
# Poissons Ratio (z) = 0.30456 0.15786
#
# Static dielectric constant tensor:
#      x y z
#    x 3.490290 0.000000 -0.173440 
#    y 0.000000 3.757400 0.000000 
#    z -0.173440 0.000000 4.043370 
# 
# 
# High freq. dielectric constant tensor:
#      x y z
#    x 1.765370 0.000000 -0.005090 
#    y 0.000000 1.787740 0.000000 
#    z -0.005090 0.000000 1.778700 
# 
# From -- ./inp_files/96826.got.cif
#   From: 2010.06.25/outbox.cif.g09.slc.cpg/sg15_49_cif.got.tgz:96826.got - 2010.06.28 07:06:18.
