data_PCOD8148913
_publ_section_title
;
Structure prediction by ZEFSAII (Michael W. Deem and Ramdas Pophale) SiO2 
 PCOD8148913
Probable space group: C 2/C
;
_chemical_formula_sum "Si O2"
_cell_formula_units_Z 40
_cell_length_a 7.401311
_cell_length_b 14.916319
_cell_length_c 27.421603
_cell_angle_alpha 90.000000
_cell_angle_beta 145.074246
_cell_angle_gamma 90.000000
_cell_volume 1733.203753
_symmetry_space_group_name_H-M "C 2/C"
_symmetry_group_IT_number 15
_symmetry_cell_setting 'monoclinic'
loop_
_space_group_symop_operation_xyz
x,y,z
-x,y,1/2-z
-x,-y,-z
x,-y,1/2+z
1/2+x,1/2+y,z
1/2-x,1/2+y,1/2-z
1/2-x,1/2-y,-z
1/2+x,1/2-y,1/2+z
loop_
_atom_site_type_symbol
_atom_site_label
_atom_site_fract_x
_atom_site_fract_y
_atom_site_fract_z
Si Si1 0.582460 0.906305 0.868455
Si Si2 0.072104 0.582082 0.817360
Si Si3 0.231233 0.354504 0.007537
Si Si4 0.678668 0.669042 0.447854
Si Si5 0.724169 0.265308 0.726284
O O1 0.603852 0.901927 0.930907
O O2 0.330790 0.833521 0.792652
O O3 0.925168 0.895231 0.917740
O O4 0.466437 0.007638 0.833239
O O5 0.000000 0.534075 0.750000
O O6 0.853684 0.669760 0.768055
O O7 0.432780 0.606959 0.904386
O O8 0.010470 0.376936 0.006082
O O9 0.250000 0.250000 0.000000
O O10 0.750000 0.750000 0.500000
O O11 0.570318 0.700323 0.370083
O O12 0.000000 0.248900 0.750000
#
# Coordination Sequence:
#
# PCOD8148913 Si02
#       5
#     8   8   8   8   8
#     4  11  25  47  68 100 143 180 236 288 342 418
#     4  12  25  44  67 102 140 180 237 291 345 417
#     4  12  23  43  73 102 135 186 229 286 349 415
#     4  11  22  41  71 100 134 183 228 277 356 413
#     4  10  23  43  67  93 138 183 226 289 348 412
#
# _framework density 23.078648999999999
#
# number of rings (size 3 to 8) (size 9 to 14) (size 15 to 20)
#    0.000    0.800    4.000    3.600    2.800    0.800 
#    7.200    0.000    0.000    0.000    0.000    0.000 
#    0.000    0.000    0.000    0.000    0.000    0.000 
#
# Total GULP energy -247968.874127 kJ/mol
# GULP energy per Si atom -12398.443706 kJ/mol
# Density = 2.302612 g / cm^3
# Si number density = 23.078649 Si / 1000 Ang^3
#
#
#
# Elastic Constant Matrix: (Units=GPa)
#
#
# Indices 1 2 3 4 5 6 
#
# 1 86.5980 30.3878 29.5026 -0.0006 -15.8227 0.0001
# 2 30.3878 125.6620 49.7362 -0.0003 6.0963 -0.0004
# 3 29.5026 49.7362 145.0315 -0.0016 -21.7782 -0.0024
# 4 -0.0006 -0.0003 -0.0016 26.7088 -0.0017 -11.3735
# 5 -15.8227 6.0963 -21.7782 -0.0017 34.2144 -0.0012
# 6 0.0001 -0.0004 -0.0024 -11.3735 -0.0012 19.8835
#
#
#
# Elastic Compliance Matrix: (Units=1/GPa)
#
#
# Indices 1 2 3 4 5 6 
#
# 1 0.014248 -0.003506 -0.000677 0.000001 0.006783 0.000001
# 2 -0.003506 0.010604 -0.003815 -0.000001 -0.005939 -0.000001
# 3 -0.000677 -0.003815 0.009284 0.000002 0.006276 0.000003
# 4 0.000001 -0.000001 0.000002 0.049497 0.000005 0.028313
# 5 0.006783 -0.005939 0.006276 0.000005 0.037417 0.000006
# 6 0.000001 -0.000001 0.000003 0.028313 0.000006 0.066488
#
#
# Mechanical properties :
#
#
# Convention : Reuss Voigt Hill
#
# Bulk Modulus (GPa) = 55.13339 64.06052 59.59696
# Shear Modulus (GPa) = 23.85701 32.67233 28.26467
#
# Velocity S-wave (km/s) = 3.21865 3.76665 3.50338
# Velocity P-wave (km/s) = 6.14444 6.83627 6.49957
#
# Compressibility (1/GPa) = 0.01813783
#
# Stress axis : x y z
#
# Youngs Moduli (GPa) = 70.18468 94.30508 107.71786
#
# Poissons Ratio (x) = 0.33068 0.07297
# Poissons Ratio (y) = 0.24610 0.41094
# Poissons Ratio (z) = 0.04754 0.35977
#
# Static dielectric constant tensor:
#      x y z
#    x 4.382500 0.000000 0.247740 
#    y 0.000000 4.176960 -0.000010 
#    z 0.247740 -0.000010 6.492230 
# 
# 
# High freq. dielectric constant tensor:
#      x y z
#    x 1.915920 0.000000 -0.003540 
#    y 0.000000 1.901970 0.000000 
#    z -0.003540 0.000000 1.931590 
# 
# From -- ./inp_files/264526.got.cif
#   From: 2010.06.25/outbox.cif.g09.slc.cpg/sg15_133_cif.got.tgz:264526.got - 2010.06.28 07:06:18.
