data_PCOD8148408
_publ_section_title
;
Structure prediction by ZEFSAII (Michael W. Deem and Ramdas Pophale) SiO2 
 PCOD8148408
Probable space group: C 2/C
;
_chemical_formula_sum "Si O2"
_cell_formula_units_Z 32
_cell_length_a 14.612299
_cell_length_b 16.997897
_cell_length_c 8.844216
_cell_angle_alpha 90.000000
_cell_angle_beta 33.411196
_cell_angle_gamma 90.000000
_cell_volume 1209.605879
_symmetry_space_group_name_H-M "C 2/C"
_symmetry_group_IT_number 15
_symmetry_cell_setting 'monoclinic'
loop_
_space_group_symop_operation_xyz
x,y,z
-x,y,1/2-z
-x,-y,-z
x,-y,1/2+z
1/2+x,1/2+y,z
1/2-x,1/2+y,1/2-z
1/2-x,1/2-y,-z
1/2+x,1/2-y,1/2+z
loop_
_atom_site_type_symbol
_atom_site_label
_atom_site_fract_x
_atom_site_fract_y
_atom_site_fract_z
Si Si1 0.699966 0.171648 0.653497
Si Si2 0.903797 0.381038 0.737698
Si Si3 0.762767 0.060215 0.309268
Si Si4 0.881926 0.884991 0.179965
O O1 0.750000 0.250000 0.500000
O O2 0.667660 0.101947 0.578578
O O3 0.852264 0.149015 0.553679
O O4 0.528044 0.182310 0.987009
O O5 0.851339 0.444785 0.683155
O O6 0.000000 0.420950 0.750000
O O7 0.734662 0.339645 0.035700
O O8 0.817033 0.974565 0.283912
O O9 0.923766 0.115905 0.050332
#
# Coordination Sequence:
#
# PCOD8148408 Si02
#       4
#     8   8   8   8
#     4  11  25  44  67 100 141 183 231 291 356 421
#     4  10  23  41  63  96 135 177 229 280 341 416
#     4  11  22  41  71 103 138 183 230 287 352 424
#     4  10  23  43  69 102 139 179 233 291 352 424
#
# _framework density 26.454898
#
# number of rings (size 3 to 8) (size 9 to 14) (size 15 to 20)
#    0.000    1.500    0.000    3.750    0.000   19.000 
#    0.000   13.750    0.000    0.000    0.000    0.000 
#    0.000    0.000    0.000    0.000    0.000    0.000 
#
# Total GULP energy -198277.018086 kJ/mol
# GULP energy per Si atom -12392.313630 kJ/mol
# Density = 2.639469 g / cm^3
# Si number density = 26.454898 Si / 1000 Ang^3
#
#
#
# Elastic Constant Matrix: (Units=GPa)
#
#
# Indices 1 2 3 4 5 6 
#
# 1 166.0362 26.6571 45.7040 0.0013 15.5892 -0.0003
# 2 26.6571 81.5751 27.5924 -0.0007 19.6942 0.0006
# 3 45.7040 27.5924 189.0728 0.0000 0.4458 -0.0014
# 4 0.0013 -0.0007 0.0000 31.3656 -0.0005 10.9565
# 5 15.5892 19.6942 0.4458 -0.0005 43.8352 0.0006
# 6 -0.0003 0.0006 -0.0014 10.9565 0.0006 33.6554
#
#
#
# Elastic Compliance Matrix: (Units=1/GPa)
#
#
# Indices 1 2 3 4 5 6 
#
# 1 0.006801 -0.001291 -0.001451 0.000000 -0.001824 0.000000
# 2 -0.001291 0.014789 -0.001832 0.000000 -0.006166 0.000000
# 3 -0.001451 -0.001832 0.005904 0.000000 0.001279 0.000000
# 4 0.000000 0.000000 0.000000 0.035973 0.000001 -0.011711
# 5 -0.001824 -0.006166 0.001279 0.000001 0.026219 0.000000
# 6 0.000000 0.000000 0.000000 -0.011711 0.000000 0.033525
#
#
# Mechanical properties :
#
#
# Convention : Reuss Voigt Hill
#
# Bulk Modulus (GPa) = 54.50861 70.73235 62.62048
# Shear Modulus (GPa) = 36.10792 44.21995 40.16393
#
# Velocity S-wave (km/s) = 3.69844 4.09286 3.90064
# Velocity P-wave (km/s) = 6.23595 7.00930 6.63391
#
# Compressibility (1/GPa) = 0.01834572
#
# Stress axis : x y z
#
# Youngs Moduli (GPa) = 147.04195 67.61854 169.37566
#
# Poissons Ratio (x) = 0.08731 0.24580
# Poissons Ratio (y) = 0.18986 0.31022
# Poissons Ratio (z) = 0.21339 0.12385
#
# Static dielectric constant tensor:
#      x y z
#    x 5.599280 -0.000010 -0.389260 
#    y -0.000010 4.114530 0.000010 
#    z -0.389260 0.000010 5.835440 
# 
# 
# High freq. dielectric constant tensor:
#      x y z
#    x 2.071000 0.000000 0.000510 
#    y 0.000000 2.001610 0.000000 
#    z 0.000510 0.000000 2.098190 
# 
# From -- ./inp_files/40097.got.cif
#   From: 2010.06.25/outbox.cif.g09.slc.cpg/sg15_21_cif.got.tgz:40097.got - 2010.06.28 07:06:18.
