data_PCOD8148091
_publ_section_title
;
Structure prediction by ZEFSAII (Michael W. Deem and Ramdas Pophale) SiO2 
 PCOD8148091
Probable space group: C 2/C
;
_chemical_formula_sum "Si O2"
_cell_formula_units_Z 48
_cell_length_a 24.701408
_cell_length_b 9.546667
_cell_length_c 13.476557
_cell_angle_alpha 90.000000
_cell_angle_beta 45.198311
_cell_angle_gamma 90.000000
_cell_volume 2254.942222
_symmetry_space_group_name_H-M "C 2/C"
_symmetry_group_IT_number 15
_symmetry_cell_setting 'monoclinic'
loop_
_space_group_symop_operation_xyz
x,y,z
-x,y,1/2-z
-x,-y,-z
x,-y,1/2+z
1/2+x,1/2+y,z
1/2-x,1/2+y,1/2-z
1/2-x,1/2-y,-z
1/2+x,1/2-y,1/2+z
loop_
_atom_site_type_symbol
_atom_site_label
_atom_site_fract_x
_atom_site_fract_y
_atom_site_fract_z
Si Si1 0.303250 0.926952 0.723017
Si Si2 0.500000 0.932086 0.250000
Si Si3 0.000000 0.965779 0.750000
Si Si4 0.996223 0.818528 0.092468
Si Si5 0.876513 0.383608 0.831308
Si Si6 0.833211 0.727395 0.585092
Si Si7 0.066529 0.233305 0.026145
O O1 0.322032 0.945176 0.816090
O O2 0.220097 0.858511 0.817416
O O3 0.355495 0.808845 0.603011
O O4 0.306740 0.080249 0.668969
O O5 0.504128 0.847086 0.141373
O O6 0.581986 0.006990 0.149312
O O7 0.968308 0.060569 0.702297
O O8 0.071435 0.874045 0.614131
O O9 0.947999 0.683267 0.183183
O O10 0.083999 0.775121 0.985232
O O11 0.970937 0.858404 0.013873
O O12 0.829848 0.286907 0.969076
#
# Coordination Sequence:
#
# PCOD8148091 Si02
#       7
#     8   4   4   8   8   8   8
#     4  11  26  40  64  90 131 167 206 256 316 377
#     4  11  17  38  70  92 119 149 220 266 305 357
#     4  11  21  38  64  94 125 157 206 268 313 365
#     4  11  21  40  65  90 121 165 214 257 312 367
#     4  11  20  41  67  91 114 164 212 260 309 370
#     4  12  23  43  61  92 129 168 207 256 314 374
#     4  10  23  38  63  95 122 161 210 265 311 365
#
# _framework density 21.286574999999999
#
# number of rings (size 3 to 8) (size 9 to 14) (size 15 to 20)
#    0.000    1.000    5.000    2.000    2.333    2.667 
#    0.000    0.833    0.000    0.000    0.000    0.000 
#    0.000    0.000    0.000    0.000    0.000    0.000 
#
# Total GULP energy -297327.723263 kJ/mol
# GULP energy per Si atom -12388.655136 kJ/mol
# Density = 2.123813 g / cm^3
# Si number density = 21.286575 Si / 1000 Ang^3
#
#
#
# Elastic Constant Matrix: (Units=GPa)
#
#
# Indices 1 2 3 4 5 6 
#
# 1 92.5212 38.5354 47.7725 0.0000 6.2802 0.0000
# 2 38.5354 83.0500 31.3133 0.0000 0.8318 0.0000
# 3 47.7725 31.3133 97.3167 0.0000 9.3579 0.0000
# 4 0.0000 0.0000 0.0000 41.8039 0.0000 9.1375
# 5 6.2802 0.8318 9.3579 0.0000 29.3185 0.0000
# 6 0.0000 0.0000 0.0000 9.1375 0.0000 26.9412
#
#
#
# Elastic Compliance Matrix: (Units=1/GPa)
#
#
# Indices 1 2 3 4 5 6 
#
# 1 0.016256 -0.005201 -0.006175 0.000000 -0.001363 0.000000
# 2 -0.005201 0.015399 -0.002545 0.000000 0.001489 0.000000
# 3 -0.006175 -0.002545 0.014435 0.000000 -0.003212 0.000000
# 4 0.000000 0.000000 0.000000 0.025837 0.000000 -0.008763
# 5 -0.001363 0.001489 -0.003212 0.000000 0.035383 0.000000
# 6 0.000000 0.000000 0.000000 -0.008763 0.000000 0.040090
#
#
# Mechanical properties :
#
#
# Convention : Reuss Voigt Hill
#
# Bulk Modulus (GPa) = 54.80267 56.45893 55.63080
# Shear Modulus (GPa) = 27.57504 29.96382 28.76943
#
# Velocity S-wave (km/s) = 3.60310 3.75592 3.68030
# Velocity P-wave (km/s) = 6.56588 6.73722 6.65210
#
# Compressibility (1/GPa) = 0.01824728
#
# Stress axis : x y z
#
# Youngs Moduli (GPa) = 61.51756 64.94056 69.27620
#
# Poissons Ratio (x) = 0.33773 0.42780
# Poissons Ratio (y) = 0.31993 0.17631
# Poissons Ratio (z) = 0.37989 0.16528
#
# Static dielectric constant tensor:
#      x y z
#    x 3.805190 0.000000 0.358400 
#    y 0.000000 3.979250 0.000000 
#    z 0.358400 0.000000 4.094710 
# 
# 
# High freq. dielectric constant tensor:
#      x y z
#    x 1.812360 0.000000 0.024190 
#    y 0.000000 1.839630 0.000000 
#    z 0.024190 0.000000 1.849500 
# 
# From -- ./inp_files/166441.got.cif
#   From: 2010.06.25/outbox.cif.g09.slc.cpg/sg15_84_cif.got.tgz:166441.got - 2010.06.28 07:06:18.
