data_PCOD8148943
_publ_section_title
;
Structure prediction by ZEFSAII (Michael W. Deem and Ramdas Pophale) SiO2 
 PCOD8148943
Probable space group: C 2/C
;
_chemical_formula_sum "Si O2"
_cell_formula_units_Z 24
_cell_length_a 5.005790
_cell_length_b 23.364360
_cell_length_c 8.181895
_cell_angle_alpha 90.000000
_cell_angle_beta 93.097109
_cell_angle_gamma 90.000000
_cell_volume 955.532850
_symmetry_space_group_name_H-M "C 2/C"
_symmetry_group_IT_number 15
_symmetry_cell_setting 'monoclinic'
loop_
_space_group_symop_operation_xyz
x,y,z
-x,y,1/2-z
-x,-y,-z
x,-y,1/2+z
1/2+x,1/2+y,z
1/2-x,1/2+y,1/2-z
1/2-x,1/2-y,-z
1/2+x,1/2-y,1/2+z
loop_
_atom_site_type_symbol
_atom_site_label
_atom_site_fract_x
_atom_site_fract_y
_atom_site_fract_z
Si Si1 0.408976 0.591092 0.068609
Si Si2 0.733615 0.025704 0.639617
Si Si3 0.760241 0.799124 0.366696
O O1 0.500000 0.612717 0.250000
O O2 0.186190 0.538083 0.057835
O O3 0.688042 0.573201 0.990789
O O4 0.275313 0.641188 0.962406
O O5 0.500000 0.047484 0.750000
O O6 0.000000 0.011662 0.750000
O O7 0.500000 0.798722 0.250000
O O8 0.750000 0.750000 0.500000
O O9 0.000000 0.788980 0.250000
#
# Coordination Sequence:
#
# PCOD8148943 Si02
#       3
#     8   8   8
#     4  10  24  44  72 107 148 192 243 301 359 426
#     4  10  23  43  68 103 148 199 245 287 351 430
#     4  12  28  51  78 107 143 188 245 306 369 436
#
# _framework density 25.116873999999999
#
# number of rings (size 3 to 8) (size 9 to 14) (size 15 to 20)
#    0.000    1.333    0.000    3.000    0.000   25.333 
#    0.000    0.000    0.000    0.000    0.000    0.000 
#    0.000    0.000    0.000    0.000    0.000    0.000 
#
# Total GULP energy -148818.997550 kJ/mol
# GULP energy per Si atom -12401.583129 kJ/mol
# Density = 2.505971 g / cm^3
# Si number density = 25.116874 Si / 1000 Ang^3
#
#
#
# Elastic Constant Matrix: (Units=GPa)
#
#
# Indices 1 2 3 4 5 6 
#
# 1 151.0673 65.8204 85.5451 0.0000 -29.8178 0.0000
# 2 65.8204 173.3866 98.3537 0.0000 1.8647 0.0000
# 3 85.5451 98.3537 216.9432 0.0000 -10.2745 0.0000
# 4 0.0000 0.0000 0.0000 44.3950 0.0000 -0.0297
# 5 -29.8178 1.8647 -10.2745 0.0000 54.9762 0.0000
# 6 0.0000 0.0000 0.0000 -0.0297 0.0000 27.6583
#
#
#
# Elastic Compliance Matrix: (Units=1/GPa)
#
#
# Indices 1 2 3 4 5 6 
#
# 1 0.010197 -0.002399 -0.002691 0.000000 0.005109 0.000000
# 2 -0.002399 0.008376 -0.002952 0.000000 -0.002137 0.000000
# 3 -0.002691 -0.002952 0.007007 0.000000 -0.000050 0.000000
# 4 0.000000 0.000000 0.000000 0.022525 0.000000 0.000024
# 5 0.005109 -0.002137 -0.000050 0.000000 0.021024 0.000000
# 6 0.000000 0.000000 0.000000 0.000024 0.000000 0.036155
#
#
# Mechanical properties :
#
#
# Convention : Reuss Voigt Hill
#
# Bulk Modulus (GPa) = 105.32880 115.64837 110.48858
# Shear Modulus (GPa) = 40.14897 44.85109 42.50003
#
# Velocity S-wave (km/s) = 4.00244 4.23033 4.11797
# Velocity P-wave (km/s) = 7.96153 8.36690 8.16673
#
# Compressibility (1/GPa) = 0.00949408
#
# Stress axis : x y z
#
# Youngs Moduli (GPa) = 98.06337 119.38716 142.71659
#
# Poissons Ratio (x) = 0.28646 0.38409
# Poissons Ratio (y) = 0.23530 0.42137
# Poissons Ratio (z) = 0.26392 0.35249
#
# Static dielectric constant tensor:
#      x y z
#    x 4.317210 0.000000 0.004580 
#    y 0.000000 4.617690 0.000000 
#    z 0.004580 0.000000 5.336680 
# 
# 
# High freq. dielectric constant tensor:
#      x y z
#    x 2.017400 0.000000 0.009960 
#    y 0.000000 1.986100 0.000000 
#    z 0.009960 0.000000 2.048450 
# 
# From -- ./inp_files/19518.got.cif
#   From: 2010.06.25/outbox.cif.g09.slc.cpg/sg15_10_cif.got.tgz:19518.got - 2010.06.28 07:06:18.
