data_PCOD8148718
_publ_section_title
;
Structure prediction by ZEFSAII (Michael W. Deem and Ramdas Pophale) SiO2 
 PCOD8148718
Probable space group: C 2/C
;
_chemical_formula_sum "Si O2"
_cell_formula_units_Z 40
_cell_length_a 16.207593
_cell_length_b 13.571010
_cell_length_c 19.679721
_cell_angle_alpha 90.000000
_cell_angle_beta 154.289320
_cell_angle_gamma 90.000000
_cell_volume 1877.873124
_symmetry_space_group_name_H-M "C 2/C"
_symmetry_group_IT_number 15
_symmetry_cell_setting 'monoclinic'
loop_
_space_group_symop_operation_xyz
x,y,z
-x,y,1/2-z
-x,-y,-z
x,-y,1/2+z
1/2+x,1/2+y,z
1/2-x,1/2+y,1/2-z
1/2-x,1/2-y,-z
1/2+x,1/2-y,1/2+z
loop_
_atom_site_type_symbol
_atom_site_label
_atom_site_fract_x
_atom_site_fract_y
_atom_site_fract_z
Si Si1 0.992928 0.541617 0.168919
Si Si2 0.287523 0.310669 0.094884
Si Si3 0.090717 0.321795 0.413434
Si Si4 0.304475 0.336233 0.852781
Si Si5 0.187002 0.748325 0.124102
O O1 0.902966 0.433234 0.108131
O O2 0.000000 0.587716 0.250000
O O3 0.211279 0.557806 0.304002
O O4 0.859373 0.599178 0.016851
O O5 0.500000 0.354169 0.250000
O O6 0.260483 0.248864 0.143459
O O7 0.250000 0.250000 0.000000
O O8 0.250000 0.250000 0.500000
O O9 0.100061 0.323924 0.502299
O O10 0.881965 0.286921 0.236239
O O11 0.218790 0.311149 0.715938
O O12 0.534875 0.338159 0.022318
#
# Coordination Sequence:
#
# PCOD8148718 Si02
#       5
#     8   8   8   8   8
#     4  12  24  39  69 101 131 178 220 266 328 400
#     4  12  20  37  63  96 139 170 205 262 324 398
#     4  11  25  47  68  89 129 178 235 273 316 391
#     4  11  20  39  64  98 135 165 211 267 342 392
#     4  10  23  42  68  90 132 177 207 288 330 375
#
# _framework density 21.300692000000002
#
# number of rings (size 3 to 8) (size 9 to 14) (size 15 to 20)
#    0.000    0.800    6.000    1.800    0.000    3.200 
#    0.000    0.000    0.000    0.000    0.000    0.000 
#    0.000    0.000    0.000    0.000    0.000    0.000 
#
# Total GULP energy -247825.350476 kJ/mol
# GULP energy per Si atom -12391.267524 kJ/mol
# Density = 2.125221 g / cm^3
# Si number density = 21.300692 Si / 1000 Ang^3
#
#
#
# Elastic Constant Matrix: (Units=GPa)
#
#
# Indices 1 2 3 4 5 6 
#
# 1 93.2225 28.5674 44.4208 -0.0047 14.7246 -0.0012
# 2 28.5674 90.3620 26.6993 0.0166 18.2581 0.0031
# 3 44.4208 26.6993 119.4550 0.0212 26.6887 0.0053
# 4 -0.0047 0.0166 0.0212 28.9992 0.0062 6.7879
# 5 14.7246 18.2581 26.6887 0.0062 58.8633 -0.0004
# 6 -0.0012 0.0031 0.0053 6.7879 -0.0004 24.3515
#
#
#
# Elastic Compliance Matrix: (Units=1/GPa)
#
#
# Indices 1 2 3 4 5 6 
#
# 1 0.013793 -0.002964 -0.004341 0.000007 -0.000563 0.000000
# 2 -0.002964 0.012901 -0.001172 -0.000006 -0.002729 0.000000
# 3 -0.004341 -0.001172 0.011042 -0.000007 -0.003557 -0.000001
# 4 0.000007 -0.000006 -0.000007 0.036891 0.000000 -0.010283
# 5 -0.000563 -0.002729 -0.003557 0.000000 0.019589 0.000002
# 6 0.000000 0.000000 -0.000001 -0.010283 0.000002 0.043932
#
#
# Mechanical properties :
#
#
# Convention : Reuss Voigt Hill
#
# Bulk Modulus (GPa) = 48.11606 55.82383 51.96995
# Shear Modulus (GPa) = 30.85892 35.99960 33.42926
#
# Velocity S-wave (km/s) = 3.81035 4.11550 3.96586
# Velocity P-wave (km/s) = 6.48046 6.98910 6.73958
#
# Compressibility (1/GPa) = 0.02078308
#
# Stress axis : x y z
#
# Youngs Moduli (GPa) = 72.50247 77.51161 90.56222
#
# Poissons Ratio (x) = 0.22976 0.39310
# Poissons Ratio (y) = 0.21491 0.10610
# Poissons Ratio (z) = 0.31471 0.09081
#
# Static dielectric constant tensor:
#      x y z
#    x 4.123690 0.000020 0.113350 
#    y 0.000020 3.588200 -0.000530 
#    z 0.113350 -0.000530 4.998460 
# 
# 
# High freq. dielectric constant tensor:
#      x y z
#    x 1.852400 0.000000 -0.004930 
#    y 0.000000 1.790320 0.000000 
#    z -0.004930 0.000000 1.863190 
# 
# From -- ./inp_files/46112.got.cif
#   From: 2010.06.25/outbox.cif.g09.slc.cpg/sg15_24_cif.got.tgz:46112.got - 2010.06.28 07:06:18.
