data_PCOD8148296
_publ_section_title
;
Structure prediction by ZEFSAII (Michael W. Deem and Ramdas Pophale) SiO2 
 PCOD8148296
Probable space group: C 2/C
;
_chemical_formula_sum "Si O2"
_cell_formula_units_Z 56
_cell_length_a 21.132652
_cell_length_b 22.926513
_cell_length_c 13.119308
_cell_angle_alpha 90.000000
_cell_angle_beta 155.136220
_cell_angle_gamma 90.000000
_cell_volume 2672.575803
_symmetry_space_group_name_H-M "C 2/C"
_symmetry_group_IT_number 15
_symmetry_cell_setting 'monoclinic'
loop_
_space_group_symop_operation_xyz
x,y,z
-x,y,1/2-z
-x,-y,-z
x,-y,1/2+z
1/2+x,1/2+y,z
1/2-x,1/2+y,1/2-z
1/2-x,1/2-y,-z
1/2+x,1/2-y,1/2+z
loop_
_atom_site_type_symbol
_atom_site_label
_atom_site_fract_x
_atom_site_fract_y
_atom_site_fract_z
Si Si1 0.288612 0.641750 0.309485
Si Si2 0.377548 0.817567 0.735755
Si Si3 0.319840 0.235721 0.493312
Si Si4 0.415769 0.685378 0.814256
Si Si5 0.937638 0.545441 0.548587
Si Si6 0.902001 0.580451 0.917394
Si Si7 0.623442 0.347538 0.018056
O O1 0.207778 0.674393 0.283095
O O2 0.470068 0.645756 0.587767
O O3 0.225961 0.575731 0.207676
O O4 0.253844 0.676804 0.154959
O O5 0.454334 0.753763 0.852010
O O6 0.257237 0.824982 0.468766
O O7 0.501135 0.866701 0.894684
O O8 0.500000 0.228489 0.750000
O O9 0.250000 0.250000 0.500000
O O10 0.274079 0.291132 0.357444
O O11 0.447888 0.663885 0.975844
O O12 0.925265 0.476261 0.520557
O O13 0.054951 0.569673 0.637137
O O14 0.000000 0.562438 0.750000
O O15 0.726369 0.595144 0.667471
O O16 0.500000 0.356239 0.750000
#
# Coordination Sequence:
#
# PCOD8148296 Si02
#       7
#     8   8   8   8   8   8   8
#     4  11  21  40  62  93 130 165 218 270 314 390
#     4  10  23  40  66  93 132 172 211 257 326 395
#     4  11  23  35  61  96 134 170 204 264 338 400
#     4  11  23  40  62 101 130 171 206 260 332 400
#     4  10  24  42  68  92 118 174 226 268 318 375
#     4  10  24  45  64  92 128 166 221 271 313 388
#     4  11  24  39  63  97 131 163 207 266 332 388
#
# _framework density 20.953569000000002
#
# number of rings (size 3 to 8) (size 9 to 14) (size 15 to 20)
#    0.000    1.429    1.429    3.429   10.000    0.000 
#    0.000    5.000    0.000    0.000    0.000    0.000 
#    0.000    0.000    0.000    0.000    0.000    0.000 
#
# Total GULP energy -347153.602126 kJ/mol
# GULP energy per Si atom -12398.342933 kJ/mol
# Density = 2.090588 g / cm^3
# Si number density = 20.953569 Si / 1000 Ang^3
#
#
#
# Elastic Constant Matrix: (Units=GPa)
#
#
# Indices 1 2 3 4 5 6 
#
# 1 83.0419 26.8996 30.6885 0.0000 5.1756 0.0000
# 2 26.8996 111.5448 40.9590 0.0000 11.2015 0.0000
# 3 30.6885 40.9590 89.7202 0.0000 2.1145 0.0000
# 4 0.0000 0.0000 0.0000 22.3635 0.0000 6.3912
# 5 5.1756 11.2015 2.1145 0.0000 34.3103 0.0000
# 6 0.0000 0.0000 0.0000 6.3912 0.0000 23.5033
#
#
#
# Elastic Compliance Matrix: (Units=1/GPa)
#
#
# Indices 1 2 3 4 5 6 
#
# 1 0.014189 -0.001827 -0.003989 0.000000 -0.001298 0.000000
# 2 -0.001827 0.011373 -0.004492 0.000000 -0.003160 0.000000
# 3 -0.003989 -0.004492 0.014533 0.000000 0.001173 0.000000
# 4 0.000000 0.000000 0.000000 0.048484 0.000000 -0.013184
# 5 -0.001298 -0.003160 0.001173 0.000000 0.030301 0.000000
# 6 0.000000 0.000000 0.000000 -0.013184 0.000000 0.046132
#
#
# Mechanical properties :
#
#
# Convention : Reuss Voigt Hill
#
# Bulk Modulus (GPa) = 51.33761 53.48900 52.41330
# Shear Modulus (GPa) = 26.02535 28.41942 27.22238
#
# Velocity S-wave (km/s) = 3.52809 3.68680 3.60832
# Velocity P-wave (km/s) = 6.41486 6.61106 6.51370
#
# Compressibility (1/GPa) = 0.01947890
#
# Stress axis : x y z
#
# Youngs Moduli (GPa) = 70.47821 87.93122 68.80729
#
# Poissons Ratio (x) = 0.16062 0.27445
# Poissons Ratio (y) = 0.12874 0.30911
# Poissons Ratio (z) = 0.28112 0.39503
#
# Static dielectric constant tensor:
#      x y z
#    x 3.802340 0.000000 0.056400 
#    y 0.000000 3.801190 0.000000 
#    z 0.056400 0.000000 3.788060 
# 
# 
# High freq. dielectric constant tensor:
#      x y z
#    x 1.829830 0.000000 -0.000860 
#    y 0.000000 1.807200 0.000000 
#    z -0.000860 0.000000 1.820320 
# 
# From -- ./inp_files/114756.got.cif
#   From: 2010.06.25/outbox.cif.g09.slc.cpg/sg15_58_cif.got.tgz:114756.got - 2010.06.28 07:06:18.
