data_PCOD8148720
_publ_section_title
;
Structure prediction by ZEFSAII (Michael W. Deem and Ramdas Pophale) SiO2 
 PCOD8148720
Probable space group: C 2/C
;
_chemical_formula_sum "Si O2"
_cell_formula_units_Z 48
_cell_length_a 8.558111
_cell_length_b 23.759381
_cell_length_c 11.159953
_cell_angle_alpha 90.000000
_cell_angle_beta 99.150795
_cell_angle_gamma 90.000000
_cell_volume 2240.333912
_symmetry_space_group_name_H-M "C 2/C"
_symmetry_group_IT_number 15
_symmetry_cell_setting 'monoclinic'
loop_
_space_group_symop_operation_xyz
x,y,z
-x,y,1/2-z
-x,-y,-z
x,-y,1/2+z
1/2+x,1/2+y,z
1/2-x,1/2+y,1/2-z
1/2-x,1/2-y,-z
1/2+x,1/2-y,1/2+z
loop_
_atom_site_type_symbol
_atom_site_label
_atom_site_fract_x
_atom_site_fract_y
_atom_site_fract_z
Si Si1 0.824984 0.211835 0.774134
Si Si2 0.168869 0.929770 0.814938
Si Si3 0.643582 0.145115 0.563940
Si Si4 0.779869 0.621680 0.569332
Si Si5 0.810807 0.052646 0.715240
Si Si6 0.170050 0.335371 0.800265
O O1 0.687120 0.190288 0.670037
O O2 0.796056 0.181906 0.899308
O O3 0.805759 0.279086 0.776571
O O4 0.000000 0.195009 0.750000
O O5 0.210563 0.883181 0.722915
O O6 0.000000 0.949513 0.750000
O O7 0.258780 0.989843 0.816484
O O8 0.177908 0.903802 0.948378
O O9 0.458769 0.130147 0.547624
O O10 0.750769 0.089389 0.594544
O O11 0.685744 0.175111 0.443634
O O12 0.773666 0.577430 0.677027
O O13 0.000000 0.058443 0.750000
O O14 0.000000 0.361169 0.750000
#
# Coordination Sequence:
#
# PCOD8148720 Si02
#       6
#     8   8   8   8   8   8
#     4  10  23  42  68  92 125 172 210 262 321 374
#     4  11  27  41  63  97 128 171 213 266 312 377
#     4  11  22  42  68  93 127 169 212 263 316 382
#     4  11  23  43  66  95 126 169 216 259 321 381
#     4  10  24  42  67  94 127 171 213 262 316 376
#     4  11  24  44  61  98 130 163 214 264 321 373
#
# _framework density 21.425379
#
# number of rings (size 3 to 8) (size 9 to 14) (size 15 to 20)
#    0.000    1.333    1.667    4.500    7.000    5.333 
#    0.000    0.000    0.000    0.000    0.000    0.000 
#    0.000    0.000    0.000    0.000    0.000    0.000 
#
# Total GULP energy -297504.198517 kJ/mol
# GULP energy per Si atom -12396.008272 kJ/mol
# Density = 2.137661 g / cm^3
# Si number density = 21.425379 Si / 1000 Ang^3
#
#
#
# Elastic Constant Matrix: (Units=GPa)
#
#
# Indices 1 2 3 4 5 6 
#
# 1 57.9457 43.7004 18.2086 0.0000 1.3951 0.0000
# 2 43.7004 140.1434 32.7592 0.0000 -15.8681 0.0000
# 3 18.2086 32.7592 98.2334 0.0000 -3.4920 0.0000
# 4 0.0000 0.0000 0.0000 32.3323 0.0000 -7.8776
# 5 1.3951 -15.8681 -3.4920 0.0000 33.5199 0.0000
# 6 0.0000 0.0000 0.0000 -7.8776 0.0000 46.5942
#
#
#
# Elastic Compliance Matrix: (Units=1/GPa)
#
#
# Indices 1 2 3 4 5 6 
#
# 1 0.023611 -0.007411 -0.002072 0.000000 -0.004707 0.000000
# 2 -0.007411 0.010473 -0.001939 0.000000 0.005064 0.000000
# 3 -0.002072 -0.001939 0.011223 0.000000 0.000338 0.000000
# 4 0.000000 0.000000 0.000000 0.032258 0.000000 0.005454
# 5 -0.004707 0.005064 0.000338 0.000000 0.032462 0.000000
# 6 0.000000 0.000000 0.000000 0.005454 0.000000 0.022384
#
#
# Mechanical properties :
#
#
# Convention : Reuss Voigt Hill
#
# Bulk Modulus (GPa) = 44.51933 53.96210 49.24071
# Shear Modulus (GPa) = 30.72336 35.93288 33.32812
#
# Velocity S-wave (km/s) = 3.79089 4.09971 3.94832
# Velocity P-wave (km/s) = 6.32337 6.90296 6.61951
#
# Compressibility (1/GPa) = 0.02246215
#
# Stress axis : x y z
#
# Youngs Moduli (GPa) = 42.35257 95.48187 89.10617
#
# Poissons Ratio (x) = 0.70763 0.18467
# Poissons Ratio (y) = 0.31388 0.17276
# Poissons Ratio (z) = 0.08777 0.18513
#
# Static dielectric constant tensor:
#      x y z
#    x 3.801150 0.000000 0.051500 
#    y 0.000000 3.996410 0.000000 
#    z 0.051500 0.000000 3.899820 
# 
# 
# High freq. dielectric constant tensor:
#      x y z
#    x 1.835450 0.000000 0.008160 
#    y 0.000000 1.852940 0.000000 
#    z 0.008160 0.000000 1.840620 
# 
# From -- ./inp_files/79372.got.cif
#   From: 2010.06.25/outbox.cif.g09.slc.cpg/sg15_40_cif.got.tgz:79372.got - 2010.06.28 07:06:18.
