data_PCOD8148487
_publ_section_title
;
Structure prediction by ZEFSAII (Michael W. Deem and Ramdas Pophale) SiO2 
 PCOD8148487
Probable space group: C 2/C
;
_chemical_formula_sum "Si O2"
_cell_formula_units_Z 48
_cell_length_a 11.210388
_cell_length_b 11.329678
_cell_length_c 16.439840
_cell_angle_alpha 90.000000
_cell_angle_beta 99.618006
_cell_angle_gamma 90.000000
_cell_volume 2058.675332
_symmetry_space_group_name_H-M "C 2/C"
_symmetry_group_IT_number 15
_symmetry_cell_setting 'monoclinic'
loop_
_space_group_symop_operation_xyz
x,y,z
-x,y,1/2-z
-x,-y,-z
x,-y,1/2+z
1/2+x,1/2+y,z
1/2-x,1/2+y,1/2-z
1/2-x,1/2-y,-z
1/2+x,1/2-y,1/2+z
loop_
_atom_site_type_symbol
_atom_site_label
_atom_site_fract_x
_atom_site_fract_y
_atom_site_fract_z
Si Si1 0.027328 0.906324 0.887120
Si Si2 0.337438 0.766645 0.312386
Si Si3 0.972560 0.847567 0.431988
Si Si4 0.492568 0.058407 0.587403
Si Si5 0.082868 0.668640 0.334323
Si Si6 0.702002 0.224195 0.875436
O O1 0.166467 0.864071 0.883852
O O2 0.941924 0.831790 0.817259
O O3 0.982507 0.879828 0.973622
O O4 0.005594 0.045999 0.872622
O O5 0.221958 0.697555 0.334025
O O6 0.311448 0.815202 0.219477
O O7 0.379989 0.879958 0.371373
O O8 0.833351 0.810295 0.419843
O O9 0.047788 0.735594 0.412458
O O10 0.445704 0.967732 0.650934
O O11 0.500000 0.000000 0.500000
O O12 0.391680 0.160030 0.574547
O O13 0.000000 0.712031 0.250000
#
# Coordination Sequence:
#
# PCOD8148487 Si02
#       6
#     8   8   8   8   8   8
#     4  10  23  41  67  94 131 176 222 274 337 402
#     4  11  24  45  69  95 136 178 225 282 337 409
#     4  11  24  41  64 100 133 173 222 276 335 410
#     4  11  25  43  70  99 132 179 230 281 344 406
#     4  12  24  42  65 101 134 172 226 279 343 408
#     4  11  22  45  67  94 136 177 225 276 340 407
#
# _framework density 23.315961999999999
#
# number of rings (size 3 to 8) (size 9 to 14) (size 15 to 20)
#    0.000    1.000    1.667    6.500    0.000    8.000 
#    3.000    0.000    0.000    0.000    0.000    0.000 
#    0.000    0.000    0.000    0.000    0.000    0.000 
#
# Total GULP energy -297547.051465 kJ/mol
# GULP energy per Si atom -12397.793811 kJ/mol
# Density = 2.326289 g / cm^3
# Si number density = 23.315962 Si / 1000 Ang^3
#
#
#
# Elastic Constant Matrix: (Units=GPa)
#
#
# Indices 1 2 3 4 5 6 
#
# 1 114.3859 48.7822 9.4702 0.0000 6.4930 0.0000
# 2 48.7822 98.2328 -1.6781 0.0000 7.2613 0.0000
# 3 9.4702 -1.6781 70.1096 0.0000 -1.6053 0.0000
# 4 0.0000 0.0000 0.0000 29.6570 0.0000 -12.2927
# 5 6.4930 7.2613 -1.6053 0.0000 29.1850 0.0000
# 6 0.0000 0.0000 0.0000 -12.2927 0.0000 44.7776
#
#
#
# Elastic Compliance Matrix: (Units=1/GPa)
#
#
# Indices 1 2 3 4 5 6 
#
# 1 0.011324 -0.005561 -0.001691 0.000000 -0.001229 0.000000
# 2 -0.005561 0.013105 0.001020 0.000000 -0.001967 0.000000
# 3 -0.001691 0.001020 0.014537 0.000000 0.000922 0.000000
# 4 0.000000 0.000000 0.000000 0.038048 0.000000 0.010445
# 5 -0.001229 -0.001967 0.000922 0.000000 0.035078 0.000000
# 6 0.000000 0.000000 0.000000 0.010445 0.000000 0.025200
#
#
# Mechanical properties :
#
#
# Convention : Reuss Voigt Hill
#
# Bulk Modulus (GPa) = 37.73476 43.98634 40.86055
# Shear Modulus (GPa) = 31.52778 35.80087 33.66432
#
# Velocity S-wave (km/s) = 3.68121 3.92275 3.80390
# Velocity P-wave (km/s) = 5.85557 6.27882 6.07088
#
# Compressibility (1/GPa) = 0.02650076
#
# Stress axis : x y z
#
# Youngs Moduli (GPa) = 88.30905 76.30936 68.78860
#
# Poissons Ratio (x) = 0.42439 0.11631
# Poissons Ratio (y) = 0.49113 -0.07015
# Poissons Ratio (z) = 0.14932 -0.07782
#
# Static dielectric constant tensor:
#      x y z
#    x 4.311980 0.000000 -0.023720 
#    y 0.000000 4.556520 0.000000 
#    z -0.023720 0.000000 4.126800 
# 
# 
# High freq. dielectric constant tensor:
#      x y z
#    x 1.914220 0.000000 -0.005150 
#    y 0.000000 1.928450 0.000000 
#    z -0.005150 0.000000 1.929250 
# 
# From -- ./inp_files/196603.got.cif
#   From: 2010.06.25/outbox.cif.g09.slc.cpg/sg15_99_cif.got.tgz:196603.got - 2010.06.28 07:06:18.
