data_PCOD8148972
_publ_section_title
;
Structure prediction by ZEFSAII (Michael W. Deem and Ramdas Pophale) SiO2 
 PCOD8148972
Probable space group: C 2/C
;
_chemical_formula_sum "Si O2"
_cell_formula_units_Z 36
_cell_length_a 12.475135
_cell_length_b 19.086421
_cell_length_c 7.853620
_cell_angle_alpha 90.000000
_cell_angle_beta 132.707833
_cell_angle_gamma 90.000000
_cell_volume 1374.110677
_symmetry_space_group_name_H-M "C 2/C"
_symmetry_group_IT_number 15
_symmetry_cell_setting 'monoclinic'
loop_
_space_group_symop_operation_xyz
x,y,z
-x,y,1/2-z
-x,-y,-z
x,-y,1/2+z
1/2+x,1/2+y,z
1/2-x,1/2+y,1/2-z
1/2-x,1/2-y,-z
1/2+x,1/2-y,1/2+z
loop_
_atom_site_type_symbol
_atom_site_label
_atom_site_fract_x
_atom_site_fract_y
_atom_site_fract_z
Si Si1 0.008831 0.838983 0.449436
Si Si2 0.714025 0.235313 0.156916
Si Si3 0.310450 0.983415 0.117906
Si Si4 0.939853 0.407268 0.952603
Si Si5 0.500000 0.438493 0.750000
O O1 0.855073 0.804089 0.333481
O O2 0.052041 0.893531 0.642990
O O3 0.000000 0.872382 0.250000
O O4 0.137837 0.781421 0.583132
O O5 0.594320 0.173457 0.049864
O O6 0.750000 0.250000 0.000000
O O7 0.390736 0.924419 0.325102
O O8 0.379866 0.062263 0.208099
O O9 0.340535 0.959454 0.959725
O O10 0.136279 0.984804 0.960769
#
# Coordination Sequence:
#
# PCOD8148972 Si02
#       5
#     8   8   8   8   4
#     4  12  27  45  71 114 145 194 250 311 380 439
#     4  12  24  46  75 104 148 200 247 307 375 449
#     4  10  23  43  69 103 140 191 237 301 369 443
#     4  10  23  45  69 102 143 192 247 291 374 455
#     4  12  24  46  78 106 148 190 242 314 380 442
#
# _framework density 26.198761999999999
#
# number of rings (size 3 to 8) (size 9 to 14) (size 15 to 20)
#    0.000    0.889    4.444    0.667    9.333    2.667 
#   10.000    0.000    0.000    0.000    0.000    0.000 
#    0.000    0.000    0.000    0.000    0.000    0.000 
#
# Total GULP energy -223093.906183 kJ/mol
# GULP energy per Si atom -12394.105899 kJ/mol
# Density = 2.613913 g / cm^3
# Si number density = 26.198762 Si / 1000 Ang^3
#
#
#
# Elastic Constant Matrix: (Units=GPa)
#
#
# Indices 1 2 3 4 5 6 
#
# 1 84.0788 15.4634 56.8925 0.0000 6.6114 0.0000
# 2 15.4634 72.2913 16.6651 0.0000 -0.4720 0.0000
# 3 56.8925 16.6651 140.0867 0.0000 21.7022 0.0000
# 4 0.0000 0.0000 0.0000 34.2593 0.0000 10.0637
# 5 6.6114 -0.4720 21.7022 0.0000 67.9356 0.0000
# 6 0.0000 0.0000 0.0000 10.0637 0.0000 26.8077
#
#
#
# Elastic Compliance Matrix: (Units=1/GPa)
#
#
# Indices 1 2 3 4 5 6 
#
# 1 0.016709 -0.002046 -0.006616 0.000000 0.000473 0.000000
# 2 -0.002046 0.014503 -0.000990 0.000000 0.000616 0.000000
# 3 -0.006616 -0.000990 0.010357 0.000000 -0.002672 0.000000
# 4 0.000000 0.000000 0.000000 0.032807 0.000000 -0.012316
# 5 0.000473 0.000616 -0.002672 0.000000 0.015532 0.000000
# 6 0.000000 0.000000 0.000000 -0.012316 0.000000 0.041926
#
#
# Mechanical properties :
#
#
# Convention : Reuss Voigt Hill
#
# Bulk Modulus (GPa) = 44.91226 52.72208 48.81717
# Shear Modulus (GPa) = 31.53398 39.62958 35.58178
#
# Velocity S-wave (km/s) = 3.47312 3.89350 3.68930
# Velocity P-wave (km/s) = 5.76745 6.35453 6.06810
#
# Compressibility (1/GPa) = 0.02226563
#
# Stress axis : x y z
#
# Youngs Moduli (GPa) = 59.84636 68.95240 96.55314
#
# Poissons Ratio (x) = 0.14107 0.63880
# Poissons Ratio (y) = 0.12244 0.09557
# Poissons Ratio (z) = 0.39594 0.06825
#
# Static dielectric constant tensor:
#      x y z
#    x 4.934450 0.000000 0.057290 
#    y 0.000000 4.509320 0.000000 
#    z 0.057290 0.000000 4.811970 
# 
# 
# High freq. dielectric constant tensor:
#      x y z
#    x 2.056090 0.000000 0.005700 
#    y 0.000000 2.022610 0.000000 
#    z 0.005700 0.000000 2.059540 
# 
# From -- ./inp_files/41318.got.cif
#   From: 2010.06.25/outbox.cif.g09.slc.cpg/sg15_21_cif.got.tgz:41318.got - 2010.06.28 07:06:18.
