data_PCOD8148622
_publ_section_title
;
Structure prediction by ZEFSAII (Michael W. Deem and Ramdas Pophale) SiO2 
 PCOD8148622
Probable space group: C 2/C
;
_chemical_formula_sum "Si O2"
_cell_formula_units_Z 44
_cell_length_a 22.506501
_cell_length_b 17.868368
_cell_length_c 13.871781
_cell_angle_alpha 90.000000
_cell_angle_beta 158.664489
_cell_angle_gamma 90.000000
_cell_volume 2029.653672
_symmetry_space_group_name_H-M "C 2/C"
_symmetry_group_IT_number 15
_symmetry_cell_setting 'monoclinic'
loop_
_space_group_symop_operation_xyz
x,y,z
-x,y,1/2-z
-x,-y,-z
x,-y,1/2+z
1/2+x,1/2+y,z
1/2-x,1/2+y,1/2-z
1/2-x,1/2-y,-z
1/2+x,1/2-y,1/2+z
loop_
_atom_site_type_symbol
_atom_site_label
_atom_site_fract_x
_atom_site_fract_y
_atom_site_fract_z
Si Si1 0.157757 0.453099 0.720196
Si Si2 0.500000 0.650459 0.250000
Si Si3 0.774353 0.246589 0.239659
Si Si4 0.700742 0.576581 0.253355
Si Si5 0.643490 0.786451 0.755318
Si Si6 0.415083 0.516925 0.238603
O O1 0.154670 0.445223 0.600280
O O2 0.167156 0.375294 0.790555
O O3 0.000000 0.500000 0.500000
O O4 0.322093 0.496400 0.999649
O O5 0.658860 0.703025 0.497613
O O6 0.499942 0.597284 0.345362
O O7 0.786966 0.164753 0.212358
O O8 0.702436 0.246548 0.240618
O O9 0.956501 0.277026 0.503691
O O10 0.719889 0.532491 0.382354
O O11 0.529040 0.551150 0.945371
O O12 0.750000 0.750000 0.000000
#
# Coordination Sequence:
#
# PCOD8148622 Si02
#       6
#     8   4   8   8   8   8
#     4  11  23  41  63  94 133 167 221 276 325 393
#     4  12  24  40  72 102 140 174 230 286 338 412
#     4  11  25  44  67 101 138 178 228 281 350 403
#     4  10  23  42  65  89 130 178 216 266 340 400
#     4  11  24  44  68  97 137 180 227 280 338 408
#     4  11  22  42  67  93 129 179 222 266 339 402
#
# _framework density 21.678574000000001
#
# number of rings (size 3 to 8) (size 9 to 14) (size 15 to 20)
#    0.000    1.091    1.818    3.818    0.000   10.909 
#    3.273    0.000    0.000    0.000    0.000    0.000 
#    0.000    0.000    0.000    0.000    0.000    0.000 
#
# Total GULP energy -272655.272929 kJ/mol
# GULP energy per Si atom -12393.421497 kJ/mol
# Density = 2.162923 g / cm^3
# Si number density = 21.678574 Si / 1000 Ang^3
#
#
#
# Elastic Constant Matrix: (Units=GPa)
#
#
# Indices 1 2 3 4 5 6 
#
# 1 99.6151 35.9665 8.7457 0.0000 13.7916 0.0000
# 2 35.9665 136.7552 37.5806 0.0000 11.5024 0.0000
# 3 8.7457 37.5806 92.2962 0.0000 23.1732 0.0000
# 4 0.0000 0.0000 0.0000 43.0580 0.0000 5.9527
# 5 13.7916 11.5024 23.1732 0.0000 31.6735 0.0000
# 6 0.0000 0.0000 0.0000 5.9527 0.0000 31.0016
#
#
#
# Elastic Compliance Matrix: (Units=1/GPa)
#
#
# Indices 1 2 3 4 5 6 
#
# 1 0.011707 -0.003038 0.001385 0.000000 -0.005008 0.000000
# 2 -0.003038 0.009033 -0.003551 0.000000 0.000641 0.000000
# 3 0.001385 -0.003551 0.014672 0.000000 -0.010048 0.000000
# 4 0.000000 0.000000 0.000000 0.023858 0.000000 -0.004581
# 5 -0.005008 0.000641 -0.010048 0.000000 0.040872 0.000000
# 6 0.000000 0.000000 0.000000 -0.004581 0.000000 0.033136
#
#
# Mechanical properties :
#
#
# Convention : Reuss Voigt Hill
#
# Bulk Modulus (GPa) = 39.99335 54.80578 47.39957
# Shear Modulus (GPa) = 32.88998 37.57151 35.23075
#
# Velocity S-wave (km/s) = 3.89931 4.16759 4.03568
# Velocity P-wave (km/s) = 6.22585 6.96379 6.60513
#
# Compressibility (1/GPa) = 0.02500416
#
# Stress axis : x y z
#
# Youngs Moduli (GPa) = 85.41602 110.70002 68.15623
#
# Poissons Ratio (x) = 0.33636 -0.09441
# Poissons Ratio (y) = 0.25954 0.24203
# Poissons Ratio (z) = -0.11831 0.39311
#
# Static dielectric constant tensor:
#      x y z
#    x 6.940620 0.000000 -0.379710 
#    y 0.000000 4.323000 0.000000 
#    z -0.379710 0.000000 3.760720 
# 
# 
# High freq. dielectric constant tensor:
#      x y z
#    x 1.874860 0.000000 0.013140 
#    y 0.000000 1.866820 0.000000 
#    z 0.013140 0.000000 1.835830 
# 
# From -- ./inp_files/174274.got.cif
#   From: 2010.06.25/outbox.cif.g09.slc.cpg/sg15_88_cif.got.tgz:174274.got - 2010.06.28 07:06:18.
