data_PCOD8148488
_publ_section_title
;
Structure prediction by ZEFSAII (Michael W. Deem and Ramdas Pophale) SiO2 
 PCOD8148488
Probable space group: C 2/C
;
_chemical_formula_sum "Si O2"
_cell_formula_units_Z 56
_cell_length_a 9.187496
_cell_length_b 29.329436
_cell_length_c 10.828828
_cell_angle_alpha 90.000000
_cell_angle_beta 104.685200
_cell_angle_gamma 90.000000
_cell_volume 2822.659257
_symmetry_space_group_name_H-M "C 2/C"
_symmetry_group_IT_number 15
_symmetry_cell_setting 'monoclinic'
loop_
_space_group_symop_operation_xyz
x,y,z
-x,y,1/2-z
-x,-y,-z
x,-y,1/2+z
1/2+x,1/2+y,z
1/2-x,1/2+y,1/2-z
1/2-x,1/2-y,-z
1/2+x,1/2-y,1/2+z
loop_
_atom_site_type_symbol
_atom_site_label
_atom_site_fract_x
_atom_site_fract_y
_atom_site_fract_z
Si Si1 0.200755 0.802206 0.975877
Si Si2 0.867996 0.621377 0.634068
Si Si3 0.334850 0.591124 0.693982
Si Si4 0.000000 0.249487 0.750000
Si Si5 0.102717 0.820201 0.454447
Si Si6 0.048448 0.551810 0.512197
Si Si7 0.000000 0.599552 0.250000
Si Si8 0.723143 0.178032 0.258554
O O1 0.154834 0.816587 0.825138
O O2 0.250000 0.750000 0.000000
O O3 0.338779 0.835010 0.042109
O O4 0.067543 0.817457 0.036171
O O5 0.723996 0.606843 0.684591
O O6 0.924531 0.579141 0.563941
O O7 0.000000 0.638534 0.750000
O O8 0.500000 0.568115 0.750000
O O9 0.356786 0.633184 0.605032
O O10 0.215267 0.556314 0.608052
O O11 0.884578 0.220004 0.642728
O O12 0.895535 0.282834 0.807990
O O13 0.213303 0.811995 0.592295
O O14 0.054837 0.568357 0.373412
O O15 0.000000 0.500000 0.500000
O O16 0.857103 0.629220 0.261621
#
# Coordination Sequence:
#
# PCOD8148488 Si02
#       8
#     8   8   8   4   8   8   4   8
#     4  12  23  41  58  92 136 176 228 273 325 397
#     4  10  23  41  67  95 132 175 221 274 333 403
#     4  11  22  43  71  97 132 175 219 276 342 405
#     4  11  22  38  58  86 126 176 234 268 313 400
#     4  12  22  40  61  90 129 178 225 279 331 387
#     4  11  25  45  75 103 129 171 225 281 347 427
#     4  11  22  42  68  94 134 168 216 278 343 408
#     4  11  24  39  59  91 131 177 220 276 334 386
#
# _framework density 19.839447
#
# number of rings (size 3 to 8) (size 9 to 14) (size 15 to 20)
#    0.000    0.857    6.429    0.857    3.000    1.143 
#    2.571    0.714    3.143    0.000    0.000    0.000 
#    0.000    0.000    0.000    0.000    0.000    0.000 
#
# Total GULP energy -347073.052208 kJ/mol
# GULP energy per Si atom -12395.466150 kJ/mol
# Density = 1.979429 g / cm^3
# Si number density = 19.839447 Si / 1000 Ang^3
#
#
#
# Elastic Constant Matrix: (Units=GPa)
#
#
# Indices 1 2 3 4 5 6 
#
# 1 101.8235 48.8962 33.6860 0.0000 -3.6296 0.0000
# 2 48.8962 147.1092 55.3476 0.0000 6.0810 0.0000
# 3 33.6860 55.3476 116.2760 0.0000 -1.7493 0.0000
# 4 0.0000 0.0000 0.0000 21.5124 0.0000 9.0092
# 5 -3.6296 6.0810 -1.7493 0.0000 39.2929 0.0000
# 6 0.0000 0.0000 0.0000 9.0092 0.0000 24.5133
#
#
#
# Elastic Compliance Matrix: (Units=1/GPa)
#
#
# Indices 1 2 3 4 5 6 
#
# 1 0.012124 -0.003389 -0.001876 0.000000 0.001561 0.000000
# 2 -0.003389 0.009312 -0.003480 0.000000 -0.001909 0.000000
# 3 -0.001876 -0.003480 0.010813 0.000000 0.000847 0.000000
# 4 0.000000 0.000000 0.000000 0.054941 0.000000 -0.020192
# 5 0.001561 -0.001909 0.000847 0.000000 0.025927 0.000000
# 6 0.000000 0.000000 0.000000 -0.020192 0.000000 0.048215
#
#
# Mechanical properties :
#
#
# Convention : Reuss Voigt Hill
#
# Bulk Modulus (GPa) = 67.74728 71.22983 69.48855
# Shear Modulus (GPa) = 27.21213 32.21563 29.71388
#
# Velocity S-wave (km/s) = 3.70755 4.03403 3.87423
# Velocity P-wave (km/s) = 7.24913 7.59467 7.42391
#
# Compressibility (1/GPa) = 0.01476074
#
# Stress axis : x y z
#
# Youngs Moduli (GPa) = 82.47806 107.38806 92.48334
#
# Poissons Ratio (x) = 0.36390 0.17351
# Poissons Ratio (y) = 0.27949 0.32180
# Poissons Ratio (z) = 0.15473 0.37366
#
# Static dielectric constant tensor:
#      x y z
#    x 3.981750 0.000000 -0.145280 
#    y 0.000000 3.383310 0.000000 
#    z -0.145280 0.000000 4.101140 
# 
# 
# High freq. dielectric constant tensor:
#      x y z
#    x 1.775710 0.000000 -0.011220 
#    y 0.000000 1.754470 0.000000 
#    z -0.011220 0.000000 1.793770 
# 
# From -- ./inp_files/81308.got.cif
#   From: 2010.06.25/outbox.cif.g09.slc.cpg/sg15_41_cif.got.tgz:81308.got - 2010.06.28 07:06:18.
