data_PCOD8148064
_publ_section_title
;
Structure prediction by ZEFSAII (Michael W. Deem and Ramdas Pophale) SiO2 
 PCOD8148064
Probable space group: C 2/C
;
_chemical_formula_sum "Si O2"
_cell_formula_units_Z 48
_cell_length_a 10.462176
_cell_length_b 22.392337
_cell_length_c 10.054305
_cell_angle_alpha 90.000000
_cell_angle_beta 69.228775
_cell_angle_gamma 90.000000
_cell_volume 2202.352953
_symmetry_space_group_name_H-M "C 2/C"
_symmetry_group_IT_number 15
_symmetry_cell_setting 'monoclinic'
loop_
_space_group_symop_operation_xyz
x,y,z
-x,y,1/2-z
-x,-y,-z
x,-y,1/2+z
1/2+x,1/2+y,z
1/2-x,1/2+y,1/2-z
1/2-x,1/2-y,-z
1/2+x,1/2-y,1/2+z
loop_
_atom_site_type_symbol
_atom_site_label
_atom_site_fract_x
_atom_site_fract_y
_atom_site_fract_z
Si Si1 0.500000 0.362663 0.750000
Si Si2 0.505666 0.569567 0.511999
Si Si3 0.500000 0.866689 0.750000
Si Si4 0.646753 0.816064 0.163193
Si Si5 0.700524 0.048573 0.035431
Si Si6 0.281414 0.800942 0.659566
Si Si7 0.231176 0.560325 0.726221
O O1 0.542375 0.402529 0.609083
O O2 0.630361 0.324736 0.745297
O O3 0.500000 0.500000 0.500000
O O4 0.660349 0.587337 0.493803
O O5 0.389139 0.583564 0.664411
O O6 0.427613 0.909275 0.884591
O O7 0.387172 0.823214 0.729919
O O8 0.500000 0.786438 0.250000
O O9 0.767880 0.771386 0.167866
O O10 0.644730 0.879827 0.236976
O O11 0.663258 0.824996 0.000350
O O12 0.697242 0.988745 0.125768
O O13 0.693834 0.030894 0.882090
#
# Coordination Sequence:
#
# PCOD8148064 Si02
#       7
#     4   8   4   8   8   8   8
#     4  12  20  46  71  97 138 192 236 278 340 432
#     4  10  23  37  68  96 137 178 236 278 341 415
#     4  12  26  46  69 107 150 178 234 292 366 414
#     4  11  24  45  71  99 136 183 248 283 347 422
#     4  11  26  42  68 106 146 187 229 291 362 422
#     4  11  25  46  72 102 135 193 232 293 349 420
#     4  11  25  43  69 105 142 185 233 296 353 423
#
# _framework density 21.794872000000002
#
# number of rings (size 3 to 8) (size 9 to 14) (size 15 to 20)
#    0.000    1.000    4.167    1.500   12.833    0.667 
#    3.000    1.667    0.000    0.000    0.000    0.000 
#    0.000    0.000    0.000    0.000    0.000    0.000 
#
# Total GULP energy -297525.711162 kJ/mol
# GULP energy per Si atom -12396.904632 kJ/mol
# Density = 2.174527 g / cm^3
# Si number density = 21.794872 Si / 1000 Ang^3
#
#
#
# Elastic Constant Matrix: (Units=GPa)
#
#
# Indices 1 2 3 4 5 6 
#
# 1 124.9363 46.1984 40.7676 0.0000 -5.7127 0.0000
# 2 46.1984 103.2886 51.3751 0.0000 17.3966 0.0000
# 3 40.7676 51.3751 150.0727 0.0000 3.5414 0.0000
# 4 0.0000 0.0000 0.0000 18.2340 0.0000 -3.4746
# 5 -5.7127 17.3966 3.5414 0.0000 35.9395 0.0000
# 6 0.0000 0.0000 0.0000 -3.4746 0.0000 32.3420
#
#
#
# Elastic Compliance Matrix: (Units=1/GPa)
#
#
# Indices 1 2 3 4 5 6 
#
# 1 0.010334 -0.004647 -0.001311 0.000000 0.004021 0.000000
# 2 -0.004647 0.014846 -0.003641 0.000000 -0.007566 0.000000
# 3 -0.001311 -0.003641 0.008249 0.000000 0.000741 0.000000
# 4 0.000000 0.000000 0.000000 0.055989 0.000000 0.006015
# 5 0.004021 -0.007566 0.000741 0.000000 0.032053 0.000000
# 6 0.000000 0.000000 0.000000 0.006015 0.000000 0.031566
#
#
# Mechanical properties :
#
#
# Convention : Reuss Voigt Hill
#
# Bulk Modulus (GPa) = 70.27907 72.77552 71.52730
# Shear Modulus (GPa) = 28.25193 33.30019 30.77606
#
# Velocity S-wave (km/s) = 3.60427 3.91307 3.76184
# Velocity P-wave (km/s) = 7.04534 7.34028 7.19432
#
# Compressibility (1/GPa) = 0.01422899
#
# Stress axis : x y z
#
# Youngs Moduli (GPa) = 96.76480 67.35956 121.23179
#
# Poissons Ratio (x) = 0.31305 0.15897
# Poissons Ratio (y) = 0.44970 0.44143
# Poissons Ratio (z) = 0.12689 0.24527
#
# Static dielectric constant tensor:
#      x y z
#    x 4.877030 0.000000 -0.499660 
#    y 0.000000 3.806710 0.000000 
#    z -0.499660 0.000000 3.969380 
# 
# 
# High freq. dielectric constant tensor:
#      x y z
#    x 1.860900 0.000000 -0.022620 
#    y 0.000000 1.849010 0.000000 
#    z -0.022620 0.000000 1.859370 
# 
# From -- ./inp_files/31943.got.cif
#   From: 2010.06.25/outbox.cif.g09.slc.cpg/sg15_16_cif.got.tgz:31943.got - 2010.06.28 07:06:18.
