data_PCOD8148808
_publ_section_title
;
Structure prediction by ZEFSAII (Michael W. Deem and Ramdas Pophale) SiO2 
 PCOD8148808
Probable space group: C 2/C
;
_chemical_formula_sum "Si O2"
_cell_formula_units_Z 40
_cell_length_a 14.627950
_cell_length_b 10.242662
_cell_length_c 12.164141
_cell_angle_alpha 90.000000
_cell_angle_beta 65.908300
_cell_angle_gamma 90.000000
_cell_volume 1663.787217
_symmetry_space_group_name_H-M "C 2/C"
_symmetry_group_IT_number 15
_symmetry_cell_setting 'monoclinic'
loop_
_space_group_symop_operation_xyz
x,y,z
-x,y,1/2-z
-x,-y,-z
x,-y,1/2+z
1/2+x,1/2+y,z
1/2-x,1/2+y,1/2-z
1/2-x,1/2-y,-z
1/2+x,1/2-y,1/2+z
loop_
_atom_site_type_symbol
_atom_site_label
_atom_site_fract_x
_atom_site_fract_y
_atom_site_fract_z
Si Si1 0.285705 0.618353 0.924289
Si Si2 0.666200 0.759368 0.799541
Si Si3 0.097700 0.522750 0.886439
Si Si4 0.391361 0.294614 0.713126
Si Si5 0.907562 0.111283 0.449311
O O1 0.357064 0.655635 0.785317
O O2 0.191135 0.537444 0.924842
O O3 0.355148 0.531199 0.970902
O O4 0.250000 0.750000 0.000000
O O5 0.779779 0.809532 0.724189
O O6 0.606690 0.892331 0.809000
O O7 0.642471 0.693547 0.928310
O O8 0.078833 0.644052 0.816650
O O9 0.000000 0.500000 0.000000
O O10 0.469329 0.389327 0.605520
O O11 0.388821 0.316955 0.843767
#
# Coordination Sequence:
#
# PCOD8148808 Si02
#       5
#     8   8   8   8   8
#     4  11  28  46  71 106 140 187 243 300 350 427
#     4  11  24  45  73 102 149 187 232 305 358 427
#     4  11  23  46  71 106 144 185 238 292 364 422
#     4  10  23  42  73 107 136 188 239 287 353 435
#     4  11  23  46  75 101 144 192 242 286 367 425
#
# _framework density 24.041535
#
# number of rings (size 3 to 8) (size 9 to 14) (size 15 to 20)
#    0.000    1.200    4.000    0.600    5.600    0.000 
#    7.200    8.000    0.000    0.000    0.000    0.000 
#    0.000    0.000    0.000    0.000    0.000    0.000 
#
# Total GULP energy -247836.842733 kJ/mol
# GULP energy per Si atom -12391.842137 kJ/mol
# Density = 2.398682 g / cm^3
# Si number density = 24.041535 Si / 1000 Ang^3
#
#
#
# Elastic Constant Matrix: (Units=GPa)
#
#
# Indices 1 2 3 4 5 6 
#
# 1 48.6582 30.4118 16.3013 0.0000 -16.9351 0.0000
# 2 30.4118 152.2765 60.1067 0.0000 -21.7590 0.0000
# 3 16.3013 60.1067 121.7402 0.0000 -23.7809 0.0000
# 4 0.0000 0.0000 0.0000 58.1980 0.0000 -3.3296
# 5 -16.9351 -21.7590 -23.7809 0.0000 34.6076 0.0000
# 6 0.0000 0.0000 0.0000 -3.3296 0.0000 42.8802
#
#
#
# Elastic Compliance Matrix: (Units=1/GPa)
#
#
# Indices 1 2 3 4 5 6 
#
# 1 0.026654 -0.003971 0.000522 0.000000 0.010905 0.000000
# 2 -0.003971 0.008977 -0.003670 0.000000 0.001179 0.000000
# 3 0.000522 -0.003670 0.011037 0.000000 0.005532 0.000000
# 4 0.000000 0.000000 0.000000 0.017259 0.000000 0.001340
# 5 0.010905 0.001179 0.005532 0.000000 0.038774 0.000000
# 6 0.000000 0.000000 0.000000 0.001340 0.000000 0.023425
#
#
# Mechanical properties :
#
#
# Convention : Reuss Voigt Hill
#
# Bulk Modulus (GPa) = 30.83626 59.59051 45.21338
# Shear Modulus (GPa) = 33.07409 41.52750 37.30080
#
# Velocity S-wave (km/s) = 3.71308 4.16062 3.94320
# Velocity P-wave (km/s) = 5.58898 6.92252 6.29118
#
# Compressibility (1/GPa) = 0.03242935
#
# Stress axis : x y z
#
# Youngs Moduli (GPa) = 37.51783 111.39241 90.60351
#
# Poissons Ratio (x) = 0.44233 -0.04727
# Poissons Ratio (y) = 0.14898 0.33254
# Poissons Ratio (z) = -0.01957 0.40884
#
# Static dielectric constant tensor:
#      x y z
#    x 4.429540 0.000000 -0.762000 
#    y 0.000000 4.805370 0.000000 
#    z -0.762000 0.000000 3.831950 
# 
# 
# High freq. dielectric constant tensor:
#      x y z
#    x 1.943510 0.000000 -0.015410 
#    y 0.000000 1.965770 0.000000 
#    z -0.015410 0.000000 1.969010 
# 
# From -- ./inp_files/159119.got.cif
#   From: 2010.06.25/outbox.cif.g09.slc.cpg/sg15_80_cif.got.tgz:159119.got - 2010.06.28 07:06:18.
