data_PCOD8148026
_publ_section_title
;
Structure prediction by ZEFSAII (Michael W. Deem and Ramdas Pophale) SiO2 
 PCOD8148026
Probable space group: C 2/C
;
_chemical_formula_sum "Si O2"
_cell_formula_units_Z 56
_cell_length_a 19.244000
_cell_length_b 8.893772
_cell_length_c 18.106539
_cell_angle_alpha 90.000000
_cell_angle_beta 60.905690
_cell_angle_gamma 90.000000
_cell_volume 2707.939901
_symmetry_space_group_name_H-M "C 2/C"
_symmetry_group_IT_number 15
_symmetry_cell_setting 'monoclinic'
loop_
_space_group_symop_operation_xyz
x,y,z
-x,y,1/2-z
-x,-y,-z
x,-y,1/2+z
1/2+x,1/2+y,z
1/2-x,1/2+y,1/2-z
1/2-x,1/2-y,-z
1/2+x,1/2-y,1/2+z
loop_
_atom_site_type_symbol
_atom_site_label
_atom_site_fract_x
_atom_site_fract_y
_atom_site_fract_z
Si Si1 0.590875 0.352713 0.679806
Si Si2 0.431505 0.510357 0.453939
Si Si3 0.687232 0.118484 0.554366
Si Si4 0.487900 0.245639 0.507622
Si Si5 0.230796 0.848129 0.719710
Si Si6 0.715466 0.470833 0.367108
Si Si7 0.372546 0.015384 0.067764
O O1 0.500000 0.354600 0.750000
O O2 0.604974 0.480853 0.609381
O O3 0.610181 0.193523 0.631611
O O4 0.649582 0.383870 0.717560
O O5 0.470356 0.346883 0.444093
O O6 0.496587 0.644612 0.430288
O O7 0.370829 0.545112 0.552155
O O8 0.750000 0.250000 0.500000
O O9 0.724449 0.005376 0.595320
O O10 0.658755 0.022625 0.499904
O O11 0.562642 0.142697 0.449554
O O12 0.410166 0.146578 0.565688
O O13 0.261551 0.679492 0.690123
O O14 0.298309 0.964951 0.659698
O O15 0.216990 0.883494 0.813308
#
# Coordination Sequence:
#
# PCOD8148026 Si02
#       7
#     8   8   8   8   8   8   8
#     4  11  23  38  65  93 122 162 216 259 312 386
#     4  11  21  43  63  92 123 173 205 256 325 386
#     4  11  18  43  67  88 124 177 207 255 322 387
#     4  10  23  34  69  91 123 162 212 259 314 383
#     4  11  24  40  61  93 128 164 208 268 313 369
#     4  11  23  40  66  90 128 170 211 260 314 381
#     4  11  20  42  64  93 125 164 213 263 314 381
#
# _framework density 20.679929000000001
#
# number of rings (size 3 to 8) (size 9 to 14) (size 15 to 20)
#    0.000    1.143    7.143    0.000    6.000    1.143 
#    2.571    1.429    0.000    0.000    0.000    0.000 
#    0.000    0.000    0.000    0.000    0.000    0.000 
#
# Total GULP energy -347118.204178 kJ/mol
# GULP energy per Si atom -12397.078721 kJ/mol
# Density = 2.063286 g / cm^3
# Si number density = 20.679929 Si / 1000 Ang^3
#
#
#
# Elastic Constant Matrix: (Units=GPa)
#
#
# Indices 1 2 3 4 5 6 
#
# 1 108.5920 37.2542 39.4333 -0.0001 -2.2302 0.0001
# 2 37.2542 81.4467 19.7189 -0.0002 0.0666 0.0000
# 3 39.4333 19.7189 99.3225 0.0000 -0.0622 0.0001
# 4 -0.0001 -0.0002 0.0000 27.7430 0.0000 -0.0917
# 5 -2.2302 0.0666 -0.0622 0.0000 38.8867 0.0000
# 6 0.0001 0.0000 0.0001 -0.0917 0.0000 21.2672
#
#
#
# Elastic Compliance Matrix: (Units=1/GPa)
#
#
# Indices 1 2 3 4 5 6 
#
# 1 0.012249 -0.004650 -0.003940 0.000000 0.000704 0.000000
# 2 -0.004650 0.014663 -0.001065 0.000000 -0.000293 0.000000
# 3 -0.003940 -0.001065 0.011844 0.000000 -0.000205 0.000000
# 4 0.000000 0.000000 0.000000 0.036046 0.000000 0.000155
# 5 0.000704 -0.000293 -0.000205 0.000000 0.025756 0.000000
# 6 0.000000 0.000000 0.000000 0.000155 0.000000 0.047021
#
#
# Mechanical properties :
#
#
# Convention : Reuss Voigt Hill
#
# Bulk Modulus (GPa) = 51.42264 53.57489 52.49876
# Shear Modulus (GPa) = 28.84008 30.44302 29.64155
#
# Velocity S-wave (km/s) = 3.73848 3.84096 3.79007
# Velocity P-wave (km/s) = 6.59961 6.75527 6.67789
#
# Compressibility (1/GPa) = 0.01944669
#
# Stress axis : x y z
#
# Youngs Moduli (GPa) = 81.63987 68.19959 84.43324
#
# Poissons Ratio (x) = 0.31709 0.33263
# Poissons Ratio (y) = 0.37958 0.08995
# Poissons Ratio (z) = 0.32163 0.07265
#
# Static dielectric constant tensor:
#      x y z
#    x 4.082860 0.000000 0.026170 
#    y 0.000000 3.628600 0.000000 
#    z 0.026170 0.000000 3.691860 
# 
# 
# High freq. dielectric constant tensor:
#      x y z
#    x 1.827320 0.000000 -0.004260 
#    y 0.000000 1.784700 0.000000 
#    z -0.004260 0.000000 1.800810 
# 
# From -- ./inp_files/213802.got.cif
#   From: 2010.06.25/outbox.cif.g09.slc.cpg/sg15_107_cif.got.tgz:213802.got - 2010.06.28 07:06:18.
