data_PCOD8148218
_publ_section_title
;
Structure prediction by ZEFSAII (Michael W. Deem and Ramdas Pophale) SiO2 
 PCOD8148218
Probable space group: C 2/C
;
_chemical_formula_sum "Si O2"
_cell_formula_units_Z 48
_cell_length_a 10.510970
_cell_length_b 9.177469
_cell_length_c 23.400132
_cell_angle_alpha 90.000000
_cell_angle_beta 108.672841
_cell_angle_gamma 90.000000
_cell_volume 2138.454714
_symmetry_space_group_name_H-M "C 2/C"
_symmetry_group_IT_number 15
_symmetry_cell_setting 'monoclinic'
loop_
_space_group_symop_operation_xyz
x,y,z
-x,y,1/2-z
-x,-y,-z
x,-y,1/2+z
1/2+x,1/2+y,z
1/2-x,1/2+y,1/2-z
1/2-x,1/2-y,-z
1/2+x,1/2-y,1/2+z
loop_
_atom_site_type_symbol
_atom_site_label
_atom_site_fract_x
_atom_site_fract_y
_atom_site_fract_z
Si Si1 0.820921 0.703486 0.110891
Si Si2 0.857599 0.501442 0.719201
Si Si3 0.480406 0.966452 0.931454
Si Si4 0.303661 0.698802 0.238146
Si Si5 0.171182 0.040713 0.368384
Si Si6 0.547315 0.726740 0.118698
O O1 0.866083 0.583686 0.162269
O O2 0.854724 0.868163 0.134531
O O3 0.657405 0.692680 0.084160
O O4 0.907097 0.657688 0.067462
O O5 0.831501 0.390705 0.767689
O O6 0.758952 0.641883 0.707496
O O7 0.000000 0.579230 0.750000
O O8 0.326682 0.913969 0.900275
O O9 0.508019 0.110198 0.897335
O O10 0.500000 0.000000 0.000000
O O11 0.379398 0.607795 0.199438
O O12 0.382092 0.708602 0.309495
O O13 0.077787 0.115246 0.403678
#
# Coordination Sequence:
#
# PCOD8148218 Si02
#       6
#     8   8   8   8   8   8
#     4  10  23  40  60  91 125 163 211 262 315 374
#     4  11  21  35  57  86 128 169 205 252 311 377
#     4  11  25  46  67  90 127 173 221 268 314 372
#     4  11  21  37  61  92 130 166 204 256 319 387
#     4  11  23  40  64  95 126 164 212 260 320 386
#     4  10  23  41  61  93 131 165 208 266 321 377
#
# _framework density 22.446114000000001
#
# number of rings (size 3 to 8) (size 9 to 14) (size 15 to 20)
#    0.000    1.333    0.000    7.500    0.000   11.333 
#    0.000    4.167    0.000    0.000    0.000    0.000 
#    0.000    0.000    0.000    0.000    0.000    0.000 
#
# Total GULP energy -297321.786666 kJ/mol
# GULP energy per Si atom -12388.407778 kJ/mol
# Density = 2.239503 g / cm^3
# Si number density = 22.446114 Si / 1000 Ang^3
#
#
#
# Elastic Constant Matrix: (Units=GPa)
#
#
# Indices 1 2 3 4 5 6 
#
# 1 134.9603 67.8691 26.4343 0.0000 -14.2090 0.0000
# 2 67.8691 144.8067 34.4228 0.0000 -13.6612 0.0000
# 3 26.4343 34.4228 61.7584 0.0000 -6.9159 0.0000
# 4 0.0000 0.0000 0.0000 19.6034 0.0000 -9.5712
# 5 -14.2090 -13.6612 -6.9159 0.0000 16.6645 0.0000
# 6 0.0000 0.0000 0.0000 -9.5712 0.0000 45.5596
#
#
#
# Elastic Compliance Matrix: (Units=1/GPa)
#
#
# Indices 1 2 3 4 5 6 
#
# 1 0.010221 -0.003949 -0.001637 0.000000 0.004799 0.000000
# 2 -0.003949 0.009889 -0.003451 0.000000 0.003308 0.000000
# 3 -0.001637 -0.003451 0.019237 0.000000 0.003759 0.000000
# 4 0.000000 0.000000 0.000000 0.056842 0.000000 0.011941
# 5 0.004799 0.003308 0.003759 0.000000 0.068371 0.000000
# 6 0.000000 0.000000 0.000000 0.011941 0.000000 0.024458
#
#
# Mechanical properties :
#
#
# Convention : Reuss Voigt Hill
#
# Bulk Modulus (GPa) = 47.00577 66.55309 56.77943
# Shear Modulus (GPa) = 23.34457 30.55211 26.94834
#
# Velocity S-wave (km/s) = 3.22844 3.69335 3.46870
# Velocity P-wave (km/s) = 5.90629 6.92115 6.43376
#
# Compressibility (1/GPa) = 0.02127398
#
# Stress axis : x y z
#
# Youngs Moduli (GPa) = 97.83657 101.12287 51.98244
#
# Poissons Ratio (x) = 0.39931 0.08507
# Poissons Ratio (y) = 0.38633 0.17941
# Poissons Ratio (z) = 0.16012 0.34901
#
# Static dielectric constant tensor:
#      x y z
#    x 4.682260 0.000000 -0.245910 
#    y 0.000000 4.183460 0.000000 
#    z -0.245910 0.000000 3.661230 
# 
# 
# High freq. dielectric constant tensor:
#      x y z
#    x 1.903040 0.000000 -0.021930 
#    y 0.000000 1.896960 0.000000 
#    z -0.021930 0.000000 1.841490 
# 
# From -- ./inp_files/267793.got.cif
#   From: 2010.06.25/outbox.cif.g09.slc.cpg/sg15_134_cif.got.tgz:267793.got - 2010.06.28 07:06:18.
