data_PCOD8148967
_publ_section_title
;
Structure prediction by ZEFSAII (Michael W. Deem and Ramdas Pophale) SiO2 
 PCOD8148967
Probable space group: C 2/C
;
_chemical_formula_sum "Si O2"
_cell_formula_units_Z 56
_cell_length_a 21.799141
_cell_length_b 7.705790
_cell_length_c 14.363717
_cell_angle_alpha 90.000000
_cell_angle_beta 83.621222
_cell_angle_gamma 90.000000
_cell_volume 2397.874093
_symmetry_space_group_name_H-M "C 2/C"
_symmetry_group_IT_number 15
_symmetry_cell_setting 'monoclinic'
loop_
_space_group_symop_operation_xyz
x,y,z
-x,y,1/2-z
-x,-y,-z
x,-y,1/2+z
1/2+x,1/2+y,z
1/2-x,1/2+y,1/2-z
1/2-x,1/2-y,-z
1/2+x,1/2-y,1/2+z
loop_
_atom_site_type_symbol
_atom_site_label
_atom_site_fract_x
_atom_site_fract_y
_atom_site_fract_z
Si Si1 0.741031 0.208457 0.609289
Si Si2 0.643989 0.505300 0.174728
Si Si3 0.627498 0.699410 0.844000
Si Si4 0.699353 0.838238 0.573521
Si Si5 0.920047 0.653038 0.497571
Si Si6 0.474798 0.042415 0.156804
Si Si7 0.930235 0.025659 0.483485
O O1 0.750000 0.250000 0.500000
O O2 0.689744 0.332948 0.661566
O O3 0.802090 0.258370 0.657095
O O4 0.727582 0.001995 0.625875
O O5 0.622408 0.478476 0.284751
O O6 0.673705 0.316003 0.143841
O O7 0.583850 0.557822 0.123238
O O8 0.583105 0.839578 0.802865
O O9 0.600123 0.678938 0.952644
O O10 0.750000 0.750000 0.500000
O O11 0.644198 0.935444 0.523328
O O12 0.948879 0.601599 0.591256
O O13 0.895894 0.848551 0.515281
O O14 0.971106 0.644360 0.406847
O O15 0.500000 0.962415 0.250000
O O16 0.000000 0.000000 0.500000
#
# Coordination Sequence:
#
# PCOD8148967 Si02
#       7
#     8   8   8   8   8   8   8
#     4  12  23  46  73 100 140 188 235 291 353 426
#     4  11  27  45  68 107 138 185 239 287 363 417
#     4  12  26  45  70 102 139 183 232 295 355 418
#     4  11  22  43  73 100 142 182 226 288 352 421
#     4  10  23  43  69 100 132 181 231 280 349 425
#     4  11  23  44  69  97 137 179 228 289 352 410
#     4  11  22  45  72  97 139 184 229 287 351 425
#
# _framework density 23.354020999999999
#
# number of rings (size 3 to 8) (size 9 to 14) (size 15 to 20)
#    0.000    0.857    4.286    3.429    2.000    0.000 
#    7.714    0.000    0.000    0.000    0.000    0.000 
#    0.000    0.000    0.000    0.000    0.000    0.000 
#
# Total GULP energy -346939.151611 kJ/mol
# GULP energy per Si atom -12390.683986 kJ/mol
# Density = 2.330087 g / cm^3
# Si number density = 23.354021 Si / 1000 Ang^3
#
#
#
# Elastic Constant Matrix: (Units=GPa)
#
#
# Indices 1 2 3 4 5 6 
#
# 1 162.2556 20.3970 37.7477 0.0000 29.5507 0.0000
# 2 20.3970 76.4786 7.5002 0.0000 2.9340 0.0000
# 3 37.7477 7.5002 105.7509 0.0000 27.1288 0.0000
# 4 0.0000 0.0000 0.0000 29.6326 0.0000 -3.7992
# 5 29.5507 2.9340 27.1288 0.0000 30.0671 0.0000
# 6 0.0000 0.0000 0.0000 -3.7992 0.0000 38.3517
#
#
#
# Elastic Compliance Matrix: (Units=1/GPa)
#
#
# Indices 1 2 3 4 5 6 
#
# 1 0.007815 -0.001735 -0.000962 0.000000 -0.006643 0.000000
# 2 -0.001735 0.013560 -0.000573 0.000000 0.000899 0.000000
# 3 -0.000962 -0.000573 0.012470 0.000000 -0.010249 0.000000
# 4 0.000000 0.000000 0.000000 0.034181 0.000000 0.003386
# 5 -0.006643 0.000899 -0.010249 0.000000 0.048948 0.000000
# 6 0.000000 0.000000 0.000000 0.003386 0.000000 0.026410
#
#
# Mechanical properties :
#
#
# Convention : Reuss Voigt Hill
#
# Bulk Modulus (GPa) = 36.62483 52.86388 44.74435
# Shear Modulus (GPa) = 31.44155 38.19963 34.82059
#
# Velocity S-wave (km/s) = 3.67318 4.04874 3.86552
# Velocity P-wave (km/s) = 5.80570 6.67393 6.25490
#
# Compressibility (1/GPa) = 0.02730388
#
# Stress axis : x y z
#
# Youngs Moduli (GPa) = 127.95935 73.74630 80.19487
#
# Poissons Ratio (x) = 0.12795 0.07717
# Poissons Ratio (y) = 0.22202 0.04595
# Poissons Ratio (z) = 0.12313 0.04226
#
# Static dielectric constant tensor:
#      x y z
#    x 4.606310 0.000000 0.354700 
#    y 0.000000 4.567600 0.000000 
#    z 0.354700 0.000000 4.594210 
# 
# 
# High freq. dielectric constant tensor:
#      x y z
#    x 1.941400 0.000000 0.019450 
#    y 0.000000 1.913130 0.000000 
#    z 0.019450 0.000000 1.916790 
# 
# From -- ./inp_files/166651.got.cif
#   From: 2010.06.25/outbox.cif.g09.slc.cpg/sg15_84_cif.got.tgz:166651.got - 2010.06.28 07:06:18.
