data_PCOD8148190
_publ_section_title
;
Structure prediction by ZEFSAII (Michael W. Deem and Ramdas Pophale) SiO2 
 PCOD8148190
Probable space group: C 2/C
;
_chemical_formula_sum "Si O2"
_cell_formula_units_Z 60
_cell_length_a 10.665668
_cell_length_b 23.025758
_cell_length_c 18.086607
_cell_angle_alpha 90.000000
_cell_angle_beta 139.043813
_cell_angle_gamma 90.000000
_cell_volume 2911.519390
_symmetry_space_group_name_H-M "C 2/C"
_symmetry_group_IT_number 15
_symmetry_cell_setting 'monoclinic'
loop_
_space_group_symop_operation_xyz
x,y,z
-x,y,1/2-z
-x,-y,-z
x,-y,1/2+z
1/2+x,1/2+y,z
1/2-x,1/2+y,1/2-z
1/2-x,1/2-y,-z
1/2+x,1/2-y,1/2+z
loop_
_atom_site_type_symbol
_atom_site_label
_atom_site_fract_x
_atom_site_fract_y
_atom_site_fract_z
Si Si1 0.711095 0.215568 0.875197
Si Si2 0.828770 0.580636 0.866760
Si Si3 0.187993 0.663303 0.023007
Si Si4 0.780586 0.570189 0.008112
Si Si5 0.000000 0.095514 0.250000
Si Si6 0.671572 0.040829 0.198704
Si Si7 0.611056 0.619798 0.632229
Si Si8 0.717994 0.489831 0.103022
O O1 0.500000 0.228802 0.750000
O O2 0.826751 0.274084 0.944329
O O3 0.839952 0.184790 0.869915
O O4 0.702606 0.173068 0.941826
O O5 0.903750 0.519947 0.868530
O O6 0.672173 0.610013 0.743951
O O7 0.722674 0.566335 0.896901
O O8 0.003803 0.624559 0.958456
O O9 0.378913 0.633484 0.138687
O O10 0.799375 0.506979 0.058536
O O11 0.005003 0.590202 0.112737
O O12 0.619243 0.609076 0.977417
O O13 0.134276 0.056989 0.257082
O O14 0.699070 0.033362 0.298403
O O15 0.742153 0.577198 0.638634
O O16 0.500000 0.500000 0.000000
#
# Coordination Sequence:
#
# PCOD8148190 Si02
#       8
#     8   8   8   8   4   8   8   8
#     4  11  23  44  70  97 124 169 231 285 329 381
#     4  11  23  40  65  94 130 174 212 268 329 405
#     4  11  25  43  68  96 131 167 221 284 331 383
#     4  11  22  39  58  95 130 169 214 268 325 394
#     4  12  26  40  66 100 134 174 212 274 332 386
#     4  11  25  37  62  95 137 174 214 259 331 405
#     4  10  23  39  67  90 128 172 224 267 328 395
#     4   9  22  37  58  89 131 175 211 256 318 405
#
# _framework density 20.607797000000001
#
# number of rings (size 3 to 8) (size 9 to 14) (size 15 to 20)
#    0.000    1.333    3.333    1.200   11.200    0.000 
#    0.000    0.667    0.000    0.000    0.000    0.000 
#    0.000    0.000    0.000    0.000    0.000    0.000 
#
# Total GULP energy -371683.376938 kJ/mol
# GULP energy per Si atom -12389.445898 kJ/mol
# Density = 2.056089 g / cm^3
# Si number density = 20.607797 Si / 1000 Ang^3
#
#
#
# Elastic Constant Matrix: (Units=GPa)
#
#
# Indices 1 2 3 4 5 6 
#
# 1 115.9173 54.2791 41.8028 -0.0014 -2.8677 -0.0007
# 2 54.2791 76.2823 49.0631 -0.0013 -5.9819 -0.0002
# 3 41.8028 49.0631 112.5984 -0.0035 -3.1928 -0.0019
# 4 -0.0014 -0.0013 -0.0035 30.1439 -0.0015 3.4283
# 5 -2.8677 -5.9819 -3.1928 -0.0015 45.8124 -0.0008
# 6 -0.0007 -0.0002 -0.0019 3.4283 -0.0008 23.8127
#
#
#
# Elastic Compliance Matrix: (Units=1/GPa)
#
#
# Indices 1 2 3 4 5 6 
#
# 1 0.013043 -0.008599 -0.001106 0.000000 -0.000383 0.000000
# 2 -0.008599 0.024038 -0.007222 0.000000 0.002097 -0.000001
# 3 -0.001106 -0.007222 0.012434 0.000001 -0.000146 0.000001
# 4 0.000000 0.000000 0.000001 0.033726 0.000001 -0.004856
# 5 -0.000383 0.002097 -0.000146 0.000001 0.022068 0.000001
# 6 0.000000 -0.000001 0.000001 -0.004856 0.000001 0.042693
#
#
# Mechanical properties :
#
#
# Convention : Reuss Voigt Hill
#
# Bulk Modulus (GPa) = 63.85660 66.12090 64.98875
# Shear Modulus (GPa) = 26.72684 30.59734 28.66209
#
# Velocity S-wave (km/s) = 3.60520 3.85742 3.73344
# Velocity P-wave (km/s) = 6.95585 7.21073 7.08443
#
# Compressibility (1/GPa) = 0.01566009
#
# Stress axis : x y z
#
# Youngs Moduli (GPa) = 76.66952 41.60139 80.42147
#
# Poissons Ratio (x) = 0.35775 0.08895
# Poissons Ratio (y) = 0.65932 0.58080
# Poissons Ratio (z) = 0.08480 0.30044
#
# Static dielectric constant tensor:
#      x y z
#    x 1.862430 -0.000390 0.068970 
#    y -0.000390 1.338800 0.000000 
#    z 0.068970 0.000000 4.047800 
# 
# 
# High freq. dielectric constant tensor:
#      x y z
#    x 1.810700 0.000000 -0.003250 
#    y 0.000000 1.768560 0.000000 
#    z -0.003250 0.000000 1.832750 
# 
# From -- ./inp_files/200948.got.cif
#   From: 2010.06.25/outbox.cif.g09.slc.cpg/sg15_101_cif.got.tgz:200948.got - 2010.06.28 07:06:18.
