data_PCOD8148869
_publ_section_title
;
Structure prediction by ZEFSAII (Michael W. Deem and Ramdas Pophale) SiO2 
 PCOD8148869
Probable space group: C 2/C
;
_chemical_formula_sum "Si O2"
_cell_formula_units_Z 52
_cell_length_a 25.482858
_cell_length_b 13.409996
_cell_length_c 19.626126
_cell_angle_alpha 90.000000
_cell_angle_beta 158.852556
_cell_angle_gamma 90.000000
_cell_volume 2419.584776
_symmetry_space_group_name_H-M "C 2/C"
_symmetry_group_IT_number 15
_symmetry_cell_setting 'monoclinic'
loop_
_space_group_symop_operation_xyz
x,y,z
-x,y,1/2-z
-x,-y,-z
x,-y,1/2+z
1/2+x,1/2+y,z
1/2-x,1/2+y,1/2-z
1/2-x,1/2-y,-z
1/2+x,1/2-y,1/2+z
loop_
_atom_site_type_symbol
_atom_site_label
_atom_site_fract_x
_atom_site_fract_y
_atom_site_fract_z
Si Si1 0.033678 0.860211 0.035786
Si Si2 0.740188 0.473812 0.821429
Si Si3 0.964406 0.110622 0.605176
Si Si4 0.315469 0.002008 0.201361
Si Si5 0.452320 0.133809 0.472793
Si Si6 0.000000 0.726132 0.250000
Si Si7 0.787914 0.555460 0.020019
O O1 0.967754 0.854364 0.031668
O O2 0.183718 0.923533 0.217273
O O3 0.066474 0.751867 0.045468
O O4 0.906805 0.912223 0.837273
O O5 0.847639 0.416215 0.902043
O O6 0.825569 0.497022 0.995487
O O7 0.850820 0.019673 0.477207
O O8 0.920639 0.206999 0.596378
O O9 0.117231 0.073471 0.818310
O O10 0.409518 0.094408 0.345923
O O11 0.380724 0.898603 0.310076
O O12 0.334066 0.994046 0.142533
O O13 0.128887 0.660046 0.375353
#
# Coordination Sequence:
#
# PCOD8148869 Si02
#       7
#     8   8   8   8   8   4   8
#     4  10  23  43  65  94 132 173 225 270 341 389
#     4  10  23  43  65  97 132 174 219 282 331 395
#     4  11  22  38  62  96 134 169 215 278 337 405
#     4  11  23  41  61  99 134 168 226 270 333 397
#     4  11  24  41  69  96 133 180 222 279 327 404
#     4  12  22  34  64  98 130 172 218 264 360 406
#     4  11  23  40  62  94 137 172 214 284 333 394
#
# _framework density 21.491291
#
# number of rings (size 3 to 8) (size 9 to 14) (size 15 to 20)
#    0.000    1.231    3.077    2.308    4.308    3.692 
#    0.000    0.769    0.000    1.846    0.000    0.000 
#    0.000    0.000    0.000    0.000    0.000    0.000 
#
# Total GULP energy -322378.913282 kJ/mol
# GULP energy per Si atom -12399.188972 kJ/mol
# Density = 2.144238 g / cm^3
# Si number density = 21.491291 Si / 1000 Ang^3
#
#
#
# Elastic Constant Matrix: (Units=GPa)
#
#
# Indices 1 2 3 4 5 6 
#
# 1 102.5599 41.7359 37.4031 -0.0004 -7.3391 -0.0003
# 2 41.7359 137.0222 41.9429 -0.0005 4.4713 -0.0004
# 3 37.4031 41.9429 110.6724 -0.0009 3.8378 -0.0008
# 4 -0.0004 -0.0005 -0.0009 29.0464 -0.0006 5.5395
# 5 -7.3391 4.4713 3.8378 -0.0006 38.4059 -0.0006
# 6 -0.0003 -0.0004 -0.0008 5.5395 -0.0006 23.2815
#
#
#
# Elastic Compliance Matrix: (Units=1/GPa)
#
#
# Indices 1 2 3 4 5 6 
#
# 1 0.012289 -0.002871 -0.003169 0.000000 0.002999 0.000000
# 2 -0.002871 0.008943 -0.002372 0.000000 -0.001353 0.000000
# 3 -0.003169 -0.002372 0.011055 0.000000 -0.001434 0.000000
# 4 0.000000 0.000000 0.000000 0.036064 0.000000 -0.008581
# 5 0.002999 -0.001353 -0.001434 0.000000 0.026912 0.000001
# 6 0.000000 0.000000 0.000000 -0.008581 0.000001 0.044994
#
#
# Mechanical properties :
#
#
# Convention : Reuss Voigt Hill
#
# Bulk Modulus (GPa) = 64.67036 65.82426 65.24731
# Shear Modulus (GPa) = 30.81927 33.42493 32.12210
#
# Velocity S-wave (km/s) = 3.79097 3.94798 3.87027
# Velocity P-wave (km/s) = 7.02273 7.17474 7.09914
#
# Compressibility (1/GPa) = 0.01546303
#
# Stress axis : x y z
#
# Youngs Moduli (GPa) = 81.37268 111.82235 90.45325
#
# Poissons Ratio (x) = 0.32103 0.28667
# Poissons Ratio (y) = 0.23362 0.21455
# Poissons Ratio (z) = 0.25789 0.26524
#
# Static dielectric constant tensor:
#      x y z
#    x 3.953100 0.000000 -0.203350 
#    y 0.000000 3.716200 0.000000 
#    z -0.203350 0.000000 4.204520 
# 
# 
# High freq. dielectric constant tensor:
#      x y z
#    x 1.847510 0.000000 -0.000650 
#    y 0.000000 1.812460 0.000000 
#    z -0.000650 0.000000 1.857840 
# 
# From -- ./inp_files/257820.got.cif
#   From: 2010.06.25/outbox.cif.g09.slc.cpg/sg15_129_cif.got.tgz:257820.got - 2010.06.28 07:06:18.
