data_PCOD8148633
_publ_section_title
;
Structure prediction by ZEFSAII (Michael W. Deem and Ramdas Pophale) SiO2 
 PCOD8148633
Probable space group: C 2/C
;
_chemical_formula_sum "Si O2"
_cell_formula_units_Z 48
_cell_length_a 12.926283
_cell_length_b 14.451772
_cell_length_c 14.288322
_cell_angle_alpha 90.000000
_cell_angle_beta 124.128421
_cell_angle_gamma 90.000000
_cell_volume 2209.489991
_symmetry_space_group_name_H-M "C 2/C"
_symmetry_group_IT_number 15
_symmetry_cell_setting 'monoclinic'
loop_
_space_group_symop_operation_xyz
x,y,z
-x,y,1/2-z
-x,-y,-z
x,-y,1/2+z
1/2+x,1/2+y,z
1/2-x,1/2+y,1/2-z
1/2-x,1/2-y,-z
1/2+x,1/2-y,1/2+z
loop_
_atom_site_type_symbol
_atom_site_label
_atom_site_fract_x
_atom_site_fract_y
_atom_site_fract_z
Si Si1 0.746118 0.990743 0.841606
Si Si2 0.140847 0.993367 0.295056
Si Si3 0.243875 0.360941 0.005340
Si Si4 0.868042 0.665409 0.640766
Si Si5 0.031038 0.371420 0.666672
Si Si6 0.794751 0.672879 0.401022
O O1 0.846824 0.013008 0.811514
O O2 0.729489 0.082184 0.894700
O O3 0.794455 0.907664 0.934127
O O4 0.610835 0.964206 0.728488
O O5 0.177162 0.897174 0.365582
O O6 0.000000 0.020380 0.250000
O O7 0.236586 0.071320 0.377672
O O8 0.100862 0.395301 0.948897
O O9 0.250000 0.250000 0.000000
O O10 0.876546 0.689704 0.535423
O O11 0.817121 0.754962 0.668975
O O12 0.000000 0.638344 0.750000
O O13 0.113551 0.308603 0.640018
O O14 0.000000 0.319598 0.750000
#
# Coordination Sequence:
#
# PCOD8148633 Si02
#       6
#     8   8   8   8   8   8
#     4  10  23  42  69  93 127 169 221 269 327 393
#     4  11  25  43  65  95 135 171 215 272 334 391
#     4  11  24  43  65  98 129 173 222 268 332 386
#     4  11  22  40  67  99 127 170 216 267 325 389
#     4   9  21  43  64  91 125 165 216 270 313 392
#     4  10  23  42  65  95 132 167 214 266 327 392
#
# _framework density 21.724471000000001
#
# number of rings (size 3 to 8) (size 9 to 14) (size 15 to 20)
#    0.000    1.667    1.667    2.000    2.333    9.333 
#    6.000    0.000    0.000    0.000    0.000    0.000 
#    0.000    0.000    0.000    0.000    0.000    0.000 
#
# Total GULP energy -297522.678097 kJ/mol
# GULP energy per Si atom -12396.778254 kJ/mol
# Density = 2.167502 g / cm^3
# Si number density = 21.724471 Si / 1000 Ang^3
#
#
#
# Elastic Constant Matrix: (Units=GPa)
#
#
# Indices 1 2 3 4 5 6 
#
# 1 151.6618 27.2626 60.7827 0.0000 -37.5274 0.0000
# 2 27.2626 109.8456 30.5436 0.0000 -24.9863 0.0000
# 3 60.7827 30.5436 88.4975 0.0000 -23.7334 0.0000
# 4 0.0000 0.0000 0.0000 27.7684 0.0000 -1.7859
# 5 -37.5274 -24.9863 -23.7334 0.0000 39.7263 0.0000
# 6 0.0000 0.0000 0.0000 -1.7859 0.0000 24.0659
#
#
#
# Elastic Compliance Matrix: (Units=1/GPa)
#
#
# Indices 1 2 3 4 5 6 
#
# 1 0.010395 0.000504 -0.005472 0.000000 0.006868 0.000000
# 2 0.000504 0.011032 -0.002578 0.000000 0.005874 0.000000
# 3 -0.005472 -0.002578 0.016822 0.000000 0.003259 0.000000
# 4 0.000000 0.000000 0.000000 0.036185 0.000000 0.002685
# 5 0.006868 0.005874 0.003259 0.000000 0.037302 0.000000
# 6 0.000000 0.000000 0.000000 0.002685 0.000000 0.041752
#
#
# Mechanical properties :
#
#
# Convention : Reuss Voigt Hill
#
# Bulk Modulus (GPa) = 43.18450 65.24253 54.21351
# Shear Modulus (GPa) = 28.36095 33.73987 31.05041
#
# Velocity S-wave (km/s) = 3.61707 3.94519 3.78469
# Velocity P-wave (km/s) = 6.11275 7.13090 6.64136
#
# Compressibility (1/GPa) = 0.02315646
#
# Stress axis : x y z
#
# Youngs Moduli (GPa) = 96.19554 90.64789 59.44638
#
# Poissons Ratio (x) = -0.04566 0.32529
# Poissons Ratio (y) = -0.04845 0.15325
# Poissons Ratio (z) = 0.52638 0.23369
#
# Static dielectric constant tensor:
#      x y z
#    x 4.007630 0.000000 -0.218700 
#    y 0.000000 3.710260 0.000000 
#    z -0.218700 0.000000 3.889210 
# 
# 
# High freq. dielectric constant tensor:
#      x y z
#    x 1.851320 0.000000 -0.013620 
#    y 0.000000 1.840930 0.000000 
#    z -0.013620 0.000000 1.852400 
# 
# From -- ./inp_files/143798.got.cif
#   From: 2010.06.25/outbox.cif.g09.slc.cpg/sg15_72_cif.got.tgz:143798.got - 2010.06.28 07:06:18.
