data_PCOD8148917
_publ_section_title
;
Structure prediction by ZEFSAII (Michael W. Deem and Ramdas Pophale) SiO2 
 PCOD8148917
Probable space group: C 2/C
;
_chemical_formula_sum "Si O2"
_cell_formula_units_Z 48
_cell_length_a 10.872953
_cell_length_b 26.034781
_cell_length_c 14.102761
_cell_angle_alpha 90.000000
_cell_angle_beta 147.113608
_cell_angle_gamma 90.000000
_cell_volume 2167.631415
_symmetry_space_group_name_H-M "C 2/C"
_symmetry_group_IT_number 15
_symmetry_cell_setting 'monoclinic'
loop_
_space_group_symop_operation_xyz
x,y,z
-x,y,1/2-z
-x,-y,-z
x,-y,1/2+z
1/2+x,1/2+y,z
1/2-x,1/2+y,1/2-z
1/2-x,1/2-y,-z
1/2+x,1/2-y,1/2+z
loop_
_atom_site_type_symbol
_atom_site_label
_atom_site_fract_x
_atom_site_fract_y
_atom_site_fract_z
Si Si1 0.946146 0.397906 0.440522
Si Si2 0.410262 0.698099 0.410752
Si Si3 0.848336 0.394028 0.738593
Si Si4 0.660836 0.300238 0.267025
Si Si5 0.890508 0.055790 0.919550
Si Si6 0.218037 0.634652 0.944968
O O1 0.788861 0.352256 0.378064
O O2 0.791260 0.439609 0.284298
O O3 0.061225 0.423565 0.608384
O O4 0.152815 0.374586 0.512015
O O5 0.171218 0.666815 0.250300
O O6 0.515576 0.687817 0.581192
O O7 0.348228 0.757587 0.359470
O O8 0.580397 0.676408 0.438626
O O9 0.600066 0.407029 0.540191
O O10 0.000000 0.409720 0.750000
O O11 0.500000 0.282577 0.250000
O O12 0.772277 0.077580 0.938150
O O13 0.000000 0.000000 0.000000
O O14 0.000000 0.657869 0.750000
#
# Coordination Sequence:
#
# PCOD8148917 Si02
#       6
#     8   8   8   8   8   8
#     4  11  23  42  68  92 131 180 213 278 338 382
#     4  11  22  39  58  94 130 176 228 271 317 390
#     4  11  23  41  64  95 132 171 222 272 327 398
#     4  12  22  37  62  92 133 180 220 272 328 383
#     4  10  23  43  67  95 128 166 216 274 334 394
#     4   9  19  43  64  87 134 169 219 272 328 392
#
# _framework density 22.143985000000001
#
# number of rings (size 3 to 8) (size 9 to 14) (size 15 to 20)
#    0.000    1.333    5.000    3.000    0.000    6.000 
#    0.000    1.667    0.000    0.000    0.000    0.000 
#    0.000    0.000    0.000    0.000    0.000    0.000 
#
# Total GULP energy -297394.178583 kJ/mol
# GULP energy per Si atom -12391.424108 kJ/mol
# Density = 2.209358 g / cm^3
# Si number density = 22.143985 Si / 1000 Ang^3
#
#
#
# Elastic Constant Matrix: (Units=GPa)
#
#
# Indices 1 2 3 4 5 6 
#
# 1 152.5879 19.4949 55.8841 0.0000 -3.0186 0.0000
# 2 19.4949 89.3615 14.2410 0.0000 8.6833 0.0000
# 3 55.8841 14.2410 99.7514 0.0001 -6.2083 0.0000
# 4 0.0000 0.0000 0.0001 33.6979 0.0000 6.3596
# 5 -3.0186 8.6833 -6.2083 0.0000 29.8989 0.0000
# 6 0.0000 0.0000 0.0000 6.3596 0.0000 17.4765
#
#
#
# Elastic Compliance Matrix: (Units=1/GPa)
#
#
# Indices 1 2 3 4 5 6 
#
# 1 0.008352 -0.001127 -0.004503 0.000000 0.000235 0.000000
# 2 -0.001127 0.012025 -0.001327 0.000000 -0.003882 0.000000
# 3 -0.004503 -0.001327 0.012900 0.000000 0.002609 0.000000
# 4 0.000000 0.000000 0.000000 0.031864 0.000000 -0.011595
# 5 0.000235 -0.003882 0.002609 0.000000 0.035139 0.000000
# 6 0.000000 0.000000 0.000000 -0.011595 0.000000 0.061439
#
#
# Mechanical properties :
#
#
# Convention : Reuss Voigt Hill
#
# Bulk Modulus (GPa) = 51.64848 57.88229 54.76538
# Shear Modulus (GPa) = 27.45952 33.02005 30.23978
#
# Velocity S-wave (km/s) = 3.52525 3.86573 3.69941
# Velocity P-wave (km/s) = 6.32016 6.79124 6.55993
#
# Compressibility (1/GPa) = 0.01936165
#
# Stress axis : x y z
#
# Youngs Moduli (GPa) = 119.73838 83.15980 77.52181
#
# Poissons Ratio (x) = 0.09374 0.34910
# Poissons Ratio (y) = 0.13497 0.10286
# Poissons Ratio (z) = 0.53921 0.11034
#
# Static dielectric constant tensor:
#      x y z
#    x 4.181590 0.000000 0.329390 
#    y 0.000000 4.273750 0.000000 
#    z 0.329390 0.000000 4.346470 
# 
# 
# High freq. dielectric constant tensor:
#      x y z
#    x 1.869400 0.000000 0.010150 
#    y 0.000000 1.844940 0.000000 
#    z 0.010150 0.000000 1.884970 
# 
# From -- ./inp_files/148842.got.cif
#   From: 2010.06.25/outbox.cif.g09.slc.cpg/sg15_75_cif.got.tgz:148842.got - 2010.06.28 07:06:18.
