data_PCOD8148436
_publ_section_title
;
Structure prediction by ZEFSAII (Michael W. Deem and Ramdas Pophale) SiO2 
 PCOD8148436
Probable space group: C 2/C
;
_chemical_formula_sum "Si O2"
_cell_formula_units_Z 24
_cell_length_a 4.714632
_cell_length_b 13.853757
_cell_length_c 14.535149
_cell_angle_alpha 90.000000
_cell_angle_beta 60.933276
_cell_angle_gamma 90.000000
_cell_volume 829.799904
_symmetry_space_group_name_H-M "C 2/C"
_symmetry_group_IT_number 15
_symmetry_cell_setting 'monoclinic'
loop_
_space_group_symop_operation_xyz
x,y,z
-x,y,1/2-z
-x,-y,-z
x,-y,1/2+z
1/2+x,1/2+y,z
1/2-x,1/2+y,1/2-z
1/2-x,1/2-y,-z
1/2+x,1/2-y,1/2+z
loop_
_atom_site_type_symbol
_atom_site_label
_atom_site_fract_x
_atom_site_fract_y
_atom_site_fract_z
Si Si1 0.357438 0.596440 0.866236
Si Si2 0.653722 0.404989 0.536936
Si Si3 0.493573 0.187773 0.356288
O O1 0.500000 0.552430 0.750000
O O2 0.441791 0.519275 0.934583
O O3 0.538418 0.697544 0.854797
O O4 0.966386 0.607912 0.921758
O O5 0.354010 0.342751 0.543950
O O6 0.729302 0.362983 0.627314
O O7 0.500000 0.150414 0.250000
#
# Coordination Sequence:
#
# PCOD8148436 Si02
#       3
#     8   8   8
#     4  10  23  41  65  94 124 164 209 253 307 368
#     4  11  24  43  64  91 128 163 204 257 308 363
#     4  11  23  41  65  93 126 163 205 253 307 367
#
# _framework density 28.922637000000002
#
# number of rings (size 3 to 8) (size 9 to 14) (size 15 to 20)
#    0.000    1.333    0.000    5.000    0.000    8.000 
#    0.000   11.667    0.000    0.000    0.000    0.000 
#    0.000    0.000    0.000    0.000    0.000    0.000 
#
# Total GULP energy -148916.653076 kJ/mol
# GULP energy per Si atom -12409.721090 kJ/mol
# Density = 2.885681 g / cm^3
# Si number density = 28.922637 Si / 1000 Ang^3
#
#
#
# Elastic Constant Matrix: (Units=GPa)
#
#
# Indices 1 2 3 4 5 6 
#
# 1 106.5937 29.3074 -10.2657 0.0000 5.9819 0.0000
# 2 29.3074 127.4560 28.5810 0.0000 1.8631 0.0000
# 3 -10.2657 28.5810 132.4537 0.0000 8.6949 0.0000
# 4 0.0000 0.0000 0.0000 46.1435 0.0000 -3.1331
# 5 5.9819 1.8631 8.6949 0.0000 35.9523 0.0000
# 6 0.0000 0.0000 0.0000 -3.1331 0.0000 19.9226
#
#
#
# Elastic Compliance Matrix: (Units=1/GPa)
#
#
# Indices 1 2 3 4 5 6 
#
# 1 0.010379 -0.002698 0.001515 0.000000 -0.001953 0.000000
# 2 -0.002698 0.008946 -0.002173 0.000000 0.000511 0.000000
# 3 0.001515 -0.002173 0.008277 0.000000 -0.002141 0.000000
# 4 0.000000 0.000000 0.000000 0.021905 0.000000 0.003445
# 5 -0.001953 0.000511 -0.002141 0.000000 0.028631 0.000000
# 6 0.000000 0.000000 0.000000 0.003445 0.000000 0.050736
#
#
# Mechanical properties :
#
#
# Convention : Reuss Voigt Hill
#
# Bulk Modulus (GPa) = 47.87098 51.30543 49.58821
# Shear Modulus (GPa) = 35.07580 41.66240 38.36910
#
# Velocity S-wave (km/s) = 3.48623 3.79948 3.64622
# Velocity P-wave (km/s) = 5.72646 6.08485 5.90837
#
# Compressibility (1/GPa) = 0.02088948
#
# Stress axis : x y z
#
# Youngs Moduli (GPa) = 96.35217 111.78263 120.82202
#
# Poissons Ratio (x) = 0.30154 -0.18301
# Poissons Ratio (y) = 0.25992 0.26254
# Poissons Ratio (z) = -0.14594 0.24290
#
# Static dielectric constant tensor:
#      x y z
#    x 4.974110 0.000000 0.151820 
#    y 0.000000 5.299950 0.000000 
#    z 0.151820 0.000000 5.863830 
# 
# 
# High freq. dielectric constant tensor:
#      x y z
#    x 2.169900 0.000000 0.021470 
#    y 0.000000 2.189830 0.000000 
#    z 0.021470 0.000000 2.207620 
# 
# From -- ./inp_files/127741.got.cif
#   From: 2010.06.25/outbox.cif.g09.slc.cpg/sg15_64_cif.got.tgz:127741.got - 2010.06.28 07:06:18.
