data_PCOD8148078
_publ_section_title
;
Structure prediction by ZEFSAII (Michael W. Deem and Ramdas Pophale) SiO2 
 PCOD8148078
Probable space group: C 2/C
;
_chemical_formula_sum "Si O2"
_cell_formula_units_Z 56
_cell_length_a 14.369974
_cell_length_b 18.464171
_cell_length_c 12.747605
_cell_angle_alpha 90.000000
_cell_angle_beta 128.760375
_cell_angle_gamma 90.000000
_cell_volume 2637.433665
_symmetry_space_group_name_H-M "C 2/C"
_symmetry_group_IT_number 15
_symmetry_cell_setting 'monoclinic'
loop_
_space_group_symop_operation_xyz
x,y,z
-x,y,1/2-z
-x,-y,-z
x,-y,1/2+z
1/2+x,1/2+y,z
1/2-x,1/2+y,1/2-z
1/2-x,1/2-y,-z
1/2+x,1/2-y,1/2+z
loop_
_atom_site_type_symbol
_atom_site_label
_atom_site_fract_x
_atom_site_fract_y
_atom_site_fract_z
Si Si1 0.297632 0.366989 0.346796
Si Si2 0.398014 0.625047 0.253185
Si Si3 0.543891 0.963661 0.889048
Si Si4 0.027404 0.924381 0.472738
Si Si5 0.180578 0.717809 0.048245
Si Si6 0.693866 0.486946 0.961756
Si Si7 0.463980 0.113255 0.907289
O O1 0.400006 0.395252 0.337943
O O2 0.350460 0.287433 0.405702
O O3 0.292097 0.420665 0.444534
O O4 0.169075 0.356877 0.203453
O O5 0.500000 0.662761 0.250000
O O6 0.435736 0.624656 0.401286
O O7 0.272052 0.664793 0.169752
O O8 0.377065 0.544828 0.188516
O O9 0.500000 0.927803 0.750000
O O10 0.681279 0.984306 0.990993
O O11 0.469499 0.037797 0.848918
O O12 0.512530 0.903908 0.954043
O O13 0.128902 0.939581 0.457851
O O14 0.000000 0.000000 0.500000
O O15 0.250000 0.750000 0.000000
O O16 0.060104 0.672585 0.935167
#
# Coordination Sequence:
#
# PCOD8148078 Si02
#       7
#     8   8   8   8   8   8   8
#     4  11  23  41  60  91 133 168 210 266 321 378
#     4  12  22  37  60  95 125 167 204 258 326 375
#     4  11  23  41  66  95 134 167 217 266 331 386
#     4  10  23  38  60  93 128 163 216 263 314 377
#     4  12  25  40  62  93 133 169 209 259 325 391
#     4  11  22  38  63  94 125 166 212 265 319 380
#     4  11  26  41  65  99 132 170 215 268 326 393
#
# _framework density 21.232761
#
# number of rings (size 3 to 8) (size 9 to 14) (size 15 to 20)
#    0.000    0.857    7.143    0.000   10.000    0.000 
#    0.000    0.000    0.000    3.429    0.000    0.000 
#    0.000    0.000    0.000    0.000    0.000    0.000 
#
# Total GULP energy -346891.009241 kJ/mol
# GULP energy per Si atom -12388.964616 kJ/mol
# Density = 2.118443 g / cm^3
# Si number density = 21.232761 Si / 1000 Ang^3
#
#
#
# Elastic Constant Matrix: (Units=GPa)
#
#
# Indices 1 2 3 4 5 6 
#
# 1 74.3902 32.0585 37.4748 0.0000 7.8706 0.0000
# 2 32.0585 78.9817 23.3187 0.0000 9.6506 0.0000
# 3 37.4748 23.3187 84.3583 0.0000 23.7104 0.0000
# 4 0.0000 0.0000 0.0000 5.8150 0.0000 6.8506
# 5 7.8706 9.6506 23.7104 0.0000 37.7381 0.0000
# 6 0.0000 0.0000 0.0000 6.8506 0.0000 37.7203
#
#
#
# Elastic Compliance Matrix: (Units=1/GPa)
#
#
# Indices 1 2 3 4 5 6 
#
# 1 0.019672 -0.005982 -0.007726 0.000000 0.002282 0.000000
# 2 -0.005982 0.015664 -0.001090 0.000000 -0.002073 0.000000
# 3 -0.007726 -0.001090 0.018286 0.000000 -0.009599 0.000000
# 4 0.000000 0.000000 0.000000 0.218780 0.000000 -0.039734
# 5 0.002282 -0.002073 -0.009599 0.000000 0.032584 0.000000
# 6 0.000000 0.000000 0.000000 -0.039734 0.000000 0.033727
#
#
# Mechanical properties :
#
#
# Convention : Reuss Voigt Hill
#
# Bulk Modulus (GPa) = 41.62361 47.04824 44.33592
# Shear Modulus (GPa) = 13.28665 25.91322 19.59994
#
# Velocity S-wave (km/s) = 2.50424 3.49726 3.04155
# Velocity P-wave (km/s) = 5.29222 6.20598 5.76723
#
# Compressibility (1/GPa) = 0.02402483
#
# Stress axis : x y z
#
# Youngs Moduli (GPa) = 50.83489 63.83885 54.68794
#
# Poissons Ratio (x) = 0.38190 0.42254
# Poissons Ratio (y) = 0.30411 0.05959
# Poissons Ratio (z) = 0.39277 0.06957
#
# Static dielectric constant tensor:
#      x y z
#    x 3.849790 0.000000 0.313730 
#    y 0.000000 3.311650 0.000000 
#    z 0.313730 0.000000 3.705280 
# 
# 
# High freq. dielectric constant tensor:
#      x y z
#    x 1.829360 0.000000 0.028440 
#    y 0.000000 1.808200 0.000000 
#    z 0.028440 0.000000 1.833670 
# 
# From -- ./inp_files/155254.got.cif
#   From: 2010.06.25/outbox.cif.g09.slc.cpg/sg15_78_cif.got.tgz:155254.got - 2010.06.28 07:06:18.
