data_PCOD8148329
_publ_section_title
;
Structure prediction by ZEFSAII (Michael W. Deem and Ramdas Pophale) SiO2 
 PCOD8148329
Probable space group: C 2/C
;
_chemical_formula_sum "Si O2"
_cell_formula_units_Z 44
_cell_length_a 24.244022
_cell_length_b 7.101869
_cell_length_c 15.817502
_cell_angle_alpha 90.000000
_cell_angle_beta 132.276864
_cell_angle_gamma 90.000000
_cell_volume 2015.068868
_symmetry_space_group_name_H-M "C 2/C"
_symmetry_group_IT_number 15
_symmetry_cell_setting 'monoclinic'
loop_
_space_group_symop_operation_xyz
x,y,z
-x,y,1/2-z
-x,-y,-z
x,-y,1/2+z
1/2+x,1/2+y,z
1/2-x,1/2+y,1/2-z
1/2-x,1/2-y,-z
1/2+x,1/2-y,1/2+z
loop_
_atom_site_type_symbol
_atom_site_label
_atom_site_fract_x
_atom_site_fract_y
_atom_site_fract_z
Si Si1 0.939815 0.528298 0.013782
Si Si2 0.168749 0.254884 0.673961
Si Si3 0.000000 0.378815 0.750000
Si Si4 0.262348 0.529949 0.996370
Si Si5 0.171887 0.131886 0.110934
Si Si6 0.142994 0.256262 0.830344
O O1 0.979969 0.495957 0.146285
O O2 0.871401 0.380197 0.938731
O O3 0.899455 0.732642 0.971454
O O4 0.000000 0.500000 0.000000
O O5 0.259081 0.267603 0.769219
O O6 0.134080 0.327299 0.725900
O O7 0.143911 0.039703 0.638863
O O8 0.935747 0.232394 0.707020
O O9 0.299981 0.466959 0.946880
O O10 0.183921 0.422904 0.924935
O O11 0.250000 0.750000 0.000000
O O12 0.314301 0.444330 0.123880
#
# Coordination Sequence:
#
# PCOD8148329 Si02
#       6
#     8   8   4   8   8   8
#     4  12  26  48  70 103 151 195 241 307 379 447
#     4  11  24  42  71 105 135 186 245 306 360 441
#     4  12  24  48  68  98 152 196 232 300 378 438
#     4  10  23  40  69 103 133 187 246 303 358 434
#     4  11  24  42  73 104 139 186 246 302 371 434
#     4  10  23  43  65  97 145 181 238 300 358 438
#
# _framework density 21.835481999999999
#
# number of rings (size 3 to 8) (size 9 to 14) (size 15 to 20)
#    0.000    1.091    5.455    0.000    5.091    0.727 
#    0.000    1.818    0.000    0.000    0.000    0.000 
#    0.000    0.000    0.000    0.000    0.000    0.000 
#
# Total GULP energy -272627.916298 kJ/mol
# GULP energy per Si atom -12392.178014 kJ/mol
# Density = 2.178578 g / cm^3
# Si number density = 21.835482 Si / 1000 Ang^3
#
#
#
# Elastic Constant Matrix: (Units=GPa)
#
#
# Indices 1 2 3 4 5 6 
#
# 1 108.0025 39.1718 47.7475 0.0000 16.1570 0.0000
# 2 39.1718 152.5864 56.7331 0.0000 11.4179 0.0000
# 3 47.7475 56.7331 146.4339 0.0000 -4.1279 0.0000
# 4 0.0000 0.0000 0.0000 25.7964 0.0000 3.4098
# 5 16.1570 11.4179 -4.1279 0.0000 27.7395 0.0000
# 6 0.0000 0.0000 0.0000 3.4098 0.0000 32.8157
#
#
#
# Elastic Compliance Matrix: (Units=1/GPa)
#
#
# Indices 1 2 3 4 5 6 
#
# 1 0.012484 -0.001246 -0.003794 0.000000 -0.007323 0.000000
# 2 -0.001246 0.008158 -0.002841 0.000000 -0.003055 0.000000
# 3 -0.003794 -0.002841 0.009301 0.000000 0.004763 0.000000
# 4 0.000000 0.000000 0.000000 0.039305 0.000000 -0.004084
# 5 -0.007323 -0.003055 0.004763 0.000000 0.042281 0.000000
# 6 0.000000 0.000000 0.000000 -0.004084 0.000000 0.030898
#
#
# Mechanical properties :
#
#
# Convention : Reuss Voigt Hill
#
# Bulk Modulus (GPa) = 70.51529 77.14750 73.83140
# Shear Modulus (GPa) = 30.69063 34.82834 32.75948
#
# Velocity S-wave (km/s) = 3.75312 3.99812 3.87756
# Velocity P-wave (km/s) = 7.15159 7.53135 7.34392
#
# Compressibility (1/GPa) = 0.01418132
#
# Stress axis : x y z
#
# Youngs Moduli (GPa) = 80.10285 122.57412 107.51523
#
# Poissons Ratio (x) = 0.15275 0.40794
# Poissons Ratio (y) = 0.09982 0.30541
# Poissons Ratio (z) = 0.30393 0.34818
#
# Static dielectric constant tensor:
#      x y z
#    x 3.910790 0.000000 -0.060270 
#    y 0.000000 3.749080 0.000000 
#    z -0.060270 0.000000 4.274670 
# 
# 
# High freq. dielectric constant tensor:
#      x y z
#    x 1.860900 0.000000 -0.004190 
#    y 0.000000 1.838650 0.000000 
#    z -0.004190 0.000000 1.873160 
# 
# From -- ./inp_files/221401.got.cif
#   From: 2010.06.25/outbox.cif.g09.slc.cpg/sg15_111_cif.got.tgz:221401.got - 2010.06.28 07:06:18.
