data_PCOD8148347
_publ_section_title
;
Structure prediction by ZEFSAII (Michael W. Deem and Ramdas Pophale) SiO2 
 PCOD8148347
Probable space group: C 2/C
;
_chemical_formula_sum "Si O2"
_cell_formula_units_Z 60
_cell_length_a 25.652923
_cell_length_b 13.862399
_cell_length_c 20.152040
_cell_angle_alpha 90.000000
_cell_angle_beta 20.469036
_cell_angle_gamma 90.000000
_cell_volume 2506.059079
_symmetry_space_group_name_H-M "C 2/C"
_symmetry_group_IT_number 15
_symmetry_cell_setting 'monoclinic'
loop_
_space_group_symop_operation_xyz
x,y,z
-x,y,1/2-z
-x,-y,-z
x,-y,1/2+z
1/2+x,1/2+y,z
1/2-x,1/2+y,1/2-z
1/2-x,1/2-y,-z
1/2+x,1/2-y,1/2+z
loop_
_atom_site_type_symbol
_atom_site_label
_atom_site_fract_x
_atom_site_fract_y
_atom_site_fract_z
Si Si1 0.074717 0.841131 0.930494
Si Si2 0.795447 0.508454 0.124033
Si Si3 0.951757 0.089047 0.893962
Si Si4 0.000000 0.255835 0.750000
Si Si5 0.285351 0.338589 0.193264
Si Si6 0.213153 0.580775 0.004378
Si Si7 0.355122 0.611032 0.465527
Si Si8 0.062902 0.600535 0.742083
O O1 0.161427 0.743818 0.844588
O O2 0.160599 0.914719 0.779494
O O3 0.053344 0.905787 0.021277
O O4 0.917298 0.812545 0.086741
O O5 0.790047 0.442305 0.197284
O O6 0.784212 0.432349 0.078032
O O7 0.940777 0.578221 0.944956
O O8 0.914085 0.193196 0.908375
O O9 0.120278 0.070148 0.666431
O O10 0.847833 0.003816 0.989633
O O11 0.135004 0.319404 0.618604
O O12 0.358335 0.336971 0.032941
O O13 0.111797 0.501857 0.157637
O O14 0.500000 0.640326 0.250000
O O15 0.207391 0.650111 0.603156
O O16 0.000000 0.656571 0.750000
#
# Coordination Sequence:
#
# PCOD8148347 Si02
#       8
#     8   8   8   4   8   8   8   8
#     4  12  28  46  75 105 146 196 242 301 355 429
#     4  11  22  46  74  99 146 193 240 286 363 432
#     4  12  23  40  68 102 145 184 236 283 361 426
#     4  12  22  36  60 112 142 178 228 300 356 430
#     4  12  28  49  72 107 145 192 249 296 362 434
#     4  11  20  40  64 102 141 184 228 286 360 429
#     4  12  25  47  73 105 137 189 242 295 356 433
#     4  10  23  40  72 104 138 181 235 292 359 428
#
# _framework density 23.941973999999998
#
# number of rings (size 3 to 8) (size 9 to 14) (size 15 to 20)
#    0.000    0.533    6.667    2.400    3.733    1.600 
#    0.000    2.667    0.000    0.000    0.000    0.000 
#    0.000    0.000    0.000    0.000    0.000    0.000 
#
# Total GULP energy -371838.947567 kJ/mol
# GULP energy per Si atom -12394.631586 kJ/mol
# Density = 2.388748 g / cm^3
# Si number density = 23.941974 Si / 1000 Ang^3
#
#
#
# Elastic Constant Matrix: (Units=GPa)
#
#
# Indices 1 2 3 4 5 6 
#
# 1 111.3034 2.9963 32.8516 -0.0003 -0.9255 -0.0006
# 2 2.9963 49.4601 5.4285 -0.0002 -5.3418 -0.0003
# 3 32.8516 5.4285 109.0950 0.0000 0.6452 -0.0005
# 4 -0.0003 -0.0002 0.0000 24.0471 0.0001 -1.2476
# 5 -0.9255 -5.3418 0.6452 0.0001 41.8023 0.0004
# 6 -0.0006 -0.0003 -0.0005 -1.2476 0.0004 27.5682
#
#
#
# Elastic Compliance Matrix: (Units=1/GPa)
#
#
# Indices 1 2 3 4 5 6 
#
# 1 0.009867 -0.000248 -0.002960 0.000000 0.000232 0.000000
# 2 -0.000248 0.020625 -0.000967 0.000000 0.002645 0.000000
# 3 -0.002960 -0.000967 0.010108 0.000000 -0.000345 0.000000
# 4 0.000000 0.000000 0.000000 0.041683 0.000000 0.001886
# 5 0.000232 0.002645 -0.000345 0.000000 0.024271 0.000000
# 6 0.000000 0.000000 0.000000 0.001886 0.000000 0.036359
#
#
# Mechanical properties :
#
#
# Convention : Reuss Voigt Hill
#
# Bulk Modulus (GPa) = 31.00843 39.15680 35.08261
# Shear Modulus (GPa) = 30.86176 33.92231 32.39204
#
# Velocity S-wave (km/s) = 3.59419 3.76820 3.68222
# Velocity P-wave (km/s) = 5.49581 5.94330 5.72393
#
# Compressibility (1/GPa) = 0.03224930
#
# Stress axis : x y z
#
# Youngs Moduli (GPa) = 101.35029 48.48446 98.93247
#
# Poissons Ratio (x) = 0.01201 0.29286
# Poissons Ratio (y) = 0.02511 0.09570
# Poissons Ratio (z) = 0.30002 0.04690
#
# Static dielectric constant tensor:
#      x y z
#    x 5.721730 0.000000 -0.202700 
#    y 0.000000 4.019630 0.000000 
#    z -0.202700 0.000000 4.626960 
# 
# 
# High freq. dielectric constant tensor:
#      x y z
#    x 1.948750 0.000000 0.006630 
#    y 0.000000 1.937200 0.000000 
#    z 0.006630 0.000000 1.959880 
# 
# From -- ./inp_files/257864.got.cif
#   From: 2010.06.25/outbox.cif.g09.slc.cpg/sg15_129_cif.got.tgz:257864.got - 2010.06.28 07:06:18.
