data_PCOD8148870
_publ_section_title
;
Structure prediction by ZEFSAII (Michael W. Deem and Ramdas Pophale) SiO2 
 PCOD8148870
Probable space group: C 2/C
;
_chemical_formula_sum "Si O2"
_cell_formula_units_Z 60
_cell_length_a 23.536499
_cell_length_b 8.379512
_cell_length_c 14.747826
_cell_angle_alpha 90.000000
_cell_angle_beta 78.457395
_cell_angle_gamma 90.000000
_cell_volume 2849.807164
_symmetry_space_group_name_H-M "C 2/C"
_symmetry_group_IT_number 15
_symmetry_cell_setting 'monoclinic'
loop_
_space_group_symop_operation_xyz
x,y,z
-x,y,1/2-z
-x,-y,-z
x,-y,1/2+z
1/2+x,1/2+y,z
1/2-x,1/2+y,1/2-z
1/2-x,1/2-y,-z
1/2+x,1/2-y,1/2+z
loop_
_atom_site_type_symbol
_atom_site_label
_atom_site_fract_x
_atom_site_fract_y
_atom_site_fract_z
Si Si1 0.194191 0.805211 0.465851
Si Si2 0.972031 0.970656 0.913253
Si Si3 0.600311 0.793619 0.132638
Si Si4 0.207553 0.611699 0.280606
Si Si5 0.142704 0.867732 0.989501
Si Si6 0.670444 0.250730 0.792149
Si Si7 0.116613 0.346772 0.654950
Si Si8 0.000000 0.826497 0.250000
O O1 0.250000 0.750000 0.500000
O O2 0.139664 0.734128 0.533484
O O3 0.193215 0.731824 0.366406
O O4 0.193919 0.999777 0.466384
O O5 0.960886 0.793508 0.873888
O O6 0.909376 0.046458 0.942897
O O7 0.014183 0.063497 0.831736
O O8 0.000000 0.000000 0.000000
O O9 0.629978 0.731245 0.216474
O O10 0.590611 0.980290 0.142877
O O11 0.275259 0.629501 0.234318
O O12 0.194946 0.426091 0.304254
O O13 0.166589 0.664144 0.212529
O O14 0.150811 0.719425 0.055241
O O15 0.131603 0.801707 0.891564
O O16 0.058745 0.266111 0.711230
#
# Coordination Sequence:
#
# PCOD8148870 Si02
#       8
#     8   8   8   8   8   8   8   4
#     4  11  22  38  62  94 133 174 215 267 319 394
#     4  10  24  43  68  98 120 173 217 270 329 390
#     4  10  23  43  65  94 134 164 219 269 330 389
#     4  11  24  38  65  93 132 175 217 266 328 390
#     4  10  24  41  63  91 132 168 218 270 325 389
#     4  11  23  40  63  97 127 174 212 264 332 391
#     4  10  24  45  64  96 129 172 217 279 328 390
#     4  10  24  44  66  92 130 164 224 264 332 386
#
# _framework density 21.054055999999999
#
# number of rings (size 3 to 8) (size 9 to 14) (size 15 to 20)
#    0.000    1.600    1.333    1.600    9.333    4.267 
#    2.400    1.333    0.000    0.000    0.000    0.000 
#    0.000    0.000    0.000    0.000    0.000    0.000 
#
# Total GULP energy -371664.091778 kJ/mol
# GULP energy per Si atom -12388.803059 kJ/mol
# Density = 2.100614 g / cm^3
# Si number density = 21.054056 Si / 1000 Ang^3
#
#
#
# Elastic Constant Matrix: (Units=GPa)
#
#
# Indices 1 2 3 4 5 6 
#
# 1 57.7642 45.0771 26.0669 0.0000 17.3509 0.0000
# 2 45.0771 119.5449 63.5185 0.0000 16.3413 0.0000
# 3 26.0669 63.5185 150.5223 0.0000 9.3529 0.0000
# 4 0.0000 0.0000 0.0000 39.3487 0.0000 0.1134
# 5 17.3509 16.3413 9.3529 0.0000 39.1162 0.0000
# 6 0.0000 0.0000 0.0000 0.1134 0.0000 24.9056
#
#
#
# Elastic Compliance Matrix: (Units=1/GPa)
#
#
# Indices 1 2 3 4 5 6 
#
# 1 0.026780 -0.008756 -0.000439 0.000000 -0.008116 0.000000
# 2 -0.008756 0.014130 -0.004386 0.000000 -0.000970 0.000000
# 3 -0.000439 -0.004386 0.008572 0.000000 -0.000023 0.000000
# 4 0.000000 0.000000 0.000000 0.025414 0.000000 -0.000116
# 5 -0.008116 -0.000970 -0.000023 0.000000 0.029576 0.000000
# 6 0.000000 0.000000 0.000000 -0.000116 0.000000 0.040152
#
#
# Mechanical properties :
#
#
# Convention : Reuss Voigt Hill
#
# Bulk Modulus (GPa) = 44.80040 66.35069 55.57555
# Shear Modulus (GPa) = 27.89798 33.55202 30.72500
#
# Velocity S-wave (km/s) = 3.64409 3.99634 3.82427
# Velocity P-wave (km/s) = 6.24747 7.27167 6.77894
#
# Compressibility (1/GPa) = 0.02232123
#
# Stress axis : x y z
#
# Youngs Moduli (GPa) = 37.34103 70.77341 116.66262
#
# Poissons Ratio (x) = 0.61966 0.05117
# Poissons Ratio (y) = 0.32694 0.51168
# Poissons Ratio (z) = 0.01638 0.31041
#
# Static dielectric constant tensor:
#      x y z
#    x 3.543800 0.000000 -0.033100 
#    y 0.000000 4.207920 0.000000 
#    z -0.033100 0.000000 4.027040 
# 
# 
# High freq. dielectric constant tensor:
#      x y z
#    x 1.808360 0.000000 -0.004830 
#    y 0.000000 1.836820 0.000000 
#    z -0.004830 0.000000 1.849040 
# 
# From -- ./inp_files/176194.got.cif
#   From: 2010.06.25/outbox.cif.g09.slc.cpg/sg15_89_cif.got.tgz:176194.got - 2010.06.28 07:06:18.
