data_PCOD8148902
_publ_section_title
;
Structure prediction by ZEFSAII (Michael W. Deem and Ramdas Pophale) SiO2 
 PCOD8148902
Probable space group: C 2/C
;
_chemical_formula_sum "Si O2"
_cell_formula_units_Z 40
_cell_length_a 15.288677
_cell_length_b 8.842199
_cell_length_c 14.684480
_cell_angle_alpha 90.000000
_cell_angle_beta 109.125678
_cell_angle_gamma 90.000000
_cell_volume 1875.554309
_symmetry_space_group_name_H-M "C 2/C"
_symmetry_group_IT_number 15
_symmetry_cell_setting 'monoclinic'
loop_
_space_group_symop_operation_xyz
x,y,z
-x,y,1/2-z
-x,-y,-z
x,-y,1/2+z
1/2+x,1/2+y,z
1/2-x,1/2+y,1/2-z
1/2-x,1/2-y,-z
1/2+x,1/2-y,1/2+z
loop_
_atom_site_type_symbol
_atom_site_label
_atom_site_fract_x
_atom_site_fract_y
_atom_site_fract_z
Si Si1 0.267812 0.094307 0.832779
Si Si2 0.738075 0.755904 0.355210
Si Si3 0.105615 0.159430 0.460451
Si Si4 0.048900 0.658922 0.505254
Si Si5 0.077791 0.852808 0.349861
O O1 0.294649 0.144215 0.740575
O O2 0.345231 0.151238 0.928527
O O3 0.172915 0.177021 0.828884
O O4 0.260408 0.914156 0.832708
O O5 0.829397 0.833389 0.428364
O O6 0.653419 0.759143 0.397652
O O7 0.004701 0.222646 0.449173
O O8 0.092421 0.987703 0.426241
O O9 0.047609 0.707112 0.398473
O O10 0.000000 0.500000 0.500000
O O11 0.000000 0.894565 0.250000
#
# Coordination Sequence:
#
# PCOD8148902 Si02
#       5
#     8   8   8   8   8
#     4  11  25  42  68  97 134 175 220 272 332 389
#     4  10  23  43  66  99 133 173 223 269 329 392
#     4  10  23  44  67  94 134 173 221 269 328 395
#     4  12  25  44  66  99 134 172 219 275 330 388
#     4  11  26  45  69  96 132 176 223 269 331 396
#
# _framework density 21.327029
#
# number of rings (size 3 to 8) (size 9 to 14) (size 15 to 20)
#    0.000    1.200    2.000    2.400    8.400    1.600 
#    0.000    0.000    0.000    0.000    0.000    0.000 
#    0.000    0.000    0.000    0.000    0.000    0.000 
#
# Total GULP energy -248134.874059 kJ/mol
# GULP energy per Si atom -12406.743703 kJ/mol
# Density = 2.127849 g / cm^3
# Si number density = 21.327029 Si / 1000 Ang^3
#
#
#
# Elastic Constant Matrix: (Units=GPa)
#
#
# Indices 1 2 3 4 5 6 
#
# 1 114.1115 15.6982 37.4920 0.0000 14.8017 0.0000
# 2 15.6982 62.4805 46.3226 0.0000 1.0598 0.0000
# 3 37.4920 46.3226 119.1055 0.0000 0.1389 0.0000
# 4 0.0000 0.0000 0.0000 42.0579 0.0000 -1.8643
# 5 14.8017 1.0598 0.1389 0.0000 33.3844 0.0000
# 6 0.0000 0.0000 0.0000 -1.8643 0.0000 30.9601
#
#
#
# Elastic Compliance Matrix: (Units=1/GPa)
#
#
# Indices 1 2 3 4 5 6 
#
# 1 0.010441 -0.000158 -0.003220 0.000000 -0.004611 0.000000
# 2 -0.000158 0.022508 -0.008703 0.000000 -0.000608 0.000000
# 3 -0.003220 -0.008703 0.012792 0.000000 0.001651 0.000000
# 4 0.000000 0.000000 0.000000 0.023840 0.000000 0.001436
# 5 -0.004611 -0.000608 0.001651 0.000000 0.032011 0.000000
# 6 0.000000 0.000000 0.000000 0.001436 0.000000 0.032386
#
#
# Mechanical properties :
#
#
# Convention : Reuss Voigt Hill
#
# Bulk Modulus (GPa) = 46.34138 54.96924 50.65531
# Shear Modulus (GPa) = 30.24194 34.35945 32.30069
#
# Velocity S-wave (km/s) = 3.76973 4.01817 3.89593
# Velocity P-wave (km/s) = 6.38153 6.88172 6.63634
#
# Compressibility (1/GPa) = 0.02157899
#
# Stress axis : x y z
#
# Youngs Moduli (GPa) = 95.77563 44.42959 78.17143
#
# Poissons Ratio (x) = 0.00702 0.25170
# Poissons Ratio (y) = 0.01513 0.68034
# Poissons Ratio (z) = 0.30838 0.38668
#
# Static dielectric constant tensor:
#      x y z
#    x 4.186160 0.000000 -0.024030 
#    y 0.000000 3.799110 0.000000 
#    z -0.024030 0.000000 3.887430 
# 
# 
# High freq. dielectric constant tensor:
#      x y z
#    x 1.853230 0.000000 -0.004250 
#    y 0.000000 1.832040 0.000000 
#    z -0.004250 0.000000 1.840610 
# 
# From -- ./inp_files/150539.got.cif
#   From: 2010.06.25/outbox.cif.g09.slc.cpg/sg15_76_cif.got.tgz:150539.got - 2010.06.28 07:06:18.
