data_PCOD8148492
_publ_section_title
;
Structure prediction by ZEFSAII (Michael W. Deem and Ramdas Pophale) SiO2 
 PCOD8148492
Probable space group: C 2/C
;
_chemical_formula_sum "Si O2"
_cell_formula_units_Z 48
_cell_length_a 13.801766
_cell_length_b 11.666132
_cell_length_c 27.492040
_cell_angle_alpha 90.000000
_cell_angle_beta 29.830730
_cell_angle_gamma 90.000000
_cell_volume 2201.955878
_symmetry_space_group_name_H-M "C 2/C"
_symmetry_group_IT_number 15
_symmetry_cell_setting 'monoclinic'
loop_
_space_group_symop_operation_xyz
x,y,z
-x,y,1/2-z
-x,-y,-z
x,-y,1/2+z
1/2+x,1/2+y,z
1/2-x,1/2+y,1/2-z
1/2-x,1/2-y,-z
1/2+x,1/2-y,1/2+z
loop_
_atom_site_type_symbol
_atom_site_label
_atom_site_fract_x
_atom_site_fract_y
_atom_site_fract_z
Si Si1 0.603392 0.635282 0.601092
Si Si2 0.144306 0.357868 0.784203
Si Si3 0.041017 0.149852 0.435673
Si Si4 0.755392 0.952849 0.559920
Si Si5 0.117738 0.385557 0.437467
Si Si6 0.122503 0.030206 0.239399
O O1 0.440660 0.731455 0.677378
O O2 0.671887 0.627691 0.515787
O O3 0.788324 0.665148 0.554248
O O4 0.516180 0.513979 0.656835
O O5 0.329828 0.362560 0.668578
O O6 0.214994 0.387336 0.808290
O O7 0.980603 0.450597 0.838349
O O8 0.170123 0.096563 0.422105
O O9 0.989486 0.282955 0.469816
O O10 0.836929 0.082345 0.517941
O O11 0.284517 0.417700 0.326250
O O12 0.000000 0.500000 0.500000
O O13 0.000000 0.095684 0.250000
#
# Coordination Sequence:
#
# PCOD8148492 Si02
#       6
#     8   8   8   8   8   8
#     4  11  22  42  70  96 133 182 240 270 344 414
#     4  12  22  43  72  96 138 187 231 285 344 419
#     4  11  24  42  66 104 143 175 231 287 344 409
#     4  11  24  40  68 105 135 179 234 281 340 418
#     4  11  23  42  68 100 134 181 229 287 341 410
#     4  10  23  41  67  97 133 176 229 292 342 395
#
# _framework density 21.798801000000001
#
# number of rings (size 3 to 8) (size 9 to 14) (size 15 to 20)
#    0.000    1.000    5.000    2.000    2.333    0.000 
#    0.000    6.667    0.000    0.000    0.000    0.000 
#    0.000    0.000    0.000    0.000    0.000    0.000 
#
# Total GULP energy -297576.057966 kJ/mol
# GULP energy per Si atom -12399.002415 kJ/mol
# Density = 2.174919 g / cm^3
# Si number density = 21.798801 Si / 1000 Ang^3
#
#
#
# Elastic Constant Matrix: (Units=GPa)
#
#
# Indices 1 2 3 4 5 6 
#
# 1 127.0553 50.2223 13.6568 0.0002 -4.1238 0.0004
# 2 50.2223 112.1832 36.1041 0.0013 -11.9252 0.0001
# 3 13.6568 36.1041 58.6954 -0.0002 -1.9100 0.0008
# 4 0.0002 0.0013 -0.0002 34.5973 -0.0012 -4.1190
# 5 -4.1238 -11.9252 -1.9100 -0.0012 35.9041 -0.0002
# 6 0.0004 0.0001 0.0008 -4.1190 -0.0002 35.4695
#
#
#
# Elastic Compliance Matrix: (Units=1/GPa)
#
#
# Indices 1 2 3 4 5 6 
#
# 1 0.009580 -0.004496 0.000525 0.000000 -0.000365 0.000000
# 2 -0.004496 0.013638 -0.007224 0.000000 0.003629 0.000000
# 3 0.000525 -0.007224 0.021320 0.000000 -0.001205 0.000000
# 4 0.000000 0.000000 0.000000 0.029309 0.000001 0.003404
# 5 -0.000365 0.003629 -0.001205 0.000001 0.028951 0.000000
# 6 0.000000 0.000000 0.000000 0.003404 0.000000 0.028588
#
#
# Mechanical properties :
#
#
# Convention : Reuss Voigt Hill
#
# Bulk Modulus (GPa) = 45.15641 55.32223 50.23932
# Shear Modulus (GPa) = 31.02522 34.39091 32.70806
#
# Velocity S-wave (km/s) = 3.77670 3.97627 3.87777
# Velocity P-wave (km/s) = 6.30698 6.82017 6.56859
#
# Compressibility (1/GPa) = 0.02214525
#
# Stress axis : x y z
#
# Youngs Moduli (GPa) = 104.38807 73.32595 46.90527
#
# Poissons Ratio (x) = 0.32970 -0.02462
# Poissons Ratio (y) = 0.46937 0.33886
# Poissons Ratio (z) = -0.05480 0.52974
#
# Static dielectric constant tensor:
#      x y z
#    x 4.134910 0.000010 0.065560 
#    y 0.000010 3.875240 0.000000 
#    z 0.065560 0.000000 3.982910 
# 
# 
# High freq. dielectric constant tensor:
#      x y z
#    x 1.865160 0.000000 0.015800 
#    y 0.000000 1.841400 0.000000 
#    z 0.015800 0.000000 1.857970 
# 
# From -- ./inp_files/313538.got.cif
#   From: 2010.06.25/outbox.cif.g09.slc.cpg/sg15_157_cif.got.tgz:313538.got - 2010.06.28 07:06:18.
