data_PCOD8148672
_publ_section_title
;
Structure prediction by ZEFSAII (Michael W. Deem and Ramdas Pophale) SiO2 
 PCOD8148672
Probable space group: C 2/C
;
_chemical_formula_sum "Si O2"
_cell_formula_units_Z 60
_cell_length_a 7.907484
_cell_length_b 16.235387
_cell_length_c 22.870722
_cell_angle_alpha 90.000000
_cell_angle_beta 74.487563
_cell_angle_gamma 90.000000
_cell_volume 2829.210126
_symmetry_space_group_name_H-M "C 2/C"
_symmetry_group_IT_number 15
_symmetry_cell_setting 'monoclinic'
loop_
_space_group_symop_operation_xyz
x,y,z
-x,y,1/2-z
-x,-y,-z
x,-y,1/2+z
1/2+x,1/2+y,z
1/2-x,1/2+y,1/2-z
1/2-x,1/2-y,-z
1/2+x,1/2-y,1/2+z
loop_
_atom_site_type_symbol
_atom_site_label
_atom_site_fract_x
_atom_site_fract_y
_atom_site_fract_z
Si Si1 0.639414 0.182655 0.839103
Si Si2 0.330149 0.867411 0.035230
Si Si3 0.500000 0.048662 0.250000
Si Si4 0.986518 0.247701 0.942212
Si Si5 0.297806 0.845571 0.863106
Si Si6 0.693357 0.480444 0.960194
Si Si7 0.237290 0.629153 0.624532
Si Si8 0.680328 0.431859 0.260286
O O1 0.662668 0.128590 0.896005
O O2 0.664300 0.280618 0.845276
O O3 0.445999 0.162300 0.833240
O O4 0.781038 0.151619 0.779202
O O5 0.151440 0.823695 0.029385
O O6 0.493404 0.812991 0.995310
O O7 0.316938 0.956257 0.004474
O O8 0.586871 0.104618 0.193207
O O9 0.344139 0.993805 0.236365
O O10 0.934957 0.293664 0.887742
O O11 0.173954 0.207027 0.914639
O O12 0.184046 0.907071 0.913410
O O13 0.786565 0.559011 0.922284
O O14 0.500000 0.500000 0.000000
O O15 0.347244 0.591575 0.668885
O O16 0.500000 0.470218 0.250000
#
# Coordination Sequence:
#
# PCOD8148672 Si02
#       8
#     8   8   4   8   8   8   8   8
#     4  11  24  41  68  97 137 177 230 279 340 415
#     4   9  19  38  61  94 129 173 222 271 347 395
#     4  12  24  50  68  98 138 174 234 290 338 410
#     4   9  19  37  61  91 130 174 219 271 336 403
#     4  10  23  42  66  97 134 178 220 288 338 397
#     4  11  21  39  69  96 134 178 224 285 345 401
#     4  12  23  42  66  99 134 180 232 279 337 416
#     4  12  25  46  72  97 134 182 227 284 349 410
#
# _framework density 21.207332000000001
#
# number of rings (size 3 to 8) (size 9 to 14) (size 15 to 20)
#    0.000    1.333    4.000    2.400    2.800    1.067 
#    2.400    0.000    0.000    0.000    0.000    0.000 
#    0.000    0.000    0.000    0.000    0.000    0.000 
#
# Total GULP energy -371970.615136 kJ/mol
# GULP energy per Si atom -12399.020505 kJ/mol
# Density = 2.115906 g / cm^3
# Si number density = 21.207332 Si / 1000 Ang^3
#
#
#
# Elastic Constant Matrix: (Units=GPa)
#
#
# Indices 1 2 3 4 5 6 
#
# 1 91.9314 39.0018 20.5654 0.0000 -10.8114 0.0000
# 2 39.0018 110.2223 42.2159 0.0000 -10.9525 0.0000
# 3 20.5654 42.2159 106.9779 0.0000 -10.5803 0.0000
# 4 0.0000 0.0000 0.0000 46.7366 0.0000 -7.2146
# 5 -10.8114 -10.9525 -10.5803 0.0000 26.5930 0.0000
# 6 0.0000 0.0000 0.0000 -7.2146 0.0000 32.9893
#
#
#
# Elastic Compliance Matrix: (Units=1/GPa)
#
#
# Indices 1 2 3 4 5 6 
#
# 1 0.013145 -0.004091 -0.000573 0.000000 0.003431 0.000000
# 2 -0.004091 0.012170 -0.003836 0.000000 0.001823 0.000000
# 3 -0.000573 -0.003836 0.011234 0.000000 0.002657 0.000000
# 4 0.000000 0.000000 0.000000 0.022144 0.000000 0.004843
# 5 0.003431 0.001823 0.002657 0.000000 0.040807 0.000000
# 6 0.000000 0.000000 0.000000 0.004843 0.000000 0.031372
#
#
# Mechanical properties :
#
#
# Convention : Reuss Voigt Hill
#
# Bulk Modulus (GPa) = 51.15170 56.96643 54.05906
# Shear Modulus (GPa) = 32.38561 35.08700 33.73631
#
# Velocity S-wave (km/s) = 3.91205 4.07194 3.99279
# Velocity P-wave (km/s) = 6.67665 7.00197 6.84124
#
# Compressibility (1/GPa) = 0.01954969
#
# Stress axis : x y z
#
# Youngs Moduli (GPa) = 76.07485 82.16606 89.01161
#
# Poissons Ratio (x) = 0.33612 0.05103
# Poissons Ratio (y) = 0.31120 0.34145
# Poissons Ratio (z) = 0.04362 0.31519
#
# Static dielectric constant tensor:
#      x y z
#    x 3.546910 0.000000 -0.037150 
#    y 0.000000 4.077270 0.000000 
#    z -0.037150 0.000000 3.985740 
# 
# 
# High freq. dielectric constant tensor:
#      x y z
#    x 1.806700 0.000000 -0.007540 
#    y 0.000000 1.831160 0.000000 
#    z -0.007540 0.000000 1.848160 
# 
# From -- ./inp_files/264676.got.cif
#   From: 2010.06.25/outbox.cif.g09.slc.cpg/sg15_133_cif.got.tgz:264676.got - 2010.06.28 07:06:18.
