data_PCOD8148377
_publ_section_title
;
Structure prediction by ZEFSAII (Michael W. Deem and Ramdas Pophale) SiO2 
 PCOD8148377
Probable space group: C 2/C
;
_chemical_formula_sum "Si O2"
_cell_formula_units_Z 40
_cell_length_a 8.246418
_cell_length_b 18.294572
_cell_length_c 12.229379
_cell_angle_alpha 90.000000
_cell_angle_beta 78.215303
_cell_angle_gamma 90.000000
_cell_volume 1806.092875
_symmetry_space_group_name_H-M "C 2/C"
_symmetry_group_IT_number 15
_symmetry_cell_setting 'monoclinic'
loop_
_space_group_symop_operation_xyz
x,y,z
-x,y,1/2-z
-x,-y,-z
x,-y,1/2+z
1/2+x,1/2+y,z
1/2-x,1/2+y,1/2-z
1/2-x,1/2-y,-z
1/2+x,1/2-y,1/2+z
loop_
_atom_site_type_symbol
_atom_site_label
_atom_site_fract_x
_atom_site_fract_y
_atom_site_fract_z
Si Si1 0.307339 0.845481 0.687734
Si Si2 0.898874 0.693450 0.479328
Si Si3 0.292232 0.573495 0.078143
Si Si4 0.822310 0.087790 0.508856
Si Si5 0.872932 0.297591 0.349802
O O1 0.495698 0.812931 0.649374
O O2 0.275270 0.894731 0.798038
O O3 0.279324 0.899181 0.588112
O O4 0.180897 0.777651 0.700057
O O5 0.750000 0.750000 0.500000
O O6 0.807958 0.614595 0.505673
O O7 0.029906 0.718025 0.551649
O O8 0.261371 0.487654 0.071371
O O9 0.485097 0.590463 0.042350
O O10 0.782719 0.150558 0.603655
O O11 0.000000 0.337576 0.250000
#
# Coordination Sequence:
#
# PCOD8148377 Si02
#       5
#     8   8   8   8   8
#     4  11  22  41  65  90 127 168 205 256 321 373
#     4  11  22  38  63  93 121 156 210 258 298 368
#     4  11  23  40  64  93 126 165 209 260 313 371
#     4  10  23  41  62  90 127 167 208 256 314 378
#     4  11  23  39  63  89 125 168 206 256 316 376
#
# _framework density 22.147255999999999
#
# number of rings (size 3 to 8) (size 9 to 14) (size 15 to 20)
#    0.000    1.200    0.000    8.400    0.000    6.400 
#    0.000    5.000    0.000    0.000    0.000    0.000 
#    0.000    0.000    0.000    0.000    0.000    0.000 
#
# Total GULP energy -247858.688122 kJ/mol
# GULP energy per Si atom -12392.934406 kJ/mol
# Density = 2.209685 g / cm^3
# Si number density = 22.147256 Si / 1000 Ang^3
#
#
#
# Elastic Constant Matrix: (Units=GPa)
#
#
# Indices 1 2 3 4 5 6 
#
# 1 94.1735 45.3937 20.9223 0.0000 -28.7432 0.0000
# 2 45.3937 133.0165 57.1392 0.0000 -10.7999 0.0000
# 3 20.9223 57.1392 104.6796 0.0000 -35.6573 0.0000
# 4 0.0000 0.0000 0.0000 41.7654 0.0000 -2.2203
# 5 -28.7432 -10.7999 -35.6573 0.0000 32.8643 0.0000
# 6 0.0000 0.0000 0.0000 -2.2203 0.0000 39.3649
#
#
#
# Elastic Compliance Matrix: (Units=1/GPa)
#
#
# Indices 1 2 3 4 5 6 
#
# 1 0.020576 -0.009012 0.009403 0.000000 0.025237 0.000000
# 2 -0.009012 0.014130 -0.011127 0.000000 -0.015312 0.000000
# 3 0.009403 -0.011127 0.024275 0.000000 0.030905 0.000000
# 4 0.000000 0.000000 0.000000 0.024015 0.000000 0.001355
# 5 0.025237 -0.015312 0.030905 0.000000 0.081001 0.000000
# 6 0.000000 0.000000 0.000000 0.001355 0.000000 0.025480
#
#
# Mechanical properties :
#
#
# Convention : Reuss Voigt Hill
#
# Bulk Modulus (GPa) = 26.66046 64.30888 45.48467
# Shear Modulus (GPa) = 22.37616 36.69321 29.53468
#
# Velocity S-wave (km/s) = 3.18203 4.07478 3.65576
# Velocity P-wave (km/s) = 5.05612 7.15810 6.19688
#
# Compressibility (1/GPa) = 0.03750873
#
# Stress axis : x y z
#
# Youngs Moduli (GPa) = 48.59927 70.77088 41.19528
#
# Poissons Ratio (x) = 0.63781 -0.38737
# Poissons Ratio (y) = 0.43799 0.45839
# Poissons Ratio (z) = -0.45699 0.78749
#
# Static dielectric constant tensor:
#      x y z
#    x 4.334000 0.000000 -0.211830 
#    y 0.000000 4.150890 0.000000 
#    z -0.211830 0.000000 4.177000 
# 
# 
# High freq. dielectric constant tensor:
#      x y z
#    x 1.896130 0.000000 -0.017350 
#    y 0.000000 1.868060 0.000000 
#    z -0.017350 0.000000 1.868220 
# 
# From -- ./inp_files/76661.got.cif
#   From: 2010.06.25/outbox.cif.g09.slc.cpg/sg15_39_cif.got.tgz:76661.got - 2010.06.28 07:06:18.
