data_PCOD8148521
_publ_section_title
;
Structure prediction by ZEFSAII (Michael W. Deem and Ramdas Pophale) SiO2 
 PCOD8148521
Probable space group: C 2/C
;
_chemical_formula_sum "Si O2"
_cell_formula_units_Z 56
_cell_length_a 9.291443
_cell_length_b 17.800878
_cell_length_c 17.441348
_cell_angle_alpha 90.000000
_cell_angle_beta 62.759922
_cell_angle_gamma 90.000000
_cell_volume 2564.799966
_symmetry_space_group_name_H-M "C 2/C"
_symmetry_group_IT_number 15
_symmetry_cell_setting 'monoclinic'
loop_
_space_group_symop_operation_xyz
x,y,z
-x,y,1/2-z
-x,-y,-z
x,-y,1/2+z
1/2+x,1/2+y,z
1/2-x,1/2+y,1/2-z
1/2-x,1/2-y,-z
1/2+x,1/2-y,1/2+z
loop_
_atom_site_type_symbol
_atom_site_label
_atom_site_fract_x
_atom_site_fract_y
_atom_site_fract_z
Si Si1 0.503329 0.500000 0.374286
Si Si2 0.133476 0.661337 0.569585
Si Si3 0.231724 0.500000 0.060078
Si Si4 0.366524 0.161337 0.430415
Si Si5 0.786775 0.710003 0.613678
Si Si6 0.213225 0.710003 0.386322
Si Si7 0.000000 0.123961 0.750000
Si Si8 0.500000 0.376039 0.750000
O O1 0.643123 0.500000 0.402004
O O2 0.327165 0.500000 0.456410
O O3 0.524484 0.425838 0.318971
O O4 0.524484 0.574162 0.318971
O O5 0.117012 0.573353 0.594315
O O6 0.216011 0.665275 0.465969
O O7 0.246891 0.702689 0.604695
O O8 0.960894 0.703434 0.611715
O O9 0.117012 0.573353 0.094315
O O10 0.253109 0.202689 0.395305
O O11 0.283989 0.165275 0.534031
O O12 0.539106 0.203434 0.388285
O O13 0.656955 0.676263 0.703664
O O14 0.343045 0.676263 0.296336
#
# Coordination Sequence:
#
# PCOD8148521 Si02
#       8
#     8   8   8   8   8   8   4   4
#     4  10  24  38  69 101 137 173 221 275 341 389
#     4  10  23  42  68  99 130 181 225 266 325 408
#     4  11  22  43  70 100 133 177 223 276 321 413
#     4  10  23  42  68  99 130 181 225 266 325 408
#     4  10  23  41  69  95 137 174 227 268 331 396
#     4  10  23  41  69  95 137 174 227 268 331 396
#     4  11  22  44  64 103 134 178 212 287 332 392
#     4  11  22  44  64 103 134 178 212 287 332 392
#
# _framework density 21.834060000000001
#
# number of rings (size 3 to 8) (size 9 to 14) (size 15 to 20)
#    0.000    1.714    2.857    0.000    4.000    8.000 
#    0.000    1.429    0.000    0.000    0.000    0.000 
#    0.000    0.000    0.000    0.000    0.000    0.000 
#
# Total GULP energy -347271.870622 kJ/mol
# GULP energy per Si atom -12402.566808 kJ/mol
# Density = 2.178437 g / cm^3
# Si number density = 21.834060 Si / 1000 Ang^3
#
#
#
# Elastic Constant Matrix: (Units=GPa)
#
#
# Indices 1 2 3 4 5 6 
#
# 1 120.1151 68.7249 36.6570 0.0000 -18.9180 0.0000
# 2 68.7249 166.8379 24.4345 0.0000 -1.2668 0.0000
# 3 36.6570 24.4345 86.7023 0.0000 -14.9762 0.0000
# 4 0.0000 0.0000 0.0000 25.3698 0.0000 -8.4818
# 5 -18.9180 -1.2668 -14.9762 0.0000 28.8632 0.0000
# 6 0.0000 0.0000 0.0000 -8.4818 0.0000 23.5677
#
#
#
# Elastic Compliance Matrix: (Units=1/GPa)
#
#
# Indices 1 2 3 4 5 6 
#
# 1 0.013127 -0.004919 -0.002982 0.000000 0.006841 0.000000
# 2 -0.004919 0.008108 -0.000770 0.000000 -0.003267 0.000000
# 3 -0.002982 -0.000770 0.013915 0.000000 0.005232 0.000000
# 4 0.000000 0.000000 0.000000 0.044808 0.000000 0.016126
# 5 0.006841 -0.003267 0.005232 0.000000 0.041701 0.000000
# 6 0.000000 0.000000 0.000000 0.016126 0.000000 0.048235
#
#
# Mechanical properties :
#
#
# Convention : Reuss Voigt Hill
#
# Bulk Modulus (GPa) = 56.15201 70.36535 63.25868
# Shear Modulus (GPa) = 25.88366 31.81605 28.84986
#
# Velocity S-wave (km/s) = 3.44680 3.82144 3.63894
# Velocity P-wave (km/s) = 6.45090 7.19503 6.83310
#
# Compressibility (1/GPa) = 0.01780880
#
# Stress axis : x y z
#
# Youngs Moduli (GPa) = 76.17779 123.33618 71.86378
#
# Poissons Ratio (x) = 0.60666 0.21432
# Poissons Ratio (y) = 0.37470 0.05532
# Poissons Ratio (z) = 0.22718 0.09494
#
# Static dielectric constant tensor:
#      x y z
#    x 3.657180 0.000000 -0.029830 
#    y 0.000000 3.965600 0.000000 
#    z -0.029830 0.000000 3.886800 
# 
# 
# High freq. dielectric constant tensor:
#      x y z
#    x 1.849510 0.000000 0.000790 
#    y 0.000000 1.864670 0.000000 
#    z 0.000790 0.000000 1.851610 
# 
# From -- ./inp_files/190945.got.cif
#   From: 2010.06.25/outbox.cif.g09.slc.cpg/sg15_96_cif.got.tgz:190945.got - 2010.06.28 07:06:18.
