data_PCOD8148594
_publ_section_title
;
Structure prediction by ZEFSAII (Michael W. Deem and Ramdas Pophale) SiO2 
 PCOD8148594
Probable space group: C 2/C
;
_chemical_formula_sum "Si O2"
_cell_formula_units_Z 40
_cell_length_a 27.298700
_cell_length_b 7.483336
_cell_length_c 27.371928
_cell_angle_alpha 90.000000
_cell_angle_beta 20.381133
_cell_angle_gamma 90.000000
_cell_volume 1947.378733
_symmetry_space_group_name_H-M "C 2/C"
_symmetry_group_IT_number 15
_symmetry_cell_setting 'monoclinic'
loop_
_space_group_symop_operation_xyz
x,y,z
-x,y,1/2-z
-x,-y,-z
x,-y,1/2+z
1/2+x,1/2+y,z
1/2-x,1/2+y,1/2-z
1/2-x,1/2-y,-z
1/2+x,1/2-y,1/2+z
loop_
_atom_site_type_symbol
_atom_site_label
_atom_site_fract_x
_atom_site_fract_y
_atom_site_fract_z
Si Si1 0.266228 0.596060 0.085012
Si Si2 0.362880 0.218082 0.853202
Si Si3 0.572697 0.438316 0.267481
Si Si4 0.157845 0.038054 0.792620
Si Si5 0.879874 0.808988 0.579315
O O1 0.190992 0.413857 0.138781
O O2 0.167533 0.766013 0.166947
O O3 0.299735 0.579114 0.111660
O O4 0.410063 0.623622 0.920078
O O5 0.500000 0.130558 0.750000
O O6 0.403307 0.411799 0.795014
O O7 0.250000 0.250000 0.000000
O O8 0.612444 0.531160 0.281945
O O9 0.316984 0.110194 0.639498
O O10 0.151728 0.883029 0.837538
O O11 0.046910 0.194724 0.912572
#
# Coordination Sequence:
#
# PCOD8148594 Si02
#       5
#     8   8   8   8   8
#     4  10  23  42  64  90 126 163 204 254 309 363
#     4  12  26  44  62  93 121 162 214 255 307 364
#     4  10  23  42  64  91 125 163 204 255 307 365
#     4   9  19  36  57  87 121 155 196 239 297 360
#     4   9  19  36  57  87 120 157 195 239 296 361
#
# _framework density 20.540433
#
# number of rings (size 3 to 8) (size 9 to 14) (size 15 to 20)
#    0.000    2.000    2.000    0.000    5.600    2.400 
#    0.000    0.000    0.000    0.000    0.000    0.000 
#    0.000    0.000    0.000    0.000    0.000    0.000 
#
# Total GULP energy -247924.829395 kJ/mol
# GULP energy per Si atom -12396.241470 kJ/mol
# Density = 2.049368 g / cm^3
# Si number density = 20.540433 Si / 1000 Ang^3
#
#
#
# Elastic Constant Matrix: (Units=GPa)
#
#
# Indices 1 2 3 4 5 6 
#
# 1 75.3883 26.8754 34.2784 -0.0372 8.1404 0.0256
# 2 26.8754 66.9085 29.9573 0.0084 0.6180 -0.0097
# 3 34.2784 29.9573 108.9050 0.0297 -2.8810 -0.0268
# 4 -0.0372 0.0084 0.0297 31.7552 -0.0176 2.2207
# 5 8.1404 0.6180 -2.8810 -0.0176 36.1389 0.0165
# 6 0.0256 -0.0097 -0.0268 2.2207 0.0165 30.4734
#
#
#
# Elastic Compliance Matrix: (Units=1/GPa)
#
#
# Indices 1 2 3 4 5 6 
#
# 1 0.017438 -0.005085 -0.004200 0.000025 -0.004176 -0.000019
# 2 -0.005085 0.018544 -0.003486 -0.000008 0.000550 0.000007
# 3 -0.004200 -0.003486 0.011514 -0.000015 0.001924 0.000013
# 4 0.000025 -0.000008 -0.000015 0.031652 0.000010 -0.002307
# 5 -0.004176 0.000550 0.001924 0.000010 0.028756 -0.000011
# 6 -0.000019 0.000007 0.000013 -0.002307 -0.000011 0.032984
#
#
# Mechanical properties :
#
#
# Convention : Reuss Voigt Hill
#
# Bulk Modulus (GPa) = 45.55092 48.15821 46.85457
# Shear Modulus (GPa) = 28.77711 30.34622 29.56166
#
# Velocity S-wave (km/s) = 3.74705 3.84785 3.79779
# Velocity P-wave (km/s) = 6.39882 6.57554 6.48778
#
# Compressibility (1/GPa) = 0.02195345
#
# Stress axis : x y z
#
# Youngs Moduli (GPa) = 57.34484 53.92558 86.84919
#
# Poissons Ratio (x) = 0.27423 0.36481
# Poissons Ratio (y) = 0.29161 0.30275
# Poissons Ratio (z) = 0.24087 0.18798
#
# Static dielectric constant tensor:
#      x y z
#    x 3.895040 -0.000030 -0.113480 
#    y -0.000030 3.277480 0.000060 
#    z -0.113480 0.000060 4.021160 
# 
# 
# High freq. dielectric constant tensor:
#      x y z
#    x 1.818610 0.000000 -0.001420 
#    y 0.000000 1.767760 0.000010 
#    z -0.001420 0.000010 1.820170 
# 
# From -- ./inp_files/60009.got.cif
#   From: 2010.06.25/outbox.cif.g09.slc.cpg/sg15_31_cif.got.tgz:60009.got - 2010.06.28 07:06:18.
