data_PCOD8148589
_publ_section_title
;
Structure prediction by ZEFSAII (Michael W. Deem and Ramdas Pophale) SiO2 
 PCOD8148589
Probable space group: C 2/C
;
_chemical_formula_sum "Si O2"
_cell_formula_units_Z 48
_cell_length_a 13.260928
_cell_length_b 19.376901
_cell_length_c 12.011035
_cell_angle_alpha 90.000000
_cell_angle_beta 133.503437
_cell_angle_gamma 90.000000
_cell_volume 2238.598214
_symmetry_space_group_name_H-M "C 2/C"
_symmetry_group_IT_number 15
_symmetry_cell_setting 'monoclinic'
loop_
_space_group_symop_operation_xyz
x,y,z
-x,y,1/2-z
-x,-y,-z
x,-y,1/2+z
1/2+x,1/2+y,z
1/2-x,1/2+y,1/2-z
1/2-x,1/2-y,-z
1/2+x,1/2-y,1/2+z
loop_
_atom_site_type_symbol
_atom_site_label
_atom_site_fract_x
_atom_site_fract_y
_atom_site_fract_z
Si Si1 0.862264 0.549928 0.215887
Si Si2 0.259687 0.093330 0.608537
Si Si3 0.937067 0.686892 0.905782
Si Si4 0.473948 0.334217 0.856261
Si Si5 0.146697 0.685812 0.415512
Si Si6 0.309693 0.892370 0.896970
O O1 0.756504 0.485687 0.146782
O O2 0.794515 0.619710 0.109670
O O3 0.896358 0.562888 0.372662
O O4 0.000000 0.531053 0.250000
O O5 0.368453 0.141833 0.755438
O O6 0.307312 0.078484 0.518785
O O7 0.109500 0.128804 0.509021
O O8 0.918157 0.768631 0.881528
O O9 0.874427 0.660570 0.974441
O O10 0.104786 0.679217 0.029633
O O11 0.500000 0.309601 0.750000
O O12 0.347314 0.387320 0.766461
O O13 0.250000 0.750000 0.500000
O O14 0.000000 0.709752 0.250000
#
# Coordination Sequence:
#
# PCOD8148589 Si02
#       6
#     8   8   8   8   8   8
#     4  11  23  44  65  95 134 174 229 274 328 402
#     4  11  26  39  67 102 128 178 222 273 344 393
#     4  12  22  40  69  97 131 173 223 276 328 404
#     4  10  23  42  63  98 137 168 216 276 338 396
#     4  11  25  45  67 100 133 182 227 278 333 397
#     4  11  22  42  65  91 133 171 215 279 322 398
#
# _framework density 21.441991000000002
#
# number of rings (size 3 to 8) (size 9 to 14) (size 15 to 20)
#    0.000    1.000    3.333    4.500    4.667    4.667 
#    0.000    2.500    0.000    0.000    0.000    0.000 
#    0.000    0.000    0.000    0.000    0.000    0.000 
#
# Total GULP energy -297342.634318 kJ/mol
# GULP energy per Si atom -12389.276430 kJ/mol
# Density = 2.139319 g / cm^3
# Si number density = 21.441991 Si / 1000 Ang^3
#
#
#
# Elastic Constant Matrix: (Units=GPa)
#
#
# Indices 1 2 3 4 5 6 
#
# 1 81.9038 23.8632 57.2082 0.0000 -5.8339 0.0000
# 2 23.8632 143.4279 62.7090 0.0000 9.0453 0.0000
# 3 57.2082 62.7090 121.9497 0.0000 0.8005 0.0000
# 4 0.0000 0.0000 0.0000 27.9979 0.0000 4.2255
# 5 -5.8339 9.0453 0.8005 0.0000 36.5354 0.0000
# 6 0.0000 0.0000 0.0000 4.2255 0.0000 17.7418
#
#
#
# Elastic Compliance Matrix: (Units=1/GPa)
#
#
# Indices 1 2 3 4 5 6 
#
# 1 0.018567 0.000695 -0.009087 0.000000 0.002992 0.000000
# 2 0.000695 0.009188 -0.005038 0.000000 -0.002053 0.000000
# 3 -0.009087 -0.005038 0.015057 0.000000 -0.000534 0.000000
# 4 0.000000 0.000000 0.000000 0.037049 0.000000 -0.008824
# 5 0.002992 -0.002053 -0.000534 0.000000 0.028369 0.000000
# 6 0.000000 0.000000 0.000000 -0.008824 0.000000 0.058466
#
#
# Mechanical properties :
#
#
# Convention : Reuss Voigt Hill
#
# Bulk Modulus (GPa) = 62.68209 70.53803 66.61006
# Shear Modulus (GPa) = 25.14169 30.02175 27.58172
#
# Velocity S-wave (km/s) = 3.42796 3.74590 3.59045
# Velocity P-wave (km/s) = 6.70557 7.18871 6.95134
#
# Compressibility (1/GPa) = 0.01595352
#
# Stress axis : x y z
#
# Youngs Moduli (GPa) = 53.85808 108.83192 66.41418
#
# Poissons Ratio (x) = -0.07567 0.60353
# Poissons Ratio (y) = -0.03745 0.33457
# Poissons Ratio (z) = 0.48943 0.54825
#
# Static dielectric constant tensor:
#      x y z
#    x 3.956280 0.000000 -0.186130 
#    y 0.000000 3.735920 0.000000 
#    z -0.186130 0.000000 3.979650 
# 
# 
# High freq. dielectric constant tensor:
#      x y z
#    x 1.846470 0.000000 -0.014940 
#    y 0.000000 1.834000 0.000000 
#    z -0.014940 0.000000 1.843930 
# 
# From -- ./inp_files/89794.got.cif
#   From: 2010.06.25/outbox.cif.g09.slc.cpg/sg15_45_cif.got.tgz:89794.got - 2010.06.28 07:06:18.
