data_PCOD8148240
_publ_section_title
;
Structure prediction by ZEFSAII (Michael W. Deem and Ramdas Pophale) SiO2 
 PCOD8148240
Probable space group: C 2/C
;
_chemical_formula_sum "Si O2"
_cell_formula_units_Z 60
_cell_length_a 26.422818
_cell_length_b 12.205427
_cell_length_c 8.035237
_cell_angle_alpha 90.000000
_cell_angle_beta 91.334579
_cell_angle_gamma 90.000000
_cell_volume 2590.675255
_symmetry_space_group_name_H-M "C 2/C"
_symmetry_group_IT_number 15
_symmetry_cell_setting 'monoclinic'
loop_
_space_group_symop_operation_xyz
x,y,z
-x,y,1/2-z
-x,-y,-z
x,-y,1/2+z
1/2+x,1/2+y,z
1/2-x,1/2+y,1/2-z
1/2-x,1/2-y,-z
1/2+x,1/2-y,1/2+z
loop_
_atom_site_type_symbol
_atom_site_label
_atom_site_fract_x
_atom_site_fract_y
_atom_site_fract_z
Si Si1 0.116613 0.100539 0.648576
Si Si2 0.410454 0.968759 0.765907
Si Si3 0.500000 0.860832 0.250000
Si Si4 0.139877 0.870928 0.532873
Si Si5 0.965476 0.273175 0.912315
Si Si6 0.251969 0.417184 0.057819
Si Si7 0.273527 0.359385 0.435034
Si Si8 0.857331 0.631157 0.958484
O O1 0.122808 0.128723 0.841067
O O2 0.066894 0.161246 0.575821
O O3 0.165275 0.141581 0.547225
O O4 0.111558 0.968250 0.629502
O O5 0.428493 0.878751 0.901397
O O6 0.398050 0.902063 0.599983
O O7 0.452046 0.061115 0.744939
O O8 0.360512 0.036327 0.818961
O O9 0.501265 0.784881 0.416463
O O10 0.200688 0.882017 0.553121
O O11 0.126171 0.751621 0.607390
O O12 0.000000 0.270411 0.750000
O O13 0.256826 0.377340 0.245510
O O14 0.200376 0.365476 0.977921
O O15 0.250210 0.548528 0.053554
O O16 0.250000 0.250000 0.500000
#
# Coordination Sequence:
#
# PCOD8148240 Si02
#       8
#     8   8   4   8   8   8   8   8
#     4  10  24  45  70  96 136 189 242 284 364 424
#     4  12  24  42  69 102 138 179 228 295 367 435
#     4  12  26  46  74 108 140 186 236 300 396 436
#     4  10  23  45  67  95 145 190 228 295 345 422
#     4  12  25  47  75 102 143 182 234 309 371 438
#     4  10  23  40  63 103 138 189 239 275 349 422
#     4  10  23  41  67  96 145 187 231 295 345 416
#     4  12  24  39  70 104 142 181 236 292 351 430
#
# _framework density 23.159984999999999
#
# number of rings (size 3 to 8) (size 9 to 14) (size 15 to 20)
#    0.000    1.067    3.333    2.400    1.867    8.533 
#    0.000    0.667    1.467    0.000    0.000    0.000 
#    0.000    0.000    0.000    0.000    0.000    0.000 
#
# Total GULP energy -371988.288870 kJ/mol
# GULP energy per Si atom -12399.609629 kJ/mol
# Density = 2.310727 g / cm^3
# Si number density = 23.159985 Si / 1000 Ang^3
#
#
#
# Elastic Constant Matrix: (Units=GPa)
#
#
# Indices 1 2 3 4 5 6 
#
# 1 95.5853 51.6660 25.7801 0.0000 16.6041 0.0000
# 2 51.6660 185.1307 34.5630 0.0000 -5.7225 0.0000
# 3 25.7801 34.5630 64.3685 0.0000 5.1718 0.0000
# 4 0.0000 0.0000 0.0000 34.2422 0.0000 -0.5427
# 5 16.6041 -5.7225 5.1718 0.0000 26.6277 0.0000
# 6 0.0000 0.0000 0.0000 -0.5427 0.0000 37.7457
#
#
#
# Elastic Compliance Matrix: (Units=1/GPa)
#
#
# Indices 1 2 3 4 5 6 
#
# 1 0.015115 -0.003925 -0.003171 0.000000 -0.009653 0.000000
# 2 -0.003925 0.007123 -0.002614 0.000000 0.004486 0.000000
# 3 -0.003171 -0.002614 0.018382 0.000000 -0.002155 0.000000
# 4 0.000000 0.000000 0.000000 0.029210 0.000000 0.000420
# 5 -0.009653 0.004486 -0.002155 0.000000 0.044957 0.000000
# 6 0.000000 0.000000 0.000000 0.000420 0.000000 0.026499
#
#
# Mechanical properties :
#
#
# Convention : Reuss Voigt Hill
#
# Bulk Modulus (GPa) = 47.16407 63.23362 55.19884
# Shear Modulus (GPa) = 29.80228 35.26150 32.53189
#
# Velocity S-wave (km/s) = 3.59109 3.90618 3.75194
# Velocity P-wave (km/s) = 6.13215 6.90699 6.53107
#
# Compressibility (1/GPa) = 0.02120258
#
# Stress axis : x y z
#
# Youngs Moduli (GPa) = 66.15829 140.38049 54.40121
#
# Poissons Ratio (x) = 0.55096 0.17249
# Poissons Ratio (y) = 0.25966 0.14218
# Poissons Ratio (z) = 0.20977 0.36689
#
# Static dielectric constant tensor:
#      x y z
#    x 4.496470 0.000000 -0.229680 
#    y 0.000000 4.419660 0.000000 
#    z -0.229680 0.000000 4.255360 
# 
# 
# High freq. dielectric constant tensor:
#      x y z
#    x 1.910250 0.000000 0.007660 
#    y 0.000000 1.926020 0.000000 
#    z 0.007660 0.000000 1.902670 
# 
# From -- ./inp_files/65490.got.cif
#   From: 2010.06.25/outbox.cif.g09.slc.cpg/sg15_33_cif.got.tgz:65490.got - 2010.06.28 07:06:18.
