data_PCOD8148987
_publ_section_title
;
Structure prediction by ZEFSAII (Michael W. Deem and Ramdas Pophale) SiO2 
 PCOD8148987
Probable space group: C 2/C
;
_chemical_formula_sum "Si O2"
_cell_formula_units_Z 56
_cell_length_a 17.103236
_cell_length_b 8.797847
_cell_length_c 27.746450
_cell_angle_alpha 90.000000
_cell_angle_beta 38.057616
_cell_angle_gamma 90.000000
_cell_volume 2573.727110
_symmetry_space_group_name_H-M "C 2/C"
_symmetry_group_IT_number 15
_symmetry_cell_setting 'monoclinic'
loop_
_space_group_symop_operation_xyz
x,y,z
-x,y,1/2-z
-x,-y,-z
x,-y,1/2+z
1/2+x,1/2+y,z
1/2-x,1/2+y,1/2-z
1/2-x,1/2-y,-z
1/2+x,1/2-y,1/2+z
loop_
_atom_site_type_symbol
_atom_site_label
_atom_site_fract_x
_atom_site_fract_y
_atom_site_fract_z
Si Si1 0.871346 0.385665 0.164468
Si Si2 0.765851 0.726917 0.346436
Si Si3 0.269761 0.361092 0.447207
Si Si4 0.966608 0.960457 0.214822
Si Si5 0.349252 0.098532 0.829446
Si Si6 0.347654 0.880482 0.441731
Si Si7 0.763359 0.185784 0.292912
O O1 0.856708 0.279315 0.124530
O O2 0.763944 0.324883 0.254576
O O3 0.853367 0.566056 0.159364
O O4 0.004093 0.345298 0.124901
O O5 0.732326 0.779522 0.416293
O O6 0.889840 0.807967 0.264679
O O7 0.794947 0.549129 0.328384
O O8 0.250000 0.250000 0.500000
O O9 0.413618 0.420176 0.375857
O O10 0.176093 0.497415 0.504972
O O11 0.000000 0.038330 0.250000
O O12 0.886332 0.081036 0.223712
O O13 0.500000 0.115251 0.750000
O O14 0.319273 0.074754 0.900259
O O15 0.273073 0.241983 0.842417
O O16 0.250000 0.750000 0.500000
#
# Coordination Sequence:
#
# PCOD8148987 Si02
#       7
#     8   8   8   8   8   8   8
#     4  11  25  44  69 101 140 176 223 289 343 403
#     4  10  23  43  70 100 133 177 232 286 340 398
#     4  11  22  41  66 100 137 180 222 276 344 412
#     4   9  20  38  69  97 128 173 230 280 327 397
#     4  12  23  43  74 102 132 178 237 280 331 409
#     4  12  28  44  69 100 141 182 228 278 345 419
#     4  11  23  41  69  99 132 174 229 283 337 391
#
# _framework density 21.758329
#
# number of rings (size 3 to 8) (size 9 to 14) (size 15 to 20)
#    0.000    1.143    2.857    3.429    6.000    1.714 
#    0.000    2.143    0.000    0.000    0.000    0.000 
#    0.000    0.000    0.000    0.000    0.000    0.000 
#
# Total GULP energy -346961.312812 kJ/mol
# GULP energy per Si atom -12391.475458 kJ/mol
# Density = 2.170881 g / cm^3
# Si number density = 21.758329 Si / 1000 Ang^3
#
#
#
# Elastic Constant Matrix: (Units=GPa)
#
#
# Indices 1 2 3 4 5 6 
#
# 1 108.2393 43.0334 24.9616 0.0001 10.7117 -0.0008
# 2 43.0334 112.8860 23.8748 0.0007 -0.7486 -0.0002
# 3 24.9616 23.8748 90.1324 -0.0002 15.4937 0.0004
# 4 0.0001 0.0007 -0.0002 28.3802 0.0001 11.4860
# 5 10.7117 -0.7486 15.4937 0.0001 25.4705 0.0006
# 6 -0.0008 -0.0002 0.0004 11.4860 0.0006 40.2502
#
#
#
# Elastic Compliance Matrix: (Units=1/GPa)
#
#
# Indices 1 2 3 4 5 6 
#
# 1 0.011630 -0.004164 -0.001403 0.000000 -0.004160 0.000000
# 2 -0.004164 0.010967 -0.002354 0.000000 0.003506 0.000000
# 3 -0.001403 -0.002354 0.013421 0.000000 -0.007643 0.000000
# 4 0.000000 0.000000 0.000000 0.039837 0.000000 -0.011368
# 5 -0.004160 0.003506 -0.007643 0.000000 0.045763 -0.000001
# 6 0.000000 0.000000 0.000000 -0.011368 -0.000001 0.028089
#
#
# Mechanical properties :
#
#
# Convention : Reuss Voigt Hill
#
# Bulk Modulus (GPa) = 49.56650 54.99970 52.28310
# Shear Modulus (GPa) = 29.02367 33.44604 31.23485
#
# Velocity S-wave (km/s) = 3.65624 3.92492 3.79296
# Velocity P-wave (km/s) = 6.37605 6.77291 6.57748
#
# Compressibility (1/GPa) = 0.02017492
#
# Stress axis : x y z
#
# Youngs Moduli (GPa) = 85.98787 91.18135 74.51161
#
# Poissons Ratio (x) = 0.37970 0.10451
# Poissons Ratio (y) = 0.35808 0.17543
# Poissons Ratio (z) = 0.12060 0.21468
#
# Static dielectric constant tensor:
#      x y z
#    x 3.717190 -0.000010 -0.128370 
#    y -0.000010 4.036090 -0.000010 
#    z -0.128370 -0.000010 3.527310 
# 
# 
# High freq. dielectric constant tensor:
#      x y z
#    x 1.861050 0.000000 0.018690 
#    y 0.000000 1.868900 0.000000 
#    z 0.018690 0.000000 1.833040 
# 
# From -- ./inp_files/298493.got.cif
#   From: 2010.06.25/outbox.cif.g09.slc.cpg/sg15_150_cif.got.tgz:298493.got - 2010.06.28 07:06:18.
