data_PCOD8148449
_publ_section_title
;
Structure prediction by ZEFSAII (Michael W. Deem and Ramdas Pophale) SiO2 
 PCOD8148449
Probable space group: C 2/C
;
_chemical_formula_sum "Si O2"
_cell_formula_units_Z 48
_cell_length_a 13.845630
_cell_length_b 13.806029
_cell_length_c 12.617891
_cell_angle_alpha 90.000000
_cell_angle_beta 60.443882
_cell_angle_gamma 90.000000
_cell_volume 2098.090001
_symmetry_space_group_name_H-M "C 2/C"
_symmetry_group_IT_number 15
_symmetry_cell_setting 'monoclinic'
loop_
_space_group_symop_operation_xyz
x,y,z
-x,y,1/2-z
-x,-y,-z
x,-y,1/2+z
1/2+x,1/2+y,z
1/2-x,1/2+y,1/2-z
1/2-x,1/2-y,-z
1/2+x,1/2-y,1/2+z
loop_
_atom_site_type_symbol
_atom_site_label
_atom_site_fract_x
_atom_site_fract_y
_atom_site_fract_z
Si Si1 0.175472 0.101641 0.136655
Si Si2 0.086948 0.381236 0.030420
Si Si3 0.045700 0.556826 0.332982
Si Si4 0.552561 0.601074 0.992488
Si Si5 0.247272 0.573611 0.767035
Si Si6 0.098211 0.249416 0.352962
O O1 0.155231 0.180041 0.238084
O O2 0.195842 0.993496 0.173790
O O3 0.284694 0.136270 0.012490
O O4 0.076562 0.101244 0.106087
O O5 0.056960 0.491234 0.072822
O O6 0.009525 0.306702 0.136840
O O7 0.070299 0.365044 0.911302
O O8 0.156039 0.490878 0.253241
O O9 0.000000 0.607132 0.250000
O O10 0.661148 0.615920 0.862744
O O11 0.500000 0.500000 0.000000
O O12 0.457020 0.682612 0.024116
O O13 0.185291 0.669390 0.849200
#
# Coordination Sequence:
#
# PCOD8148449 Si02
#       6
#     8   8   8   8   8   8
#     4  11  23  42  67  94 135 174 213 274 329 379
#     4   9  20  36  60  96 129 163 218 270 317 385
#     4   9  17  34  62  92 131 171 210 266 327 378
#     4  12  25  42  67  94 132 174 217 267 330 385
#     4  10  23  41  65  97 133 168 219 269 322 390
#     4  11  23  40  66  96 129 166 220 268 321 389
#
# _framework density 22.877949999999998
#
# number of rings (size 3 to 8) (size 9 to 14) (size 15 to 20)
#    0.000    1.667    1.667    3.500    0.000    9.333 
#    0.000    0.833   11.000    0.000    0.000    0.000 
#    0.000    0.000    0.000    0.000    0.000    0.000 
#
# Total GULP energy -297323.751585 kJ/mol
# GULP energy per Si atom -12388.489649 kJ/mol
# Density = 2.282588 g / cm^3
# Si number density = 22.877950 Si / 1000 Ang^3
#
#
#
# Elastic Constant Matrix: (Units=GPa)
#
#
# Indices 1 2 3 4 5 6 
#
# 1 58.3835 30.8621 22.8888 0.0000 -3.8123 0.0000
# 2 30.8621 129.3157 28.7840 0.0000 -16.7998 0.0000
# 3 22.8888 28.7840 74.6953 0.0000 -24.5034 0.0000
# 4 0.0000 0.0000 0.0000 33.5783 0.0000 -14.5252
# 5 -3.8123 -16.7998 -24.5034 0.0000 47.5565 0.0000
# 6 0.0000 0.0000 0.0000 -14.5252 0.0000 28.3369
#
#
#
# Elastic Compliance Matrix: (Units=1/GPa)
#
#
# Indices 1 2 3 4 5 6 
#
# 1 0.021458 -0.004174 -0.005880 0.000000 -0.002784 0.000000
# 2 -0.004174 0.009370 -0.001631 0.000000 0.002135 0.000000
# 3 -0.005880 -0.001631 0.018622 0.000000 0.008547 0.000000
# 4 0.000000 0.000000 0.000000 0.038266 0.000000 0.019615
# 5 -0.002784 0.002135 0.008547 0.000000 0.025963 0.000000
# 6 0.000000 0.000000 0.000000 0.019615 0.000000 0.045344
#
#
# Mechanical properties :
#
#
# Convention : Reuss Voigt Hill
#
# Bulk Modulus (GPa) = 38.34525 47.49603 42.92064
# Shear Modulus (GPa) = 26.16623 33.88500 30.02561
#
# Velocity S-wave (km/s) = 3.38558 3.85271 3.62667
# Velocity P-wave (km/s) = 5.66392 6.37156 6.02814
#
# Compressibility (1/GPa) = 0.02607885
#
# Stress axis : x y z
#
# Youngs Moduli (GPa) = 46.60265 106.72819 53.69966
#
# Poissons Ratio (x) = 0.44548 0.31577
# Poissons Ratio (y) = 0.19452 0.08760
# Poissons Ratio (z) = 0.27403 0.17410
#
# Static dielectric constant tensor:
#      x y z
#    x 4.578750 0.000000 -1.165980 
#    y 0.000000 4.231930 0.000000 
#    z -1.165980 0.000000 5.856860 
# 
# 
# High freq. dielectric constant tensor:
#      x y z
#    x 1.887800 0.000000 -0.039590 
#    y 0.000000 1.896060 0.000000 
#    z -0.039590 0.000000 1.901120 
# 
# From -- ./inp_files/96871.got.cif
#   From: 2010.06.25/outbox.cif.g09.slc.cpg/sg15_49_cif.got.tgz:96871.got - 2010.06.28 07:06:18.
