data_PCOD8148132
_publ_section_title
;
Structure prediction by ZEFSAII (Michael W. Deem and Ramdas Pophale) SiO2 
 PCOD8148132
Probable space group: C 2/C
;
_chemical_formula_sum "Si O2"
_cell_formula_units_Z 44
_cell_length_a 29.471024
_cell_length_b 18.610083
_cell_length_c 8.711761
_cell_angle_alpha 90.000000
_cell_angle_beta 152.367191
_cell_angle_gamma 90.000000
_cell_volume 2216.069807
_symmetry_space_group_name_H-M "C 2/C"
_symmetry_group_IT_number 15
_symmetry_cell_setting 'monoclinic'
loop_
_space_group_symop_operation_xyz
x,y,z
-x,y,1/2-z
-x,-y,-z
x,-y,1/2+z
1/2+x,1/2+y,z
1/2-x,1/2+y,1/2-z
1/2-x,1/2-y,-z
1/2+x,1/2-y,1/2+z
loop_
_atom_site_type_symbol
_atom_site_label
_atom_site_fract_x
_atom_site_fract_y
_atom_site_fract_z
Si Si1 0.500000 0.512145 0.750000
Si Si2 0.132835 0.721928 0.490490
Si Si3 0.361171 0.528334 0.578500
Si Si4 0.203665 0.864906 0.164519
Si Si5 0.907973 0.736360 0.781706
Si Si6 0.755941 0.158258 0.360885
O O1 0.420113 0.558174 0.605449
O O2 0.438507 0.462677 0.448872
O O3 0.197756 0.652783 0.636567
O O4 0.141412 0.730484 0.698846
O O5 0.169893 0.790610 0.507958
O O6 0.019565 0.712372 0.108690
O O7 0.323791 0.447815 0.437171
O O8 0.268286 0.577729 0.332164
O O9 0.224052 0.840880 0.399134
O O10 0.110885 0.818540 0.827427
O O11 0.854356 0.682379 0.503456
#
# Coordination Sequence:
#
# PCOD8148132 Si02
#       6
#     4   8   8   8   8   8
#     4  10  24  38  56  90 122 154 188 232 300 346
#     4  10  23  39  61  85 115 154 195 236 289 342
#     4  11  24  38  59  90 118 154 193 238 291 346
#     4  11  23  38  59  88 118 153 191 239 287 342
#     4  10  23  39  61  85 115 154 195 236 289 342
#     4  11  23  38  59  88 118 153 191 239 287 342
#
# _framework density 19.854970000000002
#
# number of rings (size 3 to 8) (size 9 to 14) (size 15 to 20)
#    0.000    1.455    1.818    4.364   10.182    2.909 
#    0.000    0.909    0.000    0.000    0.000    0.000 
#    0.000    0.000    0.000    0.000    0.000    0.000 
#
# Total GULP energy -272685.571862 kJ/mol
# GULP energy per Si atom -12394.798721 kJ/mol
# Density = 1.980978 g / cm^3
# Si number density = 19.854970 Si / 1000 Ang^3
#
#
#
# Elastic Constant Matrix: (Units=GPa)
#
#
# Indices 1 2 3 4 5 6 
#
# 1 99.8487 25.4688 35.3917 0.0000 -15.0909 0.0000
# 2 25.4688 88.3679 36.7831 0.0000 -1.4504 0.0000
# 3 35.3917 36.7831 88.3187 0.0000 -5.2316 0.0000
# 4 0.0000 0.0000 0.0000 13.2514 0.0000 -2.0408
# 5 -15.0909 -1.4504 -5.2316 0.0000 35.0240 0.0000
# 6 0.0000 0.0000 0.0000 -2.0408 0.0000 21.6547
#
#
#
# Elastic Compliance Matrix: (Units=1/GPa)
#
#
# Indices 1 2 3 4 5 6 
#
# 1 0.012635 -0.001903 -0.003988 0.000000 0.004770 0.000000
# 2 -0.001903 0.013979 -0.005119 0.000000 -0.001006 0.000000
# 3 -0.003988 -0.005119 0.015072 0.000000 0.000321 0.000000
# 4 0.000000 0.000000 0.000000 0.076575 0.000000 0.007217
# 5 0.004770 -0.001006 0.000321 0.000000 0.030613 0.000000
# 6 0.000000 0.000000 0.000000 0.007217 0.000000 0.046860
#
#
# Mechanical properties :
#
#
# Convention : Reuss Voigt Hill
#
# Bulk Modulus (GPa) = 50.85068 52.42473 51.63770
# Shear Modulus (GPa) = 22.29062 25.91212 24.10137
#
# Velocity S-wave (km/s) = 3.35427 3.61649 3.48784
# Velocity P-wave (km/s) = 6.37716 6.62570 6.50261
#
# Compressibility (1/GPa) = 0.01966542
#
# Stress axis : x y z
#
# Youngs Moduli (GPa) = 79.14488 71.53516 66.34963
#
# Poissons Ratio (x) = 0.13615 0.26460
# Poissons Ratio (y) = 0.15064 0.33964
# Poissons Ratio (z) = 0.31563 0.36618
#
# Static dielectric constant tensor:
#      x y z
#    x 4.029840 0.000000 -0.099740 
#    y 0.000000 3.405940 0.000000 
#    z -0.099740 0.000000 3.760330 
# 
# 
# High freq. dielectric constant tensor:
#      x y z
#    x 1.796610 0.000000 -0.013990 
#    y 0.000000 1.750830 0.000000 
#    z -0.013990 0.000000 1.779540 
# 
# From -- ./inp_files/70541.got.cif
#   From: 2010.06.25/outbox.cif.g09.slc.cpg/sg15_36_cif.got.tgz:70541.got - 2010.06.28 07:06:18.
