data_PCOD8148267
_publ_section_title
;
Structure prediction by ZEFSAII (Michael W. Deem and Ramdas Pophale) SiO2 
 PCOD8148267
Probable space group: C 2/C
;
_chemical_formula_sum "Si O2"
_cell_formula_units_Z 60
_cell_length_a 16.419979
_cell_length_b 11.523220
_cell_length_c 22.999362
_cell_angle_alpha 90.000000
_cell_angle_beta 37.240177
_cell_angle_gamma 90.000000
_cell_volume 2633.483894
_symmetry_space_group_name_H-M "C 2/C"
_symmetry_group_IT_number 15
_symmetry_cell_setting 'monoclinic'
loop_
_space_group_symop_operation_xyz
x,y,z
-x,y,1/2-z
-x,-y,-z
x,-y,1/2+z
1/2+x,1/2+y,z
1/2-x,1/2+y,1/2-z
1/2-x,1/2-y,-z
1/2+x,1/2-y,1/2+z
loop_
_atom_site_type_symbol
_atom_site_label
_atom_site_fract_x
_atom_site_fract_y
_atom_site_fract_z
Si Si1 0.246826 0.969764 0.454324
Si Si2 0.461105 0.555696 0.613519
Si Si3 0.055058 0.294637 0.826575
Si Si4 0.563163 0.857113 0.428870
Si Si5 0.622878 0.957566 0.510757
Si Si6 0.821693 0.822417 0.726176
Si Si7 0.500000 0.081396 0.250000
Si Si8 0.819016 0.200746 0.600120
O O1 0.218211 0.840985 0.444054
O O2 0.261401 0.974564 0.517134
O O3 0.388748 0.004829 0.345487
O O4 0.119396 0.048335 0.507845
O O5 0.440854 0.655620 0.672771
O O6 0.417311 0.434043 0.668279
O O7 0.372888 0.589011 0.606806
O O8 0.168163 0.357070 0.801440
O O9 0.913107 0.343671 0.930965
O O10 0.080111 0.333235 0.746839
O O11 0.660201 0.914440 0.423947
O O12 0.645143 0.769410 0.342999
O O13 0.439010 0.793323 0.531045
O O14 0.504908 0.957004 0.420701
O O15 0.814213 0.759076 0.793914
#
# Coordination Sequence:
#
# PCOD8148267 Si02
#       8
#     8   8   8   8   8   8   4   8
#     4  11  24  43  68  98 140 177 231 285 345 422
#     4  11  23  42  67  98 137 180 232 274 343 416
#     4  10  23  40  64  99 133 176 227 281 343 418
#     4  11  23  43  69  95 132 181 228 284 344 409
#     4  10  24  43  65  97 132 175 224 282 347 405
#     4  11  24  39  69  96 134 178 230 284 338 410
#     4  10  24  38  64 100 138 182 220 290 354 400
#     4  11  24  43  68 104 132 183 233 283 345 418
#
# _framework density 22.783507
#
# number of rings (size 3 to 8) (size 9 to 14) (size 15 to 20)
#    0.000    1.333    4.000    1.200    9.333    3.733 
#    0.000    0.000    0.000    0.000    0.000    0.000 
#    0.000    0.000    0.000    0.000    0.000    0.000 
#
# Total GULP energy -371672.188018 kJ/mol
# GULP energy per Si atom -12389.072934 kJ/mol
# Density = 2.273165 g / cm^3
# Si number density = 22.783507 Si / 1000 Ang^3
#
#
#
# Elastic Constant Matrix: (Units=GPa)
#
#
# Indices 1 2 3 4 5 6 
#
# 1 108.5338 50.9488 15.0453 0.0000 11.0293 0.0000
# 2 50.9488 98.7982 22.6399 -0.0001 0.8311 0.0000
# 3 15.0453 22.6399 83.8804 -0.0002 -5.1132 0.0000
# 4 0.0000 -0.0001 -0.0002 32.6673 0.0000 2.7051
# 5 11.0293 0.8311 -5.1132 0.0000 25.0619 0.0000
# 6 0.0000 0.0000 0.0000 2.7051 0.0000 35.1994
#
#
#
# Elastic Compliance Matrix: (Units=1/GPa)
#
#
# Indices 1 2 3 4 5 6 
#
# 1 0.012925 -0.006403 -0.000935 0.000000 -0.005667 0.000000
# 2 -0.006403 0.013984 -0.002514 0.000000 0.001841 0.000000
# 3 -0.000935 -0.002514 0.012959 0.000000 0.003139 0.000000
# 4 0.000000 0.000000 0.000000 0.030808 0.000000 -0.002368
# 5 -0.005667 0.001841 0.003139 0.000000 0.042974 0.000000
# 6 0.000000 0.000000 0.000000 -0.002368 0.000000 0.028592
#
#
# Mechanical properties :
#
#
# Convention : Reuss Voigt Hill
#
# Bulk Modulus (GPa) = 49.59362 52.05339 50.82350
# Shear Modulus (GPa) = 29.64398 32.09094 30.86746
#
# Velocity S-wave (km/s) = 3.61101 3.75709 3.68478
# Velocity P-wave (km/s) = 6.26103 6.45891 6.36074
#
# Compressibility (1/GPa) = 0.02016389
#
# Stress axis : x y z
#
# Youngs Moduli (GPa) = 77.36875 71.50913 77.16445
#
# Poissons Ratio (x) = 0.45789 0.07219
# Poissons Ratio (y) = 0.49541 0.19397
# Poissons Ratio (z) = 0.07238 0.17975
#
# Static dielectric constant tensor:
#      x y z
#    x 4.311540 0.000000 0.051610 
#    y 0.000000 4.086670 0.000000 
#    z 0.051610 0.000000 4.089880 
# 
# 
# High freq. dielectric constant tensor:
#      x y z
#    x 1.889960 0.000000 0.011320 
#    y 0.000000 1.899650 0.000000 
#    z 0.011320 0.000000 1.885980 
# 
# From -- ./inp_files/298953.got.cif
#   From: 2010.06.25/outbox.cif.g09.slc.cpg/sg15_150_cif.got.tgz:298953.got - 2010.06.28 07:06:18.
