data_PCOD8148462
_publ_section_title
;
Structure prediction by ZEFSAII (Michael W. Deem and Ramdas Pophale) SiO2 
 PCOD8148462
Probable space group: C 2/C
;
_chemical_formula_sum "Si O2"
_cell_formula_units_Z 56
_cell_length_a 17.821563
_cell_length_b 17.820448
_cell_length_c 8.628349
_cell_angle_alpha 90.000000
_cell_angle_beta 85.004308
_cell_angle_gamma 90.000000
_cell_volume 2729.852570
_symmetry_space_group_name_H-M "C 2/C"
_symmetry_group_IT_number 15
_symmetry_cell_setting 'monoclinic'
loop_
_space_group_symop_operation_xyz
x,y,z
-x,y,1/2-z
-x,-y,-z
x,-y,1/2+z
1/2+x,1/2+y,z
1/2-x,1/2+y,1/2-z
1/2-x,1/2-y,-z
1/2+x,1/2-y,1/2+z
loop_
_atom_site_type_symbol
_atom_site_label
_atom_site_fract_x
_atom_site_fract_y
_atom_site_fract_z
Si Si1 0.805395 0.595798 0.687114
Si Si2 0.851713 0.949355 0.388767
Si Si3 0.847507 0.545651 0.344028
Si Si4 0.877941 0.750109 0.752696
Si Si5 0.500000 0.628760 0.750000
Si Si6 0.691310 0.592833 0.264450
Si Si7 0.000000 0.621809 0.250000
Si Si8 0.011150 0.747735 0.495845
O O1 0.715064 0.594581 0.687921
O O2 0.845127 0.564354 0.525554
O O3 0.834457 0.543528 0.822703
O O4 0.825809 0.681069 0.715787
O O5 0.849649 0.932688 0.570829
O O6 0.931548 0.924620 0.307934
O O7 0.839472 0.038375 0.365321
O O8 0.781464 0.589086 0.264364
O O9 0.927067 0.569132 0.257629
O O10 0.825924 0.822548 0.779797
O O11 0.937302 0.766358 0.607212
O O12 0.917651 0.733058 0.907945
O O13 0.472473 0.681014 0.614600
O O14 0.996745 0.672364 0.403273
#
# Coordination Sequence:
#
# PCOD8148462 Si02
#       8
#     8   8   8   8   4   8   4   8
#     4  10  23  43  65  93 125 166 209 254 305 375
#     4  10  23  41  66  91 128 162 213 251 307 373
#     4  10  23  41  66  91 128 162 213 251 307 373
#     4  11  22  43  64  92 125 171 200 262 310 368
#     4  11  22  42  62  95 124 170 198 265 312 366
#     4  10  23  43  65  93 125 166 209 254 305 375
#     4  11  22  42  62  95 124 170 198 265 312 366
#     4  10  24  38  61  97 133 150 216 262 304 373
#
# _framework density 20.513928
#
# number of rings (size 3 to 8) (size 9 to 14) (size 15 to 20)
#    0.000    1.714    2.857    0.000    4.000    8.000 
#    0.000    1.429    0.000    0.000    0.000    0.000 
#    0.000    0.000    0.000    0.000    0.000    0.000 
#
# Total GULP energy -347319.178484 kJ/mol
# GULP energy per Si atom -12404.256374 kJ/mol
# Density = 2.046724 g / cm^3
# Si number density = 20.513928 Si / 1000 Ang^3
#
#
#
# Elastic Constant Matrix: (Units=GPa)
#
#
# Indices 1 2 3 4 5 6 
#
# 1 113.7312 30.5569 14.4854 0.0000 -11.6863 0.0000
# 2 30.5569 118.6644 15.6271 0.0000 11.3447 0.0000
# 3 14.4854 15.6271 57.0550 0.0000 8.9672 0.0000
# 4 0.0000 0.0000 0.0000 25.1949 0.0000 -3.0282
# 5 -11.6863 11.3447 8.9672 0.0000 23.8392 0.0000
# 6 0.0000 0.0000 0.0000 -3.0282 0.0000 31.1999
#
#
#
# Elastic Compliance Matrix: (Units=1/GPa)
#
#
# Indices 1 2 3 4 5 6 
#
# 1 0.010863 -0.003148 -0.003155 0.000000 0.008010 0.000000
# 2 -0.003148 0.009932 -0.000995 0.000000 -0.005896 0.000000
# 3 -0.003155 -0.000995 0.019948 0.000000 -0.008577 0.000000
# 4 0.000000 0.000000 0.000000 0.040159 0.000000 0.003898
# 5 0.008010 -0.005896 -0.008577 0.000000 0.051906 0.000000
# 6 0.000000 0.000000 0.000000 0.003898 0.000000 0.032430
#
#
# Mechanical properties :
#
#
# Convention : Reuss Voigt Hill
#
# Bulk Modulus (GPa) = 38.24148 45.64326 41.94237
# Shear Modulus (GPa) = 26.51823 31.29887 28.90855
#
# Velocity S-wave (km/s) = 3.59931 3.91031 3.75802
# Velocity P-wave (km/s) = 5.99629 6.53342 6.27061
#
# Compressibility (1/GPa) = 0.02614962
#
# Stress axis : x y z
#
# Youngs Moduli (GPa) = 92.05373 100.68155 50.12948
#
# Poissons Ratio (x) = 0.31691 0.15815
# Poissons Ratio (y) = 0.28976 0.04986
# Poissons Ratio (z) = 0.29041 0.10015
#
# Static dielectric constant tensor:
#      x y z
#    x 3.691480 0.000000 -0.016750 
#    y 0.000000 3.629670 0.000000 
#    z -0.016750 0.000000 3.778970 
# 
# 
# High freq. dielectric constant tensor:
#      x y z
#    x 1.805210 0.000000 0.000030 
#    y 0.000000 1.802310 0.000000 
#    z 0.000030 0.000000 1.806440 
# 
# From -- ./inp_files/55670.got.cif
#   From: 2010.06.25/outbox.cif.g09.slc.cpg/sg15_28_cif.got.tgz:55670.got - 2010.06.28 07:06:18.
