data_PCOD8148541
_publ_section_title
;
Structure prediction by ZEFSAII (Michael W. Deem and Ramdas Pophale) SiO2 
 PCOD8148541
Probable space group: C 2/C
;
_chemical_formula_sum "Si O2"
_cell_formula_units_Z 48
_cell_length_a 10.911374
_cell_length_b 9.631023
_cell_length_c 20.645580
_cell_angle_alpha 90.000000
_cell_angle_beta 83.248812
_cell_angle_gamma 90.000000
_cell_volume 2154.552454
_symmetry_space_group_name_H-M "C 2/C"
_symmetry_group_IT_number 15
_symmetry_cell_setting 'monoclinic'
loop_
_space_group_symop_operation_xyz
x,y,z
-x,y,1/2-z
-x,-y,-z
x,-y,1/2+z
1/2+x,1/2+y,z
1/2-x,1/2+y,1/2-z
1/2-x,1/2-y,-z
1/2+x,1/2-y,1/2+z
loop_
_atom_site_type_symbol
_atom_site_label
_atom_site_fract_x
_atom_site_fract_y
_atom_site_fract_z
Si Si1 0.750210 0.798094 0.837104
Si Si2 0.047660 0.515122 0.819917
Si Si3 0.650654 0.371725 0.994837
Si Si4 0.785396 0.491584 0.377340
Si Si5 0.356528 0.683976 0.194209
Si Si6 0.447679 0.407720 0.909906
O O1 0.624808 0.883419 0.838875
O O2 0.720395 0.634700 0.842036
O O3 0.841691 0.833950 0.771889
O O4 0.821703 0.828298 0.900012
O O5 0.127689 0.653708 0.822743
O O6 0.000000 0.495770 0.750000
O O7 0.931591 0.530825 0.875293
O O8 0.722725 0.493252 0.951458
O O9 0.531063 0.326932 0.958989
O O10 0.750000 0.250000 0.000000
O O11 0.594792 0.438270 0.063950
O O12 0.765678 0.631270 0.335623
O O13 0.468905 0.588111 0.160516
#
# Coordination Sequence:
#
# PCOD8148541 Si02
#       6
#     8   8   8   8   8   8
#     4  12  23  41  70 106 141 178 230 288 358 417
#     4  12  23  43  66 102 146 179 224 281 344 429
#     4  10  25  48  69  98 140 185 246 290 338 413
#     4  11  25  44  69 103 139 181 234 287 345 418
#     4  11  21  44  71  97 147 180 219 294 349 417
#     4  10  23  41  72  98 134 185 229 289 348 404
#
# _framework density 22.278410000000001
#
# number of rings (size 3 to 8) (size 9 to 14) (size 15 to 20)
#    0.000    1.000    5.000    0.500    4.667    4.667 
#    0.000    2.500    0.000    0.000    0.000    0.000 
#    0.000    0.000    0.000    0.000    0.000    0.000 
#
# Total GULP energy -297419.771309 kJ/mol
# GULP energy per Si atom -12392.490471 kJ/mol
# Density = 2.222770 g / cm^3
# Si number density = 22.278410 Si / 1000 Ang^3
#
#
#
# Elastic Constant Matrix: (Units=GPa)
#
#
# Indices 1 2 3 4 5 6 
#
# 1 103.8798 72.8660 18.9446 0.0000 9.8494 0.0000
# 2 72.8660 127.1804 33.1806 0.0000 0.5705 0.0000
# 3 18.9446 33.1806 72.2588 0.0000 -10.0362 0.0000
# 4 0.0000 0.0000 0.0000 35.4456 0.0000 -1.0691
# 5 9.8494 0.5705 -10.0362 0.0000 35.9507 0.0000
# 6 0.0000 0.0000 0.0000 -1.0691 0.0000 48.7314
#
#
#
# Elastic Compliance Matrix: (Units=1/GPa)
#
#
# Indices 1 2 3 4 5 6 
#
# 1 0.016808 -0.009419 -0.000729 0.000000 -0.004659 0.000000
# 2 -0.009419 0.014274 -0.003910 0.000000 0.001263 0.000000
# 3 -0.000729 -0.003910 0.016502 0.000000 0.004868 0.000000
# 4 0.000000 0.000000 0.000000 0.028231 0.000000 0.000619
# 5 -0.004659 0.001263 0.004868 0.000000 0.030431 0.000000
# 6 0.000000 0.000000 0.000000 0.000619 0.000000 0.020534
#
#
# Mechanical properties :
#
#
# Convention : Reuss Voigt Hill
#
# Bulk Modulus (GPa) = 51.36376 61.47794 56.42085
# Shear Modulus (GPa) = 30.98217 35.91405 33.44811
#
# Velocity S-wave (km/s) = 3.73323 4.01940 3.87895
# Velocity P-wave (km/s) = 6.45663 7.01398 6.74107
#
# Compressibility (1/GPa) = 0.01946898
#
# Stress axis : x y z
#
# Youngs Moduli (GPa) = 59.49583 70.05984 60.60025
#
# Poissons Ratio (x) = 0.65988 0.04416
# Poissons Ratio (y) = 0.56038 0.23692
# Poissons Ratio (z) = 0.04335 0.27390
#
# Static dielectric constant tensor:
#      x y z
#    x 4.227230 0.000000 -0.067320 
#    y 0.000000 3.933230 0.000000 
#    z -0.067320 0.000000 4.106450 
# 
# 
# High freq. dielectric constant tensor:
#      x y z
#    x 1.884160 0.000000 -0.006550 
#    y 0.000000 1.861010 0.000000 
#    z -0.006550 0.000000 1.870890 
# 
# From -- ./inp_files/267646.got.cif
#   From: 2010.06.25/outbox.cif.g09.slc.cpg/sg15_134_cif.got.tgz:267646.got - 2010.06.28 07:06:18.
