data_PCOD8148628
_publ_section_title
;
Structure prediction by ZEFSAII (Michael W. Deem and Ramdas Pophale) SiO2 
 PCOD8148628
Probable space group: C 2/C
;
_chemical_formula_sum "Si O2"
_cell_formula_units_Z 44
_cell_length_a 14.977710
_cell_length_b 19.393402
_cell_length_c 9.196022
_cell_angle_alpha 90.000000
_cell_angle_beta 50.746657
_cell_angle_gamma 90.000000
_cell_volume 2068.425739
_symmetry_space_group_name_H-M "C 2/C"
_symmetry_group_IT_number 15
_symmetry_cell_setting 'monoclinic'
loop_
_space_group_symop_operation_xyz
x,y,z
-x,y,1/2-z
-x,-y,-z
x,-y,1/2+z
1/2+x,1/2+y,z
1/2-x,1/2+y,1/2-z
1/2-x,1/2-y,-z
1/2+x,1/2-y,1/2+z
loop_
_atom_site_type_symbol
_atom_site_label
_atom_site_fract_x
_atom_site_fract_y
_atom_site_fract_z
Si Si1 0.749757 0.679127 0.833496
Si Si2 0.642279 0.063743 0.265496
Si Si3 0.500000 0.489894 0.250000
Si Si4 0.538444 0.597379 0.981171
Si Si5 0.712381 0.663190 0.204862
Si Si6 0.369612 0.935146 0.046033
O O1 0.621102 0.663760 0.906305
O O2 0.791544 0.756004 0.756837
O O3 0.843161 0.635779 0.651385
O O4 0.752887 0.656553 0.997687
O O5 0.688331 0.131723 0.296754
O O6 0.505758 0.060627 0.401608
O O7 0.688633 0.997412 0.304639
O O8 0.688129 0.062150 0.053634
O O9 0.425749 0.541605 0.430103
O O10 0.436454 0.439034 0.200773
O O11 0.407951 0.624502 0.136928
#
# Coordination Sequence:
#
# PCOD8148628 Si02
#       6
#     8   8   4   8   8   8
#     4  11  25  42  65  92 132 174 212 265 320 390
#     4  10  23  42  65  94 126 166 214 263 313 376
#     4  10  24  42  72  90 138 162 214 282 320 390
#     4  11  24  44  64 104 125 174 214 270 330 382
#     4  11  25  42  65  92 132 174 212 265 320 390
#     4  10  23  42  65  94 126 166 214 263 313 376
#
# _framework density 21.272217999999999
#
# number of rings (size 3 to 8) (size 9 to 14) (size 15 to 20)
#    0.000    1.455    1.818    1.091   10.182    2.909 
#    0.000    0.000    0.000    0.000    0.000    0.000 
#    0.000    0.000    0.000    0.000    0.000    0.000 
#
# Total GULP energy -272670.263745 kJ/mol
# GULP energy per Si atom -12394.102897 kJ/mol
# Density = 2.122380 g / cm^3
# Si number density = 21.272218 Si / 1000 Ang^3
#
#
#
# Elastic Constant Matrix: (Units=GPa)
#
#
# Indices 1 2 3 4 5 6 
#
# 1 70.0741 51.8365 41.6221 0.0000 32.1180 0.0000
# 2 51.8365 134.3670 81.6194 0.0000 34.0546 0.0000
# 3 41.6221 81.6194 103.8759 0.0000 28.4975 0.0000
# 4 0.0000 0.0000 0.0000 29.3157 0.0000 5.2950
# 5 32.1180 34.0546 28.4975 0.0000 36.6597 0.0000
# 6 0.0000 0.0000 0.0000 5.2950 0.0000 33.8744
#
#
#
# Elastic Compliance Matrix: (Units=1/GPa)
#
#
# Indices 1 2 3 4 5 6 
#
# 1 0.027194 -0.004467 -0.002528 0.000000 -0.017710 0.000000
# 2 -0.004467 0.015996 -0.009884 0.000000 -0.003263 0.000000
# 3 -0.002528 -0.009884 0.019421 0.000000 -0.003701 0.000000
# 4 0.000000 0.000000 0.000000 0.035102 0.000000 -0.005487
# 5 -0.017710 -0.003263 -0.003701 0.000000 0.048702 0.000000
# 6 0.000000 0.000000 0.000000 -0.005487 0.000000 0.030378
#
#
# Mechanical properties :
#
#
# Convention : Reuss Voigt Hill
#
# Bulk Modulus (GPa) = 34.65707 73.16368 53.91037
# Shear Modulus (GPa) = 22.70971 28.85257 25.78114
#
# Velocity S-wave (km/s) = 3.27092 3.68686 3.48510
# Velocity P-wave (km/s) = 5.53108 7.25208 6.44924
#
# Compressibility (1/GPa) = 0.02885414
#
# Stress axis : x y z
#
# Youngs Moduli (GPa) = 36.77308 62.51397 51.48967
#
# Poissons Ratio (x) = 0.27923 0.13016
# Poissons Ratio (y) = 0.16426 0.50893
# Poissons Ratio (z) = 0.09296 0.61789
#
# Static dielectric constant tensor:
#      x y z
#    x 3.783240 0.000000 0.356010 
#    y 0.000000 3.918020 0.000000 
#    z 0.356010 0.000000 4.003640 
# 
# 
# High freq. dielectric constant tensor:
#      x y z
#    x 1.832620 0.000000 0.012860 
#    y 0.000000 1.837690 0.000000 
#    z 0.012860 0.000000 1.845420 
# 
# From -- ./inp_files/39549.got.cif
#   From: 2010.06.25/outbox.cif.g09.slc.cpg/sg15_20_cif.got.tgz:39549.got - 2010.06.28 07:06:18.
