data_PCOD8148964
_publ_section_title
;
Structure prediction by ZEFSAII (Michael W. Deem and Ramdas Pophale) SiO2 
 PCOD8148964
Probable space group: C 2/C
;
_chemical_formula_sum "Si O2"
_cell_formula_units_Z 40
_cell_length_a 14.648661
_cell_length_b 11.910268
_cell_length_c 12.621846
_cell_angle_alpha 90.000000
_cell_angle_beta 130.423120
_cell_angle_gamma 90.000000
_cell_volume 1676.427925
_symmetry_space_group_name_H-M "C 2/C"
_symmetry_group_IT_number 15
_symmetry_cell_setting 'monoclinic'
loop_
_space_group_symop_operation_xyz
x,y,z
-x,y,1/2-z
-x,-y,-z
x,-y,1/2+z
1/2+x,1/2+y,z
1/2-x,1/2+y,1/2-z
1/2-x,1/2-y,-z
1/2+x,1/2-y,1/2+z
loop_
_atom_site_type_symbol
_atom_site_label
_atom_site_fract_x
_atom_site_fract_y
_atom_site_fract_z
Si Si1 0.392195 0.492869 0.086946
Si Si2 0.158776 0.576921 0.023406
Si Si3 0.399367 0.908111 0.365397
Si Si4 0.481141 0.253659 0.116391
Si Si5 0.828253 0.817670 0.394319
O O1 0.500000 0.516975 0.250000
O O2 0.256890 0.515628 0.025949
O O3 0.395227 0.363558 0.052999
O O4 0.408180 0.581937 0.003988
O O5 0.168097 0.522122 0.148288
O O6 0.177084 0.709742 0.034584
O O7 0.017733 0.558797 0.887152
O O8 0.427417 0.835704 0.493361
O O9 0.311770 0.844764 0.220941
O O10 0.500000 0.205608 0.250000
O O11 0.612499 0.292315 0.174730
#
# Coordination Sequence:
#
# PCOD8148964 Si02
#       5
#     8   8   8   8   8
#     4  11  24  41  69  98 134 171 226 266 329 396
#     4  10  24  43  61 102 129 176 215 272 335 386
#     4  10  23  44  67  94 139 167 228 269 329 400
#     4  10  23  43  68  99 127 176 222 273 328 386
#     4  11  24  41  69  95 134 177 217 273 331 392
#
# _framework density 23.860256
#
# number of rings (size 3 to 8) (size 9 to 14) (size 15 to 20)
#    0.000    1.600    0.000    3.600    8.400    4.000 
#    7.200    0.000    0.000    0.000    0.000    0.000 
#    0.000    0.000    0.000    0.000    0.000    0.000 
#
# Total GULP energy -247794.545152 kJ/mol
# GULP energy per Si atom -12389.727258 kJ/mol
# Density = 2.380595 g / cm^3
# Si number density = 23.860256 Si / 1000 Ang^3
#
#
#
# Elastic Constant Matrix: (Units=GPa)
#
#
# Indices 1 2 3 4 5 6 
#
# 1 119.6384 0.6825 18.4451 0.0000 17.7486 0.0000
# 2 0.6825 93.8425 26.8148 0.0000 1.4524 0.0000
# 3 18.4451 26.8148 91.5586 0.0000 3.9358 0.0000
# 4 0.0000 0.0000 0.0000 1.4396 0.0000 7.0898
# 5 17.7486 1.4524 3.9358 0.0000 21.8203 0.0000
# 6 0.0000 0.0000 0.0000 7.0898 0.0000 36.2883
#
#
#
# Elastic Compliance Matrix: (Units=1/GPa)
#
#
# Indices 1 2 3 4 5 6 
#
# 1 0.009770 0.000563 -0.001804 0.000000 -0.007659 0.000000
# 2 0.000563 0.011662 -0.003503 0.000000 -0.000602 0.000000
# 3 -0.001804 -0.003503 0.012334 0.000000 -0.000524 0.000000
# 4 0.000000 0.000000 0.000000 18.387235 0.000000 -3.592408
# 5 -0.007659 -0.000602 -0.000524 0.000000 0.052193 0.000000
# 6 0.000000 0.000000 0.000000 -3.592408 0.000000 0.729424
#
#
# Mechanical properties :
#
#
# Convention : Reuss Voigt Hill
#
# Bulk Modulus (GPa) = 41.18978 44.10272 42.64625
# Shear Modulus (GPa) = 0.26014 29.18277 14.72146
#
# Velocity S-wave (km/s) = 0.33055 3.50104 2.48662
# Velocity P-wave (km/s) = 4.17685 5.90482 5.11434
#
# Compressibility (1/GPa) = 0.02427787
#
# Stress axis : x y z
#
# Youngs Moduli (GPa) = 102.35849 85.74595 81.07777
#
# Poissons Ratio (x) = -0.04827 0.14625
# Poissons Ratio (y) = -0.05762 0.28402
# Poissons Ratio (z) = 0.18463 0.30037
#
# Static dielectric constant tensor:
#      x y z
#    x 4.478890 0.000000 0.115210 
#    y 0.000000 4.723350 0.000000 
#    z 0.115210 0.000000 3.949060 
# 
# 
# High freq. dielectric constant tensor:
#      x y z
#    x 1.958040 0.000000 0.011490 
#    y 0.000000 1.963530 0.000000 
#    z 0.011490 0.000000 1.919330 
# 
# From -- ./inp_files/111381.got.cif
#   From: 2010.06.25/outbox.cif.g09.slc.cpg/sg15_56_cif.got.tgz:111381.got - 2010.06.28 07:06:18.
