data_PCOD8148619
_publ_section_title
;
Structure prediction by ZEFSAII (Michael W. Deem and Ramdas Pophale) SiO2 
 PCOD8148619
Probable space group: C 2/C
;
_chemical_formula_sum "Si O2"
_cell_formula_units_Z 52
_cell_length_a 8.938947
_cell_length_b 12.006690
_cell_length_c 24.192959
_cell_angle_alpha 90.000000
_cell_angle_beta 111.929983
_cell_angle_gamma 90.000000
_cell_volume 2408.676955
_symmetry_space_group_name_H-M "C 2/C"
_symmetry_group_IT_number 15
_symmetry_cell_setting 'monoclinic'
loop_
_space_group_symop_operation_xyz
x,y,z
-x,y,1/2-z
-x,-y,-z
x,-y,1/2+z
1/2+x,1/2+y,z
1/2-x,1/2+y,1/2-z
1/2-x,1/2-y,-z
1/2+x,1/2-y,1/2+z
loop_
_atom_site_type_symbol
_atom_site_label
_atom_site_fract_x
_atom_site_fract_y
_atom_site_fract_z
Si Si1 0.517754 0.676205 0.949286
Si Si2 0.730872 0.860693 0.923619
Si Si3 0.326243 0.886331 0.110195
Si Si4 0.525017 0.593244 0.836404
Si Si5 0.500000 0.587803 0.250000
Si Si6 0.838899 0.697526 0.848039
Si Si7 0.775572 0.278601 0.215095
O O1 0.587997 0.791888 0.934377
O O2 0.326281 0.682880 0.935968
O O3 0.531819 0.579752 0.903756
O O4 0.612095 0.637061 0.015954
O O5 0.779080 0.807051 0.871748
O O6 0.673745 0.984436 0.904791
O O7 0.487595 0.838260 0.103966
O O8 0.329595 0.871195 0.177419
O O9 0.445716 0.487310 0.795086
O O10 0.705764 0.602370 0.838461
O O11 0.418540 0.705429 0.806659
O O12 0.342767 0.657170 0.206721
O O13 0.863254 0.710837 0.786108
#
# Coordination Sequence:
#
# PCOD8148619 Si02
#       7
#     8   8   8   8   4   8   8
#     4   9  22  45  64  96 126 161 223 256 306 390
#     4  10  23  44  68  89 130 172 202 268 319 356
#     4  11  23  40  64  94 128 163 211 261 313 371
#     4  10  23  42  65  87 129 167 204 261 317 369
#     4  12  22  40  66  86 128 170 198 268 320 356
#     4  11  22  41  61  98 126 162 220 249 310 394
#     4  11  23  40  59  97 127 157 218 253 305 395
#
# _framework density 21.588615000000001
#
# number of rings (size 3 to 8) (size 9 to 14) (size 15 to 20)
#    0.000    1.538    3.077    0.462    4.308    4.308 
#    0.000   14.615    0.000    0.000    0.000    0.000 
#    0.000    0.000    0.000    0.000    0.000    0.000 
#
# Total GULP energy -322147.041414 kJ/mol
# GULP energy per Si atom -12390.270824 kJ/mol
# Density = 2.153948 g / cm^3
# Si number density = 21.588615 Si / 1000 Ang^3
#
#
#
# Elastic Constant Matrix: (Units=GPa)
#
#
# Indices 1 2 3 4 5 6 
#
# 1 111.5619 37.3592 15.5610 0.0000 40.6874 0.0000
# 2 37.3592 90.2945 30.6314 0.0000 13.3460 0.0000
# 3 15.5610 30.6314 98.9958 0.0000 7.1829 0.0000
# 4 0.0000 0.0000 0.0000 34.2192 0.0000 3.5233
# 5 40.6874 13.3460 7.1829 0.0000 32.7344 0.0000
# 6 0.0000 0.0000 0.0000 3.5233 0.0000 22.1147
#
#
#
# Elastic Compliance Matrix: (Units=1/GPa)
#
#
# Indices 1 2 3 4 5 6 
#
# 1 0.017888 -0.004388 0.000030 0.000000 -0.020451 0.000000
# 2 -0.004388 0.014068 -0.003702 0.000000 0.000531 0.000000
# 3 0.000030 -0.003702 0.011315 0.000000 -0.001011 0.000000
# 4 0.000000 0.000000 0.000000 0.029711 0.000000 -0.004734
# 5 -0.020451 0.000531 -0.001011 0.000000 0.055974 0.000000
# 6 0.000000 0.000000 0.000000 -0.004734 0.000000 0.045973
#
#
# Mechanical properties :
#
#
# Convention : Reuss Voigt Hill
#
# Bulk Modulus (GPa) = 36.83133 51.99504 44.41318
# Shear Modulus (GPa) = 24.98768 32.30036 28.64402
#
# Velocity S-wave (km/s) = 3.40582 3.87224 3.64649
# Velocity P-wave (km/s) = 5.70646 6.64297 6.19245
#
# Compressibility (1/GPa) = 0.02715080
#
# Stress axis : x y z
#
# Youngs Moduli (GPa) = 55.90462 71.08456 88.37484
#
# Poissons Ratio (x) = 0.31195 -0.00265
# Poissons Ratio (y) = 0.24533 0.32713
# Poissons Ratio (z) = -0.00168 0.26313
#
# Static dielectric constant tensor:
#      x y z
#    x 4.116430 0.000000 0.154520 
#    y 0.000000 3.712970 0.000000 
#    z 0.154520 0.000000 4.064540 
# 
# 
# High freq. dielectric constant tensor:
#      x y z
#    x 1.858710 0.000000 0.008220 
#    y 0.000000 1.819170 0.000000 
#    z 0.008220 0.000000 1.851710 
# 
# From -- ./inp_files/288122.got.cif
#   From: 2010.06.25/outbox.cif.g09.slc.cpg/sg15_145_cif.got.tgz:288122.got - 2010.06.28 07:06:18.
