data_PCOD8148721
_publ_section_title
;
Structure prediction by ZEFSAII (Michael W. Deem and Ramdas Pophale) SiO2 
 PCOD8148721
Probable space group: C 2/C
;
_chemical_formula_sum "Si O2"
_cell_formula_units_Z 48
_cell_length_a 16.524315
_cell_length_b 11.714014
_cell_length_c 20.190944
_cell_angle_alpha 90.000000
_cell_angle_beta 35.814126
_cell_angle_gamma 90.000000
_cell_volume 2286.960660
_symmetry_space_group_name_H-M "C 2/C"
_symmetry_group_IT_number 15
_symmetry_cell_setting 'monoclinic'
loop_
_space_group_symop_operation_xyz
x,y,z
-x,y,1/2-z
-x,-y,-z
x,-y,1/2+z
1/2+x,1/2+y,z
1/2-x,1/2+y,1/2-z
1/2-x,1/2-y,-z
1/2+x,1/2-y,1/2+z
loop_
_atom_site_type_symbol
_atom_site_label
_atom_site_fract_x
_atom_site_fract_y
_atom_site_fract_z
Si Si1 0.920140 0.085590 0.907227
Si Si2 0.992768 0.546255 0.652533
Si Si3 0.052491 0.318731 0.542730
Si Si4 0.198991 0.955239 0.158971
Si Si5 0.732426 0.909562 0.097613
Si Si6 0.635657 0.178868 0.450996
O O1 0.891629 0.212234 0.952553
O O2 0.851713 0.065022 0.881940
O O3 0.084566 0.068419 0.790612
O O4 0.856307 0.998584 0.002990
O O5 0.841309 0.566003 0.783335
O O6 0.003981 0.412920 0.627934
O O7 0.117051 0.582094 0.618040
O O8 0.009541 0.624248 0.576560
O O9 0.173667 0.368866 0.415387
O O10 0.925701 0.283284 0.579209
O O11 0.243914 0.085939 0.138542
O O12 0.798538 0.784683 0.054112
#
# Coordination Sequence:
#
# PCOD8148721 Si02
#       6
#     8   8   8   8   8   8
#     4  11  24  40  69  98 124 165 221 264 307 376
#     4  10  23  42  68  92 128 168 215 261 316 378
#     4  11  24  43  65  92 131 170 209 262 326 378
#     4  10  23  42  68  92 128 168 215 261 316 378
#     4  11  24  40  69  98 124 165 221 264 307 376
#     4  11  24  43  65  92 131 170 209 262 326 378
#
# _framework density 20.988555000000002
#
# number of rings (size 3 to 8) (size 9 to 14) (size 15 to 20)
#    0.000    1.333    3.333    3.000    4.667    6.000 
#    0.000    0.000    0.000    0.000    0.000    0.000 
#    0.000    0.000    0.000    0.000    0.000    0.000 
#
# Total GULP energy -297644.536214 kJ/mol
# GULP energy per Si atom -12401.855676 kJ/mol
# Density = 2.094078 g / cm^3
# Si number density = 20.988555 Si / 1000 Ang^3
#
#
#
# Elastic Constant Matrix: (Units=GPa)
#
#
# Indices 1 2 3 4 5 6 
#
# 1 82.2081 22.0955 8.3524 0.0000 -14.3647 0.0002
# 2 22.0955 143.4106 59.6957 0.0000 -12.7284 0.0004
# 3 8.3524 59.6957 140.6223 -0.0001 3.2924 0.0009
# 4 0.0000 0.0000 -0.0001 24.9433 0.0001 12.2083
# 5 -14.3647 -12.7284 3.2924 0.0001 5.5071 0.0000
# 6 0.0002 0.0004 0.0009 12.2083 0.0000 53.5009
#
#
#
# Elastic Compliance Matrix: (Units=1/GPa)
#
#
# Indices 1 2 3 4 5 6 
#
# 1 0.026263 0.006242 -0.006239 0.000000 0.086661 0.000000
# 2 0.006242 0.013781 -0.007452 0.000000 0.052587 0.000000
# 3 -0.006239 -0.007452 0.011592 0.000000 -0.040426 0.000000
# 4 0.000000 0.000000 0.000000 0.045131 -0.000003 -0.010298
# 5 0.086661 0.052587 -0.040426 -0.000003 0.553337 0.000001
# 6 0.000000 0.000000 0.000000 -0.010298 0.000001 0.021041
#
#
# Mechanical properties :
#
#
# Convention : Reuss Voigt Hill
#
# Bulk Modulus (GPa) = 27.21962 60.72537 43.97250
# Shear Modulus (GPa) = 7.16036 35.19675 21.17856
#
# Velocity S-wave (km/s) = 1.84904 4.09950 3.18000
# Velocity P-wave (km/s) = 4.18994 7.16961 5.87192
#
# Compressibility (1/GPa) = 0.03673820
#
# Stress axis : x y z
#
# Youngs Moduli (GPa) = 38.07612 72.56613 86.26828
#
# Poissons Ratio (x) = -0.45296 0.53821
# Poissons Ratio (y) = -0.23767 0.64287
# Poissons Ratio (z) = 0.23755 0.54076
#
# Static dielectric constant tensor:
#      x y z
#    x 3.645130 0.000000 -0.023590 
#    y 0.000000 3.716340 0.000000 
#    z -0.023590 0.000000 4.169170 
# 
# 
# High freq. dielectric constant tensor:
#      x y z
#    x 1.816200 0.000000 -0.001510 
#    y 0.000000 1.824280 0.000000 
#    z -0.001510 0.000000 1.829330 
# 
# From -- ./inp_files/243904.got.cif
#   From: 2010.06.25/outbox.cif.g09.slc.cpg/sg15_122_cif.got.tgz:243904.got - 2010.06.28 07:06:18.
