data_PCOD8148302
_publ_section_title
;
Structure prediction by ZEFSAII (Michael W. Deem and Ramdas Pophale) SiO2 
 PCOD8148302
Probable space group: C 2/C
;
_chemical_formula_sum "Si O2"
_cell_formula_units_Z 44
_cell_length_a 6.720474
_cell_length_b 13.511418
_cell_length_c 22.232252
_cell_angle_alpha 90.000000
_cell_angle_beta 98.693250
_cell_angle_gamma 90.000000
_cell_volume 1995.566044
_symmetry_space_group_name_H-M "C 2/C"
_symmetry_group_IT_number 15
_symmetry_cell_setting 'monoclinic'
loop_
_space_group_symop_operation_xyz
x,y,z
-x,y,1/2-z
-x,-y,-z
x,-y,1/2+z
1/2+x,1/2+y,z
1/2-x,1/2+y,1/2-z
1/2-x,1/2-y,-z
1/2+x,1/2-y,1/2+z
loop_
_atom_site_type_symbol
_atom_site_label
_atom_site_fract_x
_atom_site_fract_y
_atom_site_fract_z
Si Si1 0.277072 0.030423 0.568920
Si Si2 0.114738 0.124999 0.979474
Si Si3 0.000000 0.875002 0.250000
Si Si4 0.197508 0.483927 0.796273
Si Si5 0.958150 0.719578 0.931079
Si Si6 0.348762 0.733928 0.296273
O O1 0.401362 0.125001 0.552722
O O2 0.041188 0.057542 0.564095
O O3 0.285503 0.941506 0.520875
O O4 0.359704 0.990212 0.636108
O O5 0.985376 0.191505 0.020875
O O6 0.227091 0.192456 0.935904
O O7 0.839306 0.807880 0.207595
O O8 0.881715 0.942126 0.292405
O O9 0.265169 0.374999 0.780354
O O10 0.000000 0.515006 0.750000
O O11 0.973593 0.759789 0.863892
O O12 0.500000 0.765003 0.250000
#
# Coordination Sequence:
#
# PCOD8148302 Si02
#       6
#     8   8   4   8   8   8
#     4  11  22  42  65  95 132 170 220 276 333 397
#     4  10  23  40  66  97 128 172 220 268 336 398
#     4  12  24  44  68  92 136 176 230 280 348 400
#     4  12  25  45  69 100 136 182 230 282 342 408
#     4  11  22  42  65  95 132 170 220 276 333 397
#     4  12  25  45  69 100 136 182 230 282 342 408
#
# _framework density 22.048881999999999
#
# number of rings (size 3 to 8) (size 9 to 14) (size 15 to 20)
#    0.000    0.727    3.636    4.909    0.000    0.000 
#    0.000    1.818    0.000    0.000    0.000    0.000 
#    0.000    0.000    0.000    0.000    0.000    0.000 
#
# Total GULP energy -272884.320189 kJ/mol
# GULP energy per Si atom -12403.832736 kJ/mol
# Density = 2.199870 g / cm^3
# Si number density = 22.048882 Si / 1000 Ang^3
#
#
#
# Elastic Constant Matrix: (Units=GPa)
#
#
# Indices 1 2 3 4 5 6 
#
# 1 87.2439 35.9642 37.1215 0.0000 0.1968 0.0000
# 2 35.9642 118.3705 17.7299 0.0000 0.4924 0.0000
# 3 37.1215 17.7299 118.0692 0.0000 -1.0300 0.0000
# 4 0.0000 0.0000 0.0000 -11.6908 0.0000 1.8400
# 5 0.1968 0.4924 -1.0300 0.0000 21.4364 0.0000
# 6 0.0000 0.0000 0.0000 1.8400 0.0000 56.4638
#
#
#
# Elastic Compliance Matrix: (Units=1/GPa)
#
#
# Indices 1 2 3 4 5 6 
#
# 1 0.014796 -0.003885 -0.004071 0.000000 -0.000242 0.000000
# 2 -0.003885 0.009664 -0.000232 0.000000 -0.000197 0.000000
# 3 -0.004071 -0.000232 0.009789 0.000000 0.000513 0.000000
# 4 0.000000 0.000000 0.000000 -0.085101 0.000000 0.002773
# 5 -0.000242 -0.000197 0.000513 0.000000 0.046681 0.000000
# 6 0.000000 0.000000 0.000000 0.002773 0.000000 0.017620
#
#
# Mechanical properties :
#
#
# Convention : Reuss Voigt Hill
#
# Bulk Modulus (GPa) = 55.94500 56.14610 56.04555
# Shear Modulus (GPa) = 139.73742 28.76639 84.25191
#
# Velocity S-wave (km/s) = 7.96955 3.61593 6.18824
# Velocity P-wave (km/s) = 10.49349 6.55385 8.74832
#
# Compressibility (1/GPa) = 0.01787470
#
# Stress axis : x y z
#
# Youngs Moduli (GPa) = 67.58528 103.47851 102.15857
#
# Poissons Ratio (x) = 0.40199 0.41586
# Poissons Ratio (y) = 0.26255 0.02365
# Poissons Ratio (z) = 0.27512 0.02396
#
# Static dielectric constant tensor:
#      x y z
#    x 3.782700 0.000000 0.001220 
#    y 0.000000 4.159310 0.000000 
#    z 0.001220 0.000000 3.737140 
# 
# 
# High freq. dielectric constant tensor:
#      x y z
#    x 1.857190 0.000000 -0.000180 
#    y 0.000000 1.887140 0.000000 
#    z -0.000180 0.000000 1.863810 
# 
# From -- ./inp_files/260432.got.cif
#   From: 2010.06.25/outbox.cif.g09.slc.cpg/sg15_131_cif.got.tgz:260432.got - 2010.06.28 07:06:18.
