data_PCOD8148811
_publ_section_title
;
Structure prediction by ZEFSAII (Michael W. Deem and Ramdas Pophale) SiO2 
 PCOD8148811
Probable space group: C 2/C
;
_chemical_formula_sum "Si O2"
_cell_formula_units_Z 32
_cell_length_a 11.701112
_cell_length_b 7.767204
_cell_length_c 22.853591
_cell_angle_alpha 90.000000
_cell_angle_beta 129.361477
_cell_angle_gamma 90.000000
_cell_volume 1605.889902
_symmetry_space_group_name_H-M "C 2/C"
_symmetry_group_IT_number 15
_symmetry_cell_setting 'monoclinic'
loop_
_space_group_symop_operation_xyz
x,y,z
-x,y,1/2-z
-x,-y,-z
x,-y,1/2+z
1/2+x,1/2+y,z
1/2-x,1/2+y,1/2-z
1/2-x,1/2-y,-z
1/2+x,1/2-y,1/2+z
loop_
_atom_site_type_symbol
_atom_site_label
_atom_site_fract_x
_atom_site_fract_y
_atom_site_fract_z
Si Si1 0.423690 0.416725 0.664365
Si Si2 0.082144 0.775007 0.425802
Si Si3 0.134921 0.261167 0.543903
Si Si4 0.412236 0.902276 0.091237
O O1 0.500000 0.458705 0.750000
O O2 0.449509 0.575809 0.630067
O O3 0.247652 0.388328 0.615554
O O4 0.493397 0.240821 0.658428
O O5 0.250000 0.750000 0.500000
O O6 0.032089 0.595583 0.378238
O O7 0.983523 0.818016 0.450535
O O8 0.233090 0.110277 0.544379
O O9 0.053236 0.366749 0.465976
#
# Coordination Sequence:
#
# PCOD8148811 Si02
#       4
#     8   8   8   8
#     4  10  23  43  54  87 128 153 202 245 293 364
#     4  12  21  37  68  91 114 159 202 246 300 349
#     4   9  20  42  57  94 116 149 207 239 293 360
#     4   9  20  40  62  85 119 154 194 249 293 345
#
# _framework density 19.926645000000001
#
# number of rings (size 3 to 8) (size 9 to 14) (size 15 to 20)
#    1.500    0.500    2.500    0.750    0.000    5.000 
#    4.500    0.000    0.000    0.000    0.000    0.000 
#    0.000    0.000    0.000    0.000    0.000    0.000 
#
# Total GULP energy -198250.295043 kJ/mol
# GULP energy per Si atom -12390.643440 kJ/mol
# Density = 1.988129 g / cm^3
# Si number density = 19.926645 Si / 1000 Ang^3
#
#
#
# Elastic Constant Matrix: (Units=GPa)
#
#
# Indices 1 2 3 4 5 6 
#
# 1 114.3556 17.7939 45.0535 0.0000 -22.4906 0.0000
# 2 17.7939 104.3557 29.6936 0.0000 -22.0224 0.0000
# 3 45.0535 29.6936 104.2186 0.0000 -27.9942 0.0000
# 4 0.0000 0.0000 0.0000 18.5408 0.0000 -9.4474
# 5 -22.4906 -22.0224 -27.9942 0.0000 18.1037 0.0000
# 6 0.0000 0.0000 0.0000 -9.4474 0.0000 23.2089
#
#
#
# Elastic Compliance Matrix: (Units=1/GPa)
#
#
# Indices 1 2 3 4 5 6 
#
# 1 0.011951 0.001366 -0.001918 0.000000 0.013543 0.000000
# 2 0.001366 0.013100 0.000707 0.000000 0.018726 0.000000
# 3 -0.001918 0.000707 0.016786 0.000000 0.024434 0.000000
# 4 0.000000 0.000000 0.000000 0.068050 0.000000 0.027700
# 5 0.013543 0.018726 0.024434 0.000000 0.132625 0.000000
# 6 0.000000 0.000000 0.000000 0.027700 0.000000 0.054362
#
#
# Mechanical properties :
#
#
# Convention : Reuss Voigt Hill
#
# Bulk Modulus (GPa) = 23.72580 56.44579 40.08579
# Shear Modulus (GPa) = 16.09712 27.32993 21.71353
#
# Velocity S-wave (km/s) = 2.84530 3.70743 3.30460
# Velocity P-wave (km/s) = 4.76725 6.83484 5.89244
#
# Compressibility (1/GPa) = 0.04214822
#
# Stress axis : x y z
#
# Youngs Moduli (GPa) = 83.67288 76.33369 59.57302
#
# Poissons Ratio (x) = -0.10427 0.11425
# Poissons Ratio (y) = -0.11429 -0.04212
# Poissons Ratio (z) = 0.16047 -0.05397
#
# Static dielectric constant tensor:
#      x y z
#    x 3.419000 0.000000 -0.105530 
#    y 0.000000 3.777290 0.000000 
#    z -0.105530 0.000000 3.211860 
# 
# 
# High freq. dielectric constant tensor:
#      x y z
#    x 1.767530 0.000000 -0.017700 
#    y 0.000000 1.787780 0.000000 
#    z -0.017700 0.000000 1.736040 
# 
# From -- ./inp_files/194777.got.cif
#   From: 2010.06.25/outbox.cif.g09.slc.cpg/sg15_98_cif.got.tgz:194777.got - 2010.06.28 07:06:18.
