data_PCOD8148473
_publ_section_title
;
Structure prediction by ZEFSAII (Michael W. Deem and Ramdas Pophale) SiO2 
 PCOD8148473
Probable space group: C 2/C
;
_chemical_formula_sum "Si O2"
_cell_formula_units_Z 44
_cell_length_a 11.893973
_cell_length_b 15.008688
_cell_length_c 11.483093
_cell_angle_alpha 90.000000
_cell_angle_beta 74.587440
_cell_angle_gamma 90.000000
_cell_volume 1976.161064
_symmetry_space_group_name_H-M "C 2/C"
_symmetry_group_IT_number 15
_symmetry_cell_setting 'monoclinic'
loop_
_space_group_symop_operation_xyz
x,y,z
-x,y,1/2-z
-x,-y,-z
x,-y,1/2+z
1/2+x,1/2+y,z
1/2-x,1/2+y,1/2-z
1/2-x,1/2-y,-z
1/2+x,1/2-y,1/2+z
loop_
_atom_site_type_symbol
_atom_site_label
_atom_site_fract_x
_atom_site_fract_y
_atom_site_fract_z
Si Si1 0.153972 0.316811 0.801435
Si Si2 0.517098 0.121685 0.554213
Si Si3 0.083533 0.795907 0.819072
Si Si4 0.402384 0.567512 0.986622
Si Si5 0.140756 0.453194 0.592815
Si Si6 0.500000 0.335909 0.250000
O O1 0.288288 0.289073 0.769704
O O2 0.123755 0.389862 0.710088
O O3 0.084131 0.225584 0.803005
O O4 0.121255 0.356033 0.935732
O O5 0.478755 0.201182 0.647350
O O6 0.402414 0.096425 0.511642
O O7 0.564634 0.043254 0.625755
O O8 0.000000 0.848104 0.750000
O O9 0.089971 0.843519 0.940133
O O10 0.421383 0.598815 0.849717
O O11 0.500000 0.500000 0.000000
O O12 0.276372 0.522331 0.037174
#
# Coordination Sequence:
#
# PCOD8148473 Si02
#       6
#     8   8   8   8   8   4
#     4  11  22  43  71  97 137 181 228 281 344 422
#     4  11  22  42  71 100 134 176 226 291 342 405
#     4  11  26  43  65  99 139 174 229 281 342 412
#     4  11  26  42  65  96 136 183 227 282 342 413
#     4  10  23  41  67 100 136 170 232 280 347 402
#     4  12  22  44  72  92 130 184 230 268 352 414
#
# _framework density 22.26539
#
# number of rings (size 3 to 8) (size 9 to 14) (size 15 to 20)
#    0.000    1.091    3.636    1.091    3.818    9.455 
#    0.000    0.000    0.000    0.000    0.000    0.000 
#    0.000    0.000    0.000    0.000    0.000    0.000 
#
# Total GULP energy -272848.146427 kJ/mol
# GULP energy per Si atom -12402.188474 kJ/mol
# Density = 2.221471 g / cm^3
# Si number density = 22.265390 Si / 1000 Ang^3
#
#
#
# Elastic Constant Matrix: (Units=GPa)
#
#
# Indices 1 2 3 4 5 6 
#
# 1 137.1660 31.9270 36.4288 0.0000 -15.1719 0.0000
# 2 31.9270 84.3779 23.6834 0.0000 -8.3516 0.0000
# 3 36.4288 23.6834 69.6599 0.0000 -7.2483 0.0000
# 4 0.0000 0.0000 0.0000 21.0018 0.0000 -4.8273
# 5 -15.1719 -8.3516 -7.2483 0.0000 31.5316 0.0000
# 6 0.0000 0.0000 0.0000 -4.8273 0.0000 27.8881
#
#
#
# Elastic Compliance Matrix: (Units=1/GPa)
#
#
# Indices 1 2 3 4 5 6 
#
# 1 0.009099 -0.002101 -0.003736 0.000000 0.002963 0.000000
# 2 -0.002101 0.013783 -0.003394 0.000000 0.001859 0.000000
# 3 -0.003736 -0.003394 0.017603 0.000000 0.001350 0.000000
# 4 0.000000 0.000000 0.000000 0.049588 0.000000 0.008583
# 5 0.002963 0.001859 0.001350 0.000000 0.033943 0.000000
# 6 0.000000 0.000000 0.000000 0.008583 0.000000 0.037343
#
#
# Mechanical properties :
#
#
# Convention : Reuss Voigt Hill
#
# Bulk Modulus (GPa) = 45.40428 52.80912 49.10670
# Shear Modulus (GPa) = 26.71468 29.36195 28.03832
#
# Velocity S-wave (km/s) = 3.46761 3.63537 3.55248
# Velocity P-wave (km/s) = 6.03896 6.43356 6.23938
#
# Compressibility (1/GPa) = 0.02202435
#
# Stress axis : x y z
#
# Youngs Moduli (GPa) = 109.89703 72.55256 56.80696
#
# Poissons Ratio (x) = 0.15245 0.21222
# Poissons Ratio (y) = 0.23091 0.19279
# Poissons Ratio (z) = 0.41056 0.24623
#
# Static dielectric constant tensor:
#      x y z
#    x 4.080890 0.000000 0.163560 
#    y 0.000000 3.984810 0.000000 
#    z 0.163560 0.000000 3.596200 
# 
# 
# High freq. dielectric constant tensor:
#      x y z
#    x 1.888860 0.000000 -0.005530 
#    y 0.000000 1.872310 0.000000 
#    z -0.005530 0.000000 1.882690 
# 
# From -- ./inp_files/86046.got.cif
#   From: 2010.06.25/outbox.cif.g09.slc.cpg/sg15_44_cif.got.tgz:86046.got - 2010.06.28 07:06:18.
