data_PCOD8148277
_publ_section_title
;
Structure prediction by ZEFSAII (Michael W. Deem and Ramdas Pophale) SiO2 
 PCOD8148277
Probable space group: C 2/C
;
_chemical_formula_sum "Si O2"
_cell_formula_units_Z 60
_cell_length_a 22.812086
_cell_length_b 17.033265
_cell_length_c 9.120375
_cell_angle_alpha 90.000000
_cell_angle_beta 121.826216
_cell_angle_gamma 90.000000
_cell_volume 3011.039296
_symmetry_space_group_name_H-M "C 2/C"
_symmetry_group_IT_number 15
_symmetry_cell_setting 'monoclinic'
loop_
_space_group_symop_operation_xyz
x,y,z
-x,y,1/2-z
-x,-y,-z
x,-y,1/2+z
1/2+x,1/2+y,z
1/2-x,1/2+y,1/2-z
1/2-x,1/2-y,-z
1/2+x,1/2-y,1/2+z
loop_
_atom_site_type_symbol
_atom_site_label
_atom_site_fract_x
_atom_site_fract_y
_atom_site_fract_z
Si Si1 0.283386 0.476509 0.261493
Si Si2 0.179280 0.350874 0.239790
Si Si3 0.529303 0.188032 0.437693
Si Si4 0.000000 0.158415 0.750000
Si Si5 0.262265 0.285224 0.857546
Si Si6 0.320058 0.894894 0.932918
Si Si7 0.856963 0.917142 0.077723
Si Si8 0.466922 0.931940 0.051395
O O1 0.221323 0.428547 0.253640
O O2 0.246260 0.549542 0.132785
O O3 0.323236 0.425316 0.193727
O O4 0.339122 0.506090 0.456030
O O5 0.225569 0.277401 0.254376
O O6 0.164184 0.350864 0.393480
O O7 0.107532 0.341969 0.058303
O O8 0.500000 0.148860 0.250000
O O9 0.520207 0.283493 0.413823
O O10 0.482910 0.154567 0.508188
O O11 0.061903 0.098569 0.794273
O O12 0.195119 0.332706 0.716481
O O13 0.250000 0.250000 0.000000
O O14 0.328113 0.341321 0.956502
O O15 0.385198 0.944190 0.960782
O O16 0.500000 0.938246 0.250000
O O17 0.500000 0.000000 0.000000
#
# Coordination Sequence:
#
# PCOD8148277 Si02
#       8
#     8   8   8   4   8   8   8   8
#     4  11  24  40  69  95 132 170 224 275 334 393
#     4  12  21  43  65  97 133 173 221 282 331 392
#     4  10  23  40  65  94 132 175 222 276 328 404
#     4  10  24  44  72  92 132 176 228 272 324 414
#     4  11  23  39  68  99 127 170 220 275 339 402
#     4  11  26  40  64  96 136 174 216 279 335 393
#     4  11  23  44  66  98 129 173 222 273 338 396
#     4  12  25  41  61  93 135 181 218 267 337 409
#
# _framework density 19.926673999999998
#
# number of rings (size 3 to 8) (size 9 to 14) (size 15 to 20)
#    0.400    0.533    5.333    1.600    3.733    0.533 
#    0.000    0.000    2.933    0.000    0.000    0.000 
#    0.000    0.000    0.000    0.000    0.000    0.000 
#
# Total GULP energy -371910.961934 kJ/mol
# GULP energy per Si atom -12397.032064 kJ/mol
# Density = 1.988132 g / cm^3
# Si number density = 19.926674 Si / 1000 Ang^3
#
#
#
# Elastic Constant Matrix: (Units=GPa)
#
#
# Indices 1 2 3 4 5 6 
#
# 1 124.5242 44.3362 63.2023 0.0000 10.1365 0.0000
# 2 44.3362 83.4970 47.6500 0.0000 4.0032 0.0000
# 3 63.2023 47.6500 130.8377 0.0000 5.5598 0.0000
# 4 0.0000 0.0000 0.0000 -21.2269 0.0000 2.8889
# 5 10.1365 4.0032 5.5598 0.0000 38.9517 0.0000
# 6 0.0000 0.0000 0.0000 2.8889 0.0000 38.9464
#
#
#
# Elastic Compliance Matrix: (Units=1/GPa)
#
#
# Indices 1 2 3 4 5 6 
#
# 1 0.011638 -0.003690 -0.004191 0.000000 -0.002051 0.000000
# 2 -0.003690 0.016312 -0.004153 0.000000 -0.000123 0.000000
# 3 -0.004191 -0.004153 0.011183 0.000000 -0.000079 0.000000
# 4 0.000000 0.000000 0.000000 -0.046639 0.000000 0.003459
# 5 -0.002051 -0.000123 -0.000079 0.000000 0.026231 0.000000
# 6 0.000000 0.000000 0.000000 0.003459 0.000000 0.025420
#
#
# Mechanical properties :
#
#
# Convention : Reuss Voigt Hill
#
# Bulk Modulus (GPa) = 66.37526 72.13732 69.25629
# Shear Modulus (GPa) = 68.27403 23.57893 45.92648
#
# Velocity S-wave (km/s) = 5.85978 3.44362 4.80601
# Velocity P-wave (km/s) = 8.89746 7.21743 8.10111
#
# Compressibility (1/GPa) = 0.01506585
#
# Stress axis : x y z
#
# Youngs Moduli (GPa) = 85.92179 61.30593 89.41812
#
# Poissons Ratio (x) = 0.22621 0.37476
# Poissons Ratio (y) = 0.31704 0.37135
# Poissons Ratio (z) = 0.36011 0.25460
#
# Static dielectric constant tensor:
#      x y z
#    x 3.583680 0.000000 0.063890 
#    y 0.000000 3.695040 0.000000 
#    z 0.063890 0.000000 3.687610 
# 
# 
# High freq. dielectric constant tensor:
#      x y z
#    x 1.773050 0.000000 0.002940 
#    y 0.000000 1.773160 0.000000 
#    z 0.002940 0.000000 1.782030 
# 
# From -- ./inp_files/57031.got.cif
#   From: 2010.06.25/outbox.cif.g09.slc.cpg/sg15_29_cif.got.tgz:57031.got - 2010.06.28 07:06:18.
