data_PCOD8148862
_publ_section_title
;
Structure prediction by ZEFSAII (Michael W. Deem and Ramdas Pophale) SiO2 
 PCOD8148862
Probable space group: C 2/C
;
_chemical_formula_sum "Si O2"
_cell_formula_units_Z 56
_cell_length_a 24.416655
_cell_length_b 11.173281
_cell_length_c 14.142660
_cell_angle_alpha 90.000000
_cell_angle_beta 137.235954
_cell_angle_gamma 90.000000
_cell_volume 2619.723441
_symmetry_space_group_name_H-M "C 2/C"
_symmetry_group_IT_number 15
_symmetry_cell_setting 'monoclinic'
loop_
_space_group_symop_operation_xyz
x,y,z
-x,y,1/2-z
-x,-y,-z
x,-y,1/2+z
1/2+x,1/2+y,z
1/2-x,1/2+y,1/2-z
1/2-x,1/2-y,-z
1/2+x,1/2-y,1/2+z
loop_
_atom_site_type_symbol
_atom_site_label
_atom_site_fract_x
_atom_site_fract_y
_atom_site_fract_z
Si Si1 0.178725 0.883884 0.453675
Si Si2 0.897338 0.043635 0.273008
Si Si3 0.913504 0.739713 0.483438
Si Si4 0.342264 0.234896 0.592813
Si Si5 0.354781 0.168002 0.214354
Si Si6 0.541127 0.046413 0.703929
Si Si7 0.066867 0.985355 0.475213
O O1 0.267027 0.893065 0.610741
O O2 0.149905 0.751121 0.385816
O O3 0.179565 0.967642 0.361170
O O4 0.116531 0.941248 0.449213
O O5 0.898629 0.164904 0.213082
O O6 0.972493 0.951031 0.347383
O O7 0.891349 0.069695 0.377754
O O8 0.851427 0.729074 0.491524
O O9 0.864359 0.739714 0.323737
O O10 0.949610 0.871920 0.537564
O O11 0.980331 0.632902 0.568587
O O12 0.250000 0.250000 0.500000
O O13 0.373388 0.110586 0.673597
O O14 0.431466 0.077647 0.309558
O O15 0.500000 0.013112 0.750000
#
# Coordination Sequence:
#
# PCOD8148862 Si02
#       7
#     8   8   8   8   8   8   8
#     4  11  24  42  69  93 141 171 220 281 334 396
#     4  11  22  41  66  98 131 165 230 273 336 394
#     4  11  22  43  68  93 133 172 227 276 323 401
#     4  11  23  39  66  98 132 171 220 279 335 398
#     4  11  25  46  62 101 137 181 218 273 342 402
#     4  10  23  43  65  93 132 181 220 271 332 403
#     4  11  23  40  68 101 125 174 224 282 330 392
#
# _framework density 21.376301000000002
#
# number of rings (size 3 to 8) (size 9 to 14) (size 15 to 20)
#    0.000    1.143    4.286    1.714    2.000    1.143 
#    0.000    1.429    0.000    0.000    0.000    0.000 
#    0.000    0.000    0.000    0.000    0.000    0.000 
#
# Total GULP energy -346939.360287 kJ/mol
# GULP energy per Si atom -12390.691439 kJ/mol
# Density = 2.132765 g / cm^3
# Si number density = 21.376301 Si / 1000 Ang^3
#
#
#
# Elastic Constant Matrix: (Units=GPa)
#
#
# Indices 1 2 3 4 5 6 
#
# 1 99.5345 32.7572 59.7216 0.0000 0.3624 0.0000
# 2 32.7572 81.4937 24.5584 0.0000 -3.9456 0.0000
# 3 59.7216 24.5584 115.8428 0.0000 -9.4818 0.0000
# 4 0.0000 0.0000 0.0000 31.0856 0.0000 -2.7589
# 5 0.3624 -3.9456 -9.4818 0.0000 29.7924 0.0000
# 6 0.0000 0.0000 0.0000 -2.7589 0.0000 34.3078
#
#
#
# Elastic Compliance Matrix: (Units=1/GPa)
#
#
# Indices 1 2 3 4 5 6 
#
# 1 0.016050 -0.004309 -0.007622 0.000000 -0.003192 0.000000
# 2 -0.004309 0.014287 -0.000666 0.000000 0.001733 0.000000
# 3 -0.007622 -0.000666 0.013043 0.000000 0.004156 0.000000
# 4 0.000000 0.000000 0.000000 0.032401 0.000000 0.002606
# 5 -0.003192 0.001733 0.004156 0.000000 0.035156 0.000000
# 6 0.000000 0.000000 0.000000 0.002606 0.000000 0.029357
#
#
# Mechanical properties :
#
#
# Convention : Reuss Voigt Hill
#
# Bulk Modulus (GPa) = 54.98432 58.99394 56.98913
# Shear Modulus (GPa) = 29.14596 31.02607 30.08601
#
# Velocity S-wave (km/s) = 3.69653 3.81389 3.75567
# Velocity P-wave (km/s) = 6.63302 6.85945 6.74719
#
# Compressibility (1/GPa) = 0.01818700
#
# Stress axis : x y z
#
# Youngs Moduli (GPa) = 62.30611 69.99178 76.66873
#
# Poissons Ratio (x) = 0.30159 0.58437
# Poissons Ratio (y) = 0.26848 0.05103
# Poissons Ratio (z) = 0.47490 0.04659
#
# Static dielectric constant tensor:
#      x y z
#    x 3.632610 0.000000 -0.092950 
#    y 0.000000 3.895940 0.000000 
#    z -0.092950 0.000000 3.930260 
# 
# 
# High freq. dielectric constant tensor:
#      x y z
#    x 1.824540 0.000000 -0.004530 
#    y 0.000000 1.837340 0.000000 
#    z -0.004530 0.000000 1.852880 
# 
# From -- ./inp_files/177630.got.cif
#   From: 2010.06.25/outbox.cif.g09.slc.cpg/sg15_89_cif.got.tgz:177630.got - 2010.06.28 07:06:18.
