data_PCOD8148945
_publ_section_title
;
Structure prediction by ZEFSAII (Michael W. Deem and Ramdas Pophale) SiO2 
 PCOD8148945
Probable space group: C 2/C
;
_chemical_formula_sum "Si O2"
_cell_formula_units_Z 64
_cell_length_a 10.987296
_cell_length_b 11.297611
_cell_length_c 24.205098
_cell_angle_alpha 90.000000
_cell_angle_beta 81.496534
_cell_angle_gamma 90.000000
_cell_volume 2971.553935
_symmetry_space_group_name_H-M "C 2/C"
_symmetry_group_IT_number 15
_symmetry_cell_setting 'monoclinic'
loop_
_space_group_symop_operation_xyz
x,y,z
-x,y,1/2-z
-x,-y,-z
x,-y,1/2+z
1/2+x,1/2+y,z
1/2-x,1/2+y,1/2-z
1/2-x,1/2-y,-z
1/2+x,1/2-y,1/2+z
loop_
_atom_site_type_symbol
_atom_site_label
_atom_site_fract_x
_atom_site_fract_y
_atom_site_fract_z
Si Si1 0.743853 0.694795 0.611612
Si Si2 0.967838 0.690392 0.422480
Si Si3 0.144055 0.547074 0.558737
Si Si4 0.346355 0.070762 0.703486
Si Si5 0.132855 0.376090 0.176662
Si Si6 0.176639 0.031298 0.050211
Si Si7 0.993579 0.772141 0.538794
Si Si8 0.289207 0.159931 0.142068
O O1 0.651147 0.803286 0.609875
O O2 0.756946 0.657438 0.674710
O O3 0.671865 0.594317 0.581057
O O4 0.876442 0.733508 0.581564
O O5 0.965421 0.550796 0.440677
O O6 0.958377 0.774099 0.476712
O O7 0.084163 0.730167 0.377887
O O8 0.186984 0.555643 0.619956
O O9 0.261601 0.512703 0.513941
O O10 0.098738 0.675516 0.542574
O O11 0.312728 0.070590 0.770399
O O12 0.485374 0.115594 0.684809
O O13 0.321425 0.938811 0.684872
O O14 0.177481 0.239514 0.171849
O O15 0.044304 0.097166 0.051917
O O16 0.261658 0.111431 0.083169
#
# Coordination Sequence:
#
# PCOD8148945 Si02
#       8
#     8   8   8   8   8   8   8   8
#     4  11  24  42  56  91 136 167 204 259 323 383
#     4  12  24  37  62  98 132 166 201 260 326 381
#     4  12  20  38  63  95 122 157 220 257 310 377
#     4  10  23  43  68  90 120 164 216 263 315 374
#     4  11  22  41  69  94 115 165 219 264 311 381
#     4  11  22  38  66  90 124 169 209 261 314 378
#     4  12  21  39  61  91 127 171 206 257 315 382
#     4  11  21  42  68  92 122 161 214 266 310 373
#
# _framework density 21.537554
#
# number of rings (size 3 to 8) (size 9 to 14) (size 15 to 20)
#    0.000    0.750    6.250    2.625    0.000    1.500 
#    2.250    0.000   11.000    0.000    0.000    0.000 
#    0.000    0.000    0.000    0.000    0.000    0.000 
#
# Total GULP energy -396668.854803 kJ/mol
# GULP energy per Si atom -12395.901713 kJ/mol
# Density = 2.148853 g / cm^3
# Si number density = 21.537554 Si / 1000 Ang^3
#
#
#
# Elastic Constant Matrix: (Units=GPa)
#
#
# Indices 1 2 3 4 5 6 
#
# 1 54.5576 35.5721 26.1322 0.0000 15.2843 0.0000
# 2 35.5721 61.3375 18.4023 0.0000 6.8177 0.0000
# 3 26.1322 18.4023 157.7796 0.0000 23.8256 0.0000
# 4 0.0000 0.0000 0.0000 19.9527 0.0000 6.7663
# 5 15.2843 6.8177 23.8256 0.0000 23.7629 0.0000
# 6 0.0000 0.0000 0.0000 6.7663 0.0000 46.8738
#
#
#
# Elastic Compliance Matrix: (Units=1/GPa)
#
#
# Indices 1 2 3 4 5 6 
#
# 1 0.035490 -0.018390 -0.001276 0.000000 -0.016271 0.000000
# 2 -0.018390 0.026658 -0.000818 0.000000 0.005001 0.000000
# 3 -0.001276 -0.000818 0.007642 0.000000 -0.006607 0.000000
# 4 0.000000 0.000000 0.000000 0.052698 0.000000 -0.007607
# 5 -0.016271 0.005001 -0.006607 0.000000 0.057738 0.000000
# 6 0.000000 0.000000 0.000000 -0.007607 0.000000 0.022432
#
#
# Mechanical properties :
#
#
# Convention : Reuss Voigt Hill
#
# Bulk Modulus (GPa) = 34.69755 48.20976 41.45366
# Shear Modulus (GPa) = 19.74451 31.02242 25.38347
#
# Velocity S-wave (km/s) = 3.03107 3.79936 3.43675
# Velocity P-wave (km/s) = 5.32870 6.45597 5.91923
#
# Compressibility (1/GPa) = 0.02882048
#
# Stress axis : x y z
#
# Youngs Moduli (GPa) = 28.17730 37.51180 130.84807
#
# Poissons Ratio (x) = 0.68986 0.16696
# Poissons Ratio (y) = 0.51819 0.10710
# Poissons Ratio (z) = 0.03595 0.03070
#
# Static dielectric constant tensor:
#      x y z
#    x 3.768490 0.000000 0.257130 
#    y 0.000000 3.959690 0.000000 
#    z 0.257130 0.000000 4.051450 
# 
# 
# High freq. dielectric constant tensor:
#      x y z
#    x 1.835390 0.000000 0.018210 
#    y 0.000000 1.842330 0.000000 
#    z 0.018210 0.000000 1.844120 
# 
# From -- ./inp_files/268886.got.cif
#   From: 2010.06.25/outbox.cif.g09.slc.cpg/sg15_135_cif.got.tgz:268886.got - 2010.06.28 07:06:18.
