data_PCOD8148227
_publ_section_title
;
Structure prediction by ZEFSAII (Michael W. Deem and Ramdas Pophale) SiO2 
 PCOD8148227
Probable space group: C 2/C
;
_chemical_formula_sum "Si O2"
_cell_formula_units_Z 60
_cell_length_a 8.526906
_cell_length_b 21.890890
_cell_length_c 23.410954
_cell_angle_alpha 90.000000
_cell_angle_beta 137.627784
_cell_angle_gamma 90.000000
_cell_volume 2945.085825
_symmetry_space_group_name_H-M "C 2/C"
_symmetry_group_IT_number 15
_symmetry_cell_setting 'monoclinic'
loop_
_space_group_symop_operation_xyz
x,y,z
-x,y,1/2-z
-x,-y,-z
x,-y,1/2+z
1/2+x,1/2+y,z
1/2-x,1/2+y,1/2-z
1/2-x,1/2-y,-z
1/2+x,1/2-y,1/2+z
loop_
_atom_site_type_symbol
_atom_site_label
_atom_site_fract_x
_atom_site_fract_y
_atom_site_fract_z
Si Si1 0.045767 0.064863 0.344479
Si Si2 0.768889 0.252726 0.340450
Si Si3 0.179637 0.700949 0.434009
Si Si4 0.423490 0.087425 0.023749
Si Si5 0.425390 0.886252 0.393286
Si Si6 0.836335 0.029462 0.004220
Si Si7 0.178373 0.181632 0.253185
Si Si8 0.000000 0.958007 0.250000
O O1 0.297146 0.093504 0.394982
O O2 0.008595 0.056857 0.402560
O O3 0.847243 0.108337 0.263666
O O4 0.018650 0.998089 0.311677
O O5 0.500000 0.265130 0.250000
O O6 0.816842 0.216210 0.412687
O O7 0.920673 0.314101 0.382158
O O8 0.884452 0.210052 0.324555
O O9 0.250000 0.750000 0.500000
O O10 0.214250 0.633743 0.470808
O O11 0.916861 0.704854 0.342834
O O12 0.342888 0.019700 0.018066
O O13 0.360628 0.101452 0.941779
O O14 0.672400 0.914746 0.438602
O O15 0.225262 0.916300 0.301200
O O16 0.000000 0.000000 0.000000
O O17 0.000000 0.208459 0.250000
#
# Coordination Sequence:
#
# PCOD8148227 Si02
#       8
#     8   8   8   8   8   8   8   4
#     4  11  21  41  66  94 124 174 223 265 329 405
#     4  10  23  40  61  95 130 167 218 272 329 391
#     4  11  22  40  65  95 130 172 218 274 330 395
#     4  11  20  41  66  91 125 170 220 262 325 408
#     4  11  21  40  66  92 124 173 218 258 332 409
#     4  11  25  42  61  98 134 164 214 286 340 390
#     4  11  23  42  64  96 132 173 226 276 323 400
#     4  12  18  36  70  90 114 164 222 262 312 402
#
# _framework density 20.372921000000002
#
# number of rings (size 3 to 8) (size 9 to 14) (size 15 to 20)
#    0.000    1.067    6.667    0.800    1.867    0.000 
#    2.400    4.000    0.000    0.000    0.000    0.000 
#    0.000    0.000    0.000    0.000    0.000    0.000 
#
# Total GULP energy -371856.711903 kJ/mol
# GULP energy per Si atom -12395.223730 kJ/mol
# Density = 2.032655 g / cm^3
# Si number density = 20.372921 Si / 1000 Ang^3
#
#
#
# Elastic Constant Matrix: (Units=GPa)
#
#
# Indices 1 2 3 4 5 6 
#
# 1 106.0932 31.6801 28.3623 -0.0007 -16.3917 -0.0008
# 2 31.6801 91.2594 20.7906 -0.0001 -4.1467 -0.0002
# 3 28.3623 20.7906 87.3767 -0.0019 -11.5189 -0.0014
# 4 -0.0007 -0.0001 -0.0019 41.4376 -0.0008 -4.0330
# 5 -16.3917 -4.1467 -11.5189 -0.0008 22.1794 -0.0006
# 6 -0.0008 -0.0002 -0.0014 -4.0330 -0.0006 31.6547
#
#
#
# Elastic Compliance Matrix: (Units=1/GPa)
#
#
# Indices 1 2 3 4 5 6 
#
# 1 0.012133 -0.003387 -0.002183 0.000000 0.007200 0.000000
# 2 -0.003387 0.012544 -0.002046 0.000000 -0.001221 0.000000
# 3 -0.002183 -0.002046 0.013287 0.000001 0.004904 0.000001
# 4 0.000000 0.000000 0.000001 0.024436 0.000002 0.003113
# 5 0.007200 -0.001221 0.004904 0.000002 0.052727 0.000002
# 6 0.000000 0.000000 0.000001 0.003113 0.000002 0.031988
#
#
# Mechanical properties :
#
#
# Convention : Reuss Voigt Hill
#
# Bulk Modulus (GPa) = 43.99353 49.59948 46.79650
# Shear Modulus (GPa) = 29.42470 32.64742 31.03606
#
# Velocity S-wave (km/s) = 3.80452 4.00746 3.90731
# Velocity P-wave (km/s) = 6.39845 6.76842 6.58604
#
# Compressibility (1/GPa) = 0.02273062
#
# Stress axis : x y z
#
# Youngs Moduli (GPa) = 82.41818 79.71681 75.26259
#
# Poissons Ratio (x) = 0.27004 0.16432
# Poissons Ratio (y) = 0.27919 0.15400
# Poissons Ratio (z) = 0.17994 0.16312
#
# Static dielectric constant tensor:
#      x y z
#    x 4.145460 0.000000 -0.299070 
#    y 0.000000 3.797290 0.000000 
#    z -0.299070 0.000000 3.835230 
# 
# 
# High freq. dielectric constant tensor:
#      x y z
#    x 1.773570 0.000000 -0.017870 
#    y 0.000000 1.803240 0.000000 
#    z -0.017870 0.000000 1.806000 
# 
# From -- ./inp_files/266258.got.cif
#   From: 2010.06.25/outbox.cif.g09.slc.cpg/sg15_134_cif.got.tgz:266258.got - 2010.06.28 07:06:18.
