data_PCOD8148882
_publ_section_title
;
Structure prediction by ZEFSAII (Michael W. Deem and Ramdas Pophale) SiO2 
 PCOD8148882
Probable space group: C 2/C
;
_chemical_formula_sum "Si O2"
_cell_formula_units_Z 32
_cell_length_a 14.705470
_cell_length_b 9.608304
_cell_length_c 10.117213
_cell_angle_alpha 90.000000
_cell_angle_beta 83.587817
_cell_angle_gamma 90.000000
_cell_volume 1420.565107
_symmetry_space_group_name_H-M "C 2/C"
_symmetry_group_IT_number 15
_symmetry_cell_setting 'monoclinic'
loop_
_space_group_symop_operation_xyz
x,y,z
-x,y,1/2-z
-x,-y,-z
x,-y,1/2+z
1/2+x,1/2+y,z
1/2-x,1/2+y,1/2-z
1/2-x,1/2-y,-z
1/2+x,1/2-y,1/2+z
loop_
_atom_site_type_symbol
_atom_site_label
_atom_site_fract_x
_atom_site_fract_y
_atom_site_fract_z
Si Si1 0.910115 0.422057 0.559412
Si Si2 0.149299 0.828551 0.772161
Si Si3 0.801628 0.462652 0.315450
Si Si4 0.973087 0.852269 0.950400
O O1 0.833085 0.457253 0.462342
O O2 0.877445 0.463728 0.710508
O O3 0.931061 0.256171 0.562265
O O4 0.000000 0.500000 0.500000
O O5 0.206931 0.953566 0.826870
O O6 0.104616 0.882740 0.644817
O O7 0.065839 0.781535 0.879647
O O8 0.286536 0.805561 0.264238
O O9 0.000000 0.000000 0.000000
#
# Coordination Sequence:
#
# PCOD8148882 Si02
#       4
#     8   8   8   8
#     4  11  23  45  68  94 132 178 215 269 328 394
#     4  10  24  43  62  99 133 170 215 281 322 389
#     4  11  25  41  70  96 134 170 224 269 329 386
#     4  10  23  43  66  90 137 172 221 265 333 385
#
# _framework density 22.526247000000001
#
# number of rings (size 3 to 8) (size 9 to 14) (size 15 to 20)
#    0.000    1.500    2.500    0.750    7.000    5.000 
#    4.500    0.000    0.000    0.000    0.000    0.000 
#    0.000    0.000    0.000    0.000    0.000    0.000 
#
# Total GULP energy -198376.379392 kJ/mol
# GULP energy per Si atom -12398.523712 kJ/mol
# Density = 2.247498 g / cm^3
# Si number density = 22.526247 Si / 1000 Ang^3
#
#
#
# Elastic Constant Matrix: (Units=GPa)
#
#
# Indices 1 2 3 4 5 6 
#
# 1 82.9420 34.1416 3.6116 0.0000 18.4014 0.0000
# 2 34.1416 137.1817 29.0807 0.0000 24.1685 0.0000
# 3 3.6116 29.0807 38.8284 0.0000 -5.2393 0.0000
# 4 0.0000 0.0000 0.0000 33.0597 0.0000 5.6753
# 5 18.4014 24.1685 -5.2393 0.0000 29.4231 0.0000
# 6 0.0000 0.0000 0.0000 5.6753 0.0000 48.1824
#
#
#
# Elastic Compliance Matrix: (Units=1/GPa)
#
#
# Indices 1 2 3 4 5 6 
#
# 1 0.014647 -0.002159 -0.000761 0.000000 -0.007523 0.000000
# 2 -0.002159 0.011692 -0.009908 0.000000 -0.010018 0.000000
# 3 -0.000761 -0.009908 0.035255 0.000000 0.014892 0.000000
# 4 0.000000 0.000000 0.000000 0.030873 0.000000 -0.003636
# 5 -0.007523 -0.010018 0.014892 0.000000 0.049573 0.000000
# 6 0.000000 0.000000 0.000000 -0.003636 0.000000 0.021183
#
#
# Mechanical properties :
#
#
# Convention : Reuss Voigt Hill
#
# Bulk Modulus (GPa) = 27.82422 43.62442 35.72432
# Shear Modulus (GPa) = 24.89324 34.94092 29.91708
#
# Velocity S-wave (km/s) = 3.32788 3.94270 3.64826
# Velocity P-wave (km/s) = 5.21009 6.33519 5.79999
#
# Compressibility (1/GPa) = 0.03593991
#
# Stress axis : x y z
#
# Youngs Moduli (GPa) = 68.27170 85.52651 28.36458
#
# Poissons Ratio (x) = 0.18464 0.02158
# Poissons Ratio (y) = 0.14739 0.28104
# Poissons Ratio (z) = 0.05193 0.84740
#
# Static dielectric constant tensor:
#      x y z
#    x 4.142430 0.000000 -0.091740 
#    y 0.000000 4.252150 0.000000 
#    z -0.091740 0.000000 4.117530 
# 
# 
# High freq. dielectric constant tensor:
#      x y z
#    x 1.895160 0.000000 -0.001780 
#    y 0.000000 1.900420 0.000000 
#    z -0.001780 0.000000 1.872780 
# 
# From -- ./inp_files/36858.got.cif
#   From: 2010.06.25/outbox.cif.g09.slc.cpg/sg15_19_cif.got.tgz:36858.got - 2010.06.28 07:06:18.
