data_PCOD8148226
_publ_section_title
;
Structure prediction by ZEFSAII (Michael W. Deem and Ramdas Pophale) SiO2 
 PCOD8148226
Probable space group: C 2/C
;
_chemical_formula_sum "Si O2"
_cell_formula_units_Z 56
_cell_length_a 29.607605
_cell_length_b 9.393074
_cell_length_c 10.809766
_cell_angle_alpha 90.000000
_cell_angle_beta 115.183279
_cell_angle_gamma 90.000000
_cell_volume 2720.523674
_symmetry_space_group_name_H-M "C 2/C"
_symmetry_group_IT_number 15
_symmetry_cell_setting 'monoclinic'
loop_
_space_group_symop_operation_xyz
x,y,z
-x,y,1/2-z
-x,-y,-z
x,-y,1/2+z
1/2+x,1/2+y,z
1/2-x,1/2+y,1/2-z
1/2-x,1/2-y,-z
1/2+x,1/2-y,1/2+z
loop_
_atom_site_type_symbol
_atom_site_label
_atom_site_fract_x
_atom_site_fract_y
_atom_site_fract_z
Si Si1 0.699543 0.265731 0.513677
Si Si2 0.867637 0.861057 0.272756
Si Si3 0.057469 0.603948 0.816078
Si Si4 0.205432 0.067984 0.601020
Si Si5 0.816548 0.604960 0.780676
Si Si6 0.369912 0.664208 0.192026
Si Si7 0.593191 0.078609 0.126651
O O1 0.750000 0.250000 0.500000
O O2 0.651140 0.290788 0.375096
O O3 0.704089 0.398060 0.613065
O O4 0.691405 0.121447 0.581506
O O5 0.819802 0.867344 0.307009
O O6 0.910077 0.751489 0.370409
O O7 0.891517 0.017582 0.277095
O O8 0.087916 0.751387 0.835142
O O9 0.065250 0.495063 0.709951
O O10 0.000000 0.646946 0.750000
O O11 0.071531 0.532931 0.966220
O O12 0.263319 0.109949 0.651214
O O13 0.176881 0.123326 0.447431
O O14 0.851162 0.734766 0.778466
O O15 0.847576 0.460237 0.795168
#
# Coordination Sequence:
#
# PCOD8148226 Si02
#       7
#     8   8   8   8   8   8   8
#     4  11  21  34  52  83 121 168 213 250 297 366
#     4  11  21  39  59  88 127 164 205 255 313 373
#     4  11  24  47  71  95 125 166 215 276 333 379
#     4  11  21  35  59  83 127 169 208 251 303 372
#     4  11  22  36  58  91 126 171 210 251 310 377
#     4  10  23  40  61  89 123 166 212 261 312 386
#     4  11  24  42  68  98 129 164 214 270 319 394
#
# _framework density 20.584271999999999
#
# number of rings (size 3 to 8) (size 9 to 14) (size 15 to 20)
#    0.000    1.143    4.286    2.571    0.000    1.143 
#    0.000    1.429    0.000    0.000    0.000    0.000 
#    0.000    0.000    0.000    0.000    0.000    0.000 
#
# Total GULP energy -347099.265107 kJ/mol
# GULP energy per Si atom -12396.402325 kJ/mol
# Density = 2.053742 g / cm^3
# Si number density = 20.584272 Si / 1000 Ang^3
#
#
#
# Elastic Constant Matrix: (Units=GPa)
#
#
# Indices 1 2 3 4 5 6 
#
# 1 86.7749 27.9071 34.2558 0.0000 3.7007 0.0000
# 2 27.9071 100.5590 27.3967 0.0000 -4.3417 0.0000
# 3 34.2558 27.3967 84.2467 0.0000 -11.0252 0.0000
# 4 0.0000 0.0000 0.0000 26.0940 0.0000 -5.9647
# 5 3.7007 -4.3417 -11.0252 0.0000 31.4416 0.0000
# 6 0.0000 0.0000 0.0000 -5.9647 0.0000 26.5773
#
#
#
# Elastic Compliance Matrix: (Units=1/GPa)
#
#
# Indices 1 2 3 4 5 6 
#
# 1 0.014822 -0.002746 -0.005672 0.000000 -0.004113 0.000000
# 2 -0.002746 0.011422 -0.002462 0.000000 0.001037 0.000000
# 3 -0.005672 -0.002462 0.015742 0.000000 0.005848 0.000000
# 4 0.000000 0.000000 0.000000 0.040395 0.000000 0.009066
# 5 -0.004113 0.001037 0.005848 0.000000 0.034483 0.000000
# 6 0.000000 0.000000 0.000000 0.009066 0.000000 0.039661
#
#
# Mechanical properties :
#
#
# Convention : Reuss Voigt Hill
#
# Bulk Modulus (GPa) = 49.44118 50.07775 49.75946
# Shear Modulus (GPa) = 27.02320 28.95730 27.99025
#
# Velocity S-wave (km/s) = 3.62720 3.75476 3.69153
# Velocity P-wave (km/s) = 6.45083 6.57104 6.51121
#
# Compressibility (1/GPa) = 0.02022606
#
# Stress axis : x y z
#
# Youngs Moduli (GPa) = 67.46931 87.55064 63.52345
#
# Poissons Ratio (x) = 0.24037 0.36031
# Poissons Ratio (y) = 0.18524 0.15641
# Poissons Ratio (z) = 0.38269 0.21558
#
# Static dielectric constant tensor:
#      x y z
#    x 3.558390 0.000000 -0.201660 
#    y 0.000000 -18.792990 0.000000 
#    z -0.201660 0.000000 3.729690 
# 
# 
# High freq. dielectric constant tensor:
#      x y z
#    x 1.785290 0.000000 -0.024350 
#    y 0.000000 1.809400 0.000000 
#    z -0.024350 0.000000 1.804220 
# 
# From -- ./inp_files/121859.got.cif
#   From: 2010.06.25/outbox.cif.g09.slc.cpg/sg15_61_cif.got.tgz:121859.got - 2010.06.28 07:06:18.
