data_PCOD8148818
_publ_section_title
;
Structure prediction by ZEFSAII (Michael W. Deem and Ramdas Pophale) SiO2 
 PCOD8148818
Probable space group: C 2/C
;
_chemical_formula_sum "Si O2"
_cell_formula_units_Z 60
_cell_length_a 27.774746
_cell_length_b 18.225784
_cell_length_c 12.388253
_cell_angle_alpha 90.000000
_cell_angle_beta 151.348580
_cell_angle_gamma 90.000000
_cell_volume 3006.882961
_symmetry_space_group_name_H-M "C 2/C"
_symmetry_group_IT_number 15
_symmetry_cell_setting 'monoclinic'
loop_
_space_group_symop_operation_xyz
x,y,z
-x,y,1/2-z
-x,-y,-z
x,-y,1/2+z
1/2+x,1/2+y,z
1/2-x,1/2+y,1/2-z
1/2-x,1/2-y,-z
1/2+x,1/2-y,1/2+z
loop_
_atom_site_type_symbol
_atom_site_label
_atom_site_fract_x
_atom_site_fract_y
_atom_site_fract_z
Si Si1 0.616641 0.905131 0.152761
Si Si2 0.333269 0.745239 0.572094
Si Si3 0.559909 0.742736 0.082642
Si Si4 0.602942 0.723640 0.401017
Si Si5 0.247293 0.621960 0.710351
Si Si6 0.287343 0.670404 0.278163
Si Si7 0.500000 0.013734 0.250000
Si Si8 0.808532 0.528374 0.485334
O O1 0.587145 0.828312 0.148791
O O2 0.709695 0.896660 0.255734
O O3 0.651932 0.960722 0.315579
O O4 0.522143 0.936730 0.899473
O O5 0.250000 0.750000 0.500000
O O6 0.328198 0.818450 0.489435
O O7 0.312918 0.674649 0.455671
O O8 0.441654 0.735214 0.835412
O O9 0.586551 0.699647 0.244899
O O10 0.620724 0.707095 0.104784
O O11 0.500000 0.753463 0.250000
O O12 0.641923 0.656217 0.552938
O O13 0.683305 0.788285 0.554196
O O14 0.247044 0.550457 0.633637
O O15 0.274395 0.587339 0.213641
O O16 0.597196 0.965491 0.411930
#
# Coordination Sequence:
#
# PCOD8148818 Si02
#       8
#     8   8   8   8   8   8   4   8
#     4  11  20  38  64  91 117 165 203 256 317 371
#     4  11  24  40  63  92 127 164 207 264 322 365
#     4  12  20  38  68  91 120 160 217 260 306 378
#     4  11  22  39  62  90 123 163 211 258 312 365
#     4  10  23  43  61  89 130 162 205 259 314 374
#     4  11  23  38  61  94 123 164 212 257 304 372
#     4  10  24  36  56  92 132 160 192 258 332 370
#     4  11  23  38  60  90 125 165 206 254 312 377
#
# _framework density 19.954218000000001
#
# number of rings (size 3 to 8) (size 9 to 14) (size 15 to 20)
#    0.000    1.067    4.000    5.200    0.933    3.200 
#    0.000    1.333    0.000    3.200    0.000    0.000 
#    0.000    0.000    0.000    0.000    0.000    0.000 
#
# Total GULP energy -372001.223910 kJ/mol
# GULP energy per Si atom -12400.040797 kJ/mol
# Density = 1.990880 g / cm^3
# Si number density = 19.954218 Si / 1000 Ang^3
#
#
#
# Elastic Constant Matrix: (Units=GPa)
#
#
# Indices 1 2 3 4 5 6 
#
# 1 84.2966 13.2297 27.2229 0.0000 2.5830 0.0000
# 2 13.2297 91.3271 50.2601 0.0000 -11.7699 0.0000
# 3 27.2229 50.2601 122.4938 0.0000 -6.3242 0.0000
# 4 0.0000 0.0000 0.0000 27.2173 0.0000 -9.2108
# 5 2.5830 -11.7699 -6.3242 0.0000 48.3038 0.0000
# 6 0.0000 0.0000 0.0000 -9.2108 0.0000 26.0289
#
#
#
# Elastic Compliance Matrix: (Units=1/GPa)
#
#
# Indices 1 2 3 4 5 6 
#
# 1 0.012854 -0.000526 -0.002701 0.000000 -0.001169 0.000000
# 2 -0.000526 0.014525 -0.005697 0.000000 0.002821 0.000000
# 3 -0.002701 -0.005697 0.011112 0.000000 0.000211 0.000000
# 4 0.000000 0.000000 0.000000 0.041740 0.000000 0.014770
# 5 -0.001169 0.002821 0.000211 0.000000 0.021480 0.000000
# 6 0.000000 0.000000 0.000000 0.014770 0.000000 0.043646
#
#
# Mechanical properties :
#
#
# Convention : Reuss Voigt Hill
#
# Bulk Modulus (GPa) = 48.44438 53.28253 50.86345
# Shear Modulus (GPa) = 29.39702 34.13698 31.76700
#
# Velocity S-wave (km/s) = 3.84242 4.14063 3.99431
# Velocity P-wave (km/s) = 6.63446 7.04415 6.84237
#
# Compressibility (1/GPa) = 0.02064223
#
# Stress axis : x y z
#
# Youngs Moduli (GPa) = 77.79949 68.84809 89.98974
#
# Poissons Ratio (x) = 0.03623 0.24306
# Poissons Ratio (y) = 0.04094 0.51267
# Poissons Ratio (z) = 0.21014 0.39223
#
# Static dielectric constant tensor:
#      x y z
#    x 3.652310 0.000000 -0.195340 
#    y 0.000000 3.605810 0.000000 
#    z -0.195340 0.000000 3.822330 
# 
# 
# High freq. dielectric constant tensor:
#      x y z
#    x 1.782810 0.000000 -0.012990 
#    y 0.000000 1.756080 0.000000 
#    z -0.012990 0.000000 1.788410 
# 
# From -- ./inp_files/98331.got.cif
#   From: 2010.06.25/outbox.cif.g09.slc.cpg/sg15_50_cif.got.tgz:98331.got - 2010.06.28 07:06:18.
