data_PCOD8148525
_publ_section_title
;
Structure prediction by ZEFSAII (Michael W. Deem and Ramdas Pophale) SiO2 
 PCOD8148525
Probable space group: C 2/C
;
_chemical_formula_sum "Si O2"
_cell_formula_units_Z 64
_cell_length_a 12.918746
_cell_length_b 14.061694
_cell_length_c 28.015677
_cell_angle_alpha 90.000000
_cell_angle_beta 37.751383
_cell_angle_gamma 90.000000
_cell_volume 3115.862226
_symmetry_space_group_name_H-M "C 2/C"
_symmetry_group_IT_number 15
_symmetry_cell_setting 'monoclinic'
loop_
_space_group_symop_operation_xyz
x,y,z
-x,y,1/2-z
-x,-y,-z
x,-y,1/2+z
1/2+x,1/2+y,z
1/2-x,1/2+y,1/2-z
1/2-x,1/2-y,-z
1/2+x,1/2-y,1/2+z
loop_
_atom_site_type_symbol
_atom_site_label
_atom_site_fract_x
_atom_site_fract_y
_atom_site_fract_z
Si Si1 0.929512 0.584131 0.056491
Si Si2 0.259917 0.296193 0.445202
Si Si3 0.123583 0.346221 0.092615
Si Si4 0.837682 0.959752 0.085211
Si Si5 0.827263 0.861466 0.924475
Si Si6 0.637221 0.008983 0.314395
Si Si7 0.917263 0.369266 0.828274
Si Si8 0.963366 0.044047 0.642206
O O1 0.757055 0.620917 0.096024
O O2 0.878080 0.545420 0.126612
O O3 0.000000 0.500000 0.000000
O O4 0.072673 0.664947 0.004024
O O5 0.250000 0.250000 0.500000
O O6 0.305212 0.214779 0.391003
O O7 0.400526 0.378696 0.390227
O O8 0.267814 0.373162 0.078661
O O9 0.068878 0.236636 0.119523
O O10 0.965277 0.413276 0.158139
O O11 0.182101 0.355330 0.016891
O O12 0.881339 0.921210 0.122212
O O13 0.700488 0.041979 0.140999
O O14 0.000000 0.000000 0.000000
O O15 0.947959 0.943803 0.899056
O O16 0.826915 0.977013 0.232994
O O17 0.567772 0.096147 0.307995
O O18 0.000000 0.329040 0.750000
#
# Coordination Sequence:
#
# PCOD8148525 Si02
#       8
#     8   8   8   8   8   8   8   8
#     4  12  24  46  69  93 136 182 220 277 334 399
#     4  12  26  44  71 101 134 177 236 273 334 412
#     4  10  23  41  69  98 132 169 222 278 326 395
#     4  11  22  40  70  96 129 177 225 272 330 396
#     4  11  24  44  66 100 131 173 226 269 333 399
#     4  11  24  46  66  98 142 170 218 282 339 396
#     4  11  24  44  68 102 136 173 222 287 341 392
#     4  12  25  43  67 100 136 177 218 276 340 396
#
# _framework density 20.540061000000001
#
# number of rings (size 3 to 8) (size 9 to 14) (size 15 to 20)
#    0.000    0.750    6.250    0.750    3.500    2.500 
#    0.000    1.250    0.000    0.000    0.000    0.000 
#    0.000    0.000    0.000    0.000    0.000    0.000 
#
# Total GULP energy -396848.183972 kJ/mol
# GULP energy per Si atom -12401.505749 kJ/mol
# Density = 2.049331 g / cm^3
# Si number density = 20.540061 Si / 1000 Ang^3
#
#
#
# Elastic Constant Matrix: (Units=GPa)
#
#
# Indices 1 2 3 4 5 6 
#
# 1 97.8169 15.6544 16.8028 0.0001 16.6634 0.0000
# 2 15.6544 95.4680 12.3716 0.0001 4.6034 0.0000
# 3 16.8028 12.3716 93.6512 0.0003 16.0217 -0.0001
# 4 0.0001 0.0001 0.0003 32.8736 0.0000 3.2630
# 5 16.6634 4.6034 16.0217 0.0000 36.5498 0.0000
# 6 0.0000 0.0000 -0.0001 3.2630 0.0000 28.0020
#
#
#
# Elastic Compliance Matrix: (Units=1/GPa)
#
#
# Indices 1 2 3 4 5 6 
#
# 1 0.011424 -0.001515 -0.001072 0.000000 -0.004548 0.000000
# 2 -0.001515 0.010879 -0.001134 0.000000 -0.000182 0.000000
# 3 -0.001072 -0.001134 0.011797 0.000000 -0.004540 0.000000
# 4 0.000000 0.000000 0.000000 0.030776 0.000000 -0.003586
# 5 -0.004548 -0.000182 -0.004540 0.000000 0.031446 0.000000
# 6 0.000000 0.000000 0.000000 -0.003586 0.000000 0.036130
#
#
# Mechanical properties :
#
#
# Convention : Reuss Voigt Hill
#
# Bulk Modulus (GPa) = 37.51161 41.84374 39.67768
# Shear Modulus (GPa) = 33.60680 35.62556 34.61618
#
# Velocity S-wave (km/s) = 4.04933 4.16918 4.10970
# Velocity P-wave (km/s) = 6.33760 6.60243 6.47137
#
# Compressibility (1/GPa) = 0.02665841
#
# Stress axis : x y z
#
# Youngs Moduli (GPa) = 87.53123 91.92089 84.76984
#
# Poissons Ratio (x) = 0.13928 0.09083
# Poissons Ratio (y) = 0.13262 0.09614
# Poissons Ratio (z) = 0.09379 0.10425
#
# Static dielectric constant tensor:
#      x y z
#    x 2.631210 -0.000010 -0.510240 
#    y -0.000010 3.925690 -0.000010 
#    z -0.510240 -0.000010 3.369480 
# 
# 
# High freq. dielectric constant tensor:
#      x y z
#    x 1.812420 0.000000 0.005680 
#    y 0.000000 1.810170 0.000000 
#    z 0.005680 0.000000 1.801870 
# 
# From -- ./inp_files/293053.got.cif
#   From: 2010.06.25/outbox.cif.g09.slc.cpg/sg15_147_cif.got.tgz:293053.got - 2010.06.28 07:06:18.
