data_PCOD8148289
_publ_section_title
;
Structure prediction by ZEFSAII (Michael W. Deem and Ramdas Pophale) SiO2 
 PCOD8148289
Probable space group: C 2/C
;
_chemical_formula_sum "Si O2"
_cell_formula_units_Z 56
_cell_length_a 19.893574
_cell_length_b 11.583911
_cell_length_c 11.452738
_cell_angle_alpha 90.000000
_cell_angle_beta 72.181153
_cell_angle_gamma 90.000000
_cell_volume 2512.623581
_symmetry_space_group_name_H-M "C 2/C"
_symmetry_group_IT_number 15
_symmetry_cell_setting 'monoclinic'
loop_
_space_group_symop_operation_xyz
x,y,z
-x,y,1/2-z
-x,-y,-z
x,-y,1/2+z
1/2+x,1/2+y,z
1/2-x,1/2+y,1/2-z
1/2-x,1/2-y,-z
1/2+x,1/2-y,1/2+z
loop_
_atom_site_type_symbol
_atom_site_label
_atom_site_fract_x
_atom_site_fract_y
_atom_site_fract_z
Si Si1 0.413535 0.468423 0.919625
Si Si2 0.784208 0.979290 0.627635
Si Si3 0.662013 0.084813 0.799644
Si Si4 0.931321 0.629860 0.225250
Si Si5 0.001531 0.168056 0.546039
Si Si6 0.388455 0.681879 0.211105
Si Si7 0.815717 0.663523 0.456936
O O1 0.452744 0.592768 0.883544
O O2 0.421119 0.393876 0.798450
O O3 0.331146 0.477309 0.995090
O O4 0.441704 0.413584 0.024331
O O5 0.823377 0.882454 0.682716
O O6 0.712509 0.944180 0.600021
O O7 0.747226 0.070356 0.735004
O O8 0.636739 0.191956 0.730612
O O9 0.613261 0.971184 0.813414
O O10 0.653121 0.129470 0.935775
O O11 0.884119 0.703283 0.344557
O O12 0.000000 0.572721 0.250000
O O13 0.961181 0.722643 0.118537
O O14 0.050458 0.206717 0.413490
O O15 0.750000 0.750000 0.500000
#
# Coordination Sequence:
#
# PCOD8148289 Si02
#       7
#     8   8   8   8   8   8   8
#     4  10  23  41  67 100 138 178 228 292 358 415
#     4  10  23  40  66 101 129 182 229 285 351 415
#     4  11  25  43  69 100 139 181 236 285 353 416
#     4  11  27  44  70 103 134 186 239 284 350 420
#     4  10  24  43  64  99 135 180 234 287 352 419
#     4  11  22  42  65  96 140 178 228 296 348 414
#     4  11  23  44  68  95 137 182 226 286 347 414
#
# _framework density 22.287462000000001
#
# number of rings (size 3 to 8) (size 9 to 14) (size 15 to 20)
#    0.000    1.429    1.429    2.143    4.000    9.714 
#    0.000    0.000    0.000    0.000    0.000    0.000 
#    0.000    0.000    0.000    0.000    0.000    0.000 
#
# Total GULP energy -346919.822728 kJ/mol
# GULP energy per Si atom -12389.993669 kJ/mol
# Density = 2.223673 g / cm^3
# Si number density = 22.287462 Si / 1000 Ang^3
#
#
#
# Elastic Constant Matrix: (Units=GPa)
#
#
# Indices 1 2 3 4 5 6 
#
# 1 107.1472 42.4527 52.8243 0.0000 -15.0266 0.0000
# 2 42.4527 129.6426 63.7446 0.0000 -12.5047 0.0000
# 3 52.8243 63.7446 133.8021 0.0000 -17.1475 0.0000
# 4 0.0000 0.0000 0.0000 31.1280 0.0000 -3.2294
# 5 -15.0266 -12.5047 -17.1475 0.0000 43.3768 0.0000
# 6 0.0000 0.0000 0.0000 -3.2294 0.0000 34.6982
#
#
#
# Elastic Compliance Matrix: (Units=1/GPa)
#
#
# Indices 1 2 3 4 5 6 
#
# 1 0.012209 -0.002028 -0.003567 0.000000 0.002234 0.000000
# 2 -0.002028 0.010457 -0.004092 0.000000 0.000694 0.000000
# 3 -0.003567 -0.004092 0.011083 0.000000 0.001966 0.000000
# 4 0.000000 0.000000 0.000000 0.032439 0.000000 0.003019
# 5 0.002234 0.000694 0.001966 0.000000 0.024805 0.000000
# 6 0.000000 0.000000 0.000000 0.003019 0.000000 0.029101
#
#
# Mechanical properties :
#
#
# Convention : Reuss Voigt Hill
#
# Bulk Modulus (GPa) = 69.57113 76.51500 73.04306
# Shear Modulus (GPa) = 34.65974 35.94528 35.30251
#
# Velocity S-wave (km/s) = 3.94778 4.02033 3.98422
# Velocity P-wave (km/s) = 7.21548 7.48039 7.34913
#
# Compressibility (1/GPa) = 0.01437378
#
# Stress axis : x y z
#
# Youngs Moduli (GPa) = 81.90934 95.63306 90.22473
#
# Poissons Ratio (x) = 0.19397 0.32185
# Poissons Ratio (y) = 0.16614 0.36919
# Poissons Ratio (z) = 0.29219 0.39132
#
# Static dielectric constant tensor:
#      x y z
#    x 4.331050 0.000000 -0.088190 
#    y 0.000000 4.280690 0.000000 
#    z -0.088190 0.000000 4.164480 
# 
# 
# High freq. dielectric constant tensor:
#      x y z
#    x 1.898200 0.000000 -0.014200 
#    y 0.000000 1.867930 0.000000 
#    z -0.014200 0.000000 1.881490 
# 
# From -- ./inp_files/111569.got.cif
#   From: 2010.06.25/outbox.cif.g09.slc.cpg/sg15_56_cif.got.tgz:111569.got - 2010.06.28 07:06:18.
