data_PCOD8148199
_publ_section_title
;
Structure prediction by ZEFSAII (Michael W. Deem and Ramdas Pophale) SiO2 
 PCOD8148199
Probable space group: C 2/C
;
_chemical_formula_sum "Si O2"
_cell_formula_units_Z 32
_cell_length_a 18.812066
_cell_length_b 12.648477
_cell_length_c 10.263367
_cell_angle_alpha 90.000000
_cell_angle_beta 135.846754
_cell_angle_gamma 90.000000
_cell_volume 1701.122167
_symmetry_space_group_name_H-M "C 2/C"
_symmetry_group_IT_number 15
_symmetry_cell_setting 'monoclinic'
loop_
_space_group_symop_operation_xyz
x,y,z
-x,y,1/2-z
-x,-y,-z
x,-y,1/2+z
1/2+x,1/2+y,z
1/2-x,1/2+y,1/2-z
1/2-x,1/2-y,-z
1/2+x,1/2-y,1/2+z
loop_
_atom_site_type_symbol
_atom_site_label
_atom_site_fract_x
_atom_site_fract_y
_atom_site_fract_z
Si Si1 0.936056 0.541962 0.035801
Si Si2 0.224589 0.398009 0.559453
Si Si3 0.132570 0.276762 0.210268
Si Si4 0.552838 0.566620 0.183132
O O1 0.000000 0.541508 0.250000
O O2 0.836696 0.468156 0.918526
O O3 0.901799 0.662949 0.965091
O O4 0.000000 0.500000 0.000000
O O5 0.151205 0.367717 0.342866
O O6 0.262052 0.288062 0.676968
O O7 0.326205 0.462311 0.646696
O O8 0.044985 0.192994 0.140769
O O9 0.500000 0.539428 0.250000
O O10 0.500000 0.500000 0.000000
#
# Coordination Sequence:
#
# PCOD8148199 Si02
#       4
#     8   8   8   8
#     4  12  24  40  65  97 129 168 216 263 320 384
#     4   9  22  40  62  91 126 167 211 253 320 381
#     4   9  22  42  64  90 129 169 212 254 329 370
#     4  10  23  39  69  92 125 163 211 260 321 374
#
# _framework density 18.811112000000001
#
# number of rings (size 3 to 8) (size 9 to 14) (size 15 to 20)
#    1.500    0.500    2.500    0.000    7.000    1.000 
#    0.000    1.250    0.000    0.000    0.000    0.000 
#    0.000    0.000    0.000    0.000    0.000    0.000 
#
# Total GULP energy -198253.385856 kJ/mol
# GULP energy per Si atom -12390.836616 kJ/mol
# Density = 1.876830 g / cm^3
# Si number density = 18.811112 Si / 1000 Ang^3
#
#
#
# Elastic Constant Matrix: (Units=GPa)
#
#
# Indices 1 2 3 4 5 6 
#
# 1 154.2520 61.0327 60.8698 0.0000 -3.8300 0.0000
# 2 61.0327 89.6504 60.3544 0.0000 -5.7695 0.0000
# 3 60.8698 60.3544 113.6866 0.0000 -11.4042 0.0000
# 4 0.0000 0.0000 0.0000 50.8891 0.0000 0.7972
# 5 -3.8300 -5.7695 -11.4042 0.0000 25.3556 0.0000
# 6 0.0000 0.0000 0.0000 0.7972 0.0000 38.4115
#
#
#
# Elastic Compliance Matrix: (Units=1/GPa)
#
#
# Indices 1 2 3 4 5 6 
#
# 1 0.009332 -0.004648 -0.002612 0.000000 -0.000823 0.000000
# 2 -0.004648 0.019674 -0.007936 0.000000 0.000205 0.000000
# 3 -0.002612 -0.007936 0.014857 0.000000 0.004482 0.000000
# 4 0.000000 0.000000 0.000000 0.019657 0.000000 -0.000408
# 5 -0.000823 0.000205 0.004482 0.000000 0.041377 0.000000
# 6 0.000000 0.000000 0.000000 -0.000408 0.000000 0.026042
#
#
# Mechanical properties :
#
#
# Convention : Reuss Voigt Hill
#
# Bulk Modulus (GPa) = 74.22200 80.23366 77.22783
# Shear Modulus (GPa) = 30.15298 34.62004 32.38651
#
# Velocity S-wave (km/s) = 4.00801 4.29465 4.15380
# Velocity P-wave (km/s) = 7.80775 8.20590 8.00930
#
# Compressibility (1/GPa) = 0.01347309
#
# Stress axis : x y z
#
# Youngs Moduli (GPa) = 107.15740 50.82777 67.30897
#
# Poissons Ratio (x) = 0.23624 0.17578
# Poissons Ratio (y) = 0.49806 0.53414
# Poissons Ratio (z) = 0.27985 0.40335
#
# Static dielectric constant tensor:
#      x y z
#    x 4.429630 0.000000 -0.837020 
#    y 0.000000 3.569490 0.000000 
#    z -0.837020 0.000000 4.279450 
# 
# 
# High freq. dielectric constant tensor:
#      x y z
#    x 1.714770 0.000000 0.011470 
#    y 0.000000 1.726120 0.000000 
#    z 0.011470 0.000000 1.730210 
# 
# From -- ./inp_files/110386.got.cif
#   From: 2010.06.25/outbox.cif.g09.slc.cpg/sg15_56_cif.got.tgz:110386.got - 2010.06.28 07:06:18.
