data_PCOD8148353
_publ_section_title
;
Structure prediction by ZEFSAII (Michael W. Deem and Ramdas Pophale) SiO2 
 PCOD8148353
Probable space group: C 2/C
;
_chemical_formula_sum "Si O2"
_cell_formula_units_Z 48
_cell_length_a 15.945717
_cell_length_b 32.904436
_cell_length_c 8.614414
_cell_angle_alpha 90.000000
_cell_angle_beta 30.136344
_cell_angle_gamma 90.000000
_cell_volume 2269.234429
_symmetry_space_group_name_H-M "C 2/C"
_symmetry_group_IT_number 15
_symmetry_cell_setting 'monoclinic'
loop_
_space_group_symop_operation_xyz
x,y,z
-x,y,1/2-z
-x,-y,-z
x,-y,1/2+z
1/2+x,1/2+y,z
1/2-x,1/2+y,1/2-z
1/2-x,1/2-y,-z
1/2+x,1/2-y,1/2+z
loop_
_atom_site_type_symbol
_atom_site_label
_atom_site_fract_x
_atom_site_fract_y
_atom_site_fract_z
Si Si1 0.843290 0.096480 0.275655
Si Si2 0.500000 0.343979 0.750000
Si Si3 0.077486 0.707794 0.373923
Si Si4 0.753698 0.283778 0.208257
Si Si5 0.765454 0.524493 0.872574
Si Si6 0.000000 0.359150 0.250000
Si Si7 0.000000 0.495132 0.750000
Si Si8 0.500000 0.544781 0.750000
O O1 0.958120 0.131910 0.159403
O O2 0.838269 0.064556 0.425826
O O3 0.660795 0.112571 0.519916
O O4 0.935307 0.074250 0.987391
O O5 0.660206 0.317729 0.454580
O O6 0.148941 0.742204 0.373093
O O7 0.038101 0.667721 0.536349
O O8 0.916990 0.726350 0.546061
O O9 0.210162 0.698889 0.023146
O O10 0.853083 0.531159 0.565142
O O11 0.913871 0.523445 0.760674
O O12 0.651686 0.484059 0.062906
#
# Coordination Sequence:
#
# PCOD8148353 Si02
#       8
#     8   4   8   8   8   4   4   4
#     4  12  28  44  66 102 133 181 214 285 342 396
#     4  12  26  44  64 101 142 168 224 274 339 392
#     4  10  23  45  72  96 135 181 222 270 319 402
#     4  10  23  45  70 100 130 180 228 264 323 396
#     4  11  23  48  66  99 125 176 229 277 327 407
#     4  12  26  46  64  99 144 174 218 271 346 396
#     4  10  23  40  74  89 126 163 227 274 321 396
#     4  12  27  46  72  93 136 175 233 277 336 400
#
# _framework density 21.152508000000001
#
# number of rings (size 3 to 8) (size 9 to 14) (size 15 to 20)
#    0.000    1.000    3.333    2.000    9.333    1.333 
#    3.000    0.000    0.000    0.000    0.000    0.000 
#    0.000    0.000    0.000    0.000    0.000    0.000 
#
# Total GULP energy -297577.812761 kJ/mol
# GULP energy per Si atom -12399.075532 kJ/mol
# Density = 2.110436 g / cm^3
# Si number density = 21.152508 Si / 1000 Ang^3
#
#
#
# Elastic Constant Matrix: (Units=GPa)
#
#
# Indices 1 2 3 4 5 6 
#
# 1 90.6867 38.9610 33.4638 0.0000 -7.6976 0.0000
# 2 38.9610 109.8639 66.5318 0.0000 7.0443 0.0000
# 3 33.4638 66.5318 137.9341 0.0000 8.4164 0.0000
# 4 0.0000 0.0000 0.0000 2.6267 0.0000 -0.0462
# 5 -7.6976 7.0443 8.4164 0.0000 32.8239 0.0000
# 6 0.0000 0.0000 0.0000 -0.0462 0.0000 35.2167
#
#
#
# Elastic Compliance Matrix: (Units=1/GPa)
#
#
# Indices 1 2 3 4 5 6 
#
# 1 0.013817 -0.004229 -0.001590 0.000000 0.004556 0.000000
# 2 -0.004229 0.014198 -0.005665 0.000000 -0.002586 0.000000
# 3 -0.001590 -0.005665 0.010480 0.000000 -0.001845 0.000000
# 4 0.000000 0.000000 0.000000 0.380718 0.000000 0.000500
# 5 0.004556 -0.002586 -0.001845 0.000000 0.032562 0.000000
# 6 0.000000 0.000000 0.000000 0.000500 0.000000 0.028396
#
#
# Mechanical properties :
#
#
# Convention : Reuss Voigt Hill
#
# Bulk Modulus (GPa) = 64.39946 68.48866 66.44406
# Shear Modulus (GPa) = 9.83639 27.43532 18.63585
#
# Velocity S-wave (km/s) = 2.15878 3.60533 2.97142
# Velocity P-wave (km/s) = 6.06013 7.05549 6.57667
#
# Compressibility (1/GPa) = 0.01552808
#
# Stress axis : x y z
#
# Youngs Moduli (GPa) = 72.37245 70.43168 95.41540
#
# Poissons Ratio (x) = 0.29786 0.15174
# Poissons Ratio (y) = 0.30607 0.54049
# Poissons Ratio (z) = 0.11509 0.39897
#
# Static dielectric constant tensor:
#      x y z
#    x 3.876480 0.000000 0.056660 
#    y 0.000000 3.733600 0.000000 
#    z 0.056660 0.000000 4.185050 
# 
# 
# High freq. dielectric constant tensor:
#      x y z
#    x 1.843140 0.000000 -0.002310 
#    y 0.000000 1.816490 0.000000 
#    z -0.002310 0.000000 1.847450 
# 
# From -- ./inp_files/52778.got.cif
#   From: 2010.06.25/outbox.cif.g09.slc.cpg/sg15_27_cif.got.tgz:52778.got - 2010.06.28 07:06:18.
