data_PCOD8148352
_publ_section_title
;
Structure prediction by ZEFSAII (Michael W. Deem and Ramdas Pophale) SiO2 
 PCOD8148352
Probable space group: C 2/C
;
_chemical_formula_sum "Si O2"
_cell_formula_units_Z 48
_cell_length_a 12.126996
_cell_length_b 25.660410
_cell_length_c 14.429429
_cell_angle_alpha 90.000000
_cell_angle_beta 152.951535
_cell_angle_gamma 90.000000
_cell_volume 2041.892925
_symmetry_space_group_name_H-M "C 2/C"
_symmetry_group_IT_number 15
_symmetry_cell_setting 'monoclinic'
loop_
_space_group_symop_operation_xyz
x,y,z
-x,y,1/2-z
-x,-y,-z
x,-y,1/2+z
1/2+x,1/2+y,z
1/2-x,1/2+y,1/2-z
1/2-x,1/2-y,-z
1/2+x,1/2-y,1/2+z
loop_
_atom_site_type_symbol
_atom_site_label
_atom_site_fract_x
_atom_site_fract_y
_atom_site_fract_z
Si Si1 0.744601 0.135407 0.011206
Si Si2 0.256912 0.526709 0.929231
Si Si3 0.870510 0.694973 0.404524
Si Si4 0.254197 0.031405 0.793944
Si Si5 0.608129 0.683784 0.553893
Si Si6 0.683801 0.357723 0.305712
O O1 0.000000 0.150457 0.250000
O O2 0.699092 0.159166 0.874294
O O3 0.721714 0.073516 0.978208
O O4 0.560377 0.162866 0.947964
O O5 0.275473 0.545414 0.836646
O O6 0.000000 0.494453 0.750000
O O7 0.504399 0.496781 0.140583
O O8 0.829245 0.755714 0.389476
O O9 0.100980 0.683398 0.512223
O O10 0.641775 0.671062 0.183982
O O11 0.279696 0.083189 0.874093
O O12 0.500000 0.000000 0.000000
O O13 0.564406 0.656030 0.618270
O O14 0.500000 0.349212 0.250000
#
# Coordination Sequence:
#
# PCOD8148352 Si02
#       6
#     8   8   8   8   8   8
#     4  10  23  40  73 109 146 183 229 300 380 445
#     4  11  25  44  72 108 143 186 238 310 373 438
#     4  11  24  44  73 103 143 187 233 300 372 442
#     4  11  28  48  72 102 143 193 251 302 370 438
#     4  11  23  46  69 107 144 183 240 295 370 442
#     4  12  28  47  68 100 143 195 249 301 351 438
#
# _framework density 23.5076
#
# number of rings (size 3 to 8) (size 9 to 14) (size 15 to 20)
#    0.000    1.000    3.333    1.500    9.333    1.333 
#    0.000    0.000    0.000    0.000    0.000    0.000 
#    0.000    0.000    0.000    0.000    0.000    0.000 
#
# Total GULP energy -297437.577418 kJ/mol
# GULP energy per Si atom -12393.232392 kJ/mol
# Density = 2.345410 g / cm^3
# Si number density = 23.507600 Si / 1000 Ang^3
#
#
#
# Elastic Constant Matrix: (Units=GPa)
#
#
# Indices 1 2 3 4 5 6 
#
# 1 148.8291 42.5725 39.7780 -0.0001 6.4562 0.0004
# 2 42.5725 107.4500 21.5815 0.0004 7.2823 0.0003
# 3 39.7780 21.5815 79.7185 -0.0002 10.2385 0.0001
# 4 -0.0001 0.0004 -0.0002 19.3924 0.0001 -7.0130
# 5 6.4562 7.2823 10.2385 0.0001 43.2532 0.0001
# 6 0.0004 0.0003 0.0001 -7.0130 0.0001 22.0055
#
#
#
# Elastic Compliance Matrix: (Units=1/GPa)
#
#
# Indices 1 2 3 4 5 6 
#
# 1 0.008402 -0.002630 -0.003482 0.000000 0.000013 0.000000
# 2 -0.002630 0.010712 -0.001451 0.000000 -0.001068 0.000000
# 3 -0.003482 -0.001451 0.015033 0.000000 -0.002795 0.000000
# 4 0.000000 0.000000 0.000000 0.058284 0.000000 0.018575
# 5 0.000013 -0.001068 -0.002795 0.000000 0.023959 0.000000
# 6 0.000000 0.000000 0.000000 0.018575 0.000000 0.051363
#
#
# Mechanical properties :
#
#
# Convention : Reuss Voigt Hill
#
# Bulk Modulus (GPa) = 52.57100 60.42907 56.50003
# Shear Modulus (GPa) = 26.42446 32.40127 29.41286
#
# Velocity S-wave (km/s) = 3.35637 3.71662 3.54108
# Velocity P-wave (km/s) = 6.11819 6.64678 6.38795
#
# Compressibility (1/GPa) = 0.01902190
#
# Stress axis : x y z
#
# Youngs Moduli (GPa) = 119.02579 93.34898 66.51997
#
# Poissons Ratio (x) = 0.24554 0.23161
# Poissons Ratio (y) = 0.31307 0.09649
# Poissons Ratio (z) = 0.41442 0.13540
#
# Static dielectric constant tensor:
#      x y z
#    x 4.329880 0.000000 0.059080 
#    y 0.000000 3.997410 0.000000 
#    z 0.059080 0.000000 4.590790 
# 
# 
# High freq. dielectric constant tensor:
#      x y z
#    x 1.932420 0.000000 0.004040 
#    y 0.000000 1.914100 0.000000 
#    z 0.004040 0.000000 1.966750 
# 
# From -- ./inp_files/148845.got.cif
#   From: 2010.06.25/outbox.cif.g09.slc.cpg/sg15_75_cif.got.tgz:148845.got - 2010.06.28 07:06:18.
