data_PCOD8148247
_publ_section_title
;
Structure prediction by ZEFSAII (Michael W. Deem and Ramdas Pophale) SiO2 
 PCOD8148247
Probable space group: C 2/C
;
_chemical_formula_sum "Si O2"
_cell_formula_units_Z 44
_cell_length_a 10.443717
_cell_length_b 16.224688
_cell_length_c 14.058889
_cell_angle_alpha 90.000000
_cell_angle_beta 112.228566
_cell_angle_gamma 90.000000
_cell_volume 2205.181355
_symmetry_space_group_name_H-M "C 2/C"
_symmetry_group_IT_number 15
_symmetry_cell_setting 'monoclinic'
loop_
_space_group_symop_operation_xyz
x,y,z
-x,y,1/2-z
-x,-y,-z
x,-y,1/2+z
1/2+x,1/2+y,z
1/2-x,1/2+y,1/2-z
1/2-x,1/2-y,-z
1/2+x,1/2-y,1/2+z
loop_
_atom_site_type_symbol
_atom_site_label
_atom_site_fract_x
_atom_site_fract_y
_atom_site_fract_z
Si Si1 0.000000 0.786603 0.750000
Si Si2 0.497865 0.081727 0.064325
Si Si3 0.886095 0.707955 0.899530
Si Si4 0.131760 0.094005 0.840084
Si Si5 0.707511 0.383897 0.567569
Si Si6 0.295661 0.577093 0.224605
O O1 0.023718 0.728273 0.666902
O O2 0.135216 0.842979 0.804566
O O3 0.362926 0.085082 0.092594
O O4 0.630950 0.084426 0.169128
O O5 0.495541 0.164920 0.000713
O O6 0.500000 0.000000 0.000000
O O7 0.767120 0.641835 0.842837
O O8 0.807041 0.785631 0.923077
O O9 0.000000 0.134267 0.750000
O O10 0.143641 0.000176 0.812196
O O11 0.113388 0.093927 0.949603
O O12 0.659802 0.428166 0.651408
#
# Coordination Sequence:
#
# PCOD8148247 Si02
#       6
#     4   8   8   8   8   8
#     4  10  24  42  58  92 134 156 204 260 312 358
#     4  11  20  38  65  92 120 162 209 252 302 365
#     4  10  23  42  62  93 127 159 205 261 302 371
#     4  11  22  41  66  91 120 161 213 249 304 371
#     4  10  23  40  63  93 127 159 205 258 308 362
#     4  11  22  41  63  90 129 164 201 259 307 364
#
# _framework density 19.953006999999999
#
# number of rings (size 3 to 8) (size 9 to 14) (size 15 to 20)
#    0.000    1.455    4.545    2.727    0.000    8.727 
#    0.000    0.000    0.000    0.000    0.000    0.000 
#    0.000    0.000    0.000    0.000    0.000    0.000 
#
# Total GULP energy -272725.017062 kJ/mol
# GULP energy per Si atom -12396.591685 kJ/mol
# Density = 1.990759 g / cm^3
# Si number density = 19.953007 Si / 1000 Ang^3
#
#
#
# Elastic Constant Matrix: (Units=GPa)
#
#
# Indices 1 2 3 4 5 6 
#
# 1 73.6467 12.8457 49.6695 0.0000 -10.0060 0.0000
# 2 12.8457 76.3948 28.3571 0.0000 -18.0795 0.0000
# 3 49.6695 28.3571 140.5789 0.0000 -1.3946 0.0000
# 4 0.0000 0.0000 0.0000 33.8587 0.0000 4.6591
# 5 -10.0060 -18.0795 -1.3946 0.0000 41.3766 0.0000
# 6 0.0000 0.0000 0.0000 4.6591 0.0000 26.2487
#
#
#
# Elastic Compliance Matrix: (Units=1/GPa)
#
#
# Indices 1 2 3 4 5 6 
#
# 1 0.018558 0.000373 -0.006588 0.000000 0.004429 0.000000
# 2 0.000373 0.015876 -0.003266 0.000000 0.006917 0.000000
# 3 -0.006588 -0.003266 0.010073 0.000000 -0.002681 0.000000
# 4 0.000000 0.000000 0.000000 0.030274 0.000000 -0.005374
# 5 0.004429 0.006917 -0.002681 0.000000 0.028171 0.000000
# 6 0.000000 0.000000 0.000000 -0.005374 0.000000 0.039051
#
#
# Mechanical properties :
#
#
# Convention : Reuss Voigt Hill
#
# Bulk Modulus (GPa) = 39.14477 52.48499 45.81488
# Shear Modulus (GPa) = 29.50164 33.61333 31.55748
#
# Velocity S-wave (km/s) = 3.84937 4.10887 3.98124
# Velocity P-wave (km/s) = 6.27837 6.99084 6.64416
#
# Compressibility (1/GPa) = 0.02554620
#
# Stress axis : x y z
#
# Youngs Moduli (GPa) = 53.88394 62.98652 99.27107
#
# Poissons Ratio (x) = -0.02350 0.65404
# Poissons Ratio (y) = -0.02011 0.32419
# Poissons Ratio (z) = 0.35501 0.20570
#
# Static dielectric constant tensor:
#      x y z
#    x 3.680630 0.000000 0.087800 
#    y 0.000000 3.698010 0.000000 
#    z 0.087800 0.000000 3.891920 
# 
# 
# High freq. dielectric constant tensor:
#      x y z
#    x 1.779330 0.000000 -0.004020 
#    y 0.000000 1.783400 0.000000 
#    z -0.004020 0.000000 1.780180 
# 
# From -- ./inp_files/143358.got.cif
#   From: 2010.06.25/outbox.cif.g09.slc.cpg/sg15_72_cif.got.tgz:143358.got - 2010.06.28 07:06:18.
