data_PCOD8148873
_publ_section_title
;
Structure prediction by ZEFSAII (Michael W. Deem and Ramdas Pophale) SiO2 
 PCOD8148873
Probable space group: C 2/C
;
_chemical_formula_sum "Si O2"
_cell_formula_units_Z 40
_cell_length_a 11.870005
_cell_length_b 17.262670
_cell_length_c 9.448109
_cell_angle_alpha 90.000000
_cell_angle_beta 103.410820
_cell_angle_gamma 90.000000
_cell_volume 1883.202454
_symmetry_space_group_name_H-M "C 2/C"
_symmetry_group_IT_number 15
_symmetry_cell_setting 'monoclinic'
loop_
_space_group_symop_operation_xyz
x,y,z
-x,y,1/2-z
-x,-y,-z
x,-y,1/2+z
1/2+x,1/2+y,z
1/2-x,1/2+y,1/2-z
1/2-x,1/2-y,-z
1/2+x,1/2-y,1/2+z
loop_
_atom_site_type_symbol
_atom_site_label
_atom_site_fract_x
_atom_site_fract_y
_atom_site_fract_z
Si Si1 0.615164 0.694875 0.197548
Si Si2 0.651406 0.856143 0.679629
Si Si3 0.772674 0.476941 0.373843
Si Si4 0.906006 0.332708 0.510088
Si Si5 0.622161 0.478333 0.595185
O O1 0.500000 0.717965 0.250000
O O2 0.730812 0.689905 0.331120
O O3 0.637168 0.754388 0.076165
O O4 0.605389 0.610477 0.129247
O O5 0.545864 0.828488 0.551676
O O6 0.657999 0.948502 0.661401
O O7 0.636440 0.838829 0.841838
O O8 0.858670 0.403497 0.399769
O O9 0.725703 0.490923 0.516248
O O10 0.659931 0.467288 0.238604
O O11 0.500000 0.500000 0.500000
#
# Coordination Sequence:
#
# PCOD8148873 Si02
#       5
#     8   8   8   8   8
#     4  11  24  43  64  94 138 171 223 284 335 396
#     4  10  23  43  65  95 135 168 228 282 323 404
#     4  11  21  41  67  95 132 172 222 273 328 396
#     4  11  23  42  69  94 133 182 216 279 343 393
#     4  11  23  41  67  99 135 176 222 273 328 403
#
# _framework density 21.240414000000001
#
# number of rings (size 3 to 8) (size 9 to 14) (size 15 to 20)
#    0.000    1.200    4.000    4.200    0.000    4.000 
#    7.200    0.000    0.000    0.000    0.000    0.000 
#    0.000    0.000    0.000    0.000    0.000    0.000 
#
# Total GULP energy -247882.736306 kJ/mol
# GULP energy per Si atom -12394.136815 kJ/mol
# Density = 2.119207 g / cm^3
# Si number density = 21.240414 Si / 1000 Ang^3
#
#
#
# Elastic Constant Matrix: (Units=GPa)
#
#
# Indices 1 2 3 4 5 6 
#
# 1 110.9041 34.6041 20.8264 0.0000 25.6113 0.0000
# 2 34.6041 98.2489 48.0551 0.0000 17.1688 0.0000
# 3 20.8264 48.0551 80.5365 0.0000 15.0036 0.0000
# 4 0.0000 0.0000 0.0000 31.2274 0.0000 -4.0582
# 5 25.6113 17.1688 15.0036 0.0000 55.0557 0.0000
# 6 0.0000 0.0000 0.0000 -4.0582 0.0000 19.3836
#
#
#
# Elastic Compliance Matrix: (Units=1/GPa)
#
#
# Indices 1 2 3 4 5 6 
#
# 1 0.010950 -0.003008 -0.000276 0.000000 -0.004080 0.000000
# 2 -0.003008 0.015471 -0.008234 0.000000 -0.001181 0.000000
# 3 -0.000276 -0.008234 0.017803 0.000000 -0.002155 0.000000
# 4 0.000000 0.000000 0.000000 0.032919 0.000000 0.006892
# 5 -0.004080 -0.001181 -0.002155 0.000000 0.021017 0.000000
# 6 0.000000 0.000000 0.000000 0.006892 0.000000 0.053033
#
#
# Mechanical properties :
#
#
# Convention : Reuss Voigt Hill
#
# Bulk Modulus (GPa) = 47.19861 55.18453 51.19157
# Shear Modulus (GPa) = 27.57992 33.54696 30.56344
#
# Velocity S-wave (km/s) = 3.60733 3.97847 3.79744
# Velocity P-wave (km/s) = 6.29443 6.86597 6.58640
#
# Compressibility (1/GPa) = 0.02118706
#
# Stress axis : x y z
#
# Youngs Moduli (GPa) = 91.32755 64.63532 56.17160
#
# Poissons Ratio (x) = 0.19445 0.01552
# Poissons Ratio (y) = 0.27475 0.46249
# Poissons Ratio (z) = 0.02524 0.53218
#
# Static dielectric constant tensor:
#      x y z
#    x 3.456500 0.000000 0.239460 
#    y 0.000000 3.738980 0.000000 
#    z 0.239460 0.000000 4.033820 
# 
# 
# High freq. dielectric constant tensor:
#      x y z
#    x 1.851740 0.000000 0.015180 
#    y 0.000000 1.823120 0.000000 
#    z 0.015180 0.000000 1.830800 
# 
# From -- ./inp_files/29324.got.cif
#   From: 2010.06.25/outbox.cif.g09.slc.cpg/sg15_15_cif.got.tgz:29324.got - 2010.06.28 07:06:18.
