data_PCOD8148320
_publ_section_title
;
Structure prediction by ZEFSAII (Michael W. Deem and Ramdas Pophale) SiO2 
 PCOD8148320
Probable space group: C 2/C
;
_chemical_formula_sum "Si O2"
_cell_formula_units_Z 24
_cell_length_a 7.825421
_cell_length_b 25.876200
_cell_length_c 8.288250
_cell_angle_alpha 90.000000
_cell_angle_beta 144.611850
_cell_angle_gamma 90.000000
_cell_volume 971.927897
_symmetry_space_group_name_H-M "C 2/C"
_symmetry_group_IT_number 15
_symmetry_cell_setting 'monoclinic'
loop_
_space_group_symop_operation_xyz
x,y,z
-x,y,1/2-z
-x,-y,-z
x,-y,1/2+z
1/2+x,1/2+y,z
1/2-x,1/2+y,1/2-z
1/2-x,1/2-y,-z
1/2+x,1/2-y,1/2+z
loop_
_atom_site_type_symbol
_atom_site_label
_atom_site_fract_x
_atom_site_fract_y
_atom_site_fract_z
Si Si1 0.500000 0.787407 0.250000
Si Si2 0.263497 0.932119 0.767464
Si Si3 0.500000 0.020545 0.750000
Si Si4 0.706818 0.364806 0.269052
O O1 0.750000 0.750000 0.500000
O O2 0.381233 0.821015 0.307117
O O3 0.974129 0.899840 0.497540
O O4 0.274697 0.986409 0.681684
O O5 0.282966 0.943676 0.975027
O O6 0.561555 0.900188 0.955621
O O7 0.500000 0.340332 0.250000
#
# Coordination Sequence:
#
# PCOD8148320 Si02
#       4
#     4   8   4   8
#     4  12  29  50  78 108 134 178 238 306 383 454
#     4  11  24  42  68 107 149 202 242 291 342 408
#     4  10  23  40  68 106 152 202 254 282 327 414
#     4  12  25  48  74 105 148 188 237 298 368 426
#
# _framework density 24.693192
#
# number of rings (size 3 to 8) (size 9 to 14) (size 15 to 20)
#    0.000    0.667    3.333    3.000    0.000   13.333 
#    0.000    0.000    0.000    0.000    0.000    0.000 
#    0.000    0.000    0.000    0.000    0.000    0.000 
#
# Total GULP energy -148839.250376 kJ/mol
# GULP energy per Si atom -12403.270865 kJ/mol
# Density = 2.463699 g / cm^3
# Si number density = 24.693192 Si / 1000 Ang^3
#
#
#
# Elastic Constant Matrix: (Units=GPa)
#
#
# Indices 1 2 3 4 5 6 
#
# 1 155.5162 63.8930 28.0138 0.0000 -15.3988 0.0000
# 2 63.8930 105.5807 39.5435 0.0000 4.1227 0.0000
# 3 28.0138 39.5435 149.7898 0.0000 7.7623 0.0000
# 4 0.0000 0.0000 0.0000 9.1064 0.0000 -8.4112
# 5 -15.3988 4.1227 7.7623 0.0000 39.5963 0.0000
# 6 0.0000 0.0000 0.0000 -8.4112 0.0000 9.5916
#
#
#
# Elastic Compliance Matrix: (Units=1/GPa)
#
#
# Indices 1 2 3 4 5 6 
#
# 1 0.009227 -0.005572 -0.000475 0.000000 0.004262 0.000000
# 2 -0.005572 0.013888 -0.002462 0.000000 -0.003130 0.000000
# 3 -0.000475 -0.002462 0.007487 0.000000 -0.001396 0.000000
# 4 0.000000 0.000000 0.000000 0.577919 0.000000 0.506795
# 5 0.004262 -0.003130 -0.001396 0.000000 0.027512 0.000000
# 6 0.000000 0.000000 0.000000 0.506795 0.000000 0.548683
#
#
# Mechanical properties :
#
#
# Convention : Reuss Voigt Hill
#
# Bulk Modulus (GPa) = 73.62199 74.86528 74.24363
# Shear Modulus (GPa) = 4.14503 30.28795 17.21649
#
# Velocity S-wave (km/s) = 1.29702 3.50604 2.64335
# Velocity P-wave (km/s) = 5.66766 6.83914 6.28077
#
# Compressibility (1/GPa) = 0.01358290
#
# Stress axis : x y z
#
# Youngs Moduli (GPa) = 108.37584 72.00556 133.56040
#
# Poissons Ratio (x) = 0.40123 0.06351
# Poissons Ratio (y) = 0.60389 0.32882
# Poissons Ratio (z) = 0.05153 0.17727
#
# Static dielectric constant tensor:
#      x y z
#    x 4.555670 0.000000 -0.050560 
#    y 0.000000 3.958470 0.000000 
#    z -0.050560 0.000000 4.671630 
# 
# 
# High freq. dielectric constant tensor:
#      x y z
#    x 2.012160 0.000000 0.002120 
#    y 0.000000 1.955620 0.000000 
#    z 0.002120 0.000000 2.007110 
# 
# From -- ./inp_files/25242.got.cif
#   From: 2010.06.25/outbox.cif.g09.slc.cpg/sg15_13_cif.got.tgz:25242.got - 2010.06.28 07:06:18.
