data_PCOD8148824
_publ_section_title
;
Structure prediction by ZEFSAII (Michael W. Deem and Ramdas Pophale) SiO2 
 PCOD8148824
Probable space group: C 2/C
;
_chemical_formula_sum "Si O2"
_cell_formula_units_Z 48
_cell_length_a 28.154877
_cell_length_b 6.491847
_cell_length_c 13.373770
_cell_angle_alpha 90.000000
_cell_angle_beta 68.927046
_cell_angle_gamma 90.000000
_cell_volume 2280.945056
_symmetry_space_group_name_H-M "C 2/C"
_symmetry_group_IT_number 15
_symmetry_cell_setting 'monoclinic'
loop_
_space_group_symop_operation_xyz
x,y,z
-x,y,1/2-z
-x,-y,-z
x,-y,1/2+z
1/2+x,1/2+y,z
1/2-x,1/2+y,1/2-z
1/2-x,1/2-y,-z
1/2+x,1/2-y,1/2+z
loop_
_atom_site_type_symbol
_atom_site_label
_atom_site_fract_x
_atom_site_fract_y
_atom_site_fract_z
Si Si1 0.466220 0.700828 0.539636
Si Si2 0.806384 0.637771 0.052211
Si Si3 0.861201 0.954322 0.138421
Si Si4 0.189035 0.938543 0.627986
Si Si5 0.131718 0.742696 0.042458
Si Si6 0.531177 0.988211 0.630172
O O1 0.500000 0.500000 0.500000
O O2 0.412642 0.656786 0.635546
O O3 0.494938 0.855777 0.588659
O O4 0.453335 0.805661 0.441946
O O5 0.817668 0.793177 0.135352
O O6 0.749132 0.555651 0.098850
O O7 0.822237 0.746470 0.935748
O O8 0.839541 0.435924 0.038322
O O9 0.838303 0.093564 0.244709
O O10 0.881166 0.091370 0.031861
O O11 0.167738 0.154902 0.599882
O O12 0.079878 0.648311 0.126884
O O13 0.500000 0.061429 0.750000
#
# Coordination Sequence:
#
# PCOD8148824 Si02
#       6
#     8   8   8   8   8   8
#     4  11  23  43  61  94 131 161 216 261 305 387
#     4  10  23  43  62  94 129 156 218 259 306 388
#     4  11  23  41  65  94 128 169 207 260 320 370
#     4  10  24  41  65  93 124 169 205 260 319 371
#     4  11  22  42  64  92 129 160 213 262 310 381
#     4  11  24  41  66  93 124 171 209 260 320 369
#
# _framework density 21.04391
#
# number of rings (size 3 to 8) (size 9 to 14) (size 15 to 20)
#    0.000    1.333    3.333    1.500    2.333    3.333 
#    0.000    0.000    0.000    0.000    0.000    0.000 
#    0.000    0.000    0.000    0.000    0.000    0.000 
#
# Total GULP energy -297608.318320 kJ/mol
# GULP energy per Si atom -12400.346597 kJ/mol
# Density = 2.099601 g / cm^3
# Si number density = 21.043910 Si / 1000 Ang^3
#
#
#
# Elastic Constant Matrix: (Units=GPa)
#
#
# Indices 1 2 3 4 5 6 
#
# 1 117.0865 36.7999 37.4662 0.0000 -21.0636 0.0000
# 2 36.7999 79.4216 23.3796 0.0000 -9.9586 0.0000
# 3 37.4662 23.3796 106.5440 0.0000 -15.8359 0.0000
# 4 0.0000 0.0000 0.0000 28.6277 0.0000 -8.5329
# 5 -21.0636 -9.9586 -15.8359 0.0000 25.5722 0.0000
# 6 0.0000 0.0000 0.0000 -8.5329 0.0000 35.1513
#
#
#
# Elastic Compliance Matrix: (Units=1/GPa)
#
#
# Indices 1 2 3 4 5 6 
#
# 1 0.011702 -0.003915 -0.002258 0.000000 0.006716 0.000000
# 2 -0.003915 0.015107 -0.001700 0.000000 0.001606 0.000000
# 3 -0.002258 -0.001700 0.011210 0.000000 0.004420 0.000000
# 4 0.000000 0.000000 0.000000 0.037656 0.000000 0.009141
# 5 0.006716 0.001606 0.004420 0.000000 0.047999 0.000000
# 6 0.000000 0.000000 0.000000 0.009141 0.000000 0.030667
#
#
# Mechanical properties :
#
#
# Convention : Reuss Voigt Hill
#
# Bulk Modulus (GPa) = 44.89666 55.37149 50.13407
# Shear Modulus (GPa) = 28.16740 31.56400 29.86570
#
# Velocity S-wave (km/s) = 3.66253 3.87707 3.77133
# Velocity P-wave (km/s) = 6.26630 6.81261 6.54516
#
# Compressibility (1/GPa) = 0.02227337
#
# Stress axis : x y z
#
# Youngs Moduli (GPa) = 85.45655 66.19521 89.20928
#
# Poissons Ratio (x) = 0.25918 0.20140
# Poissons Ratio (y) = 0.33459 0.15161
# Poissons Ratio (z) = 0.19292 0.11250
#
# Static dielectric constant tensor:
#      x y z
#    x 3.887430 0.000000 0.768900 
#    y 0.000000 3.899810 0.000000 
#    z 0.768900 0.000000 -2.537740 
# 
# 
# High freq. dielectric constant tensor:
#      x y z
#    x 1.840950 0.000000 -0.006260 
#    y 0.000000 1.827760 0.000000 
#    z -0.006260 0.000000 1.812170 
# 
# From -- ./inp_files/179972.got.cif
#   From: 2010.06.25/outbox.cif.g09.slc.cpg/sg15_90_cif.got.tgz:179972.got - 2010.06.28 07:06:18.
