data_PCOD8148526
_publ_section_title
;
Structure prediction by ZEFSAII (Michael W. Deem and Ramdas Pophale) SiO2 
 PCOD8148526
Probable space group: C 2/C
;
_chemical_formula_sum "Si O2"
_cell_formula_units_Z 64
_cell_length_a 12.050547
_cell_length_b 14.008882
_cell_length_c 27.534223
_cell_angle_alpha 90.000000
_cell_angle_beta 141.303879
_cell_angle_gamma 90.000000
_cell_volume 2905.995653
_symmetry_space_group_name_H-M "C 2/C"
_symmetry_group_IT_number 15
_symmetry_cell_setting 'monoclinic'
loop_
_space_group_symop_operation_xyz
x,y,z
-x,y,1/2-z
-x,-y,-z
x,-y,1/2+z
1/2+x,1/2+y,z
1/2-x,1/2+y,1/2-z
1/2-x,1/2-y,-z
1/2+x,1/2-y,1/2+z
loop_
_atom_site_type_symbol
_atom_site_label
_atom_site_fract_x
_atom_site_fract_y
_atom_site_fract_z
Si Si1 0.387688 0.006490 0.306401
Si Si2 0.896376 0.421218 0.410646
Si Si3 0.755299 0.187509 0.784488
Si Si4 0.743466 0.423843 0.607401
Si Si5 0.566777 0.370772 0.723877
Si Si6 0.512417 0.577527 0.938211
Si Si7 0.806923 0.748331 0.197306
Si Si8 0.722213 0.539682 0.430411
O O1 0.421891 0.993700 0.374981
O O2 0.347107 0.908707 0.264215
O O3 0.555207 0.055889 0.339064
O O4 0.217006 0.073409 0.245236
O O5 0.840818 0.318638 0.373259
O O6 0.750557 0.458146 0.399271
O O7 0.090718 0.408565 0.499137
O O8 0.621777 0.264967 0.762228
O O9 0.925586 0.163719 0.876887
O O10 0.812290 0.249522 0.757171
O O11 0.651389 0.519990 0.594565
O O12 0.632688 0.381006 0.523599
O O13 0.755916 0.353564 0.657416
O O14 0.500000 0.425325 0.750000
O O15 0.403507 0.373852 0.630312
O O16 0.639694 0.509985 0.949764
O O17 0.000000 0.785589 0.250000
#
# Coordination Sequence:
#
# PCOD8148526 Si02
#       8
#     8   8   8   8   8   8   8   8
#     4  11  23  45  68 102 141 187 236 290 356 431
#     4  10  23  41  69  99 135 189 233 295 349 426
#     4  11  26  43  70 104 138 184 242 288 351 417
#     4  11  26  45  70 101 144 191 233 291 365 429
#     4  12  25  41  67 105 138 180 235 299 350 410
#     4  11  24  45  71 100 144 190 234 295 360 427
#     4  11  24  44  69 102 137 184 240 287 351 424
#     4  11  21  44  68  98 139 185 236 285 362 415
#
# _framework density 22.023433000000001
#
# number of rings (size 3 to 8) (size 9 to 14) (size 15 to 20)
#    0.000    1.000    3.750    2.250    5.250    1.000 
#    2.250    3.750    0.000    0.000    0.000    0.000 
#    0.000    0.000    0.000    0.000    0.000    0.000 
#
# Total GULP energy -396660.781705 kJ/mol
# GULP energy per Si atom -12395.649428 kJ/mol
# Density = 2.197331 g / cm^3
# Si number density = 22.023433 Si / 1000 Ang^3
#
#
#
# Elastic Constant Matrix: (Units=GPa)
#
#
# Indices 1 2 3 4 5 6 
#
# 1 111.6433 23.1855 41.2853 0.0000 3.9473 0.0000
# 2 23.1855 81.2645 48.2210 0.0000 8.3494 0.0000
# 3 41.2853 48.2210 142.4405 0.0000 -0.0366 0.0000
# 4 0.0000 0.0000 0.0000 24.5077 0.0000 -6.9592
# 5 3.9473 8.3494 -0.0366 0.0000 39.5674 0.0000
# 6 0.0000 0.0000 0.0000 -6.9592 0.0000 27.8676
#
#
#
# Elastic Compliance Matrix: (Units=1/GPa)
#
#
# Indices 1 2 3 4 5 6 
#
# 1 0.010186 -0.001350 -0.002496 0.000000 -0.000734 0.000000
# 2 -0.001350 0.016008 -0.005029 0.000000 -0.003248 0.000000
# 3 -0.002496 -0.005029 0.009447 0.000000 0.001319 0.000000
# 4 0.000000 0.000000 0.000000 0.043918 0.000000 0.010967
# 5 -0.000734 -0.003248 0.001319 0.000000 0.026033 0.000000
# 6 0.000000 0.000000 0.000000 0.010967 0.000000 0.038623
#
#
# Mechanical properties :
#
#
# Convention : Reuss Voigt Hill
#
# Bulk Modulus (GPa) = 55.89015 62.30355 59.09685
# Shear Modulus (GPa) = 29.77463 33.23231 31.50347
#
# Velocity S-wave (km/s) = 3.68088 3.88874 3.78624
# Velocity P-wave (km/s) = 6.59529 6.96521 6.78277
#
# Compressibility (1/GPa) = 0.01789224
#
# Stress axis : x y z
#
# Youngs Moduli (GPa) = 98.17148 62.46686 105.85811
#
# Poissons Ratio (x) = 0.08433 0.26418
# Poissons Ratio (y) = 0.13253 0.53236
# Poissons Ratio (z) = 0.24499 0.31414
#
# Static dielectric constant tensor:
#      x y z
#    x 4.302850 0.000000 -0.070460 
#    y 0.000000 3.686760 0.000000 
#    z -0.070460 0.000000 4.226300 
# 
# 
# High freq. dielectric constant tensor:
#      x y z
#    x 1.888680 0.000000 -0.002780 
#    y 0.000000 1.843620 0.000000 
#    z -0.002780 0.000000 1.880280 
# 
# From -- ./inp_files/293091.got.cif
#   From: 2010.06.25/outbox.cif.g09.slc.cpg/sg15_147_cif.got.tgz:293091.got - 2010.06.28 07:06:18.
