data_PCOD8148960
_publ_section_title
;
Structure prediction by ZEFSAII (Michael W. Deem and Ramdas Pophale) SiO2 
 PCOD8148960
Probable space group: C 2/C
;
_chemical_formula_sum "Si O2"
_cell_formula_units_Z 36
_cell_length_a 20.156153
_cell_length_b 8.303908
_cell_length_c 25.612993
_cell_angle_alpha 90.000000
_cell_angle_beta 22.896923
_cell_angle_gamma 90.000000
_cell_volume 1667.950854
_symmetry_space_group_name_H-M "C 2/C"
_symmetry_group_IT_number 15
_symmetry_cell_setting 'monoclinic'
loop_
_space_group_symop_operation_xyz
x,y,z
-x,y,1/2-z
-x,-y,-z
x,-y,1/2+z
1/2+x,1/2+y,z
1/2-x,1/2+y,1/2-z
1/2-x,1/2-y,-z
1/2+x,1/2-y,1/2+z
loop_
_atom_site_type_symbol
_atom_site_label
_atom_site_fract_x
_atom_site_fract_y
_atom_site_fract_z
Si Si1 0.565774 0.696824 0.614166
Si Si2 0.816968 0.873542 0.993438
Si Si3 0.537109 0.790518 0.420571
Si Si4 0.590396 0.832930 0.873453
Si Si5 0.000000 0.407607 0.750000
O O1 0.750000 0.750000 0.500000
O O2 0.547269 0.501350 0.630055
O O3 0.532321 0.750683 0.579517
O O4 0.442631 0.790909 0.743447
O O5 0.896601 0.775353 0.982910
O O6 0.750000 0.750000 0.000000
O O7 0.661080 0.979648 0.126122
O O8 0.464044 0.758867 0.531405
O O9 0.713759 0.699451 0.282818
O O10 0.562993 0.977618 0.391673
#
# Coordination Sequence:
#
# PCOD8148960 Si02
#       5
#     8   8   8   8   4
#     4  10  23  43  68  98 133 183 228 285 345 414
#     4  11  25  45  71 103 137 185 236 289 350 420
#     4  11  26  45  72 104 142 185 232 294 350 425
#     4  11  26  46  70 105 143 183 237 286 358 418
#     4  10  24  44  72  98 140 180 238 294 350 410
#
# _framework density 21.583369000000001
#
# number of rings (size 3 to 8) (size 9 to 14) (size 15 to 20)
#    0.000    1.333    0.000    4.000   12.444    2.667 
#    0.000    0.000    0.000    0.000    0.000    0.000 
#    0.000    0.000    0.000    0.000    0.000    0.000 
#
# Total GULP energy -223153.746361 kJ/mol
# GULP energy per Si atom -12397.430353 kJ/mol
# Density = 2.153424 g / cm^3
# Si number density = 21.583369 Si / 1000 Ang^3
#
#
#
# Elastic Constant Matrix: (Units=GPa)
#
#
# Indices 1 2 3 4 5 6 
#
# 1 211.4618 92.5701 66.1772 0.0017 21.1661 -0.0001
# 2 92.5701 149.9565 63.5923 0.0015 23.9537 0.0036
# 3 66.1772 63.5923 125.3117 -0.0054 16.7089 0.0003
# 4 0.0017 0.0015 -0.0054 38.5788 0.0006 -4.9349
# 5 21.1661 23.9537 16.7089 0.0006 31.2393 0.0007
# 6 -0.0001 0.0036 0.0003 -4.9349 0.0007 38.5855
#
#
#
# Elastic Compliance Matrix: (Units=1/GPa)
#
#
# Indices 1 2 3 4 5 6 
#
# 1 0.006841 -0.003276 -0.001795 0.000000 -0.001163 0.000000
# 2 -0.003276 0.010707 -0.003128 -0.000001 -0.004317 -0.000001
# 3 -0.001795 -0.003128 0.010804 0.000002 -0.002164 0.000000
# 4 0.000000 -0.000001 0.000002 0.026352 -0.000001 0.003370
# 5 -0.001163 -0.004317 -0.002164 -0.000001 0.037267 0.000000
# 6 0.000000 -0.000001 0.000000 0.003370 0.000000 0.026348
#
#
# Mechanical properties :
#
#
# Convention : Reuss Voigt Hill
#
# Bulk Modulus (GPa) = 83.65389 103.48991 93.57190
# Shear Modulus (GPa) = 36.04852 39.30675 37.67763
#
# Velocity S-wave (km/s) = 4.09124 4.27213 4.18267
# Velocity P-wave (km/s) = 7.82050 8.50810 8.17154
#
# Compressibility (1/GPa) = 0.01195402
#
# Stress axis : x y z
#
# Youngs Moduli (GPa) = 146.16804 93.39648 92.55843
#
# Poissons Ratio (x) = 0.30598 0.16617
# Poissons Ratio (y) = 0.47887 0.28950
# Poissons Ratio (z) = 0.26242 0.29212
#
# Static dielectric constant tensor:
#      x y z
#    x 4.049990 -0.000040 0.258880 
#    y -0.000040 4.811580 0.000160 
#    z 0.258880 0.000160 4.384460 
# 
# 
# High freq. dielectric constant tensor:
#      x y z
#    x 1.864880 0.000000 0.002570 
#    y 0.000000 1.870750 0.000000 
#    z 0.002570 0.000000 1.844950 
# 
# From -- ./inp_files/102439.got.cif
#   From: 2010.06.25/outbox.cif.g09.slc.cpg/sg15_52_cif.got.tgz:102439.got - 2010.06.28 07:06:18.
