data_PCOD8148245
_publ_section_title
;
Structure prediction by ZEFSAII (Michael W. Deem and Ramdas Pophale) SiO2 
 PCOD8148245
Probable space group: C 2/C
;
_chemical_formula_sum "Si O2"
_cell_formula_units_Z 48
_cell_length_a 7.246349
_cell_length_b 13.820255
_cell_length_c 22.707446
_cell_angle_alpha 90.000000
_cell_angle_beta 106.758001
_cell_angle_gamma 90.000000
_cell_volume 2177.491582
_symmetry_space_group_name_H-M "C 2/C"
_symmetry_group_IT_number 15
_symmetry_cell_setting 'monoclinic'
loop_
_space_group_symop_operation_xyz
x,y,z
-x,y,1/2-z
-x,-y,-z
x,-y,1/2+z
1/2+x,1/2+y,z
1/2-x,1/2+y,1/2-z
1/2-x,1/2-y,-z
1/2+x,1/2-y,1/2+z
loop_
_atom_site_type_symbol
_atom_site_label
_atom_site_fract_x
_atom_site_fract_y
_atom_site_fract_z
Si Si1 0.000000 0.812736 0.250000
Si Si2 0.031022 0.397008 0.029164
Si Si3 0.676143 0.950850 0.381858
Si Si4 0.270583 0.349107 0.725323
Si Si5 0.428973 0.366124 0.121589
Si Si6 0.000000 0.503736 0.750000
Si Si7 0.501188 0.847864 0.900889
O O1 0.820016 0.749707 0.257254
O O2 0.927960 0.885677 0.191780
O O3 0.247761 0.404496 0.070606
O O4 0.896400 0.378069 0.073389
O O5 0.000000 0.500000 0.000000
O O6 0.984736 0.326586 0.969832
O O7 0.895761 0.921899 0.392869
O O8 0.553451 0.929945 0.311058
O O9 0.646659 0.063327 0.398694
O O10 0.500000 0.344821 0.750000
O O11 0.204537 0.365328 0.650728
O O12 0.188439 0.437531 0.756378
O O13 0.415434 0.249969 0.117735
#
# Coordination Sequence:
#
# PCOD8148245 Si02
#       7
#     4   8   8   8   8   4   8
#     4   9  22  38  58 100 127 150 228 268 313 398
#     4  10  23  42  63  94 131 166 221 267 314 402
#     4  10  23  40  63  92 128 169 211 270 325 393
#     4   9  18  38  66  89 123 171 205 265 334 381
#     4  11  23  41  66  92 126 176 208 274 334 376
#     4   9  20  36  56  92 129 156 216 264 313 394
#     4   9  21  43  62  94 130 163 223 269 319 397
#
# _framework density 22.043711999999999
#
# number of rings (size 3 to 8) (size 9 to 14) (size 15 to 20)
#    0.000    2.333    0.000    1.500    2.333   10.000 
#    1.500    8.333    0.000    0.000    0.000    0.000 
#    0.000    0.000    0.000    0.000    0.000    0.000 
#
# Total GULP energy -297372.752109 kJ/mol
# GULP energy per Si atom -12390.531338 kJ/mol
# Density = 2.199354 g / cm^3
# Si number density = 22.043712 Si / 1000 Ang^3
#
#
#
# Elastic Constant Matrix: (Units=GPa)
#
#
# Indices 1 2 3 4 5 6 
#
# 1 170.2379 31.8749 85.1782 0.0000 15.2147 0.0000
# 2 31.8749 47.4707 26.4195 0.0000 5.3688 0.0000
# 3 85.1782 26.4195 216.5205 0.0000 -0.5439 0.0000
# 4 0.0000 0.0000 0.0000 6.2523 0.0000 -0.1394
# 5 15.2147 5.3688 -0.5439 0.0000 33.0982 0.0000
# 6 0.0000 0.0000 0.0000 -0.1394 0.0000 16.3292
#
#
#
# Elastic Compliance Matrix: (Units=1/GPa)
#
#
# Indices 1 2 3 4 5 6 
#
# 1 0.008247 -0.003604 -0.002813 0.000000 -0.003253 0.000000
# 2 -0.003604 0.024641 -0.001595 0.000000 -0.002366 0.000000
# 3 -0.002813 -0.001595 0.005924 0.000000 0.001649 0.000000
# 4 0.000000 0.000000 0.000000 0.159972 0.000000 0.001366
# 5 -0.003253 -0.002366 0.001649 0.000000 0.032119 0.000000
# 6 0.000000 0.000000 0.000000 0.001366 0.000000 0.061252
#
#
# Mechanical properties :
#
#
# Convention : Reuss Voigt Hill
#
# Bulk Modulus (GPa) = 43.88229 80.13049 62.00639
# Shear Modulus (GPa) = 15.83411 30.51970 23.17691
#
# Velocity S-wave (km/s) = 2.68303 3.72493 3.24606
# Velocity P-wave (km/s) = 5.43584 7.41147 6.49916
#
# Compressibility (1/GPa) = 0.02278824
#
# Stress axis : x y z
#
# Youngs Moduli (GPa) = 121.25573 40.58292 168.81245
#
# Poissons Ratio (x) = 0.14627 0.47482
# Poissons Ratio (y) = 0.43705 0.26920
# Poissons Ratio (z) = 0.34106 0.06472
#
# Static dielectric constant tensor:
#      x y z
#    x 3.714920 0.000000 -0.296590 
#    y 0.000000 3.790010 0.000000 
#    z -0.296590 0.000000 3.085920 
# 
# 
# High freq. dielectric constant tensor:
#      x y z
#    x 1.847060 0.000000 -0.003240 
#    y 0.000000 1.847060 0.000000 
#    z -0.003240 0.000000 1.897440 
# 
# From -- ./inp_files/260778.got.cif
#   From: 2010.06.25/outbox.cif.g09.slc.cpg/sg15_131_cif.got.tgz:260778.got - 2010.06.28 07:06:18.
