data_PCOD8148014
_publ_section_title
;
Structure prediction by ZEFSAII (Michael W. Deem and Ramdas Pophale) SiO2 
 PCOD8148014
Probable space group: C 2/C
;
_chemical_formula_sum "Si O2"
_cell_formula_units_Z 44
_cell_length_a 21.017954
_cell_length_b 7.210093
_cell_length_c 11.565334
_cell_angle_alpha 90.000000
_cell_angle_beta 88.188283
_cell_angle_gamma 90.000000
_cell_volume 1751.750830
_symmetry_space_group_name_H-M "C 2/C"
_symmetry_group_IT_number 15
_symmetry_cell_setting 'monoclinic'
loop_
_space_group_symop_operation_xyz
x,y,z
-x,y,1/2-z
-x,-y,-z
x,-y,1/2+z
1/2+x,1/2+y,z
1/2-x,1/2+y,1/2-z
1/2-x,1/2-y,-z
1/2+x,1/2-y,1/2+z
loop_
_atom_site_type_symbol
_atom_site_label
_atom_site_fract_x
_atom_site_fract_y
_atom_site_fract_z
Si Si1 0.637562 0.094067 0.534195
Si Si2 0.899284 0.619967 0.661920
Si Si3 0.000000 0.388275 0.750000
Si Si4 0.708293 0.233040 0.120218
Si Si5 0.692697 0.361295 0.695573
Si Si6 0.993606 0.781511 0.005204
O O1 0.648365 0.028502 0.399553
O O2 0.648293 0.904276 0.607604
O O3 0.692478 0.233133 0.579286
O O4 0.570003 0.199777 0.550531
O O5 0.937601 0.519545 0.762098
O O6 0.864717 0.795484 0.717997
O O7 0.052607 0.681861 0.941334
O O8 0.994880 0.261261 0.639521
O O9 0.679654 0.431568 0.154850
O O10 0.744770 0.154231 0.230353
O O11 0.750000 0.250000 0.000000
O O12 0.000000 0.000000 0.000000
#
# Coordination Sequence:
#
# PCOD8148014 Si02
#       6
#     8   8   4   8   8   8
#     4  11  25  48  78 110 156 205 260 330 396 468
#     4  11  23  49  74 111 155 198 263 327 397 483
#     4  10  22  48  80 106 164 206 250 332 406 474
#     4  12  27  52  76 117 157 207 277 328 397 484
#     4  12  26  49  79 109 156 212 258 331 404 468
#     4  11  26  47  74 121 153 199 266 322 398 487
#
# _framework density 25.117729000000001
#
# number of rings (size 3 to 8) (size 9 to 14) (size 15 to 20)
#    0.000    0.727    3.636    4.364    2.545    2.909 
#   16.364    0.000    0.000    0.000    0.000    0.000 
#    0.000    0.000    0.000    0.000    0.000    0.000 
#
# Total GULP energy -272621.650822 kJ/mol
# GULP energy per Si atom -12391.893219 kJ/mol
# Density = 2.506056 g / cm^3
# Si number density = 25.117729 Si / 1000 Ang^3
#
#
#
# Elastic Constant Matrix: (Units=GPa)
#
#
# Indices 1 2 3 4 5 6 
#
# 1 96.4976 62.3838 65.6333 0.0000 15.7631 0.0000
# 2 62.3838 213.9512 70.1015 0.0000 23.0893 0.0000
# 3 65.6333 70.1015 146.0319 0.0000 34.0443 0.0000
# 4 0.0000 0.0000 0.0000 51.6814 0.0000 4.5947
# 5 15.7631 23.0893 34.0443 0.0000 53.5638 0.0000
# 6 0.0000 0.0000 0.0000 4.5947 0.0000 50.8943
#
#
#
# Elastic Compliance Matrix: (Units=1/GPa)
#
#
# Indices 1 2 3 4 5 6 
#
# 1 0.016207 -0.002785 -0.006005 0.000000 0.000248 0.000000
# 2 -0.002785 0.006056 -0.001453 0.000000 -0.000867 0.000000
# 3 -0.006005 -0.001453 0.011371 0.000000 -0.004834 0.000000
# 4 0.000000 0.000000 0.000000 0.019506 0.000000 -0.001761
# 5 0.000248 -0.000867 -0.004834 0.000000 0.022043 0.000000
# 6 0.000000 0.000000 0.000000 -0.001761 0.000000 0.019808
#
#
# Mechanical properties :
#
#
# Convention : Reuss Voigt Hill
#
# Bulk Modulus (GPa) = 76.05792 94.74643 85.40218
# Shear Modulus (GPa) = 41.71561 48.45205 45.08383
#
# Velocity S-wave (km/s) = 4.07972 4.39680 4.24122
# Velocity P-wave (km/s) = 7.24834 7.97362 7.61961
#
# Compressibility (1/GPa) = 0.01314788
#
# Stress axis : x y z
#
# Youngs Moduli (GPa) = 61.70066 165.13389 87.94078
#
# Poissons Ratio (x) = 0.45987 0.52810
# Poissons Ratio (y) = 0.17183 0.12779
# Poissons Ratio (z) = 0.37052 0.23997
#
# Static dielectric constant tensor:
#      x y z
#    x 4.535990 0.000000 0.478510 
#    y 0.000000 4.737200 0.000000 
#    z 0.478510 0.000000 4.975140 
# 
# 
# High freq. dielectric constant tensor:
#      x y z
#    x 1.994410 0.000000 0.022090 
#    y 0.000000 2.006170 0.000000 
#    z 0.022090 0.000000 2.033790 
# 
# From -- ./inp_files/125033.got.cif
#   From: 2010.06.25/outbox.cif.g09.slc.cpg/sg15_63_cif.got.tgz:125033.got - 2010.06.28 07:06:18.
