data_PCOD8148739
_publ_section_title
;
Structure prediction by ZEFSAII (Michael W. Deem and Ramdas Pophale) SiO2 
 PCOD8148739
Probable space group: C 2/C
;
_chemical_formula_sum "Si O2"
_cell_formula_units_Z 52
_cell_length_a 16.656134
_cell_length_b 17.449330
_cell_length_c 8.746529
_cell_angle_alpha 90.000000
_cell_angle_beta 74.090706
_cell_angle_gamma 90.000000
_cell_volume 2444.707470
_symmetry_space_group_name_H-M "C 2/C"
_symmetry_group_IT_number 15
_symmetry_cell_setting 'monoclinic'
loop_
_space_group_symop_operation_xyz
x,y,z
-x,y,1/2-z
-x,-y,-z
x,-y,1/2+z
1/2+x,1/2+y,z
1/2-x,1/2+y,1/2-z
1/2-x,1/2-y,-z
1/2+x,1/2-y,1/2+z
loop_
_atom_site_type_symbol
_atom_site_label
_atom_site_fract_x
_atom_site_fract_y
_atom_site_fract_z
Si Si1 0.093897 0.601304 0.345130
Si Si2 0.789273 0.668976 0.440407
Si Si3 0.500000 0.294224 0.750000
Si Si4 0.631345 0.959965 0.150296
Si Si5 0.196108 0.026146 0.380451
Si Si6 0.088462 0.060011 0.154951
Si Si7 0.434668 0.839836 0.092399
O O1 0.156944 0.667174 0.247341
O O2 0.084497 0.540029 0.211423
O O3 0.134316 0.556040 0.467585
O O4 0.005435 0.635752 0.435366
O O5 0.750000 0.750000 0.500000
O O6 0.719477 0.602148 0.466789
O O7 0.847595 0.653904 0.553932
O O8 0.428244 0.348695 0.861930
O O9 0.542916 0.244729 0.860573
O O10 0.575776 0.892994 0.253561
O O11 0.725494 0.967780 0.166347
O O12 0.166464 0.050970 0.228860
O O13 0.115987 0.982217 0.487571
O O14 0.000000 0.021557 0.250000
#
# Coordination Sequence:
#
# PCOD8148739 Si02
#       7
#     8   8   4   8   8   8   8
#     4  11  23  42  66 103 133 182 220 275 346 411
#     4  11  25  43  66  94 140 174 219 291 343 412
#     4  10  24  42  66  90 138 174 230 274 324 402
#     4  11  22  38  71  99 138 167 218 285 337 418
#     4  11  21  44  64 102 125 169 226 276 350 389
#     4  10  23  42  69  90 129 175 228 285 323 404
#     4  12  22  44  62 100 134 182 223 274 342 416
#
# _framework density 21.270440000000001
#
# number of rings (size 3 to 8) (size 9 to 14) (size 15 to 20)
#    0.462    0.615    1.538    6.923    0.000    2.462 
#    5.538    1.538    0.000    0.000    0.000    0.000 
#    0.000    0.000    0.000    0.000    0.000    0.000 
#
# Total GULP energy -322240.316248 kJ/mol
# GULP energy per Si atom -12393.858317 kJ/mol
# Density = 2.122203 g / cm^3
# Si number density = 21.270440 Si / 1000 Ang^3
#
#
#
# Elastic Constant Matrix: (Units=GPa)
#
#
# Indices 1 2 3 4 5 6 
#
# 1 83.1497 34.8277 12.1175 0.0000 -3.9438 0.0000
# 2 34.8277 116.3383 49.6599 0.0000 -18.0702 0.0000
# 3 12.1175 49.6599 89.1385 0.0000 -12.0679 0.0000
# 4 0.0000 0.0000 0.0000 32.1080 0.0000 -7.0574
# 5 -3.9438 -18.0702 -12.0679 0.0000 45.7008 0.0000
# 6 0.0000 0.0000 0.0000 -7.0574 0.0000 47.8482
#
#
#
# Elastic Compliance Matrix: (Units=1/GPa)
#
#
# Indices 1 2 3 4 5 6 
#
# 1 0.013779 -0.004416 0.000531 0.000000 -0.000417 0.000000
# 2 -0.004416 0.013077 -0.006260 0.000000 0.003136 0.000000
# 3 0.000531 -0.006260 0.014836 0.000000 0.001488 0.000000
# 4 0.000000 0.000000 0.000000 0.032188 0.000000 0.004748
# 5 -0.000417 0.003136 0.001488 0.000000 0.023479 0.000000
# 6 0.000000 0.000000 0.000000 0.004748 0.000000 0.021600
#
#
# Mechanical properties :
#
#
# Convention : Reuss Voigt Hill
#
# Bulk Modulus (GPa) = 46.72917 53.53742 50.13330
# Shear Modulus (GPa) = 34.15675 37.93283 36.04479
#
# Velocity S-wave (km/s) = 4.01163 4.22756 4.12101
# Velocity P-wave (km/s) = 6.59351 7.00387 6.80179
#
# Compressibility (1/GPa) = 0.02139991
#
# Stress axis : x y z
#
# Youngs Moduli (GPa) = 72.57330 76.46886 67.40569
#
# Poissons Ratio (x) = 0.33771 -0.03578
# Poissons Ratio (y) = 0.32051 0.42199
# Poissons Ratio (z) = -0.03852 0.47873
#
# Static dielectric constant tensor:
#      x y z
#    x 3.939140 0.000000 -0.078720 
#    y 0.000000 3.792840 0.000000 
#    z -0.078720 0.000000 3.876590 
# 
# 
# High freq. dielectric constant tensor:
#      x y z
#    x 1.851740 0.000000 0.002310 
#    y 0.000000 1.817580 0.000000 
#    z 0.002310 0.000000 1.831710 
# 
# From -- ./inp_files/48443.got.cif
#   From: 2010.06.25/outbox.cif.g09.slc.cpg/sg15_25_cif.got.tgz:48443.got - 2010.06.28 07:06:18.
