data_PCOD8148039
_publ_section_title
;
Structure prediction by ZEFSAII (Michael W. Deem and Ramdas Pophale) SiO2 
 PCOD8148039
Probable space group: C 2/C
;
_chemical_formula_sum "Si O2"
_cell_formula_units_Z 48
_cell_length_a 24.491162
_cell_length_b 15.467084
_cell_length_c 8.282345
_cell_angle_alpha 90.000000
_cell_angle_beta 140.389178
_cell_angle_gamma 90.000000
_cell_volume 2000.316392
_symmetry_space_group_name_H-M "C 2/C"
_symmetry_group_IT_number 15
_symmetry_cell_setting 'monoclinic'
loop_
_space_group_symop_operation_xyz
x,y,z
-x,y,1/2-z
-x,-y,-z
x,-y,1/2+z
1/2+x,1/2+y,z
1/2-x,1/2+y,1/2-z
1/2-x,1/2-y,-z
1/2+x,1/2-y,1/2+z
loop_
_atom_site_type_symbol
_atom_site_label
_atom_site_fract_x
_atom_site_fract_y
_atom_site_fract_z
Si Si1 0.205376 0.272293 0.064464
Si Si2 0.000000 0.860654 0.750000
Si Si3 0.513762 0.742041 0.612287
Si Si4 0.716319 0.599459 0.295887
Si Si5 0.094100 0.400503 0.178077
Si Si6 0.825722 0.075373 0.958710
Si Si7 0.000000 0.464334 0.250000
O O1 0.209440 0.190784 0.193248
O O2 0.252349 0.356262 0.241436
O O3 0.250000 0.250000 0.000000
O O4 0.105175 0.291131 0.805889
O O5 0.001822 0.807706 0.588224
O O6 0.912595 0.915451 0.551503
O O7 0.500000 0.686358 0.750000
O O8 0.438493 0.811434 0.471177
O O9 0.804958 0.594454 0.593523
O O10 0.650709 0.588794 0.297671
O O11 0.706915 0.522237 0.145636
O O12 0.060466 0.402336 0.284544
O O13 0.061726 0.480995 0.003112
#
# Coordination Sequence:
#
# PCOD8148039 Si02
#       7
#     8   4   8   8   8   8   4
#     4  12  26  48  73 110 150 197 251 311 377 447
#     4  12  27  50  74 109 144 204 256 310 377 443
#     4  12  25  46  75 108 151 197 251 311 378 455
#     4  12  27  48  76 109 151 196 247 319 377 451
#     4  11  23  41  68 105 146 191 238 305 382 454
#     4  12  27  49  77 110 148 196 258 309 383 452
#     4  10  23  36  62 105 144 186 238 298 369 465
#
# _framework density 23.996203999999999
#
# number of rings (size 3 to 8) (size 9 to 14) (size 15 to 20)
#    0.000    0.333    2.500    6.000    7.000    0.667 
#    1.500    0.000    0.000    0.000    0.000    0.000 
#    0.000    0.000    0.000    0.000    0.000    0.000 
#
# Total GULP energy -297568.149737 kJ/mol
# GULP energy per Si atom -12398.672906 kJ/mol
# Density = 2.394159 g / cm^3
# Si number density = 23.996204 Si / 1000 Ang^3
#
#
#
# Elastic Constant Matrix: (Units=GPa)
#
#
# Indices 1 2 3 4 5 6 
#
# 1 114.6887 3.2225 23.7145 0.0000 -24.3306 0.0000
# 2 3.2225 81.7304 16.5897 0.0000 -0.0268 0.0000
# 3 23.7145 16.5897 90.8871 0.0000 3.6045 0.0000
# 4 0.0000 0.0000 0.0000 30.0953 0.0000 -4.4044
# 5 -24.3306 -0.0268 3.6045 0.0000 55.6686 0.0000
# 6 0.0000 0.0000 0.0000 -4.4044 0.0000 9.9427
#
#
#
# Elastic Compliance Matrix: (Units=1/GPa)
#
#
# Indices 1 2 3 4 5 6 
#
# 1 0.010312 0.000186 -0.002911 0.000000 0.004696 0.000000
# 2 0.000186 0.012711 -0.002378 0.000000 0.000241 0.000000
# 3 -0.002911 -0.002378 0.012278 0.000000 -0.002068 0.000000
# 4 0.000000 0.000000 0.000000 0.035531 0.000000 0.015740
# 5 0.004696 0.000241 -0.002068 0.000000 0.020150 0.000000
# 6 0.000000 0.000000 0.000000 0.015740 0.000000 0.107549
#
#
# Mechanical properties :
#
#
# Convention : Reuss Voigt Hill
#
# Bulk Modulus (GPa) = 39.84886 41.59550 40.72218
# Shear Modulus (GPa) = 23.03064 35.39329 29.21196
#
# Velocity S-wave (km/s) = 3.10136 3.84468 3.49285
# Velocity P-wave (km/s) = 5.42835 6.08938 5.76834
#
# Compressibility (1/GPa) = 0.02509482
#
# Stress axis : x y z
#
# Youngs Moduli (GPa) = 96.97407 78.67309 81.44480
#
# Poissons Ratio (x) = -0.01462 0.23707
# Poissons Ratio (y) = -0.01802 0.19369
# Poissons Ratio (z) = 0.28227 0.18710
#
# Static dielectric constant tensor:
#      x y z
#    x 4.403460 0.000000 0.141810 
#    y 0.000000 4.073060 0.000000 
#    z 0.141810 0.000000 4.464070 
# 
# 
# High freq. dielectric constant tensor:
#      x y z
#    x 1.987470 0.000000 -0.008470 
#    y 0.000000 1.932940 0.000000 
#    z -0.008470 0.000000 1.961610 
# 
# From -- ./inp_files/66529.got.cif
#   From: 2010.06.25/outbox.cif.g09.slc.cpg/sg15_34_cif.got.tgz:66529.got - 2010.06.28 07:06:18.
