data_PCOD8148936
_publ_section_title
;
Structure prediction by ZEFSAII (Michael W. Deem and Ramdas Pophale) SiO2 
 PCOD8148936
Probable space group: C 2/C
;
_chemical_formula_sum "Si O2"
_cell_formula_units_Z 60
_cell_length_a 16.966812
_cell_length_b 19.337096
_cell_length_c 16.967189
_cell_angle_alpha 90.000000
_cell_angle_beta 30.078428
_cell_angle_gamma 90.000000
_cell_volume 2789.969381
_symmetry_space_group_name_H-M "C 2/C"
_symmetry_group_IT_number 15
_symmetry_cell_setting 'monoclinic'
loop_
_space_group_symop_operation_xyz
x,y,z
-x,y,1/2-z
-x,-y,-z
x,-y,1/2+z
1/2+x,1/2+y,z
1/2-x,1/2+y,1/2-z
1/2-x,1/2-y,-z
1/2+x,1/2-y,1/2+z
loop_
_atom_site_type_symbol
_atom_site_label
_atom_site_fract_x
_atom_site_fract_y
_atom_site_fract_z
Si Si1 0.334128 0.214418 0.196542
Si Si2 0.839143 0.958024 0.847124
Si Si3 0.182368 0.421848 0.568763
Si Si4 0.296732 0.185613 0.055993
Si Si5 0.322995 0.160439 0.581408
Si Si6 0.840259 0.085733 0.095985
Si Si7 0.678413 0.541019 0.789284
Si Si8 0.000000 0.736494 0.750000
O O1 0.334817 0.228914 0.102351
O O2 0.293451 0.280788 0.284906
O O3 0.208224 0.153941 0.315703
O O4 0.503062 0.188701 0.077394
O O5 0.737717 0.894878 0.900624
O O6 0.000000 0.934073 0.750000
O O7 0.888318 0.003650 0.730388
O O8 0.726367 0.001142 0.002971
O O9 0.225944 0.365765 0.463253
O O10 0.291568 0.403079 0.547972
O O11 0.000000 0.418685 0.750000
O O12 0.145884 0.215959 0.144178
O O13 0.450640 0.189815 0.867234
O O14 0.316714 0.095244 0.647803
O O15 0.759747 0.015281 0.200557
O O16 0.026505 0.082563 0.951513
#
# Coordination Sequence:
#
# PCOD8148936 Si02
#       8
#     8   8   8   8   8   8   8   4
#     4  12  24  44  67  99 134 179 225 282 330 407
#     4  11  21  40  66  94 131 173 218 276 335 399
#     4  11  24  43  64  98 134 173 225 279 331 398
#     4  11  23  43  65  96 132 177 221 272 340 404
#     4  11  26  44  67  96 137 177 228 275 343 390
#     4  11  22  42  69  97 135 172 227 274 340 393
#     4  10  23  43  67  99 129 180 219 281 334 402
#     4  10  24  42  62  92 138 174 220 272 332 414
#
# _framework density 21.505611999999999
#
# number of rings (size 3 to 8) (size 9 to 14) (size 15 to 20)
#    0.000    1.067    4.667    1.600    0.933    2.133 
#    4.800    0.000    0.000    0.000    0.000    0.000 
#    0.000    0.000    0.000    0.000    0.000    0.000 
#
# Total GULP energy -371997.557170 kJ/mol
# GULP energy per Si atom -12399.918572 kJ/mol
# Density = 2.145666 g / cm^3
# Si number density = 21.505612 Si / 1000 Ang^3
#
#
#
# Elastic Constant Matrix: (Units=GPa)
#
#
# Indices 1 2 3 4 5 6 
#
# 1 91.6373 27.1920 22.6388 -0.0013 21.7525 -0.0055
# 2 27.1920 106.1137 49.5456 -0.0488 13.3373 0.0239
# 3 22.6388 49.5456 103.4687 -0.0394 23.0148 0.0375
# 4 -0.0013 -0.0488 -0.0394 28.0277 0.0046 13.9687
# 5 21.7525 13.3373 23.0148 0.0046 28.9823 -0.0017
# 6 -0.0055 0.0239 0.0375 13.9687 -0.0017 26.1292
#
#
#
# Elastic Compliance Matrix: (Units=1/GPa)
#
#
# Indices 1 2 3 4 5 6 
#
# 1 0.013825 -0.002478 0.000263 -0.000005 -0.009444 0.000007
# 2 -0.002478 0.012615 -0.005612 0.000022 0.000511 -0.000016
# 3 0.000263 -0.005612 0.014288 0.000027 -0.008960 -0.000030
# 4 -0.000005 0.000022 0.000027 0.048638 -0.000037 -0.026002
# 5 -0.009444 0.000511 -0.008960 -0.000037 0.048472 0.000033
# 6 0.000007 -0.000016 -0.000030 -0.026002 0.000033 0.052172
#
#
# Mechanical properties :
#
#
# Convention : Reuss Voigt Hill
#
# Bulk Modulus (GPa) = 39.88515 55.55249 47.71882
# Shear Modulus (GPa) = 23.36195 30.08407 26.72301
#
# Velocity S-wave (km/s) = 3.29951 3.74424 3.52889
# Velocity P-wave (km/s) = 5.75346 6.67683 6.23227
#
# Compressibility (1/GPa) = 0.02507199
#
# Stress axis : x y z
#
# Youngs Moduli (GPa) = 72.33299 79.27056 69.99007
#
# Poissons Ratio (x) = 0.19645 -0.01837
# Poissons Ratio (y) = 0.17926 0.39279
# Poissons Ratio (z) = -0.01899 0.44488
#
# Static dielectric constant tensor:
#      x y z
#    x 3.715590 -0.000050 0.286780 
#    y -0.000050 3.983940 0.000090 
#    z 0.286780 0.000090 4.094900 
# 
# 
# High freq. dielectric constant tensor:
#      x y z
#    x 1.836120 0.000000 0.015470 
#    y 0.000000 1.844800 0.000010 
#    z 0.015470 0.000010 1.856930 
# 
# From -- ./inp_files/211718.got.cif
#   From: 2010.06.25/outbox.cif.g09.slc.cpg/sg15_106_cif.got.tgz:211718.got - 2010.06.28 07:06:18.
