data_PCOD8148235
_publ_section_title
;
Structure prediction by ZEFSAII (Michael W. Deem and Ramdas Pophale) SiO2 
 PCOD8148235
Probable space group: C 2/C
;
_chemical_formula_sum "Si O2"
_cell_formula_units_Z 48
_cell_length_a 24.246183
_cell_length_b 8.659402
_cell_length_c 14.953025
_cell_angle_alpha 90.000000
_cell_angle_beta 130.444629
_cell_angle_gamma 90.000000
_cell_volume 2389.263048
_symmetry_space_group_name_H-M "C 2/C"
_symmetry_group_IT_number 15
_symmetry_cell_setting 'monoclinic'
loop_
_space_group_symop_operation_xyz
x,y,z
-x,y,1/2-z
-x,-y,-z
x,-y,1/2+z
1/2+x,1/2+y,z
1/2-x,1/2+y,1/2-z
1/2-x,1/2-y,-z
1/2+x,1/2-y,1/2+z
loop_
_atom_site_type_symbol
_atom_site_label
_atom_site_fract_x
_atom_site_fract_y
_atom_site_fract_z
Si Si1 0.943269 0.133185 0.436260
Si Si2 0.782687 0.913084 0.730060
Si Si3 0.713654 0.094916 0.495760
Si Si4 0.037651 0.434381 0.125393
Si Si5 0.706187 0.937378 0.309503
Si Si6 0.948744 0.673712 0.124184
O O1 0.867697 0.054980 0.330347
O O2 0.968766 0.248113 0.383401
O O3 0.937736 0.224452 0.524150
O O4 0.000000 0.000000 0.500000
O O5 0.769689 0.735873 0.689043
O O6 0.749479 0.032561 0.624088
O O7 0.746174 0.941289 0.787398
O O8 0.750000 0.250000 0.500000
O O9 0.628956 0.127188 0.419856
O O10 0.727528 0.966031 0.434730
O O11 0.121989 0.475418 0.209919
O O12 0.994924 0.514291 0.161105
O O13 0.000000 0.500000 0.000000
O O14 0.000000 0.765963 0.250000
#
# Coordination Sequence:
#
# PCOD8148235 Si02
#       6
#     8   8   8   8   8   8
#     4  10  23  40  62  94 127 169 208 269 331 373
#     4  11  24  42  64  93 133 167 216 268 322 394
#     4  12  25  41  67  97 127 172 218 269 323 382
#     4   9  19  38  62  87 122 166 212 249 306 387
#     4  11  22  41  62  94 127 168 214 262 325 378
#     4  11  22  41  66  94 126 170 223 259 316 394
#
# _framework density 20.089876
#
# number of rings (size 3 to 8) (size 9 to 14) (size 15 to 20)
#    0.000    1.333    1.667    5.500    2.333    4.000 
#    0.000    2.500    0.000    0.000    0.000    0.000 
#    0.000    0.000    0.000    0.000    0.000    0.000 
#
# Total GULP energy -297501.002233 kJ/mol
# GULP energy per Si atom -12395.875093 kJ/mol
# Density = 2.004415 g / cm^3
# Si number density = 20.089876 Si / 1000 Ang^3
#
#
#
# Elastic Constant Matrix: (Units=GPa)
#
#
# Indices 1 2 3 4 5 6 
#
# 1 116.5124 61.8006 31.2242 0.0000 14.5510 0.0000
# 2 61.8006 88.5678 26.3881 0.0000 18.0832 0.0000
# 3 31.2242 26.3881 112.4685 0.0000 12.0325 0.0000
# 4 0.0000 0.0000 0.0000 27.8354 0.0000 3.2332
# 5 14.5510 18.0832 12.0325 0.0000 41.2706 0.0000
# 6 0.0000 0.0000 0.0000 3.2332 0.0000 31.5492
#
#
#
# Elastic Compliance Matrix: (Units=1/GPa)
#
#
# Indices 1 2 3 4 5 6 
#
# 1 0.013930 -0.009134 -0.001679 0.000000 -0.000420 0.000000
# 2 -0.009134 0.019052 -0.001430 0.000000 -0.004711 0.000000
# 3 -0.001679 -0.001430 0.009871 0.000000 -0.001659 0.000000
# 4 0.000000 0.000000 0.000000 0.036358 0.000000 -0.003726
# 5 -0.000420 -0.004711 -0.001659 0.000000 0.026926 0.000000
# 6 0.000000 0.000000 0.000000 -0.003726 0.000000 0.032078
#
#
# Mechanical properties :
#
#
# Convention : Reuss Voigt Hill
#
# Bulk Modulus (GPa) = 54.45007 61.81939 58.13473
# Shear Modulus (GPa) = 29.61643 33.34010 31.47826
#
# Velocity S-wave (km/s) = 3.84369 4.07817 3.96267
# Velocity P-wave (km/s) = 6.84549 7.28104 7.06662
#
# Compressibility (1/GPa) = 0.01836545
#
# Stress axis : x y z
#
# Youngs Moduli (GPa) = 71.78669 52.48712 101.30994
#
# Poissons Ratio (x) = 0.47942 0.17014
# Poissons Ratio (y) = 0.65571 0.14491
# Poissons Ratio (z) = 0.12056 0.07508
#
# Static dielectric constant tensor:
#      x y z
#    x 4.092770 0.000000 -0.464010 
#    y 0.000000 3.620690 0.000000 
#    z -0.464010 0.000000 4.354860 
# 
# 
# High freq. dielectric constant tensor:
#      x y z
#    x 1.789920 0.000000 0.002060 
#    y 0.000000 1.778070 0.000000 
#    z 0.002060 0.000000 1.805670 
# 
# From -- ./inp_files/176975.got.cif
#   From: 2010.06.25/outbox.cif.g09.slc.cpg/sg15_89_cif.got.tgz:176975.got - 2010.06.28 07:06:18.
