data_PCOD8148652
_publ_section_title
;
Structure prediction by ZEFSAII (Michael W. Deem and Ramdas Pophale) SiO2 
 PCOD8148652
Probable space group: C 2/C
;
_chemical_formula_sum "Si O2"
_cell_formula_units_Z 40
_cell_length_a 17.954805
_cell_length_b 17.877072
_cell_length_c 5.340951
_cell_angle_alpha 90.000000
_cell_angle_beta 97.864973
_cell_angle_gamma 90.000000
_cell_volume 1698.208707
_symmetry_space_group_name_H-M "C 2/C"
_symmetry_group_IT_number 15
_symmetry_cell_setting 'monoclinic'
loop_
_space_group_symop_operation_xyz
x,y,z
-x,y,1/2-z
-x,-y,-z
x,-y,1/2+z
1/2+x,1/2+y,z
1/2-x,1/2+y,1/2-z
1/2-x,1/2-y,-z
1/2+x,1/2-y,1/2+z
loop_
_atom_site_type_symbol
_atom_site_label
_atom_site_fract_x
_atom_site_fract_y
_atom_site_fract_z
Si Si1 0.914040 0.034391 0.651006
Si Si2 0.784347 0.301163 0.216449
Si Si3 0.500000 0.198949 0.250000
Si Si4 0.130691 0.200560 0.910755
Si Si5 0.658160 0.959081 0.359089
Si Si6 0.000000 0.602138 0.750000
O O1 0.906989 0.120202 0.557984
O O2 0.000000 0.012208 0.750000
O O3 0.876770 0.984500 0.407311
O O4 0.857600 0.256805 0.350462
O O5 0.716016 0.317493 0.372221
O O6 0.810015 0.376538 0.097729
O O7 0.750000 0.250000 0.000000
O O8 0.427602 0.251620 0.285496
O O9 0.513935 0.150336 0.504692
O O10 0.568513 0.954403 0.323260
O O11 0.687256 0.005316 0.612305
#
# Coordination Sequence:
#
# PCOD8148652 Si02
#       6
#     8   8   4   8   8   4
#     4  10  23  42  66 102 139 176 228 289 351 409
#     4  11  27  48  71 103 144 191 238 294 348 429
#     4  12  24  43  78 111 132 194 240 296 358 421
#     4  11  25  45  73 102 142 185 243 293 352 424
#     4  12  27  47  73 106 145 190 236 293 360 424
#     4  12  24  45  72 107 150 178 240 298 354 427
#
# _framework density 23.554231999999999
#
# number of rings (size 3 to 8) (size 9 to 14) (size 15 to 20)
#    0.000    0.800    3.000    3.000    8.400    1.600 
#    0.000    0.000    0.000    0.000    0.000    0.000 
#    0.000    0.000    0.000    0.000    0.000    0.000 
#
# Total GULP energy -247774.973581 kJ/mol
# GULP energy per Si atom -12388.748679 kJ/mol
# Density = 2.350062 g / cm^3
# Si number density = 23.554232 Si / 1000 Ang^3
#
#
#
# Elastic Constant Matrix: (Units=GPa)
#
#
# Indices 1 2 3 4 5 6 
#
# 1 27.6385 7.1473 21.2550 0.0000 11.2746 0.0000
# 2 7.1473 138.9513 64.4141 0.0000 6.4394 0.0000
# 3 21.2550 64.4141 150.4324 0.0000 -8.0281 0.0000
# 4 0.0000 0.0000 0.0000 34.9378 0.0000 -8.2901
# 5 11.2746 6.4394 -8.0281 0.0000 28.2575 0.0000
# 6 0.0000 0.0000 0.0000 -8.2901 0.0000 24.4247
#
#
#
# Elastic Compliance Matrix: (Units=1/GPa)
#
#
# Indices 1 2 3 4 5 6 
#
# 1 0.053397 0.003147 -0.010223 0.000000 -0.024927 0.000000
# 2 0.003147 0.009456 -0.004748 0.000000 -0.004760 0.000000
# 3 -0.010223 -0.004748 0.010560 0.000000 0.008161 0.000000
# 4 0.000000 0.000000 0.000000 0.031129 0.000000 0.010566
# 5 -0.024927 -0.004760 0.008161 0.000000 0.048738 0.000000
# 6 0.000000 0.000000 0.000000 0.010566 0.000000 0.044528
#
#
# Mechanical properties :
#
#
# Convention : Reuss Voigt Hill
#
# Bulk Modulus (GPa) = 20.09318 55.85057 37.97187
# Shear Modulus (GPa) = 21.00442 32.47107 26.73774
#
# Velocity S-wave (km/s) = 2.98945 3.71693 3.37286
# Velocity P-wave (km/s) = 4.52381 6.49490 5.59681
#
# Compressibility (1/GPa) = 0.04976814
#
# Stress axis : x y z
#
# Youngs Moduli (GPa) = 18.72750 105.74801 94.69306
#
# Poissons Ratio (x) = -0.33284 0.96802
# Poissons Ratio (y) = -0.05894 0.44959
# Poissons Ratio (z) = 0.19144 0.50208
#
# Static dielectric constant tensor:
#      x y z
#    x 3.937970 0.000000 0.107410 
#    y 0.000000 4.176320 0.000000 
#    z 0.107410 0.000000 4.329980 
# 
# 
# High freq. dielectric constant tensor:
#      x y z
#    x 1.931300 0.000000 0.014140 
#    y 0.000000 1.943500 0.000000 
#    z 0.014140 0.000000 1.931170 
# 
# From -- ./inp_files/9920.got.cif
#   From: 2010.06.25/outbox.cif.g09.slc.cpg/sg15_5_cif.got.tgz:9920.got - 2010.06.28 07:06:18.
