data_PCOD8148059
_publ_section_title
;
Structure prediction by ZEFSAII (Michael W. Deem and Ramdas Pophale) SiO2 
 PCOD8148059
Probable space group: C 2/C
;
_chemical_formula_sum "Si O2"
_cell_formula_units_Z 56
_cell_length_a 27.355152
_cell_length_b 9.165263
_cell_length_c 12.237755
_cell_angle_alpha 90.000000
_cell_angle_beta 121.145408
_cell_angle_gamma 90.000000
_cell_volume 2625.954854
_symmetry_space_group_name_H-M "C 2/C"
_symmetry_group_IT_number 15
_symmetry_cell_setting 'monoclinic'
loop_
_space_group_symop_operation_xyz
x,y,z
-x,y,1/2-z
-x,-y,-z
x,-y,1/2+z
1/2+x,1/2+y,z
1/2-x,1/2+y,1/2-z
1/2-x,1/2-y,-z
1/2+x,1/2-y,1/2+z
loop_
_atom_site_type_symbol
_atom_site_label
_atom_site_fract_x
_atom_site_fract_y
_atom_site_fract_z
Si Si1 0.643064 0.711647 0.733664
Si Si2 0.190706 0.919316 0.854931
Si Si3 0.114448 0.496601 0.326224
Si Si4 0.922602 0.220249 0.310087
Si Si5 0.500000 0.573659 0.250000
Si Si6 0.807454 0.712014 0.444673
Si Si7 0.985949 0.837181 0.404966
Si Si8 0.000000 0.401302 0.750000
O O1 0.686428 0.596139 0.842214
O O2 0.665543 0.755905 0.640922
O O3 0.580902 0.636188 0.647630
O O4 0.640269 0.853884 0.808386
O O5 0.134833 0.864202 0.725513
O O6 0.244184 0.851808 0.851828
O O7 0.192673 0.860734 0.982810
O O8 0.093032 0.391478 0.202794
O O9 0.161086 0.416261 0.453266
O O10 0.058481 0.511999 0.338157
O O11 0.944182 0.172948 0.212391
O O12 0.976469 0.175318 0.444200
O O13 0.513702 0.468040 0.368064
O O14 0.990077 0.686048 0.348409
#
# Coordination Sequence:
#
# PCOD8148059 Si02
#       8
#     8   8   8   8   4   8   8   4
#     4  11  24  44  68  98 132 174 226 281 336 407
#     4  10  24  46  64  98 129 173 231 272 331 414
#     4  10  24  41  63  99 130 175 227 266 342 401
#     4  11  23  37  65  94 132 171 218 270 330 403
#     4  11  21  38  60  98 136 176 222 272 334 402
#     4  10  25  46  69  93 136 176 223 287 332 388
#     4  10  23  37  62  98 132 168 224 266 335 404
#     4   9  21  40  56  92 132 164 208 272 324 402
#
# _framework density 21.325576000000002
#
# number of rings (size 3 to 8) (size 9 to 14) (size 15 to 20)
#    0.000    1.714    1.429    0.857    8.000    5.143 
#    0.000    0.000    0.000    0.000    0.000    0.000 
#    0.000    0.000    0.000    0.000    0.000    0.000 
#
# Total GULP energy -346981.687487 kJ/mol
# GULP energy per Si atom -12392.203125 kJ/mol
# Density = 2.127704 g / cm^3
# Si number density = 21.325576 Si / 1000 Ang^3
#
#
#
# Elastic Constant Matrix: (Units=GPa)
#
#
# Indices 1 2 3 4 5 6 
#
# 1 130.3680 41.4772 64.6482 0.0000 -2.7607 0.0000
# 2 41.4772 136.3529 56.7392 0.0000 0.1441 0.0000
# 3 64.6482 56.7392 84.0622 0.0000 7.2163 0.0000
# 4 0.0000 0.0000 0.0000 30.4367 0.0000 5.0197
# 5 -2.7607 0.1441 7.2163 0.0000 30.5570 0.0000
# 6 0.0000 0.0000 0.0000 5.0197 0.0000 25.3495
#
#
#
# Elastic Compliance Matrix: (Units=1/GPa)
#
#
# Indices 1 2 3 4 5 6 
#
# 1 0.012785 0.000456 -0.010451 0.000000 0.003621 0.000000
# 2 0.000456 0.010293 -0.007448 0.000000 0.001752 0.000000
# 3 -0.010451 -0.007448 0.025556 0.000000 -0.006944 0.000000
# 4 0.000000 0.000000 0.000000 0.033964 0.000000 -0.006726
# 5 0.003621 0.001752 -0.006944 0.000000 0.034685 0.000000
# 6 0.000000 0.000000 0.000000 -0.006726 0.000000 0.040780
#
#
# Mechanical properties :
#
#
# Convention : Reuss Voigt Hill
#
# Bulk Modulus (GPa) = 72.73806 75.16805 73.95305
# Shear Modulus (GPa) = 25.31244 29.79654 27.55449
#
# Velocity S-wave (km/s) = 3.44895 3.74200 3.59846
# Velocity P-wave (km/s) = 7.07409 7.34809 7.21239
#
# Compressibility (1/GPa) = 0.01374796
#
# Stress axis : x y z
#
# Youngs Moduli (GPa) = 78.21945 97.15577 39.12907
#
# Poissons Ratio (x) = -0.04430 0.40892
# Poissons Ratio (y) = -0.03566 0.29144
# Poissons Ratio (z) = 0.81744 0.72364
#
# Static dielectric constant tensor:
#      x y z
#    x 4.083070 0.000000 0.113820 
#    y 0.000000 4.156770 0.000000 
#    z 0.113820 0.000000 3.668250 
# 
# 
# High freq. dielectric constant tensor:
#      x y z
#    x 1.848450 0.000000 0.006070 
#    y 0.000000 1.855200 0.000000 
#    z 0.006070 0.000000 1.808210 
# 
# From -- ./inp_files/122023.got.cif
#   From: 2010.06.25/outbox.cif.g09.slc.cpg/sg15_62_cif.got.tgz:122023.got - 2010.06.28 07:06:18.
