data_PCOD8148447
_publ_section_title
;
Structure prediction by ZEFSAII (Michael W. Deem and Ramdas Pophale) SiO2 
 PCOD8148447
Probable space group: C 2/C
;
_chemical_formula_sum "Si O2"
_cell_formula_units_Z 52
_cell_length_a 19.214375
_cell_length_b 6.975655
_cell_length_c 17.971125
_cell_angle_alpha 90.000000
_cell_angle_beta 81.808923
_cell_angle_gamma 90.000000
_cell_volume 2384.148386
_symmetry_space_group_name_H-M "C 2/C"
_symmetry_group_IT_number 15
_symmetry_cell_setting 'monoclinic'
loop_
_space_group_symop_operation_xyz
x,y,z
-x,y,1/2-z
-x,-y,-z
x,-y,1/2+z
1/2+x,1/2+y,z
1/2-x,1/2+y,1/2-z
1/2-x,1/2-y,-z
1/2+x,1/2-y,1/2+z
loop_
_atom_site_type_symbol
_atom_site_label
_atom_site_fract_x
_atom_site_fract_y
_atom_site_fract_z
Si Si1 0.158228 0.620431 0.397006
Si Si2 0.644374 0.803132 0.287127
Si Si3 0.473732 0.716517 0.508970
Si Si4 0.231259 0.056539 0.824127
Si Si5 0.500000 0.906919 0.250000
Si Si6 0.438021 0.978275 0.905739
Si Si7 0.716528 0.945752 0.531751
O O1 0.134488 0.414733 0.367120
O O2 0.092681 0.755833 0.427065
O O3 0.198437 0.730386 0.324359
O O4 0.207124 0.583821 0.461979
O O5 0.692769 0.934096 0.226122
O O6 0.680288 0.597775 0.293412
O O7 0.567312 0.775573 0.261763
O O8 0.500000 0.500000 0.500000
O O9 0.537394 0.835524 0.533749
O O10 0.452848 0.802217 0.431057
O O11 0.231580 0.025869 0.913344
O O12 0.523127 0.047360 0.179108
O O13 0.356401 0.925117 0.912081
O O14 0.750000 0.750000 0.500000
#
# Coordination Sequence:
#
# PCOD8148447 Si02
#       7
#     8   8   8   8   4   8   8
#     4  11  24  42  68 100 132 181 229 292 343 416
#     4  12  25  45  70  99 141 185 233 287 350 420
#     4  10  23  41  65  96 131 177 227 277 348 412
#     4  12  25  44  70 100 139 184 233 284 350 418
#     4  12  24  46  68  98 146 182 224 292 354 412
#     4  10  23  42  65  95 136 176 226 287 344 409
#     4  11  23  42  69 101 134 177 234 291 349 408
#
# _framework density 21.810721000000001
#
# number of rings (size 3 to 8) (size 9 to 14) (size 15 to 20)
#    0.000    0.923    6.154    0.462    4.308    0.000 
#    0.000    4.615    0.000    0.000    0.000    0.000 
#    0.000    0.000    0.000    0.000    0.000    0.000 
#
# Total GULP energy -322256.812648 kJ/mol
# GULP energy per Si atom -12394.492794 kJ/mol
# Density = 2.176108 g / cm^3
# Si number density = 21.810721 Si / 1000 Ang^3
#
#
#
# Elastic Constant Matrix: (Units=GPa)
#
#
# Indices 1 2 3 4 5 6 
#
# 1 125.4952 45.8825 33.2149 0.0000 0.0649 0.0000
# 2 45.8825 111.0612 34.0473 0.0000 -3.7203 0.0000
# 3 33.2149 34.0473 108.5624 0.0000 -7.8284 0.0000
# 4 0.0000 0.0000 0.0000 30.4552 0.0000 -4.8742
# 5 0.0649 -3.7203 -7.8284 0.0000 42.3117 0.0000
# 6 0.0000 0.0000 0.0000 -4.8742 0.0000 32.2295
#
#
#
# Elastic Compliance Matrix: (Units=1/GPa)
#
#
# Indices 1 2 3 4 5 6 
#
# 1 0.009747 -0.003452 -0.001948 0.000000 -0.000679 0.000000
# 2 -0.003452 0.011188 -0.002414 0.000000 0.000542 0.000000
# 3 -0.001948 -0.002414 0.010692 0.000000 0.001769 0.000000
# 4 0.000000 0.000000 0.000000 0.033650 0.000000 0.005089
# 5 -0.000679 0.000542 0.001769 0.000000 0.024010 0.000000
# 6 0.000000 0.000000 0.000000 0.005089 0.000000 0.031797
#
#
# Mechanical properties :
#
#
# Convention : Reuss Voigt Hill
#
# Bulk Modulus (GPa) = 62.50451 63.48980 62.99716
# Shear Modulus (GPa) = 35.20026 36.46420 35.83223
#
# Velocity S-wave (km/s) = 4.02169 4.09326 4.05763
# Velocity P-wave (km/s) = 7.09121 7.17721 7.13434
#
# Compressibility (1/GPa) = 0.01599884
#
# Stress axis : x y z
#
# Youngs Moduli (GPa) = 102.60040 89.37938 93.52886
#
# Poissons Ratio (x) = 0.30854 0.18222
# Poissons Ratio (y) = 0.35418 0.22574
# Poissons Ratio (z) = 0.19990 0.21572
#
# Static dielectric constant tensor:
#      x y z
#    x 4.097630 0.000000 0.050550 
#    y 0.000000 3.677940 0.000000 
#    z 0.050550 0.000000 4.067280 
# 
# 
# High freq. dielectric constant tensor:
#      x y z
#    x 1.868170 0.000000 -0.005320 
#    y 0.000000 1.834180 0.000000 
#    z -0.005320 0.000000 1.868040 
# 
# From -- ./inp_files/251045.got.cif
#   From: 2010.06.25/outbox.cif.g09.slc.cpg/sg15_126_cif.got.tgz:251045.got - 2010.06.28 07:06:18.
