data_PCOD8148982
_publ_section_title
;
Structure prediction by ZEFSAII (Michael W. Deem and Ramdas Pophale) SiO2 
 PCOD8148982
Probable space group: C 2/C
;
_chemical_formula_sum "Si O2"
_cell_formula_units_Z 32
_cell_length_a 10.511387
_cell_length_b 13.388135
_cell_length_c 9.796556
_cell_angle_alpha 90.000000
_cell_angle_beta 102.076869
_cell_angle_gamma 90.000000
_cell_volume 1348.135895
_symmetry_space_group_name_H-M "C 2/C"
_symmetry_group_IT_number 15
_symmetry_cell_setting 'monoclinic'
loop_
_space_group_symop_operation_xyz
x,y,z
-x,y,1/2-z
-x,-y,-z
x,-y,1/2+z
1/2+x,1/2+y,z
1/2-x,1/2+y,1/2-z
1/2-x,1/2-y,-z
1/2+x,1/2-y,1/2+z
loop_
_atom_site_type_symbol
_atom_site_label
_atom_site_fract_x
_atom_site_fract_y
_atom_site_fract_z
Si Si1 0.856606 0.020924 0.726243
Si Si2 0.500000 0.846667 0.750000
Si Si3 0.500000 0.328489 0.750000
Si Si4 0.810106 0.501211 0.062081
Si Si5 0.109880 0.706770 0.004429
O O1 0.871665 0.899245 0.726709
O O2 0.770178 0.053831 0.577976
O O3 0.000000 0.071477 0.750000
O O4 0.789064 0.050949 0.852796
O O5 0.570819 0.776131 0.654074
O O6 0.606298 0.914908 0.847004
O O7 0.503025 0.260029 0.885221
O O8 0.899696 0.412496 0.023783
O O9 0.250000 0.750000 0.000000
#
# Coordination Sequence:
#
# PCOD8148982 Si02
#       5
#     8   4   4   8   8
#     4  10  23  43  69  98 135 182 232 272 343 403
#     4  12  27  44  69 110 130 188 228 274 353 412
#     4  10  23  44  65  94 140 174 224 286 337 398
#     4  12  22  45  69  98 140 175 235 278 333 421
#     4  12  24  47  66 103 141 174 226 288 344 402
#
# _framework density 23.73648
#
# number of rings (size 3 to 8) (size 9 to 14) (size 15 to 20)
#    0.750    0.000    5.000    2.250    3.500    0.000 
#    6.750    2.500    0.000    0.000    0.000    0.000 
#    0.000    0.000    0.000    0.000    0.000    0.000 
#
# Total GULP energy -198437.399957 kJ/mol
# GULP energy per Si atom -12402.337497 kJ/mol
# Density = 2.368245 g / cm^3
# Si number density = 23.736480 Si / 1000 Ang^3
#
#
#
# Elastic Constant Matrix: (Units=GPa)
#
#
# Indices 1 2 3 4 5 6 
#
# 1 79.3055 8.7787 46.3454 0.0000 -9.0859 0.0000
# 2 8.7787 45.3354 21.0381 0.0000 6.1626 0.0000
# 3 46.3454 21.0381 178.5798 0.0000 -11.5013 0.0000
# 4 0.0000 0.0000 0.0000 22.5477 0.0000 -11.6079
# 5 -9.0859 6.1626 -11.5013 0.0000 59.7331 0.0000
# 6 0.0000 0.0000 0.0000 -11.6079 0.0000 18.5461
#
#
#
# Elastic Compliance Matrix: (Units=1/GPa)
#
#
# Indices 1 2 3 4 5 6 
#
# 1 0.015095 -0.001476 -0.003631 0.000000 0.001749 0.000000
# 2 -0.001476 0.024011 -0.002653 0.000000 -0.003212 0.000000
# 3 -0.003631 -0.002653 0.006922 0.000000 0.001054 0.000000
# 4 0.000000 0.000000 0.000000 0.065435 0.000000 0.040955
# 5 0.001749 -0.003212 0.001054 0.000000 0.017542 0.000000
# 6 0.000000 0.000000 0.000000 0.040955 0.000000 0.079553
#
#
# Mechanical properties :
#
#
# Convention : Reuss Voigt Hill
#
# Bulk Modulus (GPa) = 32.77609 50.61611 41.69610
# Shear Modulus (GPa) = 21.34492 35.30261 28.32376
#
# Velocity S-wave (km/s) = 3.00200 3.86070 3.45811
# Velocity P-wave (km/s) = 5.08471 6.42214 5.79215
#
# Compressibility (1/GPa) = 0.03051004
#
# Stress axis : x y z
#
# Youngs Moduli (GPa) = 66.24644 41.64715 144.45730
#
# Poissons Ratio (x) = 0.06146 0.52453
# Poissons Ratio (y) = 0.09777 0.38319
# Poissons Ratio (z) = 0.24054 0.11047
#
# Static dielectric constant tensor:
#      x y z
#    x 4.151480 0.000000 -0.131400 
#    y 0.000000 3.941320 0.000000 
#    z -0.131400 0.000000 4.550210 
# 
# 
# High freq. dielectric constant tensor:
#      x y z
#    x 1.937990 0.000000 0.000360 
#    y 0.000000 1.916230 0.000000 
#    z 0.000360 0.000000 1.957410 
# 
# From -- ./inp_files/27997.got.cif
#   From: 2010.06.25/outbox.cif.g09.slc.cpg/sg15_14_cif.got.tgz:27997.got - 2010.06.28 07:06:18.
