data_PCOD8148788
_publ_section_title
;
Structure prediction by ZEFSAII (Michael W. Deem and Ramdas Pophale) SiO2 
 PCOD8148788
Probable space group: C 2/C
;
_chemical_formula_sum "Si O2"
_cell_formula_units_Z 48
_cell_length_a 14.142521
_cell_length_b 11.158668
_cell_length_c 21.225311
_cell_angle_alpha 90.000000
_cell_angle_beta 138.583858
_cell_angle_gamma 90.000000
_cell_volume 2215.839552
_symmetry_space_group_name_H-M "C 2/C"
_symmetry_group_IT_number 15
_symmetry_cell_setting 'monoclinic'
loop_
_space_group_symop_operation_xyz
x,y,z
-x,y,1/2-z
-x,-y,-z
x,-y,1/2+z
1/2+x,1/2+y,z
1/2-x,1/2+y,1/2-z
1/2-x,1/2-y,-z
1/2+x,1/2-y,1/2+z
loop_
_atom_site_type_symbol
_atom_site_label
_atom_site_fract_x
_atom_site_fract_y
_atom_site_fract_z
Si Si1 0.471822 0.299617 0.473622
Si Si2 0.476332 0.001314 0.807330
Si Si3 0.671273 0.144262 0.995697
Si Si4 0.411366 0.758244 0.598635
Si Si5 0.052015 0.999152 0.343214
Si Si6 0.149633 0.964630 0.640310
O O1 0.389740 0.196877 0.470299
O O2 0.500934 0.236609 0.422252
O O3 0.615644 0.346120 0.581316
O O4 0.375372 0.417712 0.414894
O O5 0.500000 0.058921 0.750000
O O6 0.563707 0.877685 0.849383
O O7 0.313427 0.969785 0.743478
O O8 0.538798 0.093808 0.889253
O O9 0.750000 0.250000 0.000000
O O10 0.784412 0.038771 0.064625
O O11 0.250000 0.750000 0.500000
O O12 0.456648 0.644329 0.662680
O O13 0.000000 0.050130 0.250000
O O14 0.951658 0.046927 0.349185
#
# Coordination Sequence:
#
# PCOD8148788 Si02
#       6
#     8   8   8   8   8   8
#     4  10  23  42  71  94 142 177 227 280 345 406
#     4  12  26  42  71 100 135 178 237 279 345 415
#     4  12  25  45  70 102 136 183 223 289 345 412
#     4  11  23  44  69  95 133 186 225 282 345 405
#     4  11  25  44  70  99 142 177 231 285 349 408
#     4  10  23  45  67 101 135 184 224 283 348 408
#
# _framework density 21.662217999999999
#
# number of rings (size 3 to 8) (size 9 to 14) (size 15 to 20)
#    0.000    1.000    3.333    2.500    4.667    6.667 
#    0.000    0.000    0.000    0.000    0.000    0.000 
#    0.000    0.000    0.000    0.000    0.000    0.000 
#
# Total GULP energy -297675.088107 kJ/mol
# GULP energy per Si atom -12403.128671 kJ/mol
# Density = 2.161291 g / cm^3
# Si number density = 21.662218 Si / 1000 Ang^3
#
#
#
# Elastic Constant Matrix: (Units=GPa)
#
#
# Indices 1 2 3 4 5 6 
#
# 1 97.8207 29.3164 45.6396 0.0000 -0.1599 0.0000
# 2 29.3164 77.4679 23.1391 0.0000 -4.7430 0.0000
# 3 45.6396 23.1391 125.2414 0.0000 6.9168 0.0000
# 4 0.0000 0.0000 0.0000 29.0465 0.0000 -1.0637
# 5 -0.1599 -4.7430 6.9168 0.0000 44.6237 0.0000
# 6 0.0000 0.0000 0.0000 -1.0637 0.0000 30.5590
#
#
#
# Elastic Compliance Matrix: (Units=1/GPa)
#
#
# Indices 1 2 3 4 5 6 
#
# 1 0.013296 -0.003770 -0.004165 0.000000 0.000293 0.000000
# 2 -0.003770 0.014886 -0.001476 0.000000 0.001797 0.000000
# 3 -0.004165 -0.001476 0.009869 0.000000 -0.001702 0.000000
# 4 0.000000 0.000000 0.000000 0.034471 0.000000 0.001200
# 5 0.000293 0.001797 -0.001702 0.000000 0.022865 0.000000
# 6 0.000000 0.000000 0.000000 0.001200 0.000000 0.032765
#
#
# Mechanical properties :
#
#
# Convention : Reuss Voigt Hill
#
# Bulk Modulus (GPa) = 52.00168 55.19114 53.59641
# Shear Modulus (GPa) = 32.59775 34.34150 33.46963
#
# Velocity S-wave (km/s) = 3.88341 3.98592 3.93500
# Velocity P-wave (km/s) = 6.64572 6.83497 6.74101
#
# Compressibility (1/GPa) = 0.01923015
#
# Stress axis : x y z
#
# Youngs Moduli (GPa) = 75.20891 67.17697 101.32744
#
# Poissons Ratio (x) = 0.25324 0.42203
# Poissons Ratio (y) = 0.28352 0.14954
# Poissons Ratio (z) = 0.31325 0.09914
#
# Static dielectric constant tensor:
#      x y z
#    x 3.697270 0.000000 0.327250 
#    y 0.000000 3.855180 0.000000 
#    z 0.327250 0.000000 3.954480 
# 
# 
# High freq. dielectric constant tensor:
#      x y z
#    x 1.856930 0.000000 -0.003750 
#    y 0.000000 1.848640 0.000000 
#    z -0.003750 0.000000 1.857170 
# 
# From -- ./inp_files/243981.got.cif
#   From: 2010.06.25/outbox.cif.g09.slc.cpg/sg15_122_cif.got.tgz:243981.got - 2010.06.28 07:06:18.
