data_PCOD8148255
_publ_section_title
;
Structure prediction by ZEFSAII (Michael W. Deem and Ramdas Pophale) SiO2 
 PCOD8148255
Probable space group: C 2/C
;
_chemical_formula_sum "Si O2"
_cell_formula_units_Z 64
_cell_length_a 15.768431
_cell_length_b 11.608190
_cell_length_c 28.108657
_cell_angle_alpha 90.000000
_cell_angle_beta 140.335855
_cell_angle_gamma 90.000000
_cell_volume 3284.040836
_symmetry_space_group_name_H-M "C 2/C"
_symmetry_group_IT_number 15
_symmetry_cell_setting 'monoclinic'
loop_
_space_group_symop_operation_xyz
x,y,z
-x,y,1/2-z
-x,-y,-z
x,-y,1/2+z
1/2+x,1/2+y,z
1/2-x,1/2+y,1/2-z
1/2-x,1/2-y,-z
1/2+x,1/2-y,1/2+z
loop_
_atom_site_type_symbol
_atom_site_label
_atom_site_fract_x
_atom_site_fract_y
_atom_site_fract_z
Si Si1 0.684244 0.602125 0.094046
Si Si2 0.595274 0.640121 0.572580
Si Si3 0.558736 0.384271 0.167821
Si Si4 0.183587 0.725713 0.673887
Si Si5 0.035524 0.148450 0.188141
Si Si6 0.634490 0.063739 0.569799
Si Si7 0.212051 0.230498 0.929846
Si Si8 0.793291 0.158370 0.145665
O O1 0.697067 0.464860 0.105730
O O2 0.727336 0.663620 0.161712
O O3 0.783327 0.646171 0.095271
O O4 0.531718 0.633502 0.016240
O O5 0.549226 0.635441 0.607318
O O6 0.667414 0.757847 0.589596
O O7 0.689259 0.323667 0.244099
O O8 0.557090 0.518686 0.179412
O O9 0.432759 0.324483 0.138456
O O10 0.070188 0.762610 0.661663
O O11 0.117214 0.629913 0.611936
O O12 0.129287 0.179317 0.272457
O O13 0.884801 0.174818 0.138603
O O14 0.674856 0.150621 0.545129
O O15 0.500000 0.000000 0.500000
O O16 0.751588 0.973651 0.627080
O O17 0.250000 0.250000 0.000000
#
# Coordination Sequence:
#
# PCOD8148255 Si02
#       8
#     8   8   8   8   8   8   8   8
#     4  10  23  40  64  91 132 162 212 255 324 379
#     4  11  22  42  64  91 128 175 200 262 326 380
#     4  12  22  41  69  90 128 171 215 261 322 380
#     4  11  23  41  67  95 122 168 219 261 315 384
#     4  11  23  41  62  95 127 164 212 264 318 384
#     4  11  24  41  63  93 130 166 211 268 318 382
#     4  11  23  42  64  96 123 168 217 262 313 384
#     4  11  22  40  63  92 128 165 208 261 324 378
#
# _framework density 19.488185999999999
#
# number of rings (size 3 to 8) (size 9 to 14) (size 15 to 20)
#    0.000    1.000    6.250    1.500    0.000    2.000 
#    2.250    3.750    0.000    0.000    0.000    0.000 
#    0.000    0.000    0.000    0.000    0.000    0.000 
#
# Total GULP energy -396876.283936 kJ/mol
# GULP energy per Si atom -12402.383873 kJ/mol
# Density = 1.944383 g / cm^3
# Si number density = 19.488186 Si / 1000 Ang^3
#
#
#
# Elastic Constant Matrix: (Units=GPa)
#
#
# Indices 1 2 3 4 5 6 
#
# 1 136.9603 44.4253 27.8479 0.0000 -8.7848 0.0000
# 2 44.4253 86.9980 19.0703 0.0000 0.9508 0.0000
# 3 27.8479 19.0703 50.9652 0.0000 -5.3404 0.0000
# 4 0.0000 0.0000 0.0000 29.8479 0.0000 3.3125
# 5 -8.7848 0.9508 -5.3404 0.0000 30.4850 0.0000
# 6 0.0000 0.0000 0.0000 3.3125 0.0000 41.6236
#
#
#
# Elastic Compliance Matrix: (Units=1/GPa)
#
#
# Indices 1 2 3 4 5 6 
#
# 1 0.009473 -0.004117 -0.003398 0.000000 0.002263 0.000000
# 2 -0.004117 0.014357 -0.003355 0.000000 -0.002222 0.000000
# 3 -0.003398 -0.003355 0.023065 0.000000 0.003166 0.000000
# 4 0.000000 0.000000 0.000000 0.033802 0.000000 -0.002690
# 5 0.002263 -0.002222 0.003166 0.000000 0.034079 0.000000
# 6 0.000000 0.000000 0.000000 -0.002690 0.000000 0.024239
#
#
# Mechanical properties :
#
#
# Convention : Reuss Voigt Hill
#
# Bulk Modulus (GPa) = 39.75595 50.84561 45.30078
# Shear Modulus (GPa) = 29.56115 32.62995 31.09555
#
# Velocity S-wave (km/s) = 3.89893 4.09632 3.99884
# Velocity P-wave (km/s) = 6.38069 6.96564 6.67957
#
# Compressibility (1/GPa) = 0.02515347
#
# Stress axis : x y z
#
# Youngs Moduli (GPa) = 105.56318 69.65402 43.35496
#
# Poissons Ratio (x) = 0.28678 0.14734
# Poissons Ratio (y) = 0.43462 0.14546
# Poissons Ratio (z) = 0.35875 0.23370
#
# Static dielectric constant tensor:
#      x y z
#    x 3.724900 0.000000 -0.085470 
#    y 0.000000 3.849630 0.000000 
#    z -0.085470 0.000000 3.474390 
# 
# 
# High freq. dielectric constant tensor:
#      x y z
#    x 1.763920 0.000000 -0.008930 
#    y 0.000000 1.769120 0.000000 
#    z -0.008930 0.000000 1.756440 
# 
# From -- ./inp_files/296173.got.cif
#   From: 2010.06.25/outbox.cif.g09.slc.cpg/sg15_149_cif.got.tgz:296173.got - 2010.06.28 07:06:18.
