data_PCOD8148125
_publ_section_title
;
Structure prediction by ZEFSAII (Michael W. Deem and Ramdas Pophale) SiO2 
 PCOD8148125
Probable space group: C 2/C
;
_chemical_formula_sum "Si O2"
_cell_formula_units_Z 40
_cell_length_a 14.287963
_cell_length_b 16.037508
_cell_length_c 8.887812
_cell_angle_alpha 90.000000
_cell_angle_beta 88.002226
_cell_angle_gamma 90.000000
_cell_volume 2035.344886
_symmetry_space_group_name_H-M "C 2/C"
_symmetry_group_IT_number 15
_symmetry_cell_setting 'monoclinic'
loop_
_space_group_symop_operation_xyz
x,y,z
-x,y,1/2-z
-x,-y,-z
x,-y,1/2+z
1/2+x,1/2+y,z
1/2-x,1/2+y,1/2-z
1/2-x,1/2-y,-z
1/2+x,1/2-y,1/2+z
loop_
_atom_site_type_symbol
_atom_site_label
_atom_site_fract_x
_atom_site_fract_y
_atom_site_fract_z
Si Si1 0.897021 0.033479 0.042758
Si Si2 0.649640 0.394944 0.644851
Si Si3 0.976336 0.266123 0.413717
Si Si4 0.155720 0.788538 0.073393
Si Si5 0.683509 0.791056 0.881195
O O1 0.892899 0.050318 0.219153
O O2 0.860226 0.113621 0.952208
O O3 0.832036 0.955335 0.998490
O O4 0.000000 0.000000 0.000000
O O5 0.574603 0.323035 0.608745
O O6 0.752362 0.363711 0.693380
O O7 0.908033 0.322961 0.521586
O O8 0.000000 0.307062 0.250000
O O9 0.072457 0.259669 0.496609
O O10 0.152285 0.772858 0.252778
O O11 0.250000 0.750000 0.000000
O O12 0.750000 0.750000 0.000000
#
# Coordination Sequence:
#
# PCOD8148125 Si02
#       5
#     8   8   8   8   8
#     4  12  23  37  64  93 136 169 208 267 337 382
#     4  11  23  41  57  97 136 164 213 273 326 396
#     4  11  20  40  62  90 129 162 216 275 317 390
#     4  12  22  39  64  93 128 177 213 261 330 394
#     4  10  23  39  59  88 129 170 222 266 319 394
#
# _framework density 19.652688999999999
#
# number of rings (size 3 to 8) (size 9 to 14) (size 15 to 20)
#    0.000    0.800    6.000    2.400    5.600    1.600 
#    0.000    0.000    0.000    1.200    0.000    0.000 
#    0.000    0.000    0.000    0.000    0.000    0.000 
#
# Total GULP energy -247807.031222 kJ/mol
# GULP energy per Si atom -12390.351561 kJ/mol
# Density = 1.960796 g / cm^3
# Si number density = 19.652689 Si / 1000 Ang^3
#
#
#
# Elastic Constant Matrix: (Units=GPa)
#
#
# Indices 1 2 3 4 5 6 
#
# 1 145.1434 35.4934 50.3924 0.0000 -8.8862 0.0000
# 2 35.4934 59.9455 18.4761 0.0000 -4.6477 0.0000
# 3 50.3924 18.4761 122.8281 0.0000 -0.7663 0.0000
# 4 0.0000 0.0000 0.0000 33.9715 0.0000 3.7482
# 5 -8.8862 -4.6477 -0.7663 0.0000 44.1683 0.0000
# 6 0.0000 0.0000 0.0000 3.7482 0.0000 34.9921
#
#
#
# Elastic Compliance Matrix: (Units=1/GPa)
#
#
# Indices 1 2 3 4 5 6 
#
# 1 0.009098 -0.004338 -0.003072 0.000000 0.001321 0.000000
# 2 -0.004338 0.019704 -0.001177 0.000000 0.001180 0.000000
# 3 -0.003072 -0.001177 0.009575 0.000000 -0.000576 0.000000
# 4 0.000000 0.000000 0.000000 0.029788 0.000000 -0.003191
# 5 0.001321 0.001180 -0.000576 0.000000 0.023021 0.000000
# 6 0.000000 0.000000 0.000000 -0.003191 0.000000 0.028920
#
#
# Mechanical properties :
#
#
# Convention : Reuss Voigt Hill
#
# Bulk Modulus (GPa) = 47.15989 59.62676 53.39332
# Shear Modulus (GPa) = 34.63869 37.53005 36.08437
#
# Velocity S-wave (km/s) = 4.20282 4.37471 4.28963
# Velocity P-wave (km/s) = 6.89930 7.47821 7.19458
#
# Compressibility (1/GPa) = 0.02120446
#
# Stress axis : x y z
#
# Youngs Moduli (GPa) = 109.91649 50.75015 104.43649
#
# Poissons Ratio (x) = 0.22013 0.32081
# Poissons Ratio (y) = 0.47677 0.12293
# Poissons Ratio (z) = 0.33765 0.05974
#
# Static dielectric constant tensor:
#      x y z
#    x 4.491270 0.000000 -0.244850 
#    y 0.000000 3.994350 0.000000 
#    z -0.244850 0.000000 4.087740 
# 
# 
# High freq. dielectric constant tensor:
#      x y z
#    x 1.776440 0.000000 0.002170 
#    y 0.000000 1.720470 0.000000 
#    z 0.002170 0.000000 1.791180 
# 
# From -- ./inp_files/38595.got.cif
#   From: 2010.06.25/outbox.cif.g09.slc.cpg/sg15_20_cif.got.tgz:38595.got - 2010.06.28 07:06:18.
