data_PCOD8148087
_publ_section_title
;
Structure prediction by ZEFSAII (Michael W. Deem and Ramdas Pophale) SiO2 
 PCOD8148087
Probable space group: C 2/C
;
_chemical_formula_sum "Si O2"
_cell_formula_units_Z 56
_cell_length_a 11.539830
_cell_length_b 14.910357
_cell_length_c 15.257835
_cell_angle_alpha 90.000000
_cell_angle_beta 87.395819
_cell_angle_gamma 90.000000
_cell_volume 2622.597366
_symmetry_space_group_name_H-M "C 2/C"
_symmetry_group_IT_number 15
_symmetry_cell_setting 'monoclinic'
loop_
_space_group_symop_operation_xyz
x,y,z
-x,y,1/2-z
-x,-y,-z
x,-y,1/2+z
1/2+x,1/2+y,z
1/2-x,1/2+y,1/2-z
1/2-x,1/2-y,-z
1/2+x,1/2-y,1/2+z
loop_
_atom_site_type_symbol
_atom_site_label
_atom_site_fract_x
_atom_site_fract_y
_atom_site_fract_z
Si Si1 0.831851 0.986042 0.435153
Si Si2 0.420747 0.406078 0.082030
Si Si3 0.368982 0.814834 0.228445
Si Si4 0.274047 0.488276 0.237058
Si Si5 0.503969 0.212547 0.382908
Si Si6 0.318479 0.825325 0.753313
Si Si7 0.667104 0.828343 0.470079
O O1 0.726456 0.925261 0.472981
O O2 0.947978 0.929917 0.444658
O O3 0.839734 0.072191 0.499811
O O4 0.818835 0.011096 0.333532
O O5 0.378577 0.458963 0.170180
O O6 0.421408 0.301017 0.100126
O O7 0.500000 0.799058 0.250000
O O8 0.288799 0.736812 0.272700
O O9 0.366939 0.802891 0.125634
O O10 0.324254 0.911967 0.260778
O O11 0.221910 0.581225 0.201786
O O12 0.599334 0.149001 0.332668
O O13 0.394851 0.231036 0.321306
O O14 0.453216 0.166906 0.471566
O O15 0.750000 0.750000 0.500000
#
# Coordination Sequence:
#
# PCOD8148087 Si02
#       7
#     8   8   8   8   8   8   8
#     4  10  23  38  63 103 132 176 224 274 352 391
#     4  11  21  38  69  98 132 171 227 292 322 398
#     4  11  25  43  64  99 134 177 218 284 343 397
#     4  11  24  44  64  95 138 179 222 278 337 416
#     4  11  22  40  70  98 125 179 231 276 330 407
#     4  11  24  42  67  97 132 178 231 266 343 403
#     4  11  20  41  67  94 135 174 227 273 338 413
#
# _framework density 21.352879000000001
#
# number of rings (size 3 to 8) (size 9 to 14) (size 15 to 20)
#    0.000    1.143    4.286    2.143    4.000    2.286 
#    2.571    2.857    0.000    0.000    0.000    0.000 
#    0.000    0.000    0.000    0.000    0.000    0.000 
#
# Total GULP energy -347190.922448 kJ/mol
# GULP energy per Si atom -12399.675802 kJ/mol
# Density = 2.130428 g / cm^3
# Si number density = 21.352879 Si / 1000 Ang^3
#
#
#
# Elastic Constant Matrix: (Units=GPa)
#
#
# Indices 1 2 3 4 5 6 
#
# 1 119.1308 46.7902 46.3943 0.0000 -7.6061 0.0000
# 2 46.7902 103.4232 32.9706 0.0000 -5.3136 0.0000
# 3 46.3943 32.9706 110.3851 0.0000 -13.8809 0.0000
# 4 0.0000 0.0000 0.0000 28.0153 0.0000 -3.0918
# 5 -7.6061 -5.3136 -13.8809 0.0000 38.5223 0.0000
# 6 0.0000 0.0000 0.0000 -3.0918 0.0000 31.6718
#
#
#
# Elastic Compliance Matrix: (Units=1/GPa)
#
#
# Indices 1 2 3 4 5 6 
#
# 1 0.011365 -0.003994 -0.003531 0.000000 0.000421 0.000000
# 2 -0.003994 0.012095 -0.001910 0.000000 0.000192 0.000000
# 3 -0.003531 -0.001910 0.011514 0.000000 0.003189 0.000000
# 4 0.000000 0.000000 0.000000 0.036084 0.000000 0.003523
# 5 0.000421 0.000192 0.003189 0.000000 0.027217 0.000000
# 6 0.000000 0.000000 0.000000 0.003523 0.000000 0.031918
#
#
# Mechanical properties :
#
#
# Convention : Reuss Voigt Hill
#
# Bulk Modulus (GPa) = 62.09366 65.02769 63.56067
# Shear Modulus (GPa) = 32.37707 33.42748 32.90228
#
# Velocity S-wave (km/s) = 3.89818 3.96091 3.92967
# Velocity P-wave (km/s) = 7.02879 7.17205 7.10078
#
# Compressibility (1/GPa) = 0.01610470
#
# Stress axis : x y z
#
# Youngs Moduli (GPa) = 87.99082 82.68027 86.84773
#
# Poissons Ratio (x) = 0.33026 0.30662
# Poissons Ratio (y) = 0.35148 0.16585
# Poissons Ratio (z) = 0.31066 0.15789
#
# Static dielectric constant tensor:
#      x y z
#    x 3.858660 0.000000 -0.244340 
#    y 0.000000 3.691580 0.000000 
#    z -0.244340 0.000000 4.046950 
# 
# 
# High freq. dielectric constant tensor:
#      x y z
#    x 1.837070 0.000000 -0.018200 
#    y 0.000000 1.824230 0.000000 
#    z -0.018200 0.000000 1.844580 
# 
# From -- ./inp_files/144251.got.cif
#   From: 2010.06.25/outbox.cif.g09.slc.cpg/sg15_73_cif.got.tgz:144251.got - 2010.06.28 07:06:18.
