data_PCOD8148165
_publ_section_title
;
Structure prediction by ZEFSAII (Michael W. Deem and Ramdas Pophale) SiO2 
 PCOD8148165
Probable space group: C 2/C
;
_chemical_formula_sum "Si O2"
_cell_formula_units_Z 44
_cell_length_a 13.720319
_cell_length_b 11.955668
_cell_length_c 15.799658
_cell_angle_alpha 90.000000
_cell_angle_beta 122.499785
_cell_angle_gamma 90.000000
_cell_volume 2185.827934
_symmetry_space_group_name_H-M "C 2/C"
_symmetry_group_IT_number 15
_symmetry_cell_setting 'monoclinic'
loop_
_space_group_symop_operation_xyz
x,y,z
-x,y,1/2-z
-x,-y,-z
x,-y,1/2+z
1/2+x,1/2+y,z
1/2-x,1/2+y,1/2-z
1/2-x,1/2-y,-z
1/2+x,1/2-y,1/2+z
loop_
_atom_site_type_symbol
_atom_site_label
_atom_site_fract_x
_atom_site_fract_y
_atom_site_fract_z
Si Si1 0.967993 0.028258 0.107173
Si Si2 0.000000 0.378791 0.750000
Si Si3 0.960141 0.818421 0.999653
Si Si4 0.724840 0.736928 0.889046
Si Si5 0.687796 0.513620 0.315557
Si Si6 0.942117 0.418631 0.904545
O O1 0.879339 0.070455 0.137076
O O2 0.101769 0.020551 0.196465
O O3 0.931905 0.902418 0.064050
O O4 0.955677 0.117366 0.025892
O O5 0.887862 0.302187 0.691356
O O6 0.984319 0.452932 0.828654
O O7 0.839382 0.787437 0.897526
O O8 0.022527 0.709095 0.064326
O O9 0.717679 0.612060 0.853019
O O10 0.750000 0.750000 0.000000
O O11 0.804209 0.578838 0.347634
O O12 0.000000 0.500000 0.000000
#
# Coordination Sequence:
#
# PCOD8148165 Si02
#       6
#     8   4   8   8   8   8
#     4  10  23  39  64  91 123 168 212 262 324 393
#     4  12  24  40  68  96 128 178 224 266 328 382
#     4  11  22  41  63  94 123 166 218 266 321 384
#     4  12  20  38  67  95 127 170 225 276 312 386
#     4  11  21  40  62  92 128 164 210 265 330 389
#     4  12  24  42  65  96 131 169 215 276 329 388
#
# _framework density 20.129673
#
# number of rings (size 3 to 8) (size 9 to 14) (size 15 to 20)
#    0.000    0.727    5.455    3.273    0.000    0.727 
#    0.000    1.818    0.000    0.000    0.000    0.000 
#    0.000    0.000    0.000    0.000    0.000    0.000 
#
# Total GULP energy -272754.917674 kJ/mol
# GULP energy per Si atom -12397.950803 kJ/mol
# Density = 2.008386 g / cm^3
# Si number density = 20.129673 Si / 1000 Ang^3
#
#
#
# Elastic Constant Matrix: (Units=GPa)
#
#
# Indices 1 2 3 4 5 6 
#
# 1 125.2916 44.2293 50.9306 0.0000 13.1524 0.0000
# 2 44.2293 66.1560 26.3470 0.0000 -12.4637 0.0000
# 3 50.9306 26.3470 97.4688 0.0000 -0.1076 0.0000
# 4 0.0000 0.0000 0.0000 32.1681 0.0000 3.3844
# 5 13.1524 -12.4637 -0.1076 0.0000 46.5328 0.0000
# 6 0.0000 0.0000 0.0000 3.3844 0.0000 19.9336
#
#
#
# Elastic Compliance Matrix: (Units=1/GPa)
#
#
# Indices 1 2 3 4 5 6 
#
# 1 0.013479 -0.008224 -0.004827 0.000000 -0.006024 0.000000
# 2 -0.008224 0.022968 -0.001902 0.000000 0.008472 0.000000
# 3 -0.004827 -0.001902 0.013297 0.000000 0.000886 0.000000
# 4 0.000000 0.000000 0.000000 0.031652 0.000000 -0.005374
# 5 -0.006024 0.008472 0.000886 0.000000 0.025464 0.000000
# 6 0.000000 0.000000 0.000000 -0.005374 0.000000 0.051079
#
#
# Mechanical properties :
#
#
# Convention : Reuss Voigt Hill
#
# Bulk Modulus (GPa) = 50.40764 59.10336 54.75550
# Shear Modulus (GPa) = 25.71269 30.88754 28.30012
#
# Velocity S-wave (km/s) = 3.57788 3.92143 3.75359
# Velocity P-wave (km/s) = 6.49339 7.06601 6.78575
#
# Compressibility (1/GPa) = 0.01983826
#
# Stress axis : x y z
#
# Youngs Moduli (GPa) = 74.18955 43.53959 75.20570
#
# Poissons Ratio (x) = 0.35807 0.36300
# Poissons Ratio (y) = 0.61014 0.14302
# Poissons Ratio (z) = 0.35810 0.08280
#
# Static dielectric constant tensor:
#      x y z
#    x 3.889160 0.000000 0.038830 
#    y 0.000000 3.469140 0.000000 
#    z 0.038830 0.000000 3.929680 
# 
# 
# High freq. dielectric constant tensor:
#      x y z
#    x 1.798680 0.000000 0.005550 
#    y 0.000000 1.767220 0.000000 
#    z 0.005550 0.000000 1.799300 
# 
# From -- ./inp_files/177668.got.cif
#   From: 2010.06.25/outbox.cif.g09.slc.cpg/sg15_89_cif.got.tgz:177668.got - 2010.06.28 07:06:18.
