data_PCOD8148230
_publ_section_title
;
Structure prediction by ZEFSAII (Michael W. Deem and Ramdas Pophale) SiO2 
 PCOD8148230
Probable space group: C 2/C
;
_chemical_formula_sum "Si O2"
_cell_formula_units_Z 48
_cell_length_a 19.924681
_cell_length_b 23.334993
_cell_length_c 9.026579
_cell_angle_alpha 90.000000
_cell_angle_beta 150.038194
_cell_angle_gamma 90.000000
_cell_volume 2095.995853
_symmetry_space_group_name_H-M "C 2/C"
_symmetry_group_IT_number 15
_symmetry_cell_setting 'monoclinic'
loop_
_space_group_symop_operation_xyz
x,y,z
-x,y,1/2-z
-x,-y,-z
x,-y,1/2+z
1/2+x,1/2+y,z
1/2-x,1/2+y,1/2-z
1/2-x,1/2-y,-z
1/2+x,1/2-y,1/2+z
loop_
_atom_site_type_symbol
_atom_site_label
_atom_site_fract_x
_atom_site_fract_y
_atom_site_fract_z
Si Si1 0.721675 0.881906 0.184160
Si Si2 0.672942 0.536689 0.829193
Si Si3 0.500000 0.856351 0.250000
Si Si4 0.398419 0.241705 0.345651
Si Si5 0.000000 0.837332 0.750000
Si Si6 0.000000 0.707638 0.250000
Si Si7 0.500000 0.508980 0.750000
Si Si8 0.893056 0.448947 0.276158
O O1 0.735119 0.909805 0.044788
O O2 0.623936 0.920941 0.095891
O O3 0.867516 0.874058 0.542506
O O4 0.642376 0.823986 0.006214
O O5 0.613131 0.547127 0.880576
O O6 0.556598 0.533287 0.483563
O O7 0.751893 0.477285 0.964756
O O8 0.592577 0.814268 0.528432
O O9 0.421259 0.899516 0.209201
O O10 0.445251 0.299499 0.512105
O O11 0.505687 0.241283 0.415268
O O12 0.250000 0.250000 0.000000
O O13 0.000000 0.500000 0.500000
#
# Coordination Sequence:
#
# PCOD8148230 Si02
#       8
#     8   8   4   8   4   4   4   8
#     4  12  24  43  71 105 142 188 240 299 361 431
#     4  11  23  43  64  97 145 183 237 280 350 428
#     4  11  26  45  71 106 146 187 253 301 372 444
#     4  11  25  49  73 106 142 186 247 318 377 445
#     4  11  27  46  74 105 143 184 250 318 374 434
#     4  12  24  45  77  97 139 186 236 296 380 434
#     4  10  23  40  62  90 134 195 223 285 340 416
#     4  12  25  43  68 109 146 195 237 301 356 446
#
# _framework density 22.90081
#
# number of rings (size 3 to 8) (size 9 to 14) (size 15 to 20)
#    0.000    0.667    5.000    2.500    2.333    2.000 
#    0.000    0.833    0.000    0.000    0.000    0.000 
#    0.000    0.000    0.000    0.000    0.000    0.000 
#
# Total GULP energy -297371.444578 kJ/mol
# GULP energy per Si atom -12390.476857 kJ/mol
# Density = 2.284869 g / cm^3
# Si number density = 22.900810 Si / 1000 Ang^3
#
#
#
# Elastic Constant Matrix: (Units=GPa)
#
#
# Indices 1 2 3 4 5 6 
#
# 1 192.4759 56.4007 37.3521 0.0000 -0.4773 0.0000
# 2 56.4007 82.5453 21.6809 0.0000 -1.7495 0.0000
# 3 37.3521 21.6809 87.7684 0.0000 -4.2978 0.0000
# 4 0.0000 0.0000 0.0000 34.3605 0.0000 3.0100
# 5 -0.4773 -1.7495 -4.2978 0.0000 32.4062 0.0000
# 6 0.0000 0.0000 0.0000 3.0100 0.0000 31.4859
#
#
#
# Elastic Compliance Matrix: (Units=1/GPa)
#
#
# Indices 1 2 3 4 5 6 
#
# 1 0.006773 -0.004142 -0.001877 0.000000 -0.000373 0.000000
# 2 -0.004142 0.015491 -0.002039 0.000000 0.000505 0.000000
# 3 -0.001877 -0.002039 0.012772 0.000000 0.001556 0.000000
# 4 0.000000 0.000000 0.000000 0.029349 0.000000 -0.002806
# 5 -0.000373 0.000505 0.001556 0.000000 0.031086 0.000000
# 6 0.000000 0.000000 0.000000 -0.002806 0.000000 0.032028
#
#
# Mechanical properties :
#
#
# Convention : Reuss Voigt Hill
#
# Bulk Modulus (GPa) = 52.85733 65.96189 59.40961
# Shear Modulus (GPa) = 33.35026 36.14092 34.74559
#
# Velocity S-wave (km/s) = 3.82028 3.97690 3.89938
# Velocity P-wave (km/s) = 6.52614 7.06778 6.80235
#
# Compressibility (1/GPa) = 0.01891885
#
# Stress axis : x y z
#
# Youngs Moduli (GPa) = 147.65214 64.55272 78.29357
#
# Poissons Ratio (x) = 0.26740 0.14698
# Poissons Ratio (y) = 0.61163 0.15965
# Poissons Ratio (z) = 0.27718 0.13163
#
# Static dielectric constant tensor:
#      x y z
#    x 3.826780 0.000000 0.518280 
#    y 0.000000 4.282100 0.000000 
#    z 0.518280 0.000000 3.885030 
# 
# 
# High freq. dielectric constant tensor:
#      x y z
#    x 1.918220 0.000000 0.002610 
#    y 0.000000 1.899300 0.000000 
#    z 0.002610 0.000000 1.910340 
# 
# From -- ./inp_files/59105.got.cif
#   From: 2010.06.25/outbox.cif.g09.slc.cpg/sg15_30_cif.got.tgz:59105.got - 2010.06.28 07:06:18.
