data_PCOD8148898
_publ_section_title
;
Structure prediction by ZEFSAII (Michael W. Deem and Ramdas Pophale) SiO2 
 PCOD8148898
Probable space group: C 2/C
;
_chemical_formula_sum "Si O2"
_cell_formula_units_Z 56
_cell_length_a 16.471629
_cell_length_b 18.044262
_cell_length_c 14.025592
_cell_angle_alpha 90.000000
_cell_angle_beta 143.458565
_cell_angle_gamma 90.000000
_cell_volume 2482.038980
_symmetry_space_group_name_H-M "C 2/C"
_symmetry_group_IT_number 15
_symmetry_cell_setting 'monoclinic'
loop_
_space_group_symop_operation_xyz
x,y,z
-x,y,1/2-z
-x,-y,-z
x,-y,1/2+z
1/2+x,1/2+y,z
1/2-x,1/2+y,1/2-z
1/2-x,1/2-y,-z
1/2+x,1/2-y,1/2+z
loop_
_atom_site_type_symbol
_atom_site_label
_atom_site_fract_x
_atom_site_fract_y
_atom_site_fract_z
Si Si1 0.297807 0.053483 0.176778
Si Si2 0.621701 0.579118 0.184834
Si Si3 0.222919 0.193683 0.796173
Si Si4 0.144496 0.944995 0.339187
Si Si5 0.186951 0.097578 0.589949
Si Si6 0.017338 0.683089 0.156157
Si Si7 0.148971 0.186459 0.374574
O O1 0.187853 0.090297 0.143969
O O2 0.442414 0.096271 0.323288
O O3 0.303105 0.966178 0.209227
O O4 0.255679 0.062191 0.027107
O O5 0.683463 0.509006 0.300449
O O6 0.658387 0.655231 0.276077
O O7 0.460264 0.566666 0.015813
O O8 0.144142 0.132565 0.783906
O O9 0.227732 0.169118 0.690003
O O10 0.141472 0.269721 0.729698
O O11 0.378695 0.204343 0.973374
O O12 0.000000 0.963140 0.250000
O O13 0.174140 0.116324 0.466721
O O14 0.000000 0.702217 0.250000
O O15 0.250000 0.250000 0.500000
O O16 0.000000 0.220751 0.250000
#
# Coordination Sequence:
#
# PCOD8148898 Si02
#       7
#     8   8   8   8   8   8   8
#     4  12  24  42  70 102 136 177 233 291 344 407
#     4  11  22  41  70 107 134 180 235 283 341 421
#     4  12  28  45  69 101 142 183 233 288 353 419
#     4  12  21  40  72 102 136 180 231 286 344 413
#     4  11  23  43  71 103 138 179 232 287 344 413
#     4  12  29  48  68 102 141 188 232 290 359 422
#     4  10  23  43  66  97 137 177 228 281 341 408
#
# _framework density 22.562094999999999
#
# number of rings (size 3 to 8) (size 9 to 14) (size 15 to 20)
#    0.000    0.571    5.714    2.571    6.000    1.714 
#    0.000    0.714    0.000    0.000    0.000    0.000 
#    0.000    0.000    0.000    0.000    0.000    0.000 
#
# Total GULP energy -347248.409336 kJ/mol
# GULP energy per Si atom -12401.728905 kJ/mol
# Density = 2.251074 g / cm^3
# Si number density = 22.562095 Si / 1000 Ang^3
#
#
#
# Elastic Constant Matrix: (Units=GPa)
#
#
# Indices 1 2 3 4 5 6 
#
# 1 50.8379 14.1854 30.6540 0.0000 -6.5045 0.0000
# 2 14.1854 96.0589 40.7223 0.0000 16.3530 0.0000
# 3 30.6540 40.7223 119.0243 0.0000 5.7849 0.0000
# 4 0.0000 0.0000 0.0000 33.0148 0.0000 12.4646
# 5 -6.5045 16.3530 5.7849 0.0000 34.4407 0.0000
# 6 0.0000 0.0000 0.0000 12.4646 0.0000 30.2725
#
#
#
# Elastic Compliance Matrix: (Units=1/GPa)
#
#
# Indices 1 2 3 4 5 6 
#
# 1 0.024742 -0.002297 -0.005915 0.000000 0.006757 0.000000
# 2 -0.002297 0.013358 -0.003679 0.000000 -0.006158 0.000000
# 3 -0.005915 -0.003679 0.011245 0.000000 -0.001259 0.000000
# 4 0.000000 0.000000 0.000000 0.035865 0.000000 -0.014767
# 5 0.006757 -0.006158 -0.001259 0.000000 0.033447 0.000000
# 6 0.000000 0.000000 0.000000 -0.014767 0.000000 0.039114
#
#
# Mechanical properties :
#
#
# Convention : Reuss Voigt Hill
#
# Bulk Modulus (GPa) = 39.11861 48.56049 43.83955
# Shear Modulus (GPa) = 26.30576 31.56956 28.93766
#
# Velocity S-wave (km/s) = 3.41827 3.74469 3.58520
# Velocity P-wave (km/s) = 5.74067 6.34560 6.05070
#
# Compressibility (1/GPa) = 0.02556328
#
# Stress axis : x y z
#
# Youngs Moduli (GPa) = 40.41678 74.86414 88.92850
#
# Poissons Ratio (x) = 0.17193 0.52600
# Poissons Ratio (y) = 0.09282 0.32720
# Poissons Ratio (z) = 0.23906 0.27545
#
# Static dielectric constant tensor:
#      x y z
#    x 4.337330 0.000000 -0.262920 
#    y 0.000000 4.049410 0.000000 
#    z -0.262920 0.000000 4.038990 
# 
# 
# High freq. dielectric constant tensor:
#      x y z
#    x 1.891930 0.000000 -0.022510 
#    y 0.000000 1.891860 0.000000 
#    z -0.022510 0.000000 1.880070 
# 
# From -- ./inp_files/163810.got.cif
#   From: 2010.06.25/outbox.cif.g09.slc.cpg/sg15_82_cif.got.tgz:163810.got - 2010.06.28 07:06:18.
