data_PCOD8148644
_publ_section_title
;
Structure prediction by ZEFSAII (Michael W. Deem and Ramdas Pophale) SiO2 
 PCOD8148644
Probable space group: C 2/C
;
_chemical_formula_sum "Si O2"
_cell_formula_units_Z 52
_cell_length_a 25.972938
_cell_length_b 6.773687
_cell_length_c 16.449431
_cell_angle_alpha 90.000000
_cell_angle_beta 124.242015
_cell_angle_gamma 90.000000
_cell_volume 2392.369751
_symmetry_space_group_name_H-M "C 2/C"
_symmetry_group_IT_number 15
_symmetry_cell_setting 'monoclinic'
loop_
_space_group_symop_operation_xyz
x,y,z
-x,y,1/2-z
-x,-y,-z
x,-y,1/2+z
1/2+x,1/2+y,z
1/2-x,1/2+y,1/2-z
1/2-x,1/2-y,-z
1/2+x,1/2-y,1/2+z
loop_
_atom_site_type_symbol
_atom_site_label
_atom_site_fract_x
_atom_site_fract_y
_atom_site_fract_z
Si Si1 0.058527 0.004244 0.648958
Si Si2 0.385889 0.858168 0.575255
Si Si3 0.300886 0.865695 0.098195
Si Si4 0.191249 0.039607 0.262643
Si Si5 0.500000 0.380680 0.250000
Si Si6 0.223482 0.806145 0.613314
Si Si7 0.536392 0.186172 0.507479
O O1 0.128497 0.093411 0.714440
O O2 0.068124 0.795042 0.611872
O O3 0.025880 0.967553 0.706392
O O4 0.013691 0.160607 0.568948
O O5 0.441055 0.757866 0.675683
O O6 0.329616 0.708062 0.503585
O O7 0.413323 0.900467 0.510340
O O8 0.359522 0.057828 0.595137
O O9 0.321904 0.723713 0.189644
O O10 0.275135 0.059961 0.118122
O O11 0.250000 0.750000 0.000000
O O12 0.200294 0.100636 0.177026
O O13 0.249583 0.911987 0.344994
O O14 0.500000 0.000000 0.500000
#
# Coordination Sequence:
#
# PCOD8148644 Si02
#       7
#     8   8   8   8   4   8   8
#     4  10  23  42  65  98 134 177 232 277 347 408
#     4  11  24  47  69 101 142 179 231 294 346 416
#     4  12  27  43  72 105 140 186 231 287 362 410
#     4  12  25  43  71 104 137 191 228 287 352 422
#     4  10  24  44  72 100 136 188 232 292 352 402
#     4  12  25  46  69 102 145 179 237 287 346 428
#     4  10  23  43  69  97 133 181 229 282 341 409
#
# _framework density 21.735772999999998
#
# number of rings (size 3 to 8) (size 9 to 14) (size 15 to 20)
#    0.000    0.923    4.615    1.385    2.154    7.385 
#    0.000    0.769    0.000    0.000    0.000    0.000 
#    0.000    0.000    0.000    0.000    0.000    0.000 
#
# Total GULP energy -322173.821708 kJ/mol
# GULP energy per Si atom -12391.300835 kJ/mol
# Density = 2.168630 g / cm^3
# Si number density = 21.735773 Si / 1000 Ang^3
#
#
#
# Elastic Constant Matrix: (Units=GPa)
#
#
# Indices 1 2 3 4 5 6 
#
# 1 157.6146 61.5733 48.8115 0.0000 -11.3201 0.0000
# 2 61.5733 77.3014 22.9505 0.0000 -14.9587 0.0002
# 3 48.8115 22.9505 104.6222 0.0000 -1.4027 0.0000
# 4 0.0000 0.0000 0.0000 5.5504 0.0000 -4.5352
# 5 -11.3201 -14.9587 -1.4027 0.0000 45.8226 0.0000
# 6 0.0000 0.0002 0.0000 -4.5352 0.0000 46.8581
#
#
#
# Elastic Compliance Matrix: (Units=1/GPa)
#
#
# Indices 1 2 3 4 5 6 
#
# 1 0.010097 -0.007090 -0.003154 0.000000 0.000083 0.000000
# 2 -0.007090 0.019776 -0.000968 0.000000 0.004675 0.000000
# 3 -0.003154 -0.000968 0.011232 0.000000 -0.000751 0.000000
# 4 0.000000 0.000000 0.000000 0.195639 0.000000 0.018935
# 5 0.000083 0.004675 -0.000751 0.000000 0.023347 0.000000
# 6 0.000000 0.000000 0.000000 0.018935 0.000000 0.023174
#
#
# Mechanical properties :
#
#
# Convention : Reuss Voigt Hill
#
# Bulk Modulus (GPa) = 53.53073 67.35655 60.44364
# Shear Modulus (GPa) = 16.02996 33.39309 24.71152
#
# Velocity S-wave (km/s) = 2.71863 3.92384 3.37546
# Velocity P-wave (km/s) = 5.87673 7.18226 6.56204
#
# Compressibility (1/GPa) = 0.01868086
#
# Stress axis : x y z
#
# Youngs Moduli (GPa) = 99.03632 50.56688 89.03075
#
# Poissons Ratio (x) = 0.35853 0.28084
# Poissons Ratio (y) = 0.70219 0.08614
# Poissons Ratio (z) = 0.31240 0.04892
#
# Static dielectric constant tensor:
#      x y z
#    x 4.299790 0.000000 -0.126450 
#    y 0.000000 3.588920 0.000000 
#    z -0.126450 0.000000 4.430230 
# 
# 
# High freq. dielectric constant tensor:
#      x y z
#    x 1.878950 0.000000 -0.003170 
#    y 0.000000 1.832900 0.000000 
#    z -0.003170 0.000000 1.872160 
# 
# From -- ./inp_files/221352.got.cif
#   From: 2010.06.25/outbox.cif.g09.slc.cpg/sg15_111_cif.got.tgz:221352.got - 2010.06.28 07:06:18.
