data_PCOD8148222
_publ_section_title
;
Structure prediction by ZEFSAII (Michael W. Deem and Ramdas Pophale) SiO2 
 PCOD8148222
Probable space group: C 2/C
;
_chemical_formula_sum "Si O2"
_cell_formula_units_Z 56
_cell_length_a 15.145936
_cell_length_b 21.862296
_cell_length_c 14.632852
_cell_angle_alpha 90.000000
_cell_angle_beta 36.459309
_cell_angle_gamma 90.000000
_cell_volume 2879.329273
_symmetry_space_group_name_H-M "C 2/C"
_symmetry_group_IT_number 15
_symmetry_cell_setting 'monoclinic'
loop_
_space_group_symop_operation_xyz
x,y,z
-x,y,1/2-z
-x,-y,-z
x,-y,1/2+z
1/2+x,1/2+y,z
1/2-x,1/2+y,1/2-z
1/2-x,1/2-y,-z
1/2+x,1/2-y,1/2+z
loop_
_atom_site_type_symbol
_atom_site_label
_atom_site_fract_x
_atom_site_fract_y
_atom_site_fract_z
Si Si1 0.090739 0.776601 0.826459
Si Si2 0.500000 0.628693 0.250000
Si Si3 0.442013 0.134232 0.661317
Si Si4 0.604206 0.241684 0.358823
Si Si5 0.298834 0.923390 0.441428
Si Si6 0.326335 0.698295 0.875253
Si Si7 0.000000 0.533921 0.250000
Si Si8 0.931191 0.625455 0.458355
O O1 0.026636 0.826701 0.812364
O O2 0.050731 0.707095 0.832931
O O3 0.268523 0.786653 0.681343
O O4 0.010694 0.785305 0.991269
O O5 0.366668 0.582183 0.382523
O O6 0.594792 0.107548 0.572564
O O7 0.306865 0.110391 0.836471
O O8 0.419599 0.110276 0.576025
O O9 0.692688 0.283073 0.214223
O O10 0.522449 0.188290 0.371426
O O11 0.350495 0.993363 0.383658
O O12 0.500000 0.686390 0.750000
O O13 0.250000 0.750000 0.000000
O O14 0.229057 0.635973 0.958540
O O15 0.985050 0.573408 0.169321
#
# Coordination Sequence:
#
# PCOD8148222 Si02
#       8
#     8   4   8   8   8   8   4   8
#     4  11  21  33  59  92 128 154 183 234 303 381
#     4  12  22  35  60  88 127 156 190 250 314 346
#     4   9  19  38  62  92 119 160 197 235 301 374
#     4  11  20  35  55  90 127 152 187 232 295 368
#     4  10  23  40  61  85 119 158 212 257 291 345
#     4  12  21  35  56  87 126 160 189 235 298 362
#     4  10  24  45  64  80 109 168 220 256 292 342
#     4  11  21  37  66  86 118 161 205 244 296 357
#
# _framework density 19.448974
#
# number of rings (size 3 to 8) (size 9 to 14) (size 15 to 20)
#    0.000    1.429    4.286    4.286    0.000    4.000 
#    1.286    0.000    0.000    2.571    0.000    0.000 
#    0.000    0.000    0.000    0.000    0.000    0.000 
#
# Total GULP energy -347027.545043 kJ/mol
# GULP energy per Si atom -12393.840894 kJ/mol
# Density = 1.940471 g / cm^3
# Si number density = 19.448974 Si / 1000 Ang^3
#
#
#
# Elastic Constant Matrix: (Units=GPa)
#
#
# Indices 1 2 3 4 5 6 
#
# 1 96.9852 39.5861 50.4985 -0.0065 -4.6600 0.0034
# 2 39.5861 89.6371 52.6831 -0.0083 5.2036 0.0049
# 3 50.4985 52.6831 138.3155 -0.0103 -3.1411 0.0060
# 4 -0.0065 -0.0083 -0.0103 34.4412 0.0027 5.3624
# 5 -4.6600 5.2036 -3.1411 0.0027 45.9567 0.0000
# 6 0.0034 0.0049 0.0060 5.3624 0.0000 15.4374
#
#
#
# Elastic Compliance Matrix: (Units=1/GPa)
#
#
# Indices 1 2 3 4 5 6 
#
# 1 0.013898 -0.004218 -0.003430 0.000001 0.001652 -0.000001
# 2 -0.004218 0.015841 -0.004551 0.000002 -0.002532 -0.000003
# 3 -0.003430 -0.004551 0.010235 0.000002 0.000867 -0.000002
# 4 0.000001 0.000002 0.000002 0.030695 -0.000002 -0.010662
# 5 0.001652 -0.002532 0.000867 -0.000002 0.022273 0.000001
# 6 -0.000001 -0.000003 -0.000002 -0.010662 0.000001 0.068482
#
#
# Mechanical properties :
#
#
# Convention : Reuss Voigt Hill
#
# Bulk Modulus (GPa) = 64.20133 67.83035 66.01584
# Shear Modulus (GPa) = 26.17622 31.31172 28.74397
#
# Velocity S-wave (km/s) = 3.67262 4.01676 3.84854
# Velocity P-wave (km/s) = 7.14605 7.51427 7.33247
#
# Compressibility (1/GPa) = 0.01557600
#
# Stress axis : x y z
#
# Youngs Moduli (GPa) = 71.95461 63.12894 97.70052
#
# Poissons Ratio (x) = 0.26625 0.33512
# Poissons Ratio (y) = 0.30347 0.44466
# Poissons Ratio (z) = 0.24681 0.28732
#
# Static dielectric constant tensor:
#      x y z
#    x 3.533650 -0.000010 0.075280 
#    y -0.000010 3.271060 0.000020 
#    z 0.075280 0.000020 3.860680 
# 
# 
# High freq. dielectric constant tensor:
#      x y z
#    x 1.759040 0.000000 0.006630 
#    y 0.000000 1.724150 0.000000 
#    z 0.006630 0.000000 1.776360 
# 
# From -- ./inp_files/156190.got.cif
#   From: 2010.06.25/outbox.cif.g09.slc.cpg/sg15_79_cif.got.tgz:156190.got - 2010.06.28 07:06:18.
