data_PCOD8148853
_publ_section_title
;
Structure prediction by ZEFSAII (Michael W. Deem and Ramdas Pophale) SiO2 
 PCOD8148853
Probable space group: C 2/C
;
_chemical_formula_sum "Si O2"
_cell_formula_units_Z 56
_cell_length_a 28.324132
_cell_length_b 12.004355
_cell_length_c 15.313098
_cell_angle_alpha 90.000000
_cell_angle_beta 28.977542
_cell_angle_gamma 90.000000
_cell_volume 2522.449545
_symmetry_space_group_name_H-M "C 2/C"
_symmetry_group_IT_number 15
_symmetry_cell_setting 'monoclinic'
loop_
_space_group_symop_operation_xyz
x,y,z
-x,y,1/2-z
-x,-y,-z
x,-y,1/2+z
1/2+x,1/2+y,z
1/2-x,1/2+y,1/2-z
1/2-x,1/2-y,-z
1/2+x,1/2-y,1/2+z
loop_
_atom_site_type_symbol
_atom_site_label
_atom_site_fract_x
_atom_site_fract_y
_atom_site_fract_z
Si Si1 0.215795 0.568056 0.398028
Si Si2 0.916618 0.557007 0.250495
Si Si3 0.390560 0.407487 0.103286
Si Si4 0.359924 0.709763 0.824803
Si Si5 0.568911 0.485711 0.720646
Si Si6 0.866249 0.493511 0.143726
Si Si7 0.208009 0.823563 0.410008
O O1 0.134649 0.506815 0.587274
O O2 0.319273 0.508490 0.247205
O O3 0.192605 0.566092 0.332055
O O4 0.218875 0.696227 0.421425
O O5 0.922491 0.688289 0.263428
O O6 0.858003 0.545206 0.253843
O O7 0.023758 0.508865 0.067360
O O8 0.397426 0.315746 0.167116
O O9 0.351780 0.340578 0.082305
O O10 0.498995 0.457249 0.915110
O O11 0.372782 0.600839 0.863263
O O12 0.250000 0.750000 0.000000
O O13 0.500000 0.499844 0.750000
O O14 0.648643 0.388339 0.581497
O O15 0.817392 0.371229 0.224439
#
# Coordination Sequence:
#
# PCOD8148853 Si02
#       7
#     8   8   8   8   8   8   8
#     4  11  23  43  69  96 130 171 221 267 329 388
#     4  11  24  41  65  97 130 176 214 269 330 386
#     4  10  23  43  64  98 125 173 217 266 325 381
#     4  12  23  42  66  92 136 167 216 268 323 390
#     4  10  24  42  65  96 127 173 220 264 325 383
#     4  10  24  43  62  99 132 168 222 268 328 388
#     4  10  23  43  68  91 131 171 217 271 320 383
#
# _framework density 22.200641999999998
#
# number of rings (size 3 to 8) (size 9 to 14) (size 15 to 20)
#    0.000    1.429    1.429    2.571    2.000    9.714 
#    0.000    0.000    0.000    0.000    0.000    0.000 
#    0.000    0.000    0.000    0.000    0.000    0.000 
#
# Total GULP energy -347257.103424 kJ/mol
# GULP energy per Si atom -12402.039408 kJ/mol
# Density = 2.215011 g / cm^3
# Si number density = 22.200642 Si / 1000 Ang^3
#
#
#
# Elastic Constant Matrix: (Units=GPa)
#
#
# Indices 1 2 3 4 5 6 
#
# 1 42.8351 17.0199 17.8789 0.0000 7.9234 0.0000
# 2 17.0199 164.9348 48.5722 0.0000 5.2139 0.0000
# 3 17.8789 48.5722 122.6385 0.0000 2.9729 0.0000
# 4 0.0000 0.0000 0.0000 33.6886 0.0000 6.8132
# 5 7.9234 5.2139 2.9729 0.0000 31.6041 0.0000
# 6 0.0000 0.0000 0.0000 6.8132 0.0000 26.2917
#
#
#
# Elastic Compliance Matrix: (Units=1/GPa)
#
#
# Indices 1 2 3 4 5 6 
#
# 1 0.026389 -0.001632 -0.003054 0.000000 -0.006059 0.000000
# 2 -0.001632 0.006989 -0.002518 0.000000 -0.000507 0.000000
# 3 -0.003054 -0.002518 0.009590 0.000000 0.000279 0.000000
# 4 0.000000 0.000000 0.000000 0.031325 0.000000 -0.008118
# 5 -0.006059 -0.000507 0.000279 0.000000 0.033218 0.000000
# 6 0.000000 0.000000 0.000000 -0.008118 0.000000 0.040138
#
#
# Mechanical properties :
#
#
# Convention : Reuss Voigt Hill
#
# Bulk Modulus (GPa) = 35.01371 55.26116 45.13744
# Shear Modulus (GPa) = 29.14131 34.77935 31.96033
#
# Velocity S-wave (km/s) = 3.62696 3.96231 3.79834
# Velocity P-wave (km/s) = 5.77456 6.77340 6.29383
#
# Compressibility (1/GPa) = 0.02856024
#
# Stress axis : x y z
#
# Youngs Moduli (GPa) = 37.89400 143.08330 104.27870
#
# Poissons Ratio (x) = 0.23355 0.31845
# Poissons Ratio (y) = 0.06185 0.26255
# Poissons Ratio (z) = 0.11572 0.36025
#
# Static dielectric constant tensor:
#      x y z
#    x 3.993130 0.000000 0.032080 
#    y 0.000000 4.169650 0.000000 
#    z 0.032080 0.000000 4.245170 
# 
# 
# High freq. dielectric constant tensor:
#      x y z
#    x 1.873710 0.000000 0.003060 
#    y 0.000000 1.871200 0.000000 
#    z 0.003060 0.000000 1.887940 
# 
# From -- ./inp_files/181929.got.cif
#   From: 2010.06.25/outbox.cif.g09.slc.cpg/sg15_91_cif.got.tgz:181929.got - 2010.06.28 07:06:18.
