data_PCOD8148116
_publ_section_title
;
Structure prediction by ZEFSAII (Michael W. Deem and Ramdas Pophale) SiO2 
 PCOD8148116
Probable space group: C 2/C
;
_chemical_formula_sum "Si O2"
_cell_formula_units_Z 48
_cell_length_a 20.401694
_cell_length_b 6.816428
_cell_length_c 18.458925
_cell_angle_alpha 90.000000
_cell_angle_beta 112.558256
_cell_angle_gamma 90.000000
_cell_volume 2370.618470
_symmetry_space_group_name_H-M "C 2/C"
_symmetry_group_IT_number 15
_symmetry_cell_setting 'monoclinic'
loop_
_space_group_symop_operation_xyz
x,y,z
-x,y,1/2-z
-x,-y,-z
x,-y,1/2+z
1/2+x,1/2+y,z
1/2-x,1/2+y,1/2-z
1/2-x,1/2-y,-z
1/2+x,1/2-y,1/2+z
loop_
_atom_site_type_symbol
_atom_site_label
_atom_site_fract_x
_atom_site_fract_y
_atom_site_fract_z
Si Si1 0.099355 0.791670 0.164803
Si Si2 0.974020 0.937659 0.612664
Si Si3 0.249064 0.475520 0.020773
Si Si4 0.940202 0.604669 0.779810
Si Si5 0.846759 0.219441 0.967868
Si Si6 0.634945 0.551734 0.313125
O O1 0.092249 0.572057 0.189676
O O2 0.150876 0.780912 0.117612
O O3 0.137217 0.920705 0.242260
O O4 0.022715 0.879404 0.108732
O O5 0.919988 0.870208 0.527942
O O6 0.932879 0.009984 0.667053
O O7 0.025333 0.755961 0.649464
O O8 0.170274 0.562086 0.005993
O O9 0.293640 0.518654 0.112282
O O10 0.250000 0.250000 0.000000
O O11 0.280970 0.585118 0.964633
O O12 0.876116 0.717811 0.710906
O O13 0.000000 0.525705 0.750000
#
# Coordination Sequence:
#
# PCOD8148116 Si02
#       6
#     8   8   8   8   8   8
#     4  11  20  34  58  93 119 150 191 253 315 353
#     4   9  19  36  58  84 125 153 191 243 299 377
#     4  10  23  44  62  77 114 170 213 247 301 356
#     4   9  18  33  57  86 119 152 190 234 301 365
#     4  10  23  39  56  88 118 154 207 252 299 364
#     4   9  20  38  57  86 116 158 200 248 293 361
#
# _framework density 20.247881
#
# number of rings (size 3 to 8) (size 9 to 14) (size 15 to 20)
#    0.000    2.333    0.000    3.000    0.000   11.333 
#    6.000    0.000    0.000    0.000    0.000    0.000 
#    0.000    0.000    0.000    0.000    0.000    0.000 
#
# Total GULP energy -297521.779724 kJ/mol
# GULP energy per Si atom -12396.740822 kJ/mol
# Density = 2.020180 g / cm^3
# Si number density = 20.247881 Si / 1000 Ang^3
#
#
#
# Elastic Constant Matrix: (Units=GPa)
#
#
# Indices 1 2 3 4 5 6 
#
# 1 76.5914 46.7136 51.4958 0.0000 -17.1747 0.0000
# 2 46.7136 123.0834 53.4412 0.0001 -15.3966 0.0000
# 3 51.4958 53.4412 116.0030 0.0000 -19.8099 0.0000
# 4 0.0000 0.0001 0.0000 17.5982 0.0000 1.8358
# 5 -17.1747 -15.3966 -19.8099 0.0000 44.0143 0.0000
# 6 0.0000 0.0000 0.0000 1.8358 0.0000 19.6023
#
#
#
# Elastic Compliance Matrix: (Units=1/GPa)
#
#
# Indices 1 2 3 4 5 6 
#
# 1 0.021198 -0.004717 -0.006615 0.000000 0.003644 0.000000
# 2 -0.004717 0.011307 -0.002983 0.000000 0.000772 0.000000
# 3 -0.006615 -0.002983 0.013337 0.000000 0.002378 0.000000
# 4 0.000000 0.000000 0.000000 0.057384 0.000000 -0.005374
# 5 0.003644 0.000772 0.002378 0.000000 0.025482 0.000000
# 6 0.000000 0.000000 0.000000 -0.005374 0.000000 0.051518
#
#
# Mechanical properties :
#
#
# Convention : Reuss Voigt Hill
#
# Bulk Modulus (GPa) = 58.09893 68.77543 63.43718
# Shear Modulus (GPa) = 23.29991 27.17812 25.23901
#
# Velocity S-wave (km/s) = 3.39593 3.66767 3.53441
# Velocity P-wave (km/s) = 6.64323 7.20946 6.93213
#
# Compressibility (1/GPa) = 0.01721202
#
# Stress axis : x y z
#
# Youngs Moduli (GPa) = 47.17449 88.44368 74.97888
#
# Poissons Ratio (x) = 0.41722 0.49595
# Poissons Ratio (y) = 0.22254 0.22365
# Poissons Ratio (z) = 0.31204 0.26382
#
# Static dielectric constant tensor:
#      x y z
#    x 3.577530 0.000000 0.013830 
#    y 0.000000 3.687050 0.000000 
#    z 0.013830 0.000000 3.735960 
# 
# 
# High freq. dielectric constant tensor:
#      x y z
#    x 1.776470 0.000000 -0.004030 
#    y 0.000000 1.788110 0.000000 
#    z -0.004030 0.000000 1.791630 
# 
# From -- ./inp_files/217809.got.cif
#   From: 2010.06.25/outbox.cif.g09.slc.cpg/sg15_109_cif.got.tgz:217809.got - 2010.06.28 07:06:18.
