data_PCOD8148694
_publ_section_title
;
Structure prediction by ZEFSAII (Michael W. Deem and Ramdas Pophale) SiO2 
 PCOD8148694
Probable space group: C 2/C
;
_chemical_formula_sum "Si O2"
_cell_formula_units_Z 60
_cell_length_a 7.968599
_cell_length_b 27.128100
_cell_length_c 19.759011
_cell_angle_alpha 90.000000
_cell_angle_beta 139.016198
_cell_angle_gamma 90.000000
_cell_volume 2801.355264
_symmetry_space_group_name_H-M "C 2/C"
_symmetry_group_IT_number 15
_symmetry_cell_setting 'monoclinic'
loop_
_space_group_symop_operation_xyz
x,y,z
-x,y,1/2-z
-x,-y,-z
x,-y,1/2+z
1/2+x,1/2+y,z
1/2-x,1/2+y,1/2-z
1/2-x,1/2-y,-z
1/2+x,1/2-y,1/2+z
loop_
_atom_site_type_symbol
_atom_site_label
_atom_site_fract_x
_atom_site_fract_y
_atom_site_fract_z
Si Si1 0.258490 0.854632 0.748233
Si Si2 0.751804 0.076606 0.529863
Si Si3 0.781917 0.542301 0.320473
Si Si4 0.712102 0.210144 0.930819
Si Si5 0.702306 0.951720 0.255874
Si Si6 0.785349 0.633249 0.848071
Si Si7 0.000000 0.770817 0.750000
Si Si8 0.326304 0.359259 0.923600
O O1 0.247521 0.900098 0.795741
O O2 0.125471 0.805574 0.732702
O O3 0.547868 0.835202 0.831499
O O4 0.121894 0.875955 0.638499
O O5 0.502380 0.040720 0.446147
O O6 0.679993 0.119553 0.561942
O O7 0.822369 0.097047 0.476746
O O8 0.003929 0.047346 0.629589
O O9 0.500000 0.520071 0.250000
O O10 0.879492 0.507389 0.289328
O O11 0.481818 0.174758 0.883895
O O12 0.678431 0.235176 0.847763
O O13 0.750000 0.250000 0.000000
O O14 0.967626 0.180535 0.992801
O O15 0.500000 0.932929 0.250000
O O16 0.673187 0.916323 0.182461
O O17 0.500000 0.654461 0.750000
#
# Coordination Sequence:
#
# PCOD8148694 Si02
#       8
#     8   8   8   8   8   8   4   8
#     4  10  23  45  65  97 139 176 220 291 338 406
#     4  10  24  45  70  97 135 185 225 282 352 405
#     4  11  24  41  71  98 136 180 225 278 345 414
#     4  12  27  42  69 103 132 185 238 278 352 419
#     4  11  25  45  68 103 140 174 231 285 347 416
#     4  10  25  46  69  96 140 179 226 287 345 413
#     4  12  26  44  68 100 142 182 230 290 348 410
#     4  10  23  42  67  94 132 175 229 276 342 406
#
# _framework density 21.418203999999999
#
# number of rings (size 3 to 8) (size 9 to 14) (size 15 to 20)
#    0.000    1.333    2.000    2.000   14.000    4.267 
#    0.000    0.000    0.000    0.000    0.000    0.000 
#    0.000    0.000    0.000    0.000    0.000    0.000 
#
# Total GULP energy -371733.898726 kJ/mol
# GULP energy per Si atom -12391.129958 kJ/mol
# Density = 2.136945 g / cm^3
# Si number density = 21.418204 Si / 1000 Ang^3
#
#
#
# Elastic Constant Matrix: (Units=GPa)
#
#
# Indices 1 2 3 4 5 6 
#
# 1 88.2022 28.8000 45.7349 0.0002 -1.6901 0.0000
# 2 28.8000 84.2472 56.1494 0.0000 10.5912 0.0000
# 3 45.7349 56.1494 144.3995 0.0004 -6.8792 -0.0001
# 4 0.0002 0.0000 0.0004 33.0661 0.0003 -3.2723
# 5 -1.6901 10.5912 -6.8792 0.0003 34.0762 -0.0001
# 6 0.0000 0.0000 -0.0001 -3.2723 -0.0001 7.7176
#
#
#
# Elastic Compliance Matrix: (Units=1/GPa)
#
#
# Indices 1 2 3 4 5 6 
#
# 1 0.013954 -0.002641 -0.003353 0.000000 0.000836 0.000000
# 2 -0.002641 0.017983 -0.006491 0.000000 -0.007031 0.000000
# 3 -0.003353 -0.006491 0.010702 0.000000 0.004012 0.000000
# 4 0.000000 0.000000 0.000000 0.031567 0.000000 0.013385
# 5 0.000836 -0.007031 0.004012 0.000000 0.032383 0.000000
# 6 0.000000 0.000000 0.000000 0.013385 0.000000 0.135248
#
#
# Mechanical properties :
#
#
# Convention : Reuss Voigt Hill
#
# Bulk Modulus (GPa) = 56.59365 64.24640 60.42002
# Shear Modulus (GPa) = 18.33538 27.38296 22.85917
#
# Velocity S-wave (km/s) = 2.92903 3.57948 3.27047
# Velocity P-wave (km/s) = 6.15788 6.86621 6.52167
#
# Compressibility (1/GPa) = 0.01766983
#
# Stress axis : x y z
#
# Youngs Moduli (GPa) = 71.66149 55.60942 93.43717
#
# Poissons Ratio (x) = 0.14685 0.31330
# Poissons Ratio (y) = 0.18923 0.60650
# Poissons Ratio (z) = 0.24029 0.36096
#
# Static dielectric constant tensor:
#      x y z
#    x 4.152490 0.000000 0.036060 
#    y 0.000000 3.646990 0.000000 
#    z 0.036060 0.000000 4.222160 
# 
# 
# High freq. dielectric constant tensor:
#      x y z
#    x 1.845810 0.000000 0.000050 
#    y 0.000000 1.826200 0.000000 
#    z 0.000050 0.000000 1.862650 
# 
# From -- ./inp_files/234576.got.cif
#   From: 2010.06.25/outbox.cif.g09.slc.cpg/sg15_118_cif.got.tgz:234576.got - 2010.06.28 07:06:18.
