data_PCOD8148215
_publ_section_title
;
Structure prediction by ZEFSAII (Michael W. Deem and Ramdas Pophale) SiO2 
 PCOD8148215
Probable space group: C 2/C
;
_chemical_formula_sum "Si O2"
_cell_formula_units_Z 60
_cell_length_a 23.740947
_cell_length_b 21.510713
_cell_length_c 12.248466
_cell_angle_alpha 90.000000
_cell_angle_beta 28.622481
_cell_angle_gamma 90.000000
_cell_volume 2996.422030
_symmetry_space_group_name_H-M "C 2/C"
_symmetry_group_IT_number 15
_symmetry_cell_setting 'monoclinic'
loop_
_space_group_symop_operation_xyz
x,y,z
-x,y,1/2-z
-x,-y,-z
x,-y,1/2+z
1/2+x,1/2+y,z
1/2-x,1/2+y,1/2-z
1/2-x,1/2-y,-z
1/2+x,1/2-y,1/2+z
loop_
_atom_site_type_symbol
_atom_site_label
_atom_site_fract_x
_atom_site_fract_y
_atom_site_fract_z
Si Si1 0.000000 0.766512 0.750000
Si Si2 0.072544 0.610523 0.960334
Si Si3 0.789699 0.509787 0.874362
Si Si4 0.854959 0.098723 0.252377
Si Si5 0.330938 0.193756 0.887920
Si Si6 0.380991 0.493553 0.511447
Si Si7 0.170297 0.600245 0.036037
Si Si8 0.403469 0.367649 0.063470
O O1 0.940419 0.718529 0.769220
O O2 0.093674 0.811773 0.529663
O O3 0.089831 0.546579 0.861383
O O4 0.126899 0.666932 0.800150
O O5 0.135335 0.597887 0.968672
O O6 0.935414 0.628098 0.211436
O O7 0.733844 0.474456 0.865354
O O8 0.808992 0.468605 0.949520
O O9 0.685585 0.559788 0.073166
O O10 0.747534 0.145483 0.407679
O O11 0.878370 0.051041 0.117947
O O12 0.974784 0.135266 0.077022
O O13 0.250000 0.250000 0.000000
O O14 0.381071 0.565838 0.545242
O O15 0.500000 0.475465 0.250000
O O16 0.290780 0.641019 0.837010
#
# Coordination Sequence:
#
# PCOD8148215 Si02
#       8
#     4   8   8   8   8   8   8   8
#     4  12  24  42  74  98 120 178 228 272 318 382
#     4  10  23  40  59  90 125 175 220 263 315 388
#     4  11  19  35  59  92 131 166 209 257 323 397
#     4  11  22  38  62  98 130 165 212 269 323 383
#     4  11  24  45  69  92 125 166 231 274 307 382
#     4  12  21  33  61 100 137 161 202 268 337 399
#     4  11  22  37  61  90 131 172 209 260 335 396
#     4  12  20  38  64  97 127 166 213 260 333 395
#
# _framework density 20.023883000000001
#
# number of rings (size 3 to 8) (size 9 to 14) (size 15 to 20)
#    0.000    0.800    6.000    2.400    0.000    1.067 
#    0.000    6.000    5.867    0.000    0.000    0.000 
#    0.000    0.000    0.000    0.000    0.000    0.000 
#
# Total GULP energy -371774.983113 kJ/mol
# GULP energy per Si atom -12392.499437 kJ/mol
# Density = 1.997831 g / cm^3
# Si number density = 20.023883 Si / 1000 Ang^3
#
#
#
# Elastic Constant Matrix: (Units=GPa)
#
#
# Indices 1 2 3 4 5 6 
#
# 1 96.5100 42.6935 37.2261 -0.0002 3.9484 0.0005
# 2 42.6935 76.0417 42.5797 -0.0002 4.7792 0.0006
# 3 37.2261 42.5797 158.8279 -0.0006 -4.2331 0.0009
# 4 -0.0002 -0.0002 -0.0006 28.8027 0.0004 2.6360
# 5 3.9484 4.7792 -4.2331 0.0004 23.7021 -0.0006
# 6 0.0005 0.0006 0.0009 2.6360 -0.0006 18.0413
#
#
#
# Elastic Compliance Matrix: (Units=1/GPa)
#
#
# Indices 1 2 3 4 5 6 
#
# 1 0.014072 -0.007015 -0.001449 0.000000 -0.001189 0.000000
# 2 -0.007015 0.019333 -0.003629 0.000000 -0.003378 0.000000
# 3 -0.001449 -0.003629 0.007671 0.000000 0.002343 0.000000
# 4 0.000000 0.000000 0.000000 0.035190 -0.000001 -0.005142
# 5 -0.001189 -0.003378 0.002343 -0.000001 0.043488 0.000002
# 6 0.000000 0.000000 0.000000 -0.005142 0.000002 0.056180
#
#
# Mechanical properties :
#
#
# Convention : Reuss Voigt Hill
#
# Bulk Modulus (GPa) = 59.20346 64.04204 61.62275
# Shear Modulus (GPa) = 24.30128 28.03457 26.16793
#
# Velocity S-wave (km/s) = 3.48748 3.74579 3.61894
# Velocity P-wave (km/s) = 6.77106 7.12462 6.95009
#
# Compressibility (1/GPa) = 0.01689091
#
# Stress axis : x y z
#
# Youngs Moduli (GPa) = 71.06099 51.72399 130.35807
#
# Poissons Ratio (x) = 0.36282 0.18895
# Poissons Ratio (y) = 0.49847 0.47307
# Poissons Ratio (z) = 0.10300 0.18771
#
# Static dielectric constant tensor:
#      x y z
#    x 3.412340 0.000020 -0.032000 
#    y 0.000020 5.444180 0.000010 
#    z -0.032000 0.000010 4.401590 
# 
# 
# High freq. dielectric constant tensor:
#      x y z
#    x 1.775650 0.000000 -0.005640 
#    y 0.000000 1.753820 0.000000 
#    z -0.005640 0.000000 1.803320 
# 
# From -- ./inp_files/119923.got.cif
#   From: 2010.06.25/outbox.cif.g09.slc.cpg/sg15_60_cif.got.tgz:119923.got - 2010.06.28 07:06:18.
