data_PCOD8148680
_publ_section_title
;
Structure prediction by ZEFSAII (Michael W. Deem and Ramdas Pophale) SiO2 
 PCOD8148680
Probable space group: C 2/C
;
_chemical_formula_sum "Si O2"
_cell_formula_units_Z 40
_cell_length_a 13.410044
_cell_length_b 15.751085
_cell_length_c 16.048354
_cell_angle_alpha 90.000000
_cell_angle_beta 147.760398
_cell_angle_gamma 90.000000
_cell_volume 1808.314100
_symmetry_space_group_name_H-M "C 2/C"
_symmetry_group_IT_number 15
_symmetry_cell_setting 'monoclinic'
loop_
_space_group_symop_operation_xyz
x,y,z
-x,y,1/2-z
-x,-y,-z
x,-y,1/2+z
1/2+x,1/2+y,z
1/2-x,1/2+y,1/2-z
1/2-x,1/2-y,-z
1/2+x,1/2-y,1/2+z
loop_
_atom_site_type_symbol
_atom_site_label
_atom_site_fract_x
_atom_site_fract_y
_atom_site_fract_z
Si Si1 0.683588 0.343814 0.433145
Si Si2 0.032865 0.472866 0.929147
Si Si3 0.306107 0.852743 0.986204
Si Si4 0.139216 0.076252 0.079690
Si Si5 0.028316 0.804222 0.643438
O O1 0.500000 0.336734 0.250000
O O2 0.750000 0.250000 0.500000
O O3 0.637960 0.398352 0.482670
O O4 0.840920 0.389098 0.488387
O O5 0.843420 0.455069 0.747410
O O6 0.000000 0.500000 0.000000
O O7 0.142044 0.550033 0.964033
O O8 0.177794 0.835487 0.975557
O O9 0.189970 0.833728 0.820153
O O10 0.499687 0.798038 0.120688
O O11 0.078814 0.159427 0.088946
O O12 0.000000 0.000000 0.000000
#
# Coordination Sequence:
#
# PCOD8148680 Si02
#       5
#     8   8   8   8   8
#     4  12  29  51  75 106 151 195 247 312 373 450
#     4  12  25  45  72 106 142 195 241 302 365 446
#     4  10  23  43  69 101 146 178 242 289 371 417
#     4  12  26  45  72 106 142 194 249 298 376 436
#     4  10  23  42  67 102 136 187 230 305 350 444
#
# _framework density 22.120052000000001
#
# number of rings (size 3 to 8) (size 9 to 14) (size 15 to 20)
#    0.000    0.800    2.000    4.200    8.400    1.600 
#    3.600    0.000    0.000    0.000    0.000    0.000 
#    0.000    0.000    0.000    0.000    0.000    0.000 
#
# Total GULP energy -248055.220218 kJ/mol
# GULP energy per Si atom -12402.761011 kJ/mol
# Density = 2.206971 g / cm^3
# Si number density = 22.120052 Si / 1000 Ang^3
#
#
#
# Elastic Constant Matrix: (Units=GPa)
#
#
# Indices 1 2 3 4 5 6 
#
# 1 115.6062 43.6462 46.6883 0.0015 -10.5248 0.0002
# 2 43.6462 157.5913 67.7361 0.0077 13.9287 0.0028
# 3 46.6883 67.7361 176.7279 0.0198 6.6964 0.0079
# 4 0.0015 0.0077 0.0198 43.0703 0.0083 9.9630
# 5 -10.5248 13.9287 6.6964 0.0083 36.3768 0.0022
# 6 0.0002 0.0028 0.0079 9.9630 0.0022 43.0227
#
#
#
# Elastic Compliance Matrix: (Units=1/GPa)
#
#
# Indices 1 2 3 4 5 6 
#
# 1 0.010842 -0.002508 -0.002073 0.000000 0.004478 0.000000
# 2 -0.002508 0.008389 -0.002421 0.000000 -0.003492 0.000000
# 3 -0.002073 -0.002421 0.007171 -0.000002 -0.000993 -0.000001
# 4 0.000000 0.000000 -0.000002 0.024532 -0.000005 -0.005681
# 5 0.004478 -0.003492 -0.000993 -0.000005 0.030306 0.000000
# 6 0.000000 0.000000 -0.000001 -0.005681 0.000000 0.024559
#
#
# Mechanical properties :
#
#
# Convention : Reuss Voigt Hill
#
# Bulk Modulus (GPa) = 80.64362 85.11851 82.88107
# Shear Modulus (GPa) = 40.34400 43.95094 42.14747
#
# Velocity S-wave (km/s) = 4.27531 4.46233 4.36982
# Velocity P-wave (km/s) = 7.80432 8.06930 7.93792
#
# Compressibility (1/GPa) = 0.01240024
#
# Stress axis : x y z
#
# Youngs Moduli (GPa) = 92.23745 119.20239 139.44318
#
# Poissons Ratio (x) = 0.29891 0.28903
# Poissons Ratio (y) = 0.23129 0.33753
# Poissons Ratio (z) = 0.19118 0.28854
#
# Static dielectric constant tensor:
#      x y z
#    x 4.174210 0.000010 0.012340 
#    y 0.000010 4.295390 -0.000180 
#    z 0.012340 -0.000180 4.212320 
# 
# 
# High freq. dielectric constant tensor:
#      x y z
#    x 1.879200 0.000000 0.003290 
#    y 0.000000 1.885440 0.000000 
#    z 0.003290 0.000000 1.879020 
# 
# From -- ./inp_files/205830.got.cif
#   From: 2010.06.25/outbox.cif.g09.slc.cpg/sg15_103_cif.got.tgz:205830.got - 2010.06.28 07:06:18.
