data_PCOD8148634
_publ_section_title
;
Structure prediction by ZEFSAII (Michael W. Deem and Ramdas Pophale) SiO2 
 PCOD8148634
Probable space group: C 2/C
;
_chemical_formula_sum "Si O2"
_cell_formula_units_Z 48
_cell_length_a 9.010820
_cell_length_b 11.119671
_cell_length_c 21.531129
_cell_angle_alpha 90.000000
_cell_angle_beta 62.324098
_cell_angle_gamma 90.000000
_cell_volume 1910.536309
_symmetry_space_group_name_H-M "C 2/C"
_symmetry_group_IT_number 15
_symmetry_cell_setting 'monoclinic'
loop_
_space_group_symop_operation_xyz
x,y,z
-x,y,1/2-z
-x,-y,-z
x,-y,1/2+z
1/2+x,1/2+y,z
1/2-x,1/2+y,1/2-z
1/2-x,1/2-y,-z
1/2+x,1/2-y,1/2+z
loop_
_atom_site_type_symbol
_atom_site_label
_atom_site_fract_x
_atom_site_fract_y
_atom_site_fract_z
Si Si1 0.395561 0.601611 0.098973
Si Si2 0.393497 0.342349 0.055439
Si Si3 0.574944 0.260124 0.666183
Si Si4 0.500000 0.374421 0.250000
Si Si5 0.000000 0.537181 0.750000
Si Si6 0.441476 0.788756 0.875693
Si Si7 0.260605 0.927751 0.715798
O O1 0.351183 0.461931 0.103569
O O2 0.444759 0.643507 0.160139
O O3 0.249269 0.683512 0.100662
O O4 0.558428 0.627748 0.024312
O O5 0.232684 0.254028 0.089138
O O6 0.548720 0.277905 0.060166
O O7 0.504785 0.125222 0.689170
O O8 0.643856 0.310723 0.720995
O O9 0.477311 0.294688 0.193491
O O10 0.333998 0.455699 0.291556
O O11 0.830906 0.452085 0.773974
O O12 0.559534 0.908517 0.853977
#
# Coordination Sequence:
#
# PCOD8148634 Si02
#       7
#     8   8   8   4   4   8   8
#     4  11  23  43  68  94 129 173 223 275 321 384
#     4  10  23  42  65  95 133 175 221 271 326 380
#     4  11  24  41  65  96 130 171 216 265 325 389
#     4  12  24  40  62  92 128 166 206 262 326 388
#     4  12  24  40  62  92 128 166 206 262 326 388
#     4  11  24  41  65  96 130 171 216 265 325 389
#     4  11  24  39  59  89 124 159 204 255 315 388
#
# _framework density 25.123836000000001
#
# number of rings (size 3 to 8) (size 9 to 14) (size 15 to 20)
#    0.000    1.000    0.000    7.000    0.000    6.667 
#    0.000    0.000    0.000   14.000    0.000    0.000 
#    0.000    0.000    0.000    0.000    0.000    0.000 
#
# Total GULP energy -297485.075665 kJ/mol
# GULP energy per Si atom -12395.211486 kJ/mol
# Density = 2.506665 g / cm^3
# Si number density = 25.123836 Si / 1000 Ang^3
#
#
#
# Elastic Constant Matrix: (Units=GPa)
#
#
# Indices 1 2 3 4 5 6 
#
# 1 164.2739 63.6818 9.2329 0.0000 4.9176 0.0000
# 2 63.6818 119.3813 14.4302 0.0000 4.1037 0.0000
# 3 9.2329 14.4302 43.7676 0.0000 12.6403 0.0000
# 4 0.0000 0.0000 0.0000 31.2563 0.0000 2.1502
# 5 4.9176 4.1037 12.6403 0.0000 31.1097 0.0000
# 6 0.0000 0.0000 0.0000 2.1502 0.0000 46.6425
#
#
#
# Elastic Compliance Matrix: (Units=1/GPa)
#
#
# Indices 1 2 3 4 5 6 
#
# 1 0.007689 -0.004068 -0.000096 0.000000 -0.000640 0.000000
# 2 -0.004068 0.010876 -0.002831 0.000000 0.000359 0.000000
# 3 -0.000096 -0.002831 0.026839 0.000000 -0.010516 0.000000
# 4 0.000000 0.000000 0.000000 0.032095 0.000000 -0.001480
# 5 -0.000640 0.000359 -0.010516 0.000000 0.036471 0.000000
# 6 0.000000 0.000000 0.000000 -0.001480 0.000000 0.021508
#
#
# Mechanical properties :
#
#
# Convention : Reuss Voigt Hill
#
# Bulk Modulus (GPa) = 31.83346 55.79028 43.81187
# Shear Modulus (GPa) = 31.26165 37.80690 34.53427
#
# Velocity S-wave (km/s) = 3.53129 3.88341 3.71153
# Velocity P-wave (km/s) = 5.41524 6.50862 5.98694
#
# Compressibility (1/GPa) = 0.03141349
#
# Stress axis : x y z
#
# Youngs Moduli (GPa) = 130.05774 91.94227 37.25929
#
# Poissons Ratio (x) = 0.37401 0.00358
# Poissons Ratio (y) = 0.52906 0.10550
# Poissons Ratio (z) = 0.01249 0.26033
#
# Static dielectric constant tensor:
#      x y z
#    x 4.762120 0.000000 -0.090400 
#    y 0.000000 4.593400 0.000000 
#    z -0.090400 0.000000 4.386280 
# 
# 
# High freq. dielectric constant tensor:
#      x y z
#    x 2.023720 0.000000 -0.014870 
#    y 0.000000 2.008750 0.000000 
#    z -0.014870 0.000000 1.991030 
# 
# From -- ./inp_files/263519.got.cif
#   From: 2010.06.25/outbox.cif.g09.slc.cpg/sg15_132_cif.got.tgz:263519.got - 2010.06.28 07:06:18.
