data_PCOD8148783
_publ_section_title
;
Structure prediction by ZEFSAII (Michael W. Deem and Ramdas Pophale) SiO2 
 PCOD8148783
Probable space group: C 2/C
;
_chemical_formula_sum "Si O2"
_cell_formula_units_Z 56
_cell_length_a 15.924199
_cell_length_b 15.125624
_cell_length_c 21.164187
_cell_angle_alpha 90.000000
_cell_angle_beta 27.151694
_cell_angle_gamma 90.000000
_cell_volume 2326.315112
_symmetry_space_group_name_H-M "C 2/C"
_symmetry_group_IT_number 15
_symmetry_cell_setting 'monoclinic'
loop_
_space_group_symop_operation_xyz
x,y,z
-x,y,1/2-z
-x,-y,-z
x,-y,1/2+z
1/2+x,1/2+y,z
1/2-x,1/2+y,1/2-z
1/2-x,1/2-y,-z
1/2+x,1/2-y,1/2+z
loop_
_atom_site_type_symbol
_atom_site_label
_atom_site_fract_x
_atom_site_fract_y
_atom_site_fract_z
Si Si1 0.321836 0.020313 0.040809
Si Si2 0.476002 0.587826 0.097689
Si Si3 0.371058 0.689035 0.284107
Si Si4 0.222732 0.434102 0.302015
Si Si5 0.556038 0.301440 0.430072
Si Si6 0.204095 0.727966 0.100608
Si Si7 0.683727 0.974447 0.598319
O O1 0.177546 0.098703 0.146668
O O2 0.282574 0.941598 0.117813
O O3 0.516427 0.070034 0.915204
O O4 0.302406 0.973686 0.986578
O O5 0.481696 0.665895 0.146081
O O6 0.298039 0.527241 0.226017
O O7 0.463492 0.625458 0.036020
O O8 0.656380 0.530541 0.979345
O O9 0.500000 0.740298 0.250000
O O10 0.194435 0.745372 0.380979
O O11 0.339089 0.349067 0.199516
O O12 0.382842 0.240243 0.522642
O O13 0.199749 0.623572 0.114385
O O14 0.000000 0.769289 0.250000
O O15 0.250000 0.750000 0.000000
O O16 0.500000 0.018077 0.750000
#
# Coordination Sequence:
#
# PCOD8148783 Si02
#       7
#     8   8   8   8   8   8   8
#     4  10  23  43  73 104 142 183 250 293 367 437
#     4  11  24  46  74 102 143 183 248 299 361 442
#     4  11  26  46  71 108 149 190 236 303 372 442
#     4  10  23  42  71 104 134 193 236 298 361 436
#     4  12  27  44  74 103 152 193 244 303 374 433
#     4  11  29  48  71 109 149 195 250 306 372 438
#     4  11  23  45  77 105 138 187 244 306 355 441
#
# _framework density 24.072405
#
# number of rings (size 3 to 8) (size 9 to 14) (size 15 to 20)
#    0.000    1.143    2.857    1.286    8.000    5.714 
#    0.000    0.000    0.000    0.000    0.000    0.000 
#    0.000    0.000    0.000    0.000    0.000    0.000 
#
# Total GULP energy -347097.752788 kJ/mol
# GULP energy per Si atom -12396.348314 kJ/mol
# Density = 2.401762 g / cm^3
# Si number density = 24.072405 Si / 1000 Ang^3
#
#
#
# Elastic Constant Matrix: (Units=GPa)
#
#
# Indices 1 2 3 4 5 6 
#
# 1 139.3397 11.3803 49.3119 0.0027 -19.0018 0.0125
# 2 11.3803 35.4561 11.2263 0.0370 -6.4798 0.0133
# 3 49.3119 11.2263 140.4791 0.0479 -6.9465 0.0244
# 4 0.0027 0.0370 0.0479 20.3426 0.0139 -1.0078
# 5 -19.0018 -6.4798 -6.9465 0.0139 48.7168 -0.0071
# 6 0.0125 0.0133 0.0244 -1.0078 -0.0071 35.9793
#
#
#
# Elastic Compliance Matrix: (Units=1/GPa)
#
#
# Indices 1 2 3 4 5 6 
#
# 1 0.008659 -0.001385 -0.002790 0.000006 0.002795 0.000000
# 2 -0.001385 0.029778 -0.001737 -0.000053 0.003173 -0.000010
# 3 -0.002790 -0.001737 0.008230 -0.000016 -0.000146 -0.000004
# 4 0.000006 -0.000053 -0.000016 0.049226 -0.000021 0.001379
# 5 0.002795 0.003173 -0.000146 -0.000021 0.022018 0.000002
# 6 0.000000 -0.000010 -0.000004 0.001379 0.000002 0.027832
#
#
# Mechanical properties :
#
#
# Convention : Reuss Voigt Hill
#
# Bulk Modulus (GPa) = 28.70066 51.01243 39.85655
# Shear Modulus (GPa) = 29.55407 37.23150 33.39278
#
# Velocity S-wave (km/s) = 3.50768 3.93701 3.72853
# Velocity P-wave (km/s) = 5.32481 6.47333 5.92695
#
# Compressibility (1/GPa) = 0.03484241
#
# Stress axis : x y z
#
# Youngs Moduli (GPa) = 115.49309 33.58164 121.51242
#
# Poissons Ratio (x) = 0.04650 0.33908
# Poissons Ratio (y) = 0.15993 0.21103
# Poissons Ratio (z) = 0.32228 0.05832
#
# Static dielectric constant tensor:
#      x y z
#    x 4.698080 -0.000050 -0.087630 
#    y -0.000050 3.884800 -0.000710 
#    z -0.087630 -0.000710 4.181330 
# 
# 
# High freq. dielectric constant tensor:
#      x y z
#    x 1.966470 0.000000 -0.001400 
#    y 0.000000 1.931580 0.000010 
#    z -0.001400 0.000010 1.975610 
# 
# From -- ./inp_files/245111.got.cif
#   From: 2010.06.25/outbox.cif.g09.slc.cpg/sg15_123_cif.got.tgz:245111.got - 2010.06.28 07:06:18.
