data_PCOD8148947
_publ_section_title
;
Structure prediction by ZEFSAII (Michael W. Deem and Ramdas Pophale) SiO2 
 PCOD8148947
Probable space group: C 2/C
;
_chemical_formula_sum "Si O2"
_cell_formula_units_Z 52
_cell_length_a 14.820471
_cell_length_b 14.355333
_cell_length_c 11.080578
_cell_angle_alpha 90.000000
_cell_angle_beta 65.802228
_cell_angle_gamma 90.000000
_cell_volume 2150.291388
_symmetry_space_group_name_H-M "C 2/C"
_symmetry_group_IT_number 15
_symmetry_cell_setting 'monoclinic'
loop_
_space_group_symop_operation_xyz
x,y,z
-x,y,1/2-z
-x,-y,-z
x,-y,1/2+z
1/2+x,1/2+y,z
1/2-x,1/2+y,1/2-z
1/2-x,1/2-y,-z
1/2+x,1/2-y,1/2+z
loop_
_atom_site_type_symbol
_atom_site_label
_atom_site_fract_x
_atom_site_fract_y
_atom_site_fract_z
Si Si1 0.076821 0.256164 0.991212
Si Si2 0.127180 0.762202 0.016261
Si Si3 0.833202 0.422530 0.440885
Si Si4 0.789985 0.613196 0.384148
Si Si5 0.812024 0.040238 0.287254
Si Si6 0.500000 0.360497 0.750000
Si Si7 0.751787 0.842280 0.242436
O O1 0.087170 0.366083 0.021799
O O2 0.062994 0.201030 0.123166
O O3 0.987448 0.235040 0.949619
O O4 0.174957 0.227026 0.867106
O O5 0.179622 0.863789 0.002388
O O6 0.186676 0.710496 0.876473
O O7 0.143648 0.706579 0.133798
O O8 0.855260 0.533077 0.414686
O O9 0.724295 0.426298 0.561495
O O10 0.827097 0.376629 0.313303
O O11 0.767769 0.587392 0.259047
O O12 0.924396 0.076462 0.212340
O O13 0.811031 0.929273 0.267061
#
# Coordination Sequence:
#
# PCOD8148947 Si02
#       7
#     8   8   8   8   8   4   8
#     4  12  25  40  74 105 135 178 248 289 354 422
#     4  11  23  46  70  98 141 186 231 291 355 431
#     4  11  23  43  70 101 132 186 230 295 348 419
#     4  10  23  43  68  93 144 184 221 289 363 409
#     4  11  23  44  70  98 141 177 238 292 356 420
#     4  12  24  42  70 108 136 178 240 304 344 426
#     4  11  24  44  72 100 137 188 230 292 359 418
#
# _framework density 24.182767999999999
#
# number of rings (size 3 to 8) (size 9 to 14) (size 15 to 20)
#    0.000    0.923    4.615    2.308    0.000    2.462 
#    0.000    3.846    6.769    0.000    0.000    0.000 
#    0.000    0.000    0.000    0.000    0.000    0.000 
#
# Total GULP energy -322124.159847 kJ/mol
# GULP energy per Si atom -12389.390763 kJ/mol
# Density = 2.412773 g / cm^3
# Si number density = 24.182768 Si / 1000 Ang^3
#
#
#
# Elastic Constant Matrix: (Units=GPa)
#
#
# Indices 1 2 3 4 5 6 
#
# 1 62.1009 5.2557 -15.8501 0.0000 9.5119 0.0000
# 2 5.2557 86.9614 7.2837 0.0000 2.8062 0.0000
# 3 -15.8501 7.2837 67.5716 0.0000 1.4679 0.0000
# 4 0.0000 0.0000 0.0000 26.4135 0.0000 2.7156
# 5 9.5119 2.8062 1.4679 0.0000 29.0524 0.0000
# 6 0.0000 0.0000 0.0000 2.7156 0.0000 35.1886
#
#
#
# Elastic Compliance Matrix: (Units=1/GPa)
#
#
# Indices 1 2 3 4 5 6 
#
# 1 0.018313 -0.001292 0.004567 0.000000 -0.006102 0.000000
# 2 -0.001292 0.011728 -0.001554 0.000000 -0.000631 0.000000
# 3 0.004567 -0.001554 0.016085 0.000000 -0.002158 0.000000
# 4 0.000000 0.000000 0.000000 0.038162 0.000000 -0.002945
# 5 -0.006102 -0.000631 -0.002158 0.000000 0.036588 0.000000
# 6 0.000000 0.000000 0.000000 -0.002945 0.000000 0.028646
#
#
# Mechanical properties :
#
#
# Convention : Reuss Voigt Hill
#
# Bulk Modulus (GPa) = 20.17431 23.33470 21.75451
# Shear Modulus (GPa) = 30.75009 32.79390 31.77199
#
# Velocity S-wave (km/s) = 3.56978 3.68650 3.62861
# Velocity P-wave (km/s) = 5.03504 5.27168 5.15472
#
# Compressibility (1/GPa) = 0.04956798
#
# Stress axis : x y z
#
# Youngs Moduli (GPa) = 54.60748 85.26635 62.17044
#
# Poissons Ratio (x) = 0.11020 -0.28396
# Poissons Ratio (y) = 0.07058 0.09659
# Poissons Ratio (z) = -0.24941 0.13247
#
# Static dielectric constant tensor:
#      x y z
#    x 4.148250 0.000000 0.340560 
#    y 0.000000 4.713160 0.000000 
#    z 0.340560 0.000000 4.373490 
# 
# 
# High freq. dielectric constant tensor:
#      x y z
#    x 1.940320 0.000000 0.026550 
#    y 0.000000 1.970950 0.000000 
#    z 0.026550 0.000000 1.958360 
# 
# From -- ./inp_files/96979.got.cif
#   From: 2010.06.25/outbox.cif.g09.slc.cpg/sg15_49_cif.got.tgz:96979.got - 2010.06.28 07:06:18.
