data_PCOD8148290
_publ_section_title
;
Structure prediction by ZEFSAII (Michael W. Deem and Ramdas Pophale) SiO2 
 PCOD8148290
Probable space group: C 2/C
;
_chemical_formula_sum "Si O2"
_cell_formula_units_Z 32
_cell_length_a 4.875413
_cell_length_b 13.337775
_cell_length_c 21.380800
_cell_angle_alpha 90.000000
_cell_angle_beta 107.440492
_cell_angle_gamma 90.000000
_cell_volume 1326.417407
_symmetry_space_group_name_H-M "C 2/C"
_symmetry_group_IT_number 15
_symmetry_cell_setting 'monoclinic'
loop_
_space_group_symop_operation_xyz
x,y,z
-x,y,1/2-z
-x,-y,-z
x,-y,1/2+z
1/2+x,1/2+y,z
1/2-x,1/2+y,1/2-z
1/2-x,1/2-y,-z
1/2+x,1/2-y,1/2+z
loop_
_atom_site_type_symbol
_atom_site_label
_atom_site_fract_x
_atom_site_fract_y
_atom_site_fract_z
Si Si1 0.692965 0.703498 0.205488
Si Si2 0.182063 0.665739 0.907117
Si Si3 0.399104 0.548883 0.403065
Si Si4 0.486631 0.140374 0.467692
O O1 0.500000 0.667349 0.250000
O O2 0.540331 0.794715 0.159370
O O3 0.745454 0.608499 0.163969
O O4 0.000000 0.743171 0.250000
O O5 0.332098 0.567340 0.890130
O O6 0.431365 0.747559 0.938001
O O7 0.998958 0.641796 0.956666
O O8 0.740170 0.565077 0.426377
O O9 0.284542 0.596234 0.461017
#
# Coordination Sequence:
#
# PCOD8148290 Si02
#       4
#     8   8   8   8
#     4  11  25  44  61  88 128 169 220 262 294 366
#     4  10  23  42  69  94 127 168 202 258 327 370
#     4  11  23  42  66  94 128 164 205 260 320 374
#     4  10  23  40  66 103 129 151 205 264 317 389
#
# _framework density 24.125133999999999
#
# number of rings (size 3 to 8) (size 9 to 14) (size 15 to 20)
#    0.000    1.500    0.000    4.500    0.000   18.000 
#    0.000    7.500    0.000    0.000    0.000    0.000 
#    0.000    0.000    0.000    0.000    0.000    0.000 
#
# Total GULP energy -198540.021720 kJ/mol
# GULP energy per Si atom -12408.751358 kJ/mol
# Density = 2.407022 g / cm^3
# Si number density = 24.125134 Si / 1000 Ang^3
#
#
#
# Elastic Constant Matrix: (Units=GPa)
#
#
# Indices 1 2 3 4 5 6 
#
# 1 55.7877 20.4409 -9.3897 0.0000 -19.2708 0.0000
# 2 20.4409 196.4577 35.8322 0.0000 -5.9766 0.0000
# 3 -9.3897 35.8322 79.2130 0.0000 -14.7151 0.0000
# 4 0.0000 0.0000 0.0000 4.4331 0.0000 -4.9594
# 5 -19.2708 -5.9766 -14.7151 0.0000 26.5891 0.0000
# 6 0.0000 0.0000 0.0000 -4.9594 0.0000 32.6111
#
#
#
# Elastic Compliance Matrix: (Units=1/GPa)
#
#
# Indices 1 2 3 4 5 6 
#
# 1 0.030662 -0.004302 0.010621 0.000000 0.027134 0.000000
# 2 -0.004302 0.006152 -0.004029 0.000000 -0.003965 0.000000
# 3 0.010621 -0.004029 0.018912 0.000000 0.017258 0.000000
# 4 0.000000 0.000000 0.000000 0.271818 0.000000 0.041337
# 5 0.027134 -0.003965 0.017258 0.000000 0.065935 0.000000
# 6 0.000000 0.000000 0.000000 0.041337 0.000000 0.036951
#
#
# Mechanical properties :
#
#
# Convention : Reuss Voigt Hill
#
# Bulk Modulus (GPa) = 16.58236 47.24726 31.91481
# Shear Modulus (GPa) = 11.21198 31.69833 21.45515
#
# Velocity S-wave (km/s) = 2.15813 3.62873 2.98540
# Velocity P-wave (km/s) = 3.61917 6.09784 5.01408
#
# Compressibility (1/GPa) = 0.06030504
#
# Stress axis : x y z
#
# Youngs Moduli (GPa) = 32.61387 162.54667 52.87668
#
# Poissons Ratio (x) = 0.69928 -0.56161
# Poissons Ratio (y) = 0.14031 0.21306
# Poissons Ratio (z) = -0.34639 0.65497
#
# Static dielectric constant tensor:
#      x y z
#    x 4.268410 0.000000 -0.080250 
#    y 0.000000 4.435740 0.000000 
#    z -0.080250 0.000000 4.434030 
# 
# 
# High freq. dielectric constant tensor:
#      x y z
#    x 1.964430 0.000000 0.001700 
#    y 0.000000 1.963350 0.000000 
#    z 0.001700 0.000000 1.954430 
# 
# From -- ./inp_files/183892.got.cif
#   From: 2010.06.25/outbox.cif.g09.slc.cpg/sg15_92_cif.got.tgz:183892.got - 2010.06.28 07:06:18.
