data_PCOD8148848
_publ_section_title
;
Structure prediction by ZEFSAII (Michael W. Deem and Ramdas Pophale) SiO2 
 PCOD8148848
Probable space group: C 2/C
;
_chemical_formula_sum "Si O2"
_cell_formula_units_Z 48
_cell_length_a 16.523044
_cell_length_b 20.157497
_cell_length_c 11.628164
_cell_angle_alpha 90.000000
_cell_angle_beta 143.428377
_cell_angle_gamma 90.000000
_cell_volume 2307.587239
_symmetry_space_group_name_H-M "C 2/C"
_symmetry_group_IT_number 15
_symmetry_cell_setting 'monoclinic'
loop_
_space_group_symop_operation_xyz
x,y,z
-x,y,1/2-z
-x,-y,-z
x,-y,1/2+z
1/2+x,1/2+y,z
1/2-x,1/2+y,1/2-z
1/2-x,1/2-y,-z
1/2+x,1/2-y,1/2+z
loop_
_atom_site_type_symbol
_atom_site_label
_atom_site_fract_x
_atom_site_fract_y
_atom_site_fract_z
Si Si1 0.366023 0.760243 0.040231
Si Si2 0.175214 0.091486 0.126970
Si Si3 0.637103 0.456146 0.965919
Si Si4 0.156501 0.812579 0.407446
Si Si5 0.142273 0.583924 0.963041
Si Si6 0.597498 0.648476 0.596110
O O1 0.500000 0.731060 0.250000
O O2 0.370773 0.838181 0.026856
O O3 0.250000 0.750000 0.000000
O O4 0.361430 0.719585 0.914697
O O5 0.301737 0.062413 0.346709
O O6 0.221484 0.144510 0.084283
O O7 0.063521 0.128842 0.080633
O O8 0.112968 0.030055 0.985539
O O9 0.500000 0.431503 0.750000
O O10 0.755638 0.446774 0.011044
O O11 0.674340 0.407970 0.113179
O O12 0.250000 0.750000 0.500000
O O13 0.160811 0.854472 0.295034
O O14 0.000000 0.791182 0.250000
O O15 0.000000 0.556467 0.750000
#
# Coordination Sequence:
#
# PCOD8148848 Si02
#       6
#     8   8   8   8   8   8
#     4  11  21  37  61  95 128 166 213 267 327 377
#     4  11  24  42  69  95 130 170 225 273 322 391
#     4  12  23  41  70  98 126 170 225 272 325 381
#     4  10  23  43  64  96 130 172 215 265 330 395
#     4  11  25  42  62  96 136 169 213 271 334 395
#     4  11  21  39  68  98 128 163 220 277 322 375
#
# _framework density 20.800946
#
# number of rings (size 3 to 8) (size 9 to 14) (size 15 to 20)
#    0.000    1.000    3.333    4.500    2.333    2.000 
#    3.000    0.833    0.000    0.000    0.000    0.000 
#    0.000    0.000    0.000    0.000    0.000    0.000 
#
# Total GULP energy -297336.600432 kJ/mol
# GULP energy per Si atom -12389.025018 kJ/mol
# Density = 2.075360 g / cm^3
# Si number density = 20.800946 Si / 1000 Ang^3
#
#
#
# Elastic Constant Matrix: (Units=GPa)
#
#
# Indices 1 2 3 4 5 6 
#
# 1 124.9253 34.9290 61.4451 0.0000 -9.7280 0.0000
# 2 34.9290 78.1395 8.9908 0.0000 -1.4007 0.0000
# 3 61.4451 8.9908 127.4354 0.0000 -5.1569 0.0000
# 4 0.0000 0.0000 0.0000 25.4789 0.0000 -3.8527
# 5 -9.7280 -1.4007 -5.1569 0.0000 33.6312 0.0000
# 6 0.0000 0.0000 0.0000 -3.8527 0.0000 32.7004
#
#
#
# Elastic Compliance Matrix: (Units=1/GPa)
#
#
# Indices 1 2 3 4 5 6 
#
# 1 0.012221 -0.004791 -0.005454 0.000000 0.002499 0.000000
# 2 -0.004791 0.014786 0.001243 0.000000 -0.000579 0.000000
# 3 -0.005454 0.001243 0.010392 0.000000 0.000068 0.000000
# 4 0.000000 0.000000 0.000000 0.039960 0.000000 0.004708
# 5 0.002499 -0.000579 0.000068 0.000000 0.030443 0.000000
# 6 0.000000 0.000000 0.000000 0.004708 0.000000 0.031135
#
#
# Mechanical properties :
#
#
# Convention : Reuss Voigt Hill
#
# Bulk Modulus (GPa) = 51.55516 60.13667 55.84592
# Shear Modulus (GPa) = 30.59888 33.37114 31.98501
#
# Velocity S-wave (km/s) = 3.83957 4.00973 3.92557
# Velocity P-wave (km/s) = 6.67047 7.10004 6.88860
#
# Compressibility (1/GPa) = 0.01939670
#
# Stress axis : x y z
#
# Youngs Moduli (GPa) = 81.82492 67.63314 96.23116
#
# Poissons Ratio (x) = 0.32401 0.52480
# Poissons Ratio (y) = 0.39200 -0.11964
# Poissons Ratio (z) = 0.44623 -0.08409
#
# Static dielectric constant tensor:
#      x y z
#    x 3.960450 0.000000 -0.075830 
#    y 0.000000 3.601210 0.000000 
#    z -0.075830 0.000000 4.027000 
# 
# 
# High freq. dielectric constant tensor:
#      x y z
#    x 1.821850 0.000000 -0.019690 
#    y 0.000000 1.810540 0.000000 
#    z -0.019690 0.000000 1.811580 
# 
# From -- ./inp_files/100060.got.cif
#   From: 2010.06.25/outbox.cif.g09.slc.cpg/sg15_51_cif.got.tgz:100060.got - 2010.06.28 07:06:18.
