data_PCOD8148587
_publ_section_title
;
Structure prediction by ZEFSAII (Michael W. Deem and Ramdas Pophale) SiO2 
 PCOD8148587
Probable space group: C 2/C
;
_chemical_formula_sum "Si O2"
_cell_formula_units_Z 64
_cell_length_a 25.799847
_cell_length_b 11.395362
_cell_length_c 10.617121
_cell_angle_alpha 90.000000
_cell_angle_beta 101.102573
_cell_angle_gamma 90.000000
_cell_volume 3062.998251
_symmetry_space_group_name_H-M "C 2/C"
_symmetry_group_IT_number 15
_symmetry_cell_setting 'monoclinic'
loop_
_space_group_symop_operation_xyz
x,y,z
-x,y,1/2-z
-x,-y,-z
x,-y,1/2+z
1/2+x,1/2+y,z
1/2-x,1/2+y,1/2-z
1/2-x,1/2-y,-z
1/2+x,1/2-y,1/2+z
loop_
_atom_site_type_symbol
_atom_site_label
_atom_site_fract_x
_atom_site_fract_y
_atom_site_fract_z
Si Si1 0.690822 0.147331 0.229921
Si Si2 0.110031 0.493744 0.068238
Si Si3 0.809657 0.887198 0.850482
Si Si4 0.939906 0.588430 0.709002
Si Si5 0.138292 0.272390 0.944510
Si Si6 0.356880 0.632132 0.901490
Si Si7 0.396691 0.338400 0.684615
Si Si8 0.062173 0.094267 0.772947
O O1 0.751673 0.114250 0.265995
O O2 0.661554 0.139384 0.350821
O O3 0.683273 0.282800 0.189298
O O4 0.665733 0.060516 0.114263
O O5 0.084609 0.496847 0.195826
O O6 0.078308 0.558372 0.941922
O O7 0.114961 0.356893 0.039688
O O8 0.850716 0.850210 0.763756
O O9 0.823940 0.014996 0.907484
O O10 0.813719 0.801272 0.972129
O O11 0.932041 0.726306 0.735727
O O12 0.000000 0.557082 0.750000
O O13 0.092352 0.181681 0.882105
O O14 0.412257 0.613722 0.852747
O O15 0.370116 0.690450 0.039537
O O16 0.430725 0.457805 0.686432
O O17 0.000000 0.125206 0.750000
#
# Coordination Sequence:
#
# PCOD8148587 Si02
#       8
#     8   8   8   8   8   8   8   8
#     4  11  25  43  67  94 130 179 213 270 328 387
#     4  12  25  46  66  98 134 170 228 271 319 401
#     4  11  24  41  67  94 132 172 213 271 332 382
#     4  12  26  45  69  94 133 179 218 272 331 387
#     4  11  23  44  66  94 133 170 222 265 322 400
#     4  10  23  42  63  97 130 161 219 267 316 396
#     4  11  22  43  64  98 129 159 220 270 318 391
#     4  10  23  42  66  94 129 171 210 268 334 383
#
# _framework density 20.894559999999998
#
# number of rings (size 3 to 8) (size 9 to 14) (size 15 to 20)
#    0.000    1.000    5.000    1.125    1.750    3.500 
#    0.000    0.000    0.000    0.000    0.000    0.000 
#    0.000    0.000    0.000    0.000    0.000    0.000 
#
# Total GULP energy -396737.739445 kJ/mol
# GULP energy per Si atom -12398.054358 kJ/mol
# Density = 2.084700 g / cm^3
# Si number density = 20.894560 Si / 1000 Ang^3
#
#
#
# Elastic Constant Matrix: (Units=GPa)
#
#
# Indices 1 2 3 4 5 6 
#
# 1 80.3255 39.2524 30.1169 0.0000 27.1005 0.0000
# 2 39.2524 106.4807 32.0401 0.0000 6.5114 0.0000
# 3 30.1169 32.0401 112.3498 0.0000 11.9296 0.0000
# 4 0.0000 0.0000 0.0000 37.1611 0.0000 1.6904
# 5 27.1005 6.5114 11.9296 0.0000 34.0757 0.0000
# 6 0.0000 0.0000 0.0000 1.6904 0.0000 17.3719
#
#
#
# Elastic Compliance Matrix: (Units=1/GPa)
#
#
# Indices 1 2 3 4 5 6 
#
# 1 0.021492 -0.006289 -0.002368 0.000000 -0.015062 0.000000
# 2 -0.006289 0.012144 -0.002142 0.000000 0.003431 0.000000
# 3 -0.002368 -0.002142 0.010285 0.000000 -0.001308 0.000000
# 4 0.000000 0.000000 0.000000 0.027029 0.000000 -0.002630
# 5 -0.015062 0.003431 -0.001308 0.000000 0.041127 0.000000
# 6 0.000000 0.000000 0.000000 -0.002630 0.000000 0.057820
#
#
# Mechanical properties :
#
#
# Convention : Reuss Voigt Hill
#
# Bulk Modulus (GPa) = 44.79604 55.77498 50.28551
# Shear Modulus (GPa) = 25.13335 30.90486 28.01911
#
# Velocity S-wave (km/s) = 3.47200 3.85006 3.66591
# Velocity P-wave (km/s) = 6.12851 6.82022 6.48360
#
# Compressibility (1/GPa) = 0.02232340
#
# Stress axis : x y z
#
# Youngs Moduli (GPa) = 46.52841 82.34258 97.22576
#
# Poissons Ratio (x) = 0.51786 0.23027
# Poissons Ratio (y) = 0.29262 0.20824
# Poissons Ratio (z) = 0.11020 0.17636
#
# Static dielectric constant tensor:
#      x y z
#    x 3.519740 0.000000 -0.140750 
#    y 0.000000 3.903590 0.000000 
#    z -0.140750 0.000000 4.238440 
# 
# 
# High freq. dielectric constant tensor:
#      x y z
#    x 1.800120 0.000000 -0.003040 
#    y 0.000000 1.834140 0.000000 
#    z -0.003040 0.000000 1.832720 
# 
# From -- ./inp_files/118044.got.cif
#   From: 2010.06.25/outbox.cif.g09.slc.cpg/sg15_60_cif.got.tgz:118044.got - 2010.06.28 07:06:18.
