data_PCOD8148635
_publ_section_title
;
Structure prediction by ZEFSAII (Michael W. Deem and Ramdas Pophale) SiO2 
 PCOD8148635
Probable space group: C 2/C
;
_chemical_formula_sum "Si O2"
_cell_formula_units_Z 40
_cell_length_a 10.768694
_cell_length_b 11.910109
_cell_length_c 18.436625
_cell_angle_alpha 90.000000
_cell_angle_beta 50.961722
_cell_angle_gamma 90.000000
_cell_volume 1836.655384
_symmetry_space_group_name_H-M "C 2/C"
_symmetry_group_IT_number 15
_symmetry_cell_setting 'monoclinic'
loop_
_space_group_symop_operation_xyz
x,y,z
-x,y,1/2-z
-x,-y,-z
x,-y,1/2+z
1/2+x,1/2+y,z
1/2-x,1/2+y,1/2-z
1/2-x,1/2-y,-z
1/2+x,1/2-y,1/2+z
loop_
_atom_site_type_symbol
_atom_site_label
_atom_site_fract_x
_atom_site_fract_y
_atom_site_fract_z
Si Si1 0.439070 0.816380 0.690722
Si Si2 0.635452 0.764226 0.362293
Si Si3 0.606235 0.389301 0.142014
Si Si4 0.544834 0.048454 0.651318
Si Si5 0.100789 0.068020 0.020214
O O1 0.500000 0.803228 0.750000
O O2 0.246816 0.813950 0.769393
O O3 0.509069 0.702581 0.627925
O O4 0.507562 0.927670 0.626082
O O5 0.727688 0.827312 0.394547
O O6 0.575276 0.861937 0.333892
O O7 0.485767 0.687982 0.440576
O O8 0.500000 0.428060 0.250000
O O9 0.629812 0.500279 0.084610
O O10 0.500000 0.025422 0.750000
O O11 0.724945 0.089888 0.576731
O O12 0.000000 0.000000 0.000000
#
# Coordination Sequence:
#
# PCOD8148635 Si02
#       5
#     8   8   8   8   8
#     4   8  18  38  65  87 124 175 221 263 335 397
#     4  10  23  42  65  95 136 171 228 274 345 399
#     4   9  22  43  67  98 132 178 227 276 337 411
#     4  11  24  42  63  98 136 173 221 280 334 401
#     4  12  25  41  71  99 133 175 233 271 339 409
#
# _framework density 21.778718000000001
#
# number of rings (size 3 to 8) (size 9 to 14) (size 15 to 20)
#    0.000    2.400    0.000    4.200   11.200    4.800 
#    0.000    0.000    0.000    0.000    0.000    0.000 
#    0.000    0.000    0.000    0.000    0.000    0.000 
#
# Total GULP energy -247768.350153 kJ/mol
# GULP energy per Si atom -12388.417508 kJ/mol
# Density = 2.172915 g / cm^3
# Si number density = 21.778718 Si / 1000 Ang^3
#
#
#
# Elastic Constant Matrix: (Units=GPa)
#
#
# Indices 1 2 3 4 5 6 
#
# 1 73.7784 34.6366 36.8615 0.0000 -19.8665 0.0000
# 2 34.6366 82.5460 25.4020 0.0000 1.1090 0.0000
# 3 36.8615 25.4020 91.9349 0.0000 -25.7074 0.0000
# 4 0.0000 0.0000 0.0000 -169.8731 0.0000 -1.5891
# 5 -19.8665 1.1090 -25.7074 0.0000 35.5389 0.0000
# 6 0.0000 0.0000 0.0000 -1.5891 0.0000 27.6568
#
#
#
# Elastic Compliance Matrix: (Units=1/GPa)
#
#
# Indices 1 2 3 4 5 6 
#
# 1 0.021908 -0.008152 -0.003806 0.000000 0.009748 0.000000
# 2 -0.008152 0.016705 -0.003468 0.000000 -0.007587 0.000000
# 3 -0.003806 -0.003468 0.016042 0.000000 0.009585 0.000000
# 4 0.000000 0.000000 0.000000 -0.005884 0.000000 -0.000338
# 5 0.009748 -0.007587 0.009585 0.000000 0.040757 0.000000
# 6 0.000000 0.000000 0.000000 -0.000338 0.000000 0.036138
#
#
# Mechanical properties :
#
#
# Convention : Reuss Voigt Hill
#
# Bulk Modulus (GPa) = 42.01512 49.11773 45.56643
# Shear Modulus (GPa) = 30.40399 -11.24487 9.57956
#
# Velocity S-wave (km/s) = 3.74042 -2.27474 2.09956
# Velocity P-wave (km/s) = 6.16344 3.96267 5.18125
#
# Compressibility (1/GPa) = 0.02380095
#
# Stress axis : x y z
#
# Youngs Moduli (GPa) = 45.64621 59.86401 62.33798
#
# Poissons Ratio (x) = 0.48804 0.23723
# Poissons Ratio (y) = 0.37213 0.21622
# Poissons Ratio (z) = 0.17371 0.20764
#
# Static dielectric constant tensor:
#      x y z
#    x 3.784550 0.000000 -0.242220 
#    y 0.000000 4.224820 0.000000 
#    z -0.242220 0.000000 3.752320 
# 
# 
# High freq. dielectric constant tensor:
#      x y z
#    x 1.836920 0.000000 -0.026330 
#    y 0.000000 1.869120 0.000000 
#    z -0.026330 0.000000 1.845440 
# 
# From -- ./inp_files/141915.got.cif
#   From: 2010.06.25/outbox.cif.g09.slc.cpg/sg15_71_cif.got.tgz:141915.got - 2010.06.28 07:06:18.
