data_PCOD8148322
_publ_section_title
;
Structure prediction by ZEFSAII (Michael W. Deem and Ramdas Pophale) SiO2 
 PCOD8148322
Probable space group: C 2/C
;
_chemical_formula_sum "Si O2"
_cell_formula_units_Z 40
_cell_length_a 8.706325
_cell_length_b 23.869585
_cell_length_c 8.805041
_cell_angle_alpha 90.000000
_cell_angle_beta 89.474241
_cell_angle_gamma 90.000000
_cell_volume 1829.754573
_symmetry_space_group_name_H-M "C 2/C"
_symmetry_group_IT_number 15
_symmetry_cell_setting 'monoclinic'
loop_
_space_group_symop_operation_xyz
x,y,z
-x,y,1/2-z
-x,-y,-z
x,-y,1/2+z
1/2+x,1/2+y,z
1/2-x,1/2+y,1/2-z
1/2-x,1/2-y,-z
1/2+x,1/2-y,1/2+z
loop_
_atom_site_type_symbol
_atom_site_label
_atom_site_fract_x
_atom_site_fract_y
_atom_site_fract_z
Si Si1 0.828612 0.197979 0.074099
Si Si2 0.893423 0.906782 0.396411
Si Si3 0.688161 0.696352 0.087888
Si Si4 0.308782 0.571102 0.455337
Si Si5 0.817923 0.490995 0.261737
O O1 0.751234 0.191921 0.240262
O O2 0.008356 0.206049 0.089078
O O3 0.750000 0.250000 0.000000
O O4 0.800356 0.145444 0.964564
O O5 0.757102 0.948475 0.357482
O O6 0.000000 0.890823 0.250000
O O7 0.006478 0.933881 0.523355
O O8 0.735300 0.636515 0.012162
O O9 0.750000 0.750000 0.000000
O O10 0.257821 0.551323 0.285670
O O11 0.221927 0.528891 0.569351
O O12 0.000000 0.493729 0.250000
#
# Coordination Sequence:
#
# PCOD8148322 Si02
#       5
#     8   8   8   8   8
#     4  10  23  40  68  93 124 167 215 262 314 379
#     4   9  21  41  66  93 125 168 213 259 316 388
#     4  10  24  45  63  94 131 165 215 261 321 380
#     4  10  23  43  65  89 128 172 210 262 311 392
#     4  11  23  40  64  94 128 161 214 266 322 369
#
# _framework density 21.860854
#
# number of rings (size 3 to 8) (size 9 to 14) (size 15 to 20)
#    0.000    2.000    0.000    1.200   11.200    1.600 
#   10.800    0.000    0.000    0.000    0.000    0.000 
#    0.000    0.000    0.000    0.000    0.000    0.000 
#
# Total GULP energy -247836.819919 kJ/mol
# GULP energy per Si atom -12391.840996 kJ/mol
# Density = 2.181110 g / cm^3
# Si number density = 21.860854 Si / 1000 Ang^3
#
#
#
# Elastic Constant Matrix: (Units=GPa)
#
#
# Indices 1 2 3 4 5 6 
#
# 1 73.8129 39.9179 37.6258 0.0000 15.6310 0.0000
# 2 39.9179 151.7284 67.8786 0.0000 -0.1114 0.0000
# 3 37.6258 67.8786 94.9161 0.0000 0.9882 0.0000
# 4 0.0000 0.0000 0.0000 44.8170 0.0000 3.9313
# 5 15.6310 -0.1114 0.9882 0.0000 28.6985 0.0000
# 6 0.0000 0.0000 0.0000 3.9313 0.0000 38.1388
#
#
#
# Elastic Compliance Matrix: (Units=1/GPa)
#
#
# Indices 1 2 3 4 5 6 
#
# 1 0.020387 -0.002657 -0.006068 0.000000 -0.010906 0.000000
# 2 -0.002657 0.010040 -0.006144 0.000000 0.001698 0.000000
# 3 -0.006068 -0.006144 0.017307 0.000000 0.002685 0.000000
# 4 0.000000 0.000000 0.000000 0.022517 0.000000 -0.002321
# 5 -0.010906 0.001698 0.002685 0.000000 0.040699 0.000000
# 6 0.000000 0.000000 0.000000 -0.002321 0.000000 0.026459
#
#
# Mechanical properties :
#
#
# Convention : Reuss Voigt Hill
#
# Bulk Modulus (GPa) = 55.56946 67.92244 61.74595
# Shear Modulus (GPa) = 28.87734 33.99987 31.43861
#
# Velocity S-wave (km/s) = 3.63845 3.94799 3.79637
# Velocity P-wave (km/s) = 6.56703 7.20555 6.89369
#
# Compressibility (1/GPa) = 0.01799550
#
# Stress axis : x y z
#
# Youngs Moduli (GPa) = 49.05028 99.60407 57.77955
#
# Poissons Ratio (x) = 0.26464 0.35061
# Poissons Ratio (y) = 0.13032 0.35501
# Poissons Ratio (z) = 0.29764 0.61200
#
# Static dielectric constant tensor:
#      x y z
#    x 3.797710 0.000000 0.643830 
#    y 0.000000 4.068470 0.000000 
#    z 0.643830 0.000000 6.761130 
# 
# 
# High freq. dielectric constant tensor:
#      x y z
#    x 1.837850 0.000000 0.014890 
#    y 0.000000 1.867640 0.000000 
#    z 0.014890 0.000000 1.872740 
# 
# From -- ./inp_files/23463.got.cif
#   From: 2010.06.25/outbox.cif.g09.slc.cpg/sg15_12_cif.got.tgz:23463.got - 2010.06.28 07:06:18.
