data_PCOD8148753
_publ_section_title
;
Structure prediction by ZEFSAII (Michael W. Deem and Ramdas Pophale) SiO2 
 PCOD8148753
Probable space group: C 2/C
;
_chemical_formula_sum "Si O2"
_cell_formula_units_Z 52
_cell_length_a 9.555682
_cell_length_b 21.093216
_cell_length_c 14.983947
_cell_angle_alpha 90.000000
_cell_angle_beta 124.760189
_cell_angle_gamma 90.000000
_cell_volume 2481.203416
_symmetry_space_group_name_H-M "C 2/C"
_symmetry_group_IT_number 15
_symmetry_cell_setting 'monoclinic'
loop_
_space_group_symop_operation_xyz
x,y,z
-x,y,1/2-z
-x,-y,-z
x,-y,1/2+z
1/2+x,1/2+y,z
1/2-x,1/2+y,1/2-z
1/2-x,1/2-y,-z
1/2+x,1/2-y,1/2+z
loop_
_atom_site_type_symbol
_atom_site_label
_atom_site_fract_x
_atom_site_fract_y
_atom_site_fract_z
Si Si1 0.098067 0.968529 0.872634
Si Si2 0.788146 0.306376 0.079113
Si Si3 0.279949 0.602117 0.539139
Si Si4 0.000000 0.812130 0.250000
Si Si5 0.406822 0.124914 0.463681
Si Si6 0.753603 0.271445 0.778062
Si Si7 0.063306 0.861679 0.578346
O O1 0.263772 0.928720 0.904614
O O2 0.000000 0.991909 0.750000
O O3 0.964862 0.927958 0.881919
O O4 0.148647 0.031277 0.944458
O O5 0.850027 0.279141 0.197309
O O6 0.750000 0.250000 0.000000
O O7 0.919639 0.351593 0.072494
O O8 0.612207 0.343554 0.033796
O O9 0.384230 0.644312 0.645925
O O10 0.291138 0.632213 0.444080
O O11 0.086078 0.596586 0.500053
O O12 0.882339 0.766022 0.263520
O O13 0.360079 0.181608 0.379746
O O14 0.614655 0.308101 0.668686
#
# Coordination Sequence:
#
# PCOD8148753 Si02
#       7
#     8   8   8   4   8   8   8
#     4  11  22  46  71  95 127 177 229 273 323 387
#     4   9  21  38  60  96 130 169 213 264 322 389
#     4  12  25  44  65  98 137 174 219 275 334 391
#     4  12  26  38  62  98 144 174 202 278 344 388
#     4  10  23  42  69  98 128 175 223 273 331 383
#     4  11  22  40  64  98 133 171 226 259 322 413
#     4  11  23  42  71  93 130 181 221 269 327 393
#
# _framework density 20.957571999999999
#
# number of rings (size 3 to 8) (size 9 to 14) (size 15 to 20)
#    0.000    1.231    3.846    1.846    4.308    1.231 
#    0.000    0.000    0.000    0.000    0.000    0.000 
#    0.000    0.000    0.000    0.000    0.000    0.000 
#
# Total GULP energy -322344.227937 kJ/mol
# GULP energy per Si atom -12397.854921 kJ/mol
# Density = 2.090987 g / cm^3
# Si number density = 20.957572 Si / 1000 Ang^3
#
#
#
# Elastic Constant Matrix: (Units=GPa)
#
#
# Indices 1 2 3 4 5 6 
#
# 1 125.3430 26.4392 45.8867 0.0000 -17.3298 0.0000
# 2 26.4392 89.3118 35.6653 0.0000 -12.0238 0.0000
# 3 45.8867 35.6653 94.7132 0.0000 -17.8612 0.0000
# 4 0.0000 0.0000 0.0000 31.3327 0.0000 7.5188
# 5 -17.3298 -12.0238 -17.8612 0.0000 31.1345 0.0000
# 6 0.0000 0.0000 0.0000 7.5188 0.0000 -2.6034
#
#
#
# Elastic Compliance Matrix: (Units=1/GPa)
#
#
# Indices 1 2 3 4 5 6 
#
# 1 0.010035 -0.001006 -0.003928 0.000000 0.002944 0.000000
# 2 -0.001006 0.013457 -0.004155 0.000000 0.002253 0.000000
# 3 -0.003928 -0.004155 0.014926 0.000000 0.004772 0.000000
# 4 0.000000 0.000000 0.000000 0.018851 0.000000 0.054443
# 5 0.002944 0.002253 0.004772 0.000000 0.037365 0.000000
# 6 0.000000 0.000000 0.000000 0.054443 0.000000 -0.226878
#
#
# Mechanical properties :
#
#
# Convention : Reuss Voigt Hill
#
# Bulk Modulus (GPa) = 49.40672 58.37226 53.88949
# Shear Modulus (GPa) = -46.59011 25.39789 -10.59611
#
# Velocity S-wave (km/s) = -4.72006 3.48497 -2.25099
# Velocity P-wave (km/s) = 2.46565 6.64127 4.36045
#
# Compressibility (1/GPa) = 0.02024016
#
# Stress axis : x y z
#
# Youngs Moduli (GPa) = 99.64842 74.30982 66.99850
#
# Poissons Ratio (x) = 0.07475 0.26317
# Poissons Ratio (y) = 0.10023 0.27839
# Poissons Ratio (z) = 0.39141 0.30877
#
# Static dielectric constant tensor:
#      x y z
#    x 4.194380 0.000000 -0.174490 
#    y 0.000000 3.989030 0.000000 
#    z -0.174490 0.000000 4.165590 
# 
# 
# High freq. dielectric constant tensor:
#      x y z
#    x 1.833350 0.000000 -0.011990 
#    y 0.000000 1.824300 0.000000 
#    z -0.011990 0.000000 1.814100 
# 
# From -- ./inp_files/136008.got.cif
#   From: 2010.06.25/outbox.cif.g09.slc.cpg/sg15_69_cif.got.tgz:136008.got - 2010.06.28 07:06:18.
