data_PCOD8148419
_publ_section_title
;
Structure prediction by ZEFSAII (Michael W. Deem and Ramdas Pophale) SiO2 
 PCOD8148419
Probable space group: C 2/C
;
_chemical_formula_sum "Si O2"
_cell_formula_units_Z 64
_cell_length_a 16.239518
_cell_length_b 22.611895
_cell_length_c 8.791059
_cell_angle_alpha 90.000000
_cell_angle_beta 82.304932
_cell_angle_gamma 90.000000
_cell_volume 3199.061834
_symmetry_space_group_name_H-M "C 2/C"
_symmetry_group_IT_number 15
_symmetry_cell_setting 'monoclinic'
loop_
_space_group_symop_operation_xyz
x,y,z
-x,y,1/2-z
-x,-y,-z
x,-y,1/2+z
1/2+x,1/2+y,z
1/2-x,1/2+y,1/2-z
1/2-x,1/2-y,-z
1/2+x,1/2-y,1/2+z
loop_
_atom_site_type_symbol
_atom_site_label
_atom_site_fract_x
_atom_site_fract_y
_atom_site_fract_z
Si Si1 0.779834 0.574333 0.377221
Si Si2 0.944191 0.635809 0.402724
Si Si3 0.462021 0.946360 0.421953
Si Si4 0.432110 0.748691 0.051841
Si Si5 0.236808 0.164163 0.897428
Si Si6 0.707264 0.312273 0.051456
Si Si7 0.883032 0.252746 0.408198
Si Si8 0.227288 0.545674 0.473241
O O1 0.879250 0.584213 0.372064
O O2 0.735105 0.635014 0.433053
O O3 0.762399 0.557005 0.207706
O O4 0.744373 0.521121 0.491717
O O5 0.894467 0.690035 0.492361
O O6 0.000000 0.658335 0.250000
O O7 0.010204 0.614390 0.509587
O O8 0.500000 0.948101 0.250000
O O9 0.364383 0.949340 0.438818
O O10 0.500000 0.000000 0.500000
O O11 0.402823 0.737420 0.229841
O O12 0.531954 0.755056 0.015393
O O13 0.391914 0.696733 0.958099
O O14 0.223308 0.171316 0.721523
O O15 0.329279 0.186446 0.925224
O O16 0.169535 0.200274 0.007738
O O17 0.222699 0.095797 0.946333
O O18 0.750000 0.250000 0.000000
#
# Coordination Sequence:
#
# PCOD8148419 Si02
#       8
#     8   8   8   8   8   8   8   8
#     4  12  25  41  62  90 127 172 220 266 328 384
#     4  12  24  37  56  91 125 172 217 258 320 384
#     4  12  24  36  56  82 123 166 214 261 307 379
#     4  11  24  40  64  91 131 169 216 270 329 382
#     4  11  24  41  66  95 131 168 221 268 331 385
#     4  12  24  41  64  93 132 170 216 275 322 389
#     4  10  23  41  64  95 128 170 218 271 326 391
#     4  12  25  41  63  87 128 173 217 268 326 394
#
# _framework density 20.005865
#
# number of rings (size 3 to 8) (size 9 to 14) (size 15 to 20)
#    0.000    0.500    5.000    3.375    8.750    0.000 
#    0.000    0.000    0.000    0.750    0.000    0.000 
#    0.000    0.000    0.000    0.000    0.000    0.000 
#
# Total GULP energy -396732.453440 kJ/mol
# GULP energy per Si atom -12397.889170 kJ/mol
# Density = 1.996033 g / cm^3
# Si number density = 20.005865 Si / 1000 Ang^3
#
#
#
# Elastic Constant Matrix: (Units=GPa)
#
#
# Indices 1 2 3 4 5 6 
#
# 1 76.1111 34.0868 32.3041 0.0000 7.0433 0.0000
# 2 34.0868 127.4933 56.1396 0.0000 2.4013 0.0000
# 3 32.3041 56.1396 149.0742 0.0000 0.0938 0.0000
# 4 0.0000 0.0000 0.0000 1064.8973 0.0000 211.4254
# 5 7.0433 2.4013 0.0938 0.0000 30.3720 0.0000
# 6 0.0000 0.0000 0.0000 211.4254 0.0000 70.0418
#
#
#
# Elastic Compliance Matrix: (Units=1/GPa)
#
#
# Indices 1 2 3 4 5 6 
#
# 1 0.015827 -0.003186 -0.002228 0.000000 -0.003411 0.000000
# 2 -0.003186 0.010061 -0.003098 0.000000 -0.000047 0.000000
# 3 -0.002228 -0.003098 0.008357 0.000000 0.000736 0.000000
# 4 0.000000 0.000000 0.000000 0.002344 0.000000 -0.007074
# 5 -0.003411 -0.000047 0.000736 0.000000 0.033718 0.000000
# 6 0.000000 0.000000 0.000000 -0.007074 0.000000 0.035631
#
#
# Mechanical properties :
#
#
# Convention : Reuss Voigt Hill
#
# Bulk Modulus (GPa) = 58.07110 66.41552 62.24331
# Shear Modulus (GPa) = 38.84966 248.40544 143.62755
#
# Velocity S-wave (km/s) = 4.41150 11.15508 8.48225
# Velocity P-wave (km/s) = 7.41879 14.11328 11.27437
#
# Compressibility (1/GPa) = 0.01722027
#
# Stress axis : x y z
#
# Youngs Moduli (GPa) = 63.18369 99.39782 119.65940
#
# Poissons Ratio (x) = 0.31672 0.26655
# Poissons Ratio (y) = 0.20133 0.37073
# Poissons Ratio (z) = 0.14075 0.30795
#
# Static dielectric constant tensor:
#      x y z
#    x 3.938600 0.000000 0.305850 
#    y 0.000000 3.801970 0.000000 
#    z 0.305850 0.000000 3.786740 
# 
# 
# High freq. dielectric constant tensor:
#      x y z
#    x 1.759030 0.000000 0.005590 
#    y 0.000000 1.782380 0.000000 
#    z 0.005590 0.000000 1.797160 
# 
# From -- ./inp_files/50236.got.cif
#   From: 2010.06.25/outbox.cif.g09.slc.cpg/sg15_26_cif.got.tgz:50236.got - 2010.06.28 07:06:18.
