data_PCOD8148174
_publ_section_title
;
Structure prediction by ZEFSAII (Michael W. Deem and Ramdas Pophale) SiO2 
 PCOD8148174
Probable space group: C 2/C
;
_chemical_formula_sum "Si O2"
_cell_formula_units_Z 56
_cell_length_a 8.544665
_cell_length_b 20.161423
_cell_length_c 21.409614
_cell_angle_alpha 90.000000
_cell_angle_beta 48.474636
_cell_angle_gamma 90.000000
_cell_volume 2761.283720
_symmetry_space_group_name_H-M "C 2/C"
_symmetry_group_IT_number 15
_symmetry_cell_setting 'monoclinic'
loop_
_space_group_symop_operation_xyz
x,y,z
-x,y,1/2-z
-x,-y,-z
x,-y,1/2+z
1/2+x,1/2+y,z
1/2-x,1/2+y,1/2-z
1/2-x,1/2-y,-z
1/2+x,1/2-y,1/2+z
loop_
_atom_site_type_symbol
_atom_site_label
_atom_site_fract_x
_atom_site_fract_y
_atom_site_fract_z
Si Si1 0.323469 0.062746 0.702174
Si Si2 0.379230 0.162648 0.922617
Si Si3 0.800147 0.346011 0.968175
Si Si4 0.374865 0.562694 0.880208
Si Si5 0.099861 0.436652 0.664185
Si Si6 0.025315 0.251027 0.987782
Si Si7 0.937517 0.045073 0.457645
O O1 0.450996 0.132036 0.669587
O O2 0.258976 0.052807 0.646928
O O3 0.122010 0.069032 0.799651
O O4 0.483770 0.007224 0.684842
O O5 0.496785 0.197447 0.949308
O O6 0.257784 0.221840 0.919882
O O7 0.216830 0.105577 0.987176
O O8 0.922697 0.400953 0.896276
O O9 0.631521 0.311856 0.966575
O O10 0.691596 0.374372 0.059899
O O11 0.972997 0.291334 0.939185
O O12 0.325487 0.497678 0.933889
O O13 0.336691 0.434417 0.626235
O O14 0.000000 0.399245 0.750000
O O15 0.000000 0.000000 0.500000
#
# Coordination Sequence:
#
# PCOD8148174 Si02
#       7
#     8   8   8   8   8   8   8
#     4  11  24  38  64  98 128 155 201 263 316 367
#     4  11  21  40  64  94 123 163 211 256 301 368
#     4  11  22  43  65  88 122 171 210 251 306 370
#     4  11  23  40  63  96 128 159 201 257 317 380
#     4  12  24  40  64  95 124 160 200 262 317 376
#     4  10  23  39  65  87 120 169 213 249 294 359
#     4  12  21  37  66  94 123 160 204 245 320 376
#
# _framework density 20.280421
#
# number of rings (size 3 to 8) (size 9 to 14) (size 15 to 20)
#    0.000    0.857    7.143    0.000    2.000    1.143 
#    0.000    2.857    3.143    0.000    0.000    0.000 
#    0.000    0.000    0.000    0.000    0.000    0.000 
#
# Total GULP energy -346919.274846 kJ/mol
# GULP energy per Si atom -12389.974102 kJ/mol
# Density = 2.023426 g / cm^3
# Si number density = 20.280421 Si / 1000 Ang^3
#
#
#
# Elastic Constant Matrix: (Units=GPa)
#
#
# Indices 1 2 3 4 5 6 
#
# 1 81.3483 25.0580 22.2682 -0.0004 2.2691 0.0009
# 2 25.0580 77.8578 35.5839 0.0000 0.8338 0.0001
# 3 22.2682 35.5839 101.8227 0.0001 2.7849 0.0000
# 4 -0.0004 0.0000 0.0001 12.8156 0.0002 3.2746
# 5 2.2691 0.8338 2.7849 0.0002 28.2266 -0.0005
# 6 0.0009 0.0001 0.0000 3.2746 -0.0005 43.0456
#
#
#
# Elastic Compliance Matrix: (Units=1/GPa)
#
#
# Indices 1 2 3 4 5 6 
#
# 1 0.013925 -0.003679 -0.001737 0.000001 -0.000839 0.000000
# 2 -0.003679 0.016257 -0.004885 0.000000 0.000297 0.000000
# 3 -0.001737 -0.004885 0.011932 0.000000 -0.000893 0.000000
# 4 0.000001 0.000000 0.000000 0.079577 -0.000001 -0.006054
# 5 -0.000839 0.000297 -0.000893 -0.000001 0.035574 0.000000
# 6 0.000000 0.000000 0.000000 -0.006054 0.000000 0.023692
#
#
# Mechanical properties :
#
#
# Convention : Reuss Voigt Hill
#
# Bulk Modulus (GPa) = 46.48261 47.42766 46.95514
# Shear Modulus (GPa) = 23.95438 28.69213 26.32326
#
# Velocity S-wave (km/s) = 3.44053 3.76542 3.60664
# Velocity P-wave (km/s) = 6.22516 6.50702 6.36765
#
# Compressibility (1/GPa) = 0.02151342
#
# Stress axis : x y z
#
# Youngs Moduli (GPa) = 71.81397 61.51041 83.80544
#
# Poissons Ratio (x) = 0.22629 0.14554
# Poissons Ratio (y) = 0.26420 0.40939
# Poissons Ratio (z) = 0.12472 0.30048
#
# Static dielectric constant tensor:
#      x y z
#    x 1.493680 0.000000 1.186140 
#    y 0.000000 3.811740 0.000000 
#    z 1.186140 0.000000 3.057880 
# 
# 
# High freq. dielectric constant tensor:
#      x y z
#    x 1.812610 0.000000 -0.002310 
#    y 0.000000 1.791500 0.000000 
#    z -0.002310 0.000000 1.774500 
# 
# From -- ./inp_files/233745.got.cif
#   From: 2010.06.25/outbox.cif.g09.slc.cpg/sg15_117_cif.got.tgz:233745.got - 2010.06.28 07:06:18.
