data_PCOD8148155
_publ_section_title
;
Structure prediction by ZEFSAII (Michael W. Deem and Ramdas Pophale) SiO2 
 PCOD8148155
Probable space group: C 2/C
;
_chemical_formula_sum "Si O2"
_cell_formula_units_Z 48
_cell_length_a 24.855427
_cell_length_b 5.306656
_cell_length_c 17.928504
_cell_angle_alpha 90.000000
_cell_angle_beta 72.318633
_cell_angle_gamma 90.000000
_cell_volume 2253.045027
_symmetry_space_group_name_H-M "C 2/C"
_symmetry_group_IT_number 15
_symmetry_cell_setting 'monoclinic'
loop_
_space_group_symop_operation_xyz
x,y,z
-x,y,1/2-z
-x,-y,-z
x,-y,1/2+z
1/2+x,1/2+y,z
1/2-x,1/2+y,1/2-z
1/2-x,1/2-y,-z
1/2+x,1/2-y,1/2+z
loop_
_atom_site_type_symbol
_atom_site_label
_atom_site_fract_x
_atom_site_fract_y
_atom_site_fract_z
Si Si1 0.790914 0.543147 0.557122
Si Si2 0.113171 0.648968 0.674181
Si Si3 0.584335 0.993696 0.029051
Si Si4 0.479098 0.299635 0.066895
Si Si5 0.560479 0.637446 0.758292
Si Si6 0.759290 0.459896 0.404229
O O1 0.856049 0.620151 0.516378
O O2 0.757675 0.501359 0.493864
O O3 0.781662 0.273604 0.602756
O O4 0.764752 0.773239 0.616847
O O5 0.094927 0.688761 0.595243
O O6 0.079970 0.418591 0.727346
O O7 0.178925 0.588069 0.654139
O O8 0.103397 0.919487 0.715394
O O9 0.536194 0.183526 0.078075
O O10 0.561634 0.882133 0.961752
O O11 0.442461 0.397564 0.151175
O O12 0.500000 0.500000 0.000000
O O13 0.500000 0.574100 0.750000
#
# Coordination Sequence:
#
# PCOD8148155 Si02
#       6
#     8   8   8   8   8   8
#     4   9  18  33  59  90 120 157 203 256 303 356
#     4  11  23  40  65  95 128 162 207 264 310 365
#     4  10  23  39  63  94 127 167 208 260 312 369
#     4  11  25  41  61  92 129 168 208 252 312 381
#     4  12  24  40  63  92 128 167 206 251 314 373
#     4   9  18  34  57  91 122 152 204 258 306 348
#
# _framework density 21.304501999999999
#
# number of rings (size 3 to 8) (size 9 to 14) (size 15 to 20)
#    0.000    1.667    1.667    2.500    7.000    2.667 
#    0.000    0.000    0.000    4.000    0.000    0.000 
#    0.000    0.000    0.000    0.000    0.000    0.000 
#
# Total GULP energy -297421.740216 kJ/mol
# GULP energy per Si atom -12392.572509 kJ/mol
# Density = 2.125601 g / cm^3
# Si number density = 21.304502 Si / 1000 Ang^3
#
#
#
# Elastic Constant Matrix: (Units=GPa)
#
#
# Indices 1 2 3 4 5 6 
#
# 1 81.3519 31.6930 33.5041 0.0000 -14.7752 0.0000
# 2 31.6930 130.6723 25.1895 0.0000 -11.7595 0.0000
# 3 33.5041 25.1895 92.0255 0.0000 -8.9519 0.0000
# 4 0.0000 0.0000 0.0000 37.4922 0.0000 -18.7273
# 5 -14.7752 -11.7595 -8.9519 0.0000 23.6007 0.0000
# 6 0.0000 0.0000 0.0000 -18.7273 0.0000 17.1209
#
#
#
# Elastic Compliance Matrix: (Units=1/GPa)
#
#
# Indices 1 2 3 4 5 6 
#
# 1 0.016481 -0.002446 -0.004616 0.000000 0.007348 0.000000
# 2 -0.002446 0.008699 -0.001264 0.000000 0.002323 0.000000
# 3 -0.004616 -0.001264 0.013032 0.000000 0.001423 0.000000
# 4 0.000000 0.000000 0.000000 0.058797 0.000000 0.064313
# 5 0.007348 0.002323 0.001423 0.000000 0.048669 0.000000
# 6 0.000000 0.000000 0.000000 0.064313 0.000000 0.128755
#
#
# Mechanical properties :
#
#
# Convention : Reuss Voigt Hill
#
# Bulk Modulus (GPa) = 46.38588 53.86919 50.12754
# Shear Modulus (GPa) = 16.76325 29.88697 23.32511
#
# Velocity S-wave (km/s) = 2.80811 3.74952 3.31243
# Velocity P-wave (km/s) = 5.68630 6.63969 6.18141
#
# Compressibility (1/GPa) = 0.02155828
#
# Stress axis : x y z
#
# Youngs Moduli (GPa) = 60.67659 114.95767 76.73637
#
# Poissons Ratio (x) = 0.28120 0.35420
# Poissons Ratio (y) = 0.14842 0.09703
# Poissons Ratio (z) = 0.28007 0.14536
#
# Static dielectric constant tensor:
#      x y z
#    x 3.263210 0.000000 -0.662730 
#    y 0.000000 3.980910 0.000000 
#    z -0.662730 0.000000 3.134700 
# 
# 
# High freq. dielectric constant tensor:
#      x y z
#    x 1.830730 0.000000 -0.022960 
#    y 0.000000 1.840640 0.000000 
#    z -0.022960 0.000000 1.814390 
# 
# From -- ./inp_files/217750.got.cif
#   From: 2010.06.25/outbox.cif.g09.slc.cpg/sg15_109_cif.got.tgz:217750.got - 2010.06.28 07:06:18.
