data_PCOD8148395
_publ_section_title
;
Structure prediction by ZEFSAII (Michael W. Deem and Ramdas Pophale) SiO2 
 PCOD8148395
Probable space group: C 2/C
;
_chemical_formula_sum "Si O2"
_cell_formula_units_Z 40
_cell_length_a 14.276548
_cell_length_b 22.208860
_cell_length_c 8.686001
_cell_angle_alpha 90.000000
_cell_angle_beta 137.264341
_cell_angle_gamma 90.000000
_cell_volume 1868.934316
_symmetry_space_group_name_H-M "C 2/C"
_symmetry_group_IT_number 15
_symmetry_cell_setting 'monoclinic'
loop_
_space_group_symop_operation_xyz
x,y,z
-x,y,1/2-z
-x,-y,-z
x,-y,1/2+z
1/2+x,1/2+y,z
1/2-x,1/2+y,1/2-z
1/2-x,1/2-y,-z
1/2+x,1/2-y,1/2+z
loop_
_atom_site_type_symbol
_atom_site_label
_atom_site_fract_x
_atom_site_fract_y
_atom_site_fract_z
Si Si1 0.457170 0.870101 0.023593
Si Si2 0.731246 0.071829 0.753354
Si Si3 0.970864 0.871311 0.386925
Si Si4 0.098793 0.260811 0.745283
Si Si5 0.211470 0.055446 0.321499
O O1 0.500000 0.858362 0.250000
O O2 0.574048 0.903757 0.062579
O O3 0.399849 0.806403 0.894994
O O4 0.328038 0.913710 0.860376
O O5 0.816648 0.122640 0.767155
O O6 0.771499 0.013785 0.701843
O O7 0.773634 0.061072 0.979025
O O8 0.986201 0.799104 0.409202
O O9 0.000000 0.895529 0.250000
O O10 0.067991 0.911450 0.612708
O O11 0.000000 0.292796 0.750000
O O12 0.250000 0.250000 0.000000
#
# Coordination Sequence:
#
# PCOD8148395 Si02
#       5
#     8   8   8   8   8
#     4  10  23  41  63  91 124 161 204 252 308 366
#     4  11  23  40  62  89 122 162 204 252 305 364
#     4  11  23  40  61  88 122 161 202 252 304 362
#     4  11  23  41  64  92 123 162 208 255 305 363
#     4  11  23  40  61  90 122 160 204 251 306 363
#
# _framework density 21.402570999999998
#
# number of rings (size 3 to 8) (size 9 to 14) (size 15 to 20)
#    0.000    1.200    0.000    6.600    0.000    3.200 
#    0.000    5.000    0.000    0.000    0.000    0.000 
#    0.000    0.000    0.000    0.000    0.000    0.000 
#
# Total GULP energy -247848.293424 kJ/mol
# GULP energy per Si atom -12392.414671 kJ/mol
# Density = 2.135386 g / cm^3
# Si number density = 21.402571 Si / 1000 Ang^3
#
#
#
# Elastic Constant Matrix: (Units=GPa)
#
#
# Indices 1 2 3 4 5 6 
#
# 1 120.1355 1.9206 29.5575 0.0000 9.2598 0.0000
# 2 1.9206 68.7247 58.5710 0.0000 -9.4526 0.0000
# 3 29.5575 58.5710 11.6273 0.0000 17.8043 0.0000
# 4 0.0000 0.0000 0.0000 20.6629 0.0000 8.6428
# 5 9.2598 -9.4526 17.8043 0.0000 32.4143 0.0000
# 6 0.0000 0.0000 0.0000 8.6428 0.0000 19.3980
#
#
#
# Elastic Compliance Matrix: (Units=1/GPa)
#
#
# Indices 1 2 3 4 5 6 
#
# 1 0.008074 -0.003177 0.002702 0.000000 -0.004717 0.000000
# 2 -0.003177 0.000781 0.015105 0.000000 -0.007161 0.000000
# 3 0.002702 0.015105 -0.015823 0.000000 0.012324 0.000000
# 4 0.000000 0.000000 0.000000 0.059481 0.000000 -0.026502
# 5 -0.004717 -0.007161 0.012324 0.000000 0.023340 0.000000
# 6 0.000000 0.000000 0.000000 -0.026502 0.000000 0.063360
#
#
# Mechanical properties :
#
#
# Convention : Reuss Voigt Hill
#
# Bulk Modulus (GPa) = 44.86066 42.28731 43.57398
# Shear Modulus (GPa) = 42.59506 21.85761 32.22633
#
# Velocity S-wave (km/s) = 4.46599 3.19918 3.88457
# Velocity P-wave (km/s) = 6.89923 5.78337 6.36579
#
# Compressibility (1/GPa) = 0.02229125
#
# Stress axis : x y z
#
# Youngs Moduli (GPa) = 123.86070 1279.63402 -63.19939
#
# Poissons Ratio (x) = 4.06518 0.17074
# Poissons Ratio (y) = 0.39348 0.95461
# Poissons Ratio (z) = -0.33462 -19.32860
#
# Static dielectric constant tensor:
#      x y z
#    x 4.212230 0.000000 0.115190 
#    y 0.000000 3.964480 0.000000 
#    z 0.115190 0.000000 3.759890 
# 
# 
# High freq. dielectric constant tensor:
#      x y z
#    x 1.866290 0.000000 0.006270 
#    y 0.000000 1.848300 0.000000 
#    z 0.006270 0.000000 1.831760 
# 
# From -- ./inp_files/32265.got.cif
#   From: 2010.06.25/outbox.cif.g09.slc.cpg/sg15_17_cif.got.tgz:32265.got - 2010.06.28 07:06:18.
