data_PCOD8148073
_publ_section_title
;
Structure prediction by ZEFSAII (Michael W. Deem and Ramdas Pophale) SiO2 
 PCOD8148073
Probable space group: C 2/C
;
_chemical_formula_sum "Si O2"
_cell_formula_units_Z 44
_cell_length_a 20.120724
_cell_length_b 18.088471
_cell_length_c 16.803275
_cell_angle_alpha 90.000000
_cell_angle_beta 20.286090
_cell_angle_gamma 90.000000
_cell_volume 2120.328695
_symmetry_space_group_name_H-M "C 2/C"
_symmetry_group_IT_number 15
_symmetry_cell_setting 'monoclinic'
loop_
_space_group_symop_operation_xyz
x,y,z
-x,y,1/2-z
-x,-y,-z
x,-y,1/2+z
1/2+x,1/2+y,z
1/2-x,1/2+y,1/2-z
1/2-x,1/2-y,-z
1/2+x,1/2-y,1/2+z
loop_
_atom_site_type_symbol
_atom_site_label
_atom_site_fract_x
_atom_site_fract_y
_atom_site_fract_z
Si Si1 0.000000 0.541873 0.250000
Si Si2 0.521797 0.072336 0.395665
Si Si3 0.201098 0.040226 0.293058
Si Si4 0.116968 0.170748 0.282405
Si Si5 0.716462 0.418800 0.525490
Si Si6 0.316899 0.840667 0.258090
O O1 0.982638 0.596006 0.192291
O O2 0.813237 0.489323 0.458289
O O3 0.737929 0.046659 0.181242
O O4 0.454698 0.136343 0.530933
O O5 0.377161 0.003585 0.557339
O O6 0.211496 0.123042 0.246594
O O7 0.000000 0.000000 0.500000
O O8 0.213113 0.149968 0.090448
O O9 0.143023 0.256767 0.265558
O O10 0.896274 0.148742 0.533413
O O11 0.500000 0.442434 0.750000
O O12 0.839957 0.392281 0.310285
#
# Coordination Sequence:
#
# PCOD8148073 Si02
#       6
#     4   8   8   8   8   8
#     4  12  24  38  64  88 128 166 212 270 298 368
#     4  11  24  39  62  90 125 166 218 253 311 365
#     4  11  21  40  63  91 120 162 206 263 311 375
#     4  11  22  38  65  90 132 161 206 253 318 388
#     4  10  23  38  58  96 128 164 200 249 321 383
#     4  11  23  40  60  94 129 172 201 258 316 383
#
# _framework density 20.751498999999999
#
# number of rings (size 3 to 8) (size 9 to 14) (size 15 to 20)
#    0.000    1.091    3.636    3.818    5.091    0.000 
#    0.000    0.000    0.000    4.364    0.000    0.000 
#    0.000    0.000    0.000    0.000    0.000    0.000 
#
# Total GULP energy -272621.081492 kJ/mol
# GULP energy per Si atom -12391.867341 kJ/mol
# Density = 2.070427 g / cm^3
# Si number density = 20.751499 Si / 1000 Ang^3
#
#
#
# Elastic Constant Matrix: (Units=GPa)
#
#
# Indices 1 2 3 4 5 6 
#
# 1 177.3881 33.6814 64.6772 -0.0115 0.0082 -0.0199
# 2 33.6814 60.0451 31.0956 -0.0123 4.8320 -0.0133
# 3 64.6772 31.0956 81.1406 -0.0463 -5.0000 0.0362
# 4 -0.0115 -0.0123 -0.0463 15.0004 0.0460 -1.9749
# 5 0.0082 4.8320 -5.0000 0.0460 35.7669 -0.0196
# 6 -0.0199 -0.0133 0.0362 -1.9749 -0.0196 35.7065
#
#
#
# Elastic Compliance Matrix: (Units=1/GPa)
#
#
# Indices 1 2 3 4 5 6 
#
# 1 0.008066 -0.001401 -0.005932 -0.000010 -0.000642 0.000009
# 2 -0.001401 0.021591 -0.007401 0.000008 -0.003951 0.000013
# 3 -0.005932 -0.007401 0.020124 0.000037 0.003814 -0.000022
# 4 -0.000010 0.000008 0.000037 0.067154 -0.000080 0.003714
# 5 -0.000642 -0.003951 0.003814 -0.000080 0.029026 0.000006
# 6 0.000009 0.000013 -0.000022 0.003714 0.000006 0.028212
#
#
# Mechanical properties :
#
#
# Convention : Reuss Voigt Hill
#
# Bulk Modulus (GPa) = 49.23005 64.16468 56.69736
# Shear Modulus (GPa) = 23.76279 29.90274 26.83276
#
# Velocity S-wave (km/s) = 3.38762 3.80016 3.59980
# Velocity P-wave (km/s) = 6.25111 7.08820 6.68278
#
# Compressibility (1/GPa) = 0.02031280
#
# Stress axis : x y z
#
# Youngs Moduli (GPa) = 123.97130 46.31624 49.69078
#
# Poissons Ratio (x) = 0.06488 0.29479
# Poissons Ratio (y) = 0.17366 0.36777
# Poissons Ratio (z) = 0.73545 0.34279
#
# Static dielectric constant tensor:
#      x y z
#    x 4.322670 0.000090 -0.255350 
#    y 0.000090 4.328280 0.000900 
#    z -0.255350 0.000900 3.803940 
# 
# 
# High freq. dielectric constant tensor:
#      x y z
#    x 1.833060 -0.000010 -0.025160 
#    y -0.000010 1.781740 0.000020 
#    z -0.025160 0.000020 1.809200 
# 
# From -- ./inp_files/216112.got.cif
#   From: 2010.06.25/outbox.cif.g09.slc.cpg/sg15_109_cif.got.tgz:216112.got - 2010.06.28 07:06:18.
