data_PCOD8148506
_publ_section_title
;
Structure prediction by ZEFSAII (Michael W. Deem and Ramdas Pophale) SiO2 
 PCOD8148506
Probable space group: C 2/C
;
_chemical_formula_sum "Si O2"
_cell_formula_units_Z 56
_cell_length_a 30.929138
_cell_length_b 11.553606
_cell_length_c 13.728304
_cell_angle_alpha 90.000000
_cell_angle_beta 28.149665
_cell_angle_gamma 90.000000
_cell_volume 2314.400001
_symmetry_space_group_name_H-M "C 2/C"
_symmetry_group_IT_number 15
_symmetry_cell_setting 'monoclinic'
loop_
_space_group_symop_operation_xyz
x,y,z
-x,y,1/2-z
-x,-y,-z
x,-y,1/2+z
1/2+x,1/2+y,z
1/2-x,1/2+y,1/2-z
1/2-x,1/2-y,-z
1/2+x,1/2-y,1/2+z
loop_
_atom_site_type_symbol
_atom_site_label
_atom_site_fract_x
_atom_site_fract_y
_atom_site_fract_z
Si Si1 0.575050 0.402604 0.325690
Si Si2 0.980606 0.648156 0.038401
Si Si3 0.394380 0.427896 0.447932
Si Si4 0.104854 0.492186 0.424377
Si Si5 0.366537 0.887560 0.425678
Si Si6 0.272892 0.571829 0.820740
Si Si7 0.287487 0.216274 0.718090
O O1 0.500000 0.500000 0.500000
O O2 0.525941 0.279536 0.416302
O O3 0.627543 0.425736 0.121876
O O4 0.657580 0.393146 0.235416
O O5 0.011182 0.574576 0.073565
O O6 0.050795 0.644511 0.808171
O O7 0.886453 0.591855 0.178186
O O8 0.500000 0.457433 0.250000
O O9 0.331943 0.530192 0.610760
O O10 0.368605 0.311333 0.558524
O O11 0.097859 0.554065 0.543714
O O12 0.184163 0.393717 0.269890
O O13 0.309517 0.769595 0.556872
O O14 0.299069 0.974885 0.502227
O O15 0.218725 0.681302 0.884142
#
# Coordination Sequence:
#
# PCOD8148506 Si02
#       7
#     8   8   8   8   8   8   8
#     4  12  26  44  69 103 135 179 236 279 336 411
#     4  11  25  42  72 101 134 184 229 281 336 407
#     4  11  23  43  67  94 135 181 221 279 337 402
#     4  10  23  44  66 103 138 175 229 275 343 406
#     4  10  23  42  67 100 136 178 226 277 344 399
#     4  10  24  42  63 100 133 176 223 280 345 393
#     4  10  23  41  68  97 137 180 220 277 343 401
#
# _framework density 24.196335999999999
#
# number of rings (size 3 to 8) (size 9 to 14) (size 15 to 20)
#    0.000    1.429    1.429    2.143    4.000   12.571 
#    0.000    0.000    0.000    0.000    0.000    0.000 
#    0.000    0.000    0.000    0.000    0.000    0.000 
#
# Total GULP energy -346931.752721 kJ/mol
# GULP energy per Si atom -12390.419740 kJ/mol
# Density = 2.414126 g / cm^3
# Si number density = 24.196336 Si / 1000 Ang^3
#
#
#
# Elastic Constant Matrix: (Units=GPa)
#
#
# Indices 1 2 3 4 5 6 
#
# 1 110.9979 14.3138 23.6299 0.0000 -6.3778 0.0000
# 2 14.3138 83.3383 6.6255 0.0000 1.6588 0.0000
# 3 23.6299 6.6255 53.8555 0.0000 1.5359 0.0000
# 4 0.0000 0.0000 0.0000 25.1111 0.0000 -6.9263
# 5 -6.3778 1.6588 1.5359 0.0000 38.3816 0.0000
# 6 0.0000 0.0000 0.0000 -6.9263 0.0000 29.7918
#
#
#
# Elastic Compliance Matrix: (Units=1/GPa)
#
#
# Indices 1 2 3 4 5 6 
#
# 1 0.010238 -0.001450 -0.004369 0.000000 0.001939 0.000000
# 2 -0.001450 0.012331 -0.000860 0.000000 -0.000739 0.000000
# 3 -0.004369 -0.000860 0.020634 0.000000 -0.001515 0.000000
# 4 0.000000 0.000000 0.000000 0.042552 0.000000 0.009893
# 5 0.001939 -0.000739 -0.001515 0.000000 0.026469 0.000000
# 6 0.000000 0.000000 0.000000 0.009893 0.000000 0.035866
#
#
# Mechanical properties :
#
#
# Convention : Reuss Voigt Hill
#
# Bulk Modulus (GPa) = 33.50503 37.48111 35.49307
# Shear Modulus (GPa) = 29.17233 32.23174 30.70203
#
# Velocity S-wave (km/s) = 3.47601 3.65374 3.56599
# Velocity P-wave (km/s) = 5.47608 5.77268 5.62633
#
# Compressibility (1/GPa) = 0.02984626
#
# Stress axis : x y z
#
# Youngs Moduli (GPa) = 97.67940 81.09414 48.46347
#
# Poissons Ratio (x) = 0.11755 0.21173
# Poissons Ratio (y) = 0.14160 0.04168
# Poissons Ratio (z) = 0.42675 0.06974
#
# Static dielectric constant tensor:
#      x y z
#    x 4.233440 0.000000 -0.298300 
#    y 0.000000 4.684150 0.000000 
#    z -0.298300 0.000000 4.146700 
# 
# 
# High freq. dielectric constant tensor:
#      x y z
#    x 1.973850 0.000000 -0.010240 
#    y 0.000000 1.971690 0.000000 
#    z -0.010240 0.000000 1.946920 
# 
# From -- ./inp_files/181933.got.cif
#   From: 2010.06.25/outbox.cif.g09.slc.cpg/sg15_91_cif.got.tgz:181933.got - 2010.06.28 07:06:18.
