data_PCOD8148988
_publ_section_title
;
Structure prediction by ZEFSAII (Michael W. Deem and Ramdas Pophale) SiO2 
 PCOD8148988
Probable space group: C 2/C
;
_chemical_formula_sum "Si O2"
_cell_formula_units_Z 40
_cell_length_a 21.196825
_cell_length_b 5.406119
_cell_length_c 25.995788
_cell_angle_alpha 90.000000
_cell_angle_beta 145.866478
_cell_angle_gamma 90.000000
_cell_volume 1671.543796
_symmetry_space_group_name_H-M "C 2/C"
_symmetry_group_IT_number 15
_symmetry_cell_setting 'monoclinic'
loop_
_space_group_symop_operation_xyz
x,y,z
-x,y,1/2-z
-x,-y,-z
x,-y,1/2+z
1/2+x,1/2+y,z
1/2-x,1/2+y,1/2-z
1/2-x,1/2-y,-z
1/2+x,1/2-y,1/2+z
loop_
_atom_site_type_symbol
_atom_site_label
_atom_site_fract_x
_atom_site_fract_y
_atom_site_fract_z
Si Si1 0.426193 0.713065 0.977748
Si Si2 0.420593 0.802305 0.148463
Si Si3 0.309001 0.524351 0.494128
Si Si4 0.688903 0.710230 0.698800
Si Si5 0.522699 0.079723 0.408077
O O1 0.362693 0.641137 0.986634
O O2 0.330796 0.790551 0.873418
O O3 0.500000 0.500000 0.000000
O O4 0.495212 0.948136 0.047422
O O5 0.500000 0.730111 0.250000
O O6 0.326339 0.007508 0.100686
O O7 0.500559 0.908037 0.156990
O O8 0.353996 0.564694 0.080811
O O9 0.352064 0.804418 0.513741
O O10 0.730507 0.427038 0.726131
O O11 0.573675 0.709068 0.654830
#
# Coordination Sequence:
#
# PCOD8148988 Si02
#       5
#     8   8   8   8   8
#     4  11  23  44  70  99 141 190 233 294 369 442
#     4  10  24  43  68 101 139 186 241 306 361 430
#     4  10  23  43  70 100 140 186 242 294 368 435
#     4  12  28  42  68 110 145 182 241 301 362 436
#     4  11  24  43  71  97 140 190 243 290 372 441
#
# _framework density 23.929974000000001
#
# number of rings (size 3 to 8) (size 9 to 14) (size 15 to 20)
#    0.000    1.200    2.000    2.400    8.400    0.800 
#    0.000    0.000    0.000    0.000    0.000    0.000 
#    0.000    0.000    0.000    0.000    0.000    0.000 
#
# Total GULP energy -247811.645383 kJ/mol
# GULP energy per Si atom -12390.582269 kJ/mol
# Density = 2.387551 g / cm^3
# Si number density = 23.929974 Si / 1000 Ang^3
#
#
#
# Elastic Constant Matrix: (Units=GPa)
#
#
# Indices 1 2 3 4 5 6 
#
# 1 85.2127 12.2927 54.5465 -0.0311 -4.7998 -0.0026
# 2 12.2927 81.3086 19.8794 -0.0581 5.8619 -0.0117
# 3 54.5465 19.8794 129.1847 -0.0152 -18.9135 -0.0005
# 4 -0.0311 -0.0581 -0.0152 28.3551 -0.0029 8.6374
# 5 -4.7998 5.8619 -18.9135 -0.0029 41.9913 -0.0094
# 6 -0.0026 -0.0117 -0.0005 8.6374 -0.0094 39.9693
#
#
#
# Elastic Compliance Matrix: (Units=1/GPa)
#
#
# Indices 1 2 3 4 5 6 
#
# 1 0.016184 -0.000676 -0.006900 0.000013 -0.001164 -0.000002
# 2 -0.000676 0.013137 -0.002158 0.000025 -0.002883 -0.000002
# 3 -0.006900 -0.002158 0.011686 -0.000006 0.004776 0.000001
# 4 0.000013 0.000025 -0.000006 0.037752 -0.000004 -0.008158
# 5 -0.001164 -0.002883 0.004776 -0.000004 0.026235 0.000006
# 6 -0.000002 -0.000002 0.000001 -0.008158 0.000006 0.026782
#
#
# Mechanical properties :
#
#
# Convention : Reuss Voigt Hill
#
# Bulk Modulus (GPa) = 46.42909 52.12700 49.27805
# Shear Modulus (GPa) = 31.56108 35.99564 33.77836
#
# Velocity S-wave (km/s) = 3.63560 3.88262 3.76114
# Velocity P-wave (km/s) = 6.08832 6.47534 6.28481
#
# Compressibility (1/GPa) = 0.02153822
#
# Stress axis : x y z
#
# Youngs Moduli (GPa) = 61.78921 76.12347 85.57572
#
# Poissons Ratio (x) = 0.05145 0.59046
# Poissons Ratio (y) = 0.04177 0.18469
# Poissons Ratio (z) = 0.42634 0.16429
#
# Static dielectric constant tensor:
#      x y z
#    x 4.479940 -0.000110 -0.148180 
#    y -0.000110 4.367630 0.000010 
#    z -0.148180 0.000010 4.269430 
# 
# 
# High freq. dielectric constant tensor:
#      x y z
#    x 1.969900 -0.000010 -0.005120 
#    y -0.000010 1.945890 0.000000 
#    z -0.005120 0.000000 1.932090 
# 
# From -- ./inp_files/301796.got.cif
#   From: 2010.06.25/outbox.cif.g09.slc.cpg/sg15_151_cif.got.tgz:301796.got - 2010.06.28 07:06:18.
