data_PCOD8148998
_publ_section_title
;
Structure prediction by ZEFSAII (Michael W. Deem and Ramdas Pophale) SiO2 
 PCOD8148998
Probable space group: C 2/C
;
_chemical_formula_sum "Si O2"
_cell_formula_units_Z 48
_cell_length_a 11.788160
_cell_length_b 22.136848
_cell_length_c 12.059013
_cell_angle_alpha 90.000000
_cell_angle_beta 135.294827
_cell_angle_gamma 90.000000
_cell_volume 2213.666952
_symmetry_space_group_name_H-M "C 2/C"
_symmetry_group_IT_number 15
_symmetry_cell_setting 'monoclinic'
loop_
_space_group_symop_operation_xyz
x,y,z
-x,y,1/2-z
-x,-y,-z
x,-y,1/2+z
1/2+x,1/2+y,z
1/2-x,1/2+y,1/2-z
1/2-x,1/2-y,-z
1/2+x,1/2-y,1/2+z
loop_
_atom_site_type_symbol
_atom_site_label
_atom_site_fract_x
_atom_site_fract_y
_atom_site_fract_z
Si Si1 0.018759 0.430989 0.636617
Si Si2 0.033482 0.777619 0.566162
Si Si3 0.388551 0.204602 0.275324
Si Si4 0.500000 0.530451 0.250000
Si Si5 0.500000 0.806929 0.250000
Si Si6 0.747292 0.033076 0.709278
Si Si7 0.191454 0.115016 0.536767
O O1 0.846852 0.434291 0.456053
O O2 0.000000 0.451211 0.750000
O O3 0.077581 0.363166 0.664988
O O4 0.151114 0.473626 0.675644
O O5 0.200293 0.788717 0.616562
O O6 0.913633 0.747727 0.396550
O O7 0.056633 0.734765 0.688281
O O8 0.960525 0.841375 0.552344
O O9 0.500000 0.224451 0.250000
O O10 0.577113 0.487620 0.209839
O O11 0.642999 0.569483 0.404827
O O12 0.650260 0.848407 0.392030
O O13 0.767501 0.079780 0.822650
#
# Coordination Sequence:
#
# PCOD8148998 Si02
#       7
#     8   8   8   4   4   8   8
#     4  10  23  43  70  97 136 184 233 284 350 425
#     4  12  25  46  69 106 142 184 240 297 356 422
#     4  11  25  45  70  99 139 188 234 289 355 428
#     4  12  27  44  72 106 144 183 232 300 354 424
#     4  12  27  46  72 106 142 189 242 294 366 418
#     4  11  25  44  69 102 141 181 233 289 355 421
#     4  12  27  44  73 106 144 187 238 295 358 423
#
# _framework density 21.683478999999998
#
# number of rings (size 3 to 8) (size 9 to 14) (size 15 to 20)
#    0.000    0.667    1.667    5.000   10.500    2.667 
#    1.500    0.000    0.000    0.000    0.000    0.000 
#    0.000    0.000    0.000    0.000    0.000    0.000 
#
# Total GULP energy -297773.912620 kJ/mol
# GULP energy per Si atom -12407.246359 kJ/mol
# Density = 2.163413 g / cm^3
# Si number density = 21.683479 Si / 1000 Ang^3
#
#
#
# Elastic Constant Matrix: (Units=GPa)
#
#
# Indices 1 2 3 4 5 6 
#
# 1 114.5297 30.7675 21.8595 0.0000 16.3205 0.0000
# 2 30.7675 65.4019 27.7241 0.0000 -8.0208 0.0000
# 3 21.8595 27.7241 101.2683 0.0000 -2.4940 0.0000
# 4 0.0000 0.0000 0.0000 32.2422 0.0000 -0.0385
# 5 16.3205 -8.0208 -2.4940 0.0000 39.3901 0.0000
# 6 0.0000 0.0000 0.0000 -0.0385 0.0000 28.6104
#
#
#
# Elastic Compliance Matrix: (Units=1/GPa)
#
#
# Indices 1 2 3 4 5 6 
#
# 1 0.011266 -0.005574 -0.001050 0.000000 -0.005869 0.000000
# 2 -0.005574 0.020475 -0.004249 0.000000 0.006210 0.000000
# 3 -0.001050 -0.004249 0.011272 0.000000 0.000284 0.000000
# 4 0.000000 0.000000 0.000000 0.031015 0.000000 0.000042
# 5 -0.005869 0.006210 0.000284 0.000000 0.029101 0.000000
# 6 0.000000 0.000000 0.000000 0.000042 0.000000 0.034952
#
#
# Mechanical properties :
#
#
# Convention : Reuss Voigt Hill
#
# Bulk Modulus (GPa) = 47.02578 49.10024 48.06301
# Shear Modulus (GPa) = 29.95483 33.43846 31.69664
#
# Velocity S-wave (km/s) = 3.72083 3.93124 3.82748
# Velocity P-wave (km/s) = 6.33987 6.58023 6.46117
#
# Compressibility (1/GPa) = 0.02126493
#
# Stress axis : x y z
#
# Youngs Moduli (GPa) = 88.76499 48.83929 88.71729
#
# Poissons Ratio (x) = 0.27225 0.09317
# Poissons Ratio (y) = 0.49481 0.37699
# Poissons Ratio (z) = 0.09322 0.20753
#
# Static dielectric constant tensor:
#      x y z
#    x 3.974020 0.000000 0.093570 
#    y 0.000000 3.987900 0.000000 
#    z 0.093570 0.000000 4.247870 
# 
# 
# High freq. dielectric constant tensor:
#      x y z
#    x 1.860410 0.000000 0.002640 
#    y 0.000000 1.862710 0.000000 
#    z 0.002640 0.000000 1.862150 
# 
# From -- ./inp_files/89449.got.cif
#   From: 2010.06.25/outbox.cif.g09.slc.cpg/sg15_45_cif.got.tgz:89449.got - 2010.06.28 07:06:18.
