data_PCOD8148401
_publ_section_title
;
Structure prediction by ZEFSAII (Michael W. Deem and Ramdas Pophale) SiO2 
 PCOD8148401
Probable space group: C 2/C
;
_chemical_formula_sum "Si O2"
_cell_formula_units_Z 48
_cell_length_a 11.188370
_cell_length_b 14.615866
_cell_length_c 14.905425
_cell_angle_alpha 90.000000
_cell_angle_beta 85.373629
_cell_angle_gamma 90.000000
_cell_volume 2429.508564
_symmetry_space_group_name_H-M "C 2/C"
_symmetry_group_IT_number 15
_symmetry_cell_setting 'monoclinic'
loop_
_space_group_symop_operation_xyz
x,y,z
-x,y,1/2-z
-x,-y,-z
x,-y,1/2+z
1/2+x,1/2+y,z
1/2-x,1/2+y,1/2-z
1/2-x,1/2-y,-z
1/2+x,1/2-y,1/2+z
loop_
_atom_site_type_symbol
_atom_site_label
_atom_site_fract_x
_atom_site_fract_y
_atom_site_fract_z
Si Si1 0.642340 0.772758 0.238671
Si Si2 0.260490 0.547216 0.652882
Si Si3 0.255132 0.685992 0.915609
Si Si4 0.524331 0.576001 0.648238
Si Si5 0.793679 0.925852 0.826250
Si Si6 0.639433 0.004876 0.979516
O O1 0.500000 0.787008 0.250000
O O2 0.698237 0.857757 0.182212
O O3 0.705317 0.762466 0.331398
O O4 0.672133 0.679161 0.186321
O O5 0.395607 0.566054 0.608869
O O6 0.255546 0.476839 0.736566
O O7 0.195371 0.500750 0.574234
O O8 0.393336 0.654043 0.900410
O O9 0.168035 0.601001 0.932822
O O10 0.250000 0.750000 0.000000
O O11 0.500000 0.609442 0.750000
O O12 0.590125 0.477791 0.641226
O O13 0.687203 0.928397 0.906638
O O14 0.500000 0.000000 0.000000
#
# Coordination Sequence:
#
# PCOD8148401 Si02
#       6
#     8   8   8   8   8   8
#     4  12  23  39  66  93 129 170 213 263 328 384
#     4  11  22  40  68  86 126 173 202 268 327 369
#     4  11  23  40  63  94 127 164 217 267 315 383
#     4   9  18  41  62  86 126 159 213 260 310 383
#     4  10  23  41  63  93 126 164 216 263 313 390
#     4  11  24  42  60  92 130 167 210 262 324 388
#
# _framework density 19.757083000000002
#
# number of rings (size 3 to 8) (size 9 to 14) (size 15 to 20)
#    0.000    1.333    5.000    3.500    0.000    6.000 
#    0.000    0.000    0.000    0.000    0.000    0.000 
#    0.000    0.000    0.000    0.000    0.000    0.000 
#
# Total GULP energy -297593.079675 kJ/mol
# GULP energy per Si atom -12399.711653 kJ/mol
# Density = 1.971212 g / cm^3
# Si number density = 19.757083 Si / 1000 Ang^3
#
#
#
# Elastic Constant Matrix: (Units=GPa)
#
#
# Indices 1 2 3 4 5 6 
#
# 1 169.4327 27.5781 42.7393 0.0000 -10.5084 0.0000
# 2 27.5781 84.0788 8.3554 0.0000 -11.8796 0.0000
# 3 42.7393 8.3554 69.6428 0.0000 -5.5869 0.0000
# 4 0.0000 0.0000 0.0000 30.0525 0.0000 -4.5870
# 5 -10.5084 -11.8796 -5.5869 0.0000 37.5526 0.0000
# 6 0.0000 0.0000 0.0000 -4.5870 0.0000 18.0655
#
#
#
# Elastic Compliance Matrix: (Units=1/GPa)
#
#
# Indices 1 2 3 4 5 6 
#
# 1 0.007317 -0.001865 -0.004200 0.000000 0.000833 0.000000
# 2 -0.001865 0.013024 -0.000131 0.000000 0.003579 0.000000
# 3 -0.004200 -0.000131 0.017058 0.000000 0.001321 0.000000
# 4 0.000000 0.000000 0.000000 0.034617 0.000000 0.008789
# 5 0.000833 0.003579 0.001321 0.000000 0.028191 0.000000
# 6 0.000000 0.000000 0.000000 0.008789 0.000000 0.057586
#
#
# Mechanical properties :
#
#
# Convention : Reuss Voigt Hill
#
# Bulk Modulus (GPa) = 39.98791 53.38887 46.68839
# Shear Modulus (GPa) = 28.00825 33.43288 30.72057
#
# Velocity S-wave (km/s) = 3.76923 4.11810 3.94752
# Velocity P-wave (km/s) = 6.26311 7.04932 6.66781
#
# Compressibility (1/GPa) = 0.02500756
#
# Stress axis : x y z
#
# Youngs Moduli (GPa) = 136.67584 76.78161 58.62365
#
# Poissons Ratio (x) = 0.14319 0.24620
# Poissons Ratio (y) = 0.25488 0.00768
# Poissons Ratio (z) = 0.57398 0.01006
#
# Static dielectric constant tensor:
#      x y z
#    x 4.272970 0.000000 -0.414690 
#    y 0.000000 3.484210 0.000000 
#    z -0.414690 0.000000 4.107970 
# 
# 
# High freq. dielectric constant tensor:
#      x y z
#    x 1.781830 0.000000 -0.007630 
#    y 0.000000 1.766140 0.000000 
#    z -0.007630 0.000000 1.776130 
# 
# From -- ./inp_files/143654.got.cif
#   From: 2010.06.25/outbox.cif.g09.slc.cpg/sg15_72_cif.got.tgz:143654.got - 2010.06.28 07:06:18.
