data_PCOD8148941
_publ_section_title
;
Structure prediction by ZEFSAII (Michael W. Deem and Ramdas Pophale) SiO2 
 PCOD8148941
Probable space group: C 2/C
;
_chemical_formula_sum "Si O2"
_cell_formula_units_Z 28
_cell_length_a 11.912601
_cell_length_b 8.382441
_cell_length_c 13.717256
_cell_angle_alpha 90.000000
_cell_angle_beta 128.127049
_cell_angle_gamma 90.000000
_cell_volume 1077.512651
_symmetry_space_group_name_H-M "C 2/C"
_symmetry_group_IT_number 15
_symmetry_cell_setting 'monoclinic'
loop_
_space_group_symop_operation_xyz
x,y,z
-x,y,1/2-z
-x,-y,-z
x,-y,1/2+z
1/2+x,1/2+y,z
1/2-x,1/2+y,1/2-z
1/2-x,1/2-y,-z
1/2+x,1/2-y,1/2+z
loop_
_atom_site_type_symbol
_atom_site_label
_atom_site_fract_x
_atom_site_fract_y
_atom_site_fract_z
Si Si1 0.455102 0.809990 0.334674
Si Si2 0.696541 0.892002 0.761463
Si Si3 0.619485 0.452237 0.989455
Si Si4 0.000000 0.136949 0.750000
O O1 0.500000 0.845345 0.250000
O O2 0.334533 0.668829 0.276286
O O3 0.597424 0.741496 0.466177
O O4 0.393999 0.975217 0.348559
O O5 0.599741 0.741247 0.733590
O O6 0.733668 0.989327 0.882459
O O7 0.600473 0.530806 0.872878
O O8 0.500000 0.500000 0.000000
#
# Coordination Sequence:
#
# PCOD8148941 Si02
#       4
#     8   8   8   4
#     4  11  23  45  68 100 138 177 231 276 334 405
#     4  11  24  44  69 102 138 181 227 280 342 400
#     4  10  23  43  68 100 139 177 228 282 336 403
#     4  12  22  46  70 102 138 182 224 288 334 410
#
# _framework density 25.985776000000001
#
# number of rings (size 3 to 8) (size 9 to 14) (size 15 to 20)
#    0.000    1.143    2.857    4.286    0.000    1.143 
#    0.000    7.143    0.000    0.000    0.000    0.000 
#    0.000    0.000    0.000    0.000    0.000    0.000 
#
# Total GULP energy -173452.375626 kJ/mol
# GULP energy per Si atom -12389.455402 kJ/mol
# Density = 2.592663 g / cm^3
# Si number density = 25.985776 Si / 1000 Ang^3
#
#
#
# Elastic Constant Matrix: (Units=GPa)
#
#
# Indices 1 2 3 4 5 6 
#
# 1 69.3888 12.8736 -0.5090 0.0000 4.1139 0.0000
# 2 12.8736 133.9548 19.4388 0.0000 8.2712 0.0000
# 3 -0.5090 19.4388 55.2595 0.0000 10.8494 0.0000
# 4 0.0000 0.0000 0.0000 26.4678 0.0000 -0.8967
# 5 4.1139 8.2712 10.8494 0.0000 29.2843 0.0000
# 6 0.0000 0.0000 0.0000 -0.8967 0.0000 41.9740
#
#
#
# Elastic Compliance Matrix: (Units=1/GPa)
#
#
# Indices 1 2 3 4 5 6 
#
# 1 0.014810 -0.001449 0.001051 0.000000 -0.002061 0.000000
# 2 -0.001449 0.008054 -0.002631 0.000000 -0.001096 0.000000
# 3 0.001051 -0.002631 0.020399 0.000000 -0.006962 0.000000
# 4 0.000000 0.000000 0.000000 0.037809 0.000000 0.000808
# 5 -0.002061 -0.001096 -0.006962 0.000000 0.037326 0.000000
# 6 0.000000 0.000000 0.000000 0.000808 0.000000 0.023842
#
#
# Mechanical properties :
#
#
# Convention : Reuss Voigt Hill
#
# Bulk Modulus (GPa) = 26.87863 35.80108 31.33986
# Shear Modulus (GPa) = 31.11398 34.66522 32.88960
#
# Velocity S-wave (km/s) = 3.46402 3.65637 3.56149
# Velocity P-wave (km/s) = 5.13472 5.62428 5.38506
#
# Compressibility (1/GPa) = 0.03720427
#
# Stress axis : x y z
#
# Youngs Moduli (GPa) = 67.52114 124.16280 49.02308
#
# Poissons Ratio (x) = 0.17985 -0.05150
# Poissons Ratio (y) = 0.09781 0.12899
# Poissons Ratio (z) = -0.07093 0.32670
#
# Static dielectric constant tensor:
#      x y z
#    x 4.840460 0.000000 1.039000 
#    y 0.000000 5.186440 0.000000 
#    z 1.039000 0.000000 7.615680 
# 
# 
# High freq. dielectric constant tensor:
#      x y z
#    x 2.045760 0.000000 0.006440 
#    y 0.000000 2.055770 0.000000 
#    z 0.006440 0.000000 2.011550 
# 
# From -- ./inp_files/93189.got.cif
#   From: 2010.06.25/outbox.cif.g09.slc.cpg/sg15_47_cif.got.tgz:93189.got - 2010.06.28 07:06:18.
