data_PCOD8148036
_publ_section_title
;
Structure prediction by ZEFSAII (Michael W. Deem and Ramdas Pophale) SiO2 
 PCOD8148036
Probable space group: C 2/C
;
_chemical_formula_sum "Si O2"
_cell_formula_units_Z 56
_cell_length_a 19.836986
_cell_length_b 11.425675
_cell_length_c 14.026867
_cell_angle_alpha 90.000000
_cell_angle_beta 134.999999
_cell_angle_gamma 90.000000
_cell_volume 2248.035899
_symmetry_space_group_name_H-M "C 2/C"
_symmetry_group_IT_number 15
_symmetry_cell_setting 'monoclinic'
loop_
_space_group_symop_operation_xyz
x,y,z
-x,y,1/2-z
-x,-y,-z
x,-y,1/2+z
1/2+x,1/2+y,z
1/2-x,1/2+y,1/2-z
1/2-x,1/2-y,-z
1/2+x,1/2-y,1/2+z
loop_
_atom_site_type_symbol
_atom_site_label
_atom_site_fract_x
_atom_site_fract_y
_atom_site_fract_z
Si Si1 0.305188 0.023132 0.108428
Si Si2 0.844363 0.987248 0.692736
Si Si3 0.500000 0.674382 0.250000
Si Si4 0.855448 0.014905 0.416060
Si Si5 0.189388 0.235095 0.794837
Si Si6 0.000000 0.424382 0.750000
Si Si7 0.598372 0.762752 0.004009
Si Si8 0.946760 0.226868 0.001948
O O1 0.244830 0.969909 0.136691
O O2 0.307920 0.165535 0.121896
O O3 0.417704 0.991034 0.212963
O O4 0.256607 0.982149 0.962284
O O5 0.873814 0.125621 0.730434
O O6 0.831139 0.937462 0.786183
O O7 0.918825 0.910133 0.709746
O O8 0.454741 0.758966 0.122444
O O9 0.893380 0.124379 0.517193
O O10 0.936024 0.915535 0.493944
O O11 0.141861 0.280091 0.647031
O O12 0.294957 0.187462 0.876096
O O13 0.040921 0.339867 0.872097
O O14 0.544323 0.767851 0.050931
#
# Coordination Sequence:
#
# PCOD8148036 Si02
#       8
#     8   8   4   8   8   4   8   8
#     4  11  22  39  60  94 128 162 213 255 318 370
#     4  11  22  37  59  94 129 161 211 259 316 368
#     4  12  24  37  66  98 125 172 210 258 319 380
#     4  10  23  36  59  91 130 166 198 269 313 362
#     4  10  23  36  59  91 130 166 198 269 313 362
#     4  12  24  37  66  98 125 172 210 258 319 380
#     4  11  22  37  59  94 129 161 211 259 316 368
#     4  11  22  39  60  94 128 162 213 255 318 370
#
# _framework density 24.910634000000002
#
# number of rings (size 3 to 8) (size 9 to 14) (size 15 to 20)
#    0.000    1.143    5.714    0.857    4.000    1.143 
#    0.000    1.429    0.000    0.000    0.000    0.000 
#    0.000    0.000    0.000    0.000    0.000    0.000 
#
# Total GULP energy -346874.236248 kJ/mol
# GULP energy per Si atom -12388.365580 kJ/mol
# Density = 2.485394 g / cm^3
# Si number density = 24.910634 Si / 1000 Ang^3
#
#
#
# Elastic Constant Matrix: (Units=GPa)
#
#
# Indices 1 2 3 4 5 6 
#
# 1 154.2344 -10.5298 67.7840 0.0000 2.3584 0.0000
# 2 -10.5298 9.7922 -10.5298 0.0000 0.0000 0.0000
# 3 67.7840 -10.5298 154.2343 0.0000 -2.3584 0.0000
# 4 0.0000 0.0000 0.0000 18.4348 0.0000 0.0000
# 5 2.3584 0.0000 -2.3584 0.0000 39.8529 0.0000
# 6 0.0000 0.0000 0.0000 0.0000 0.0000 18.4348
#
#
#
# Elastic Compliance Matrix: (Units=1/GPa)
#
#
# Indices 1 2 3 4 5 6 
#
# 1 0.008310 0.005394 -0.003295 0.000000 -0.000687 0.000000
# 2 0.005394 0.113722 0.005394 0.000000 0.000000 0.000000
# 3 -0.003295 0.005394 0.008310 0.000000 0.000687 0.000000
# 4 0.000000 0.000000 0.000000 0.054245 0.000000 0.000000
# 5 -0.000687 0.000000 0.000687 0.000000 0.025174 0.000000
# 6 0.000000 0.000000 0.000000 0.000000 0.000000 0.054245
#
#
# Mechanical properties :
#
#
# Convention : Reuss Voigt Hill
#
# Bulk Modulus (GPa) = 6.88102 45.74553 26.31327
# Shear Modulus (GPa) = 16.80876 33.44691 25.12784
#
# Velocity S-wave (km/s) = 2.60044 3.66823 3.17948
# Velocity P-wave (km/s) = 3.43288 6.02868 4.90559
#
# Compressibility (1/GPa) = 0.14532738
#
# Stress axis : x y z
#
# Youngs Moduli (GPa) = 120.33309 8.79339 120.33305
#
# Poissons Ratio (x) = -0.04743 0.39644
# Poissons Ratio (y) = -0.64902 -0.64902
# Poissons Ratio (z) = 0.39644 -0.04743
#
# Static dielectric constant tensor:
#      x y z
#    x 4.923930 0.000000 0.000000 
#    y 0.000000 3.936500 0.000000 
#    z 0.000000 0.000000 4.923930 
# 
# 
# High freq. dielectric constant tensor:
#      x y z
#    x 2.003290 0.000000 0.000000 
#    y 0.000000 1.937520 0.000000 
#    z 0.000000 0.000000 2.003290 
# 
# From -- ./inp_files/168515.got.cif
#   From: 2010.06.25/outbox.cif.g09.slc.cpg/sg15_85_cif.got.tgz:168515.got - 2010.06.28 07:06:18.
