data_PCOD8148378
_publ_section_title
;
Structure prediction by ZEFSAII (Michael W. Deem and Ramdas Pophale) SiO2 
 PCOD8148378
Probable space group: C 2/C
;
_chemical_formula_sum "Si O2"
_cell_formula_units_Z 60
_cell_length_a 15.480915
_cell_length_b 12.030130
_cell_length_c 24.671449
_cell_angle_alpha 90.000000
_cell_angle_beta 138.260629
_cell_angle_gamma 90.000000
_cell_volume 3058.921819
_symmetry_space_group_name_H-M "C 2/C"
_symmetry_group_IT_number 15
_symmetry_cell_setting 'monoclinic'
loop_
_space_group_symop_operation_xyz
x,y,z
-x,y,1/2-z
-x,-y,-z
x,-y,1/2+z
1/2+x,1/2+y,z
1/2-x,1/2+y,1/2-z
1/2-x,1/2-y,-z
1/2+x,1/2-y,1/2+z
loop_
_atom_site_type_symbol
_atom_site_label
_atom_site_fract_x
_atom_site_fract_y
_atom_site_fract_z
Si Si1 0.967475 0.397118 0.391546
Si Si2 0.167105 0.377499 0.672924
Si Si3 0.500000 0.349507 0.250000
Si Si4 0.141955 0.278659 0.546326
Si Si5 0.450449 0.534448 0.310242
Si Si6 0.263013 0.236848 0.185499
Si Si7 0.955848 0.081836 0.433536
Si Si8 0.434187 0.236036 0.664324
O O1 0.941466 0.527698 0.370275
O O2 0.836767 0.337970 0.352078
O O3 0.089837 0.388831 0.490625
O O4 0.007745 0.342460 0.354043
O O5 0.132305 0.298626 0.605887
O O6 0.303290 0.437922 0.724865
O O7 0.171364 0.296643 0.726610
O O8 0.502382 0.424279 0.305216
O O9 0.372186 0.272537 0.193313
O O10 0.280053 0.230397 0.594265
O O11 0.046471 0.187696 0.477187
O O12 0.465149 0.516437 0.381253
O O13 0.537895 0.635330 0.332009
O O14 0.190933 0.127694 0.127692
O O15 0.000000 0.000000 0.500000
O O16 0.500000 0.193006 0.750000
#
# Coordination Sequence:
#
# PCOD8148378 Si02
#       8
#     8   8   4   8   8   8   8   8
#     4  11  22  39  60  93 129 159 207 272 313 375
#     4  11  21  41  64  90 123 171 209 253 328 374
#     4  12  22  40  68  90 126 166 220 266 296 378
#     4  11  22  38  65  92 124 158 211 270 313 381
#     4  11  21  39  67  91 117 172 214 252 313 387
#     4  10  23  41  62  92 123 165 222 254 305 384
#     4  10  24  44  64  88 131 170 207 257 334 384
#     4  12  21  39  62  96 120 160 217 264 315 376
#
# _framework density 19.614754000000001
#
# number of rings (size 3 to 8) (size 9 to 14) (size 15 to 20)
#    0.000    1.067    7.333    0.800    1.867    2.133 
#    3.600    0.667    0.000    0.000    0.000    0.000 
#    0.000    0.000    0.000    0.000    0.000    0.000 
#
# Total GULP energy -371968.624029 kJ/mol
# GULP energy per Si atom -12398.954134 kJ/mol
# Density = 1.957011 g / cm^3
# Si number density = 19.614754 Si / 1000 Ang^3
#
#
#
# Elastic Constant Matrix: (Units=GPa)
#
#
# Indices 1 2 3 4 5 6 
#
# 1 119.0010 42.2807 48.8436 0.0000 5.6481 0.0000
# 2 42.2807 57.3483 22.9572 0.0000 -2.3209 0.0000
# 3 48.8436 22.9572 111.5480 0.0000 -6.0835 0.0000
# 4 0.0000 0.0000 0.0000 14.5467 0.0000 -20.3210
# 5 5.6481 -2.3209 -6.0835 0.0000 30.0461 0.0000
# 6 0.0000 0.0000 0.0000 -20.3210 0.0000 9.1238
#
#
#
# Elastic Compliance Matrix: (Units=1/GPa)
#
#
# Indices 1 2 3 4 5 6 
#
# 1 0.013303 -0.008229 -0.004351 0.000000 -0.004017 0.000000
# 2 -0.008229 0.024107 -0.001185 0.000000 0.003169 0.000000
# 3 -0.004351 -0.001185 0.011278 0.000000 0.003010 0.000000
# 4 0.000000 0.000000 0.000000 -0.032559 0.000000 -0.072517
# 5 -0.004017 0.003169 0.003010 0.000000 0.034892 0.000000
# 6 0.000000 0.000000 0.000000 -0.072517 0.000000 -0.051911
#
#
# Mechanical properties :
#
#
# Convention : Reuss Voigt Hill
#
# Bulk Modulus (GPa) = 47.26282 57.34003 52.30143
# Shear Modulus (GPa) = 148.40015 22.33104 85.36559
#
# Velocity S-wave (km/s) = 8.70756 3.37780 6.60421
# Velocity P-wave (km/s) = 11.19122 6.67153 9.21284
#
# Compressibility (1/GPa) = 0.02115828
#
# Stress axis : x y z
#
# Youngs Moduli (GPa) = 75.16835 41.48172 88.66929
#
# Poissons Ratio (x) = 0.34136 0.38577
# Poissons Ratio (y) = 0.61857 0.10509
# Poissons Ratio (z) = 0.32704 0.04917
#
# Static dielectric constant tensor:
#      x y z
#    x 3.546310 0.000000 0.088900 
#    y 0.000000 2.775540 0.000000 
#    z 0.088900 0.000000 4.466380 
# 
# 
# High freq. dielectric constant tensor:
#      x y z
#    x 1.756320 0.000000 -0.002140 
#    y 0.000000 1.754560 0.000000 
#    z -0.002140 0.000000 1.777470 
# 
# From -- ./inp_files/298779.got.cif
#   From: 2010.06.25/outbox.cif.g09.slc.cpg/sg15_150_cif.got.tgz:298779.got - 2010.06.28 07:06:18.
