data_PCOD8148009
_publ_section_title
;
Structure prediction by ZEFSAII (Michael W. Deem and Ramdas Pophale) SiO2 
 PCOD8148009
Probable space group: C 2/C
;
_chemical_formula_sum "Si O2"
_cell_formula_units_Z 60
_cell_length_a 17.279436
_cell_length_b 23.978256
_cell_length_c 11.546636
_cell_angle_alpha 90.000000
_cell_angle_beta 149.021850
_cell_angle_gamma 90.000000
_cell_volume 2462.443131
_symmetry_space_group_name_H-M "C 2/C"
_symmetry_group_IT_number 15
_symmetry_cell_setting 'monoclinic'
loop_
_space_group_symop_operation_xyz
x,y,z
-x,y,1/2-z
-x,-y,-z
x,-y,1/2+z
1/2+x,1/2+y,z
1/2-x,1/2+y,1/2-z
1/2-x,1/2-y,-z
1/2+x,1/2-y,1/2+z
loop_
_atom_site_type_symbol
_atom_site_label
_atom_site_fract_x
_atom_site_fract_y
_atom_site_fract_z
Si Si1 0.605770 0.210624 0.044801
Si Si2 0.500000 0.877226 0.250000
Si Si3 0.580949 0.365827 0.242845
Si Si4 0.633562 0.514982 0.755240
Si Si5 0.095559 0.344321 0.771958
Si Si6 0.777853 0.912769 0.503497
Si Si7 0.093824 0.549525 0.555431
Si Si8 0.088274 0.183719 0.188851
O O1 0.621134 0.199251 0.200892
O O2 0.762640 0.210767 0.176587
O O3 0.500178 0.160809 0.864824
O O4 0.522621 0.268182 0.910011
O O5 0.646298 0.915174 0.431716
O O6 0.500000 0.338653 0.250000
O O7 0.581733 0.431719 0.259117
O O8 0.751599 0.347747 0.460776
O O9 0.497126 0.351972 0.016763
O O10 0.500000 0.500000 0.500000
O O11 0.630217 0.467740 0.849713
O O12 0.797805 0.523645 0.904194
O O13 0.000000 0.314857 0.750000
O O14 0.026718 0.405190 0.648248
O O15 0.707415 0.916318 0.285398
O O16 0.873487 0.856219 0.651749
O O17 0.000000 0.500000 0.500000
#
# Coordination Sequence:
#
# PCOD8148009 Si02
#       8
#     8   4   8   8   8   8   8   8
#     4  11  26  48  75 108 141 193 247 310 376 432
#     4  10  22  48  74 102 146 186 242 306 362 436
#     4  12  26  48  73 104 151 193 240 304 371 442
#     4  12  27  44  70 111 150 189 238 295 368 448
#     4  12  26  48  71 107 148 192 251 308 364 447
#     4  11  24  45  74 105 149 189 240 301 370 434
#     4  12  27  45  75 109 148 201 248 293 363 452
#     4  11  27  49  75 108 144 193 248 309 375 442
#
# _framework density 24.366046999999998
#
# number of rings (size 3 to 8) (size 9 to 14) (size 15 to 20)
#    0.000    0.533    5.333    1.600    7.467    3.200 
#    2.400    0.000    0.000    0.000    0.000    0.000 
#    0.000    0.000    0.000    0.000    0.000    0.000 
#
# Total GULP energy -371800.801658 kJ/mol
# GULP energy per Si atom -12393.360055 kJ/mol
# Density = 2.431059 g / cm^3
# Si number density = 24.366047 Si / 1000 Ang^3
#
#
#
# Elastic Constant Matrix: (Units=GPa)
#
#
# Indices 1 2 3 4 5 6 
#
# 1 71.7922 18.5868 21.0537 0.0000 6.5335 0.0000
# 2 18.5868 85.4440 29.3200 0.0000 9.7978 0.0000
# 3 21.0537 29.3200 127.6362 0.0000 10.7275 0.0000
# 4 0.0000 0.0000 0.0000 16.7596 0.0000 -0.7896
# 5 6.5335 9.7978 10.7275 0.0000 42.6833 0.0000
# 6 0.0000 0.0000 0.0000 -0.7896 0.0000 21.7351
#
#
#
# Elastic Compliance Matrix: (Units=1/GPa)
#
#
# Indices 1 2 3 4 5 6 
#
# 1 0.015239 -0.002542 -0.001821 0.000000 -0.001291 0.000000
# 2 -0.002542 0.013340 -0.002473 0.000000 -0.002052 0.000000
# 3 -0.001821 -0.002473 0.008818 0.000000 -0.001370 0.000000
# 4 0.000000 0.000000 0.000000 0.059770 0.000000 0.002171
# 5 -0.001291 -0.002052 -0.001370 0.000000 0.024441 0.000000
# 6 0.000000 0.000000 0.000000 0.002171 0.000000 0.046088
#
#
# Mechanical properties :
#
#
# Convention : Reuss Voigt Hill
#
# Bulk Modulus (GPa) = 42.14830 46.97703 44.56267
# Shear Modulus (GPa) = 26.41642 30.62971 28.52307
#
# Velocity S-wave (km/s) = 3.29621 3.54936 3.42513
# Velocity P-wave (km/s) = 5.64112 6.00989 5.82842
#
# Compressibility (1/GPa) = 0.02372575
#
# Stress axis : x y z
#
# Youngs Moduli (GPa) = 65.62208 74.96084 113.40001
#
# Poissons Ratio (x) = 0.19054 0.20652
# Poissons Ratio (y) = 0.16680 0.28041
# Poissons Ratio (z) = 0.11951 0.18536
#
# Static dielectric constant tensor:
#      x y z
#    x 4.455740 0.000000 -0.022360 
#    y 0.000000 4.307360 0.000000 
#    z -0.022360 0.000000 4.751530 
# 
# 
# High freq. dielectric constant tensor:
#      x y z
#    x 1.973830 0.000000 0.005930 
#    y 0.000000 1.963500 0.000000 
#    z 0.005930 0.000000 1.988110 
# 
# From -- ./inp_files/108461.got.cif
#   From: 2010.06.25/outbox.cif.g09.slc.cpg/sg15_55_cif.got.tgz:108461.got - 2010.06.28 07:06:18.
