data_PCOD8148244
_publ_section_title
;
Structure prediction by ZEFSAII (Michael W. Deem and Ramdas Pophale) SiO2 
 PCOD8148244
Probable space group: C 2/C
;
_chemical_formula_sum "Si O2"
_cell_formula_units_Z 48
_cell_length_a 19.579079
_cell_length_b 11.364839
_cell_length_c 11.530150
_cell_angle_alpha 90.000000
_cell_angle_beta 64.507926
_cell_angle_gamma 90.000000
_cell_volume 2315.833878
_symmetry_space_group_name_H-M "C 2/C"
_symmetry_group_IT_number 15
_symmetry_cell_setting 'monoclinic'
loop_
_space_group_symop_operation_xyz
x,y,z
-x,y,1/2-z
-x,-y,-z
x,-y,1/2+z
1/2+x,1/2+y,z
1/2-x,1/2+y,1/2-z
1/2-x,1/2-y,-z
1/2+x,1/2-y,1/2+z
loop_
_atom_site_type_symbol
_atom_site_label
_atom_site_fract_x
_atom_site_fract_y
_atom_site_fract_z
Si Si1 0.683095 0.389272 0.658127
Si Si2 0.859726 0.286939 0.146088
Si Si3 0.419570 0.807884 0.864038
Si Si4 0.337328 0.251063 0.041227
Si Si5 0.412623 0.075728 0.823288
Si Si6 0.692234 0.662477 0.697416
O O1 0.628084 0.339683 0.799852
O O2 0.652033 0.363926 0.551704
O O3 0.753918 0.301127 0.614300
O O4 0.697962 0.524136 0.669545
O O5 0.867768 0.385596 0.240596
O O6 0.778369 0.295203 0.142693
O O7 0.924374 0.300877 0.000758
O O8 0.500000 0.771640 0.750000
O O9 0.352349 0.720872 0.875894
O O10 0.395353 0.938512 0.845887
O O11 0.357719 0.302438 0.152802
O O12 0.387852 0.142964 0.958557
O O13 0.500000 0.103944 0.750000
#
# Coordination Sequence:
#
# PCOD8148244 Si02
#       6
#     8   8   8   8   8   8
#     4   9  20  39  61  91 119 161 204 258 304 362
#     4  10  23  40  63  92 121 162 210 254 310 365
#     4  11  26  40  61  95 127 163 206 256 316 367
#     4   9  20  39  62  91 121 158 211 249 309 364
#     4  10  23  40  66  90 124 163 203 262 312 369
#     4  11  23  37  67  91 125 162 206 261 302 369
#
# _framework density 20.726876000000001
#
# number of rings (size 3 to 8) (size 9 to 14) (size 15 to 20)
#    0.000    2.000    0.000    2.500   11.667    1.333 
#    0.000    4.167    0.000    0.000    0.000    0.000 
#    0.000    0.000    0.000    0.000    0.000    0.000 
#
# Total GULP energy -297444.157891 kJ/mol
# GULP energy per Si atom -12393.506579 kJ/mol
# Density = 2.067970 g / cm^3
# Si number density = 20.726876 Si / 1000 Ang^3
#
#
#
# Elastic Constant Matrix: (Units=GPa)
#
#
# Indices 1 2 3 4 5 6 
#
# 1 49.8669 16.6574 16.9132 0.0000 1.2806 0.0000
# 2 16.6574 79.0051 34.0465 0.0000 6.5712 0.0000
# 3 16.9132 34.0465 132.7152 0.0000 -2.4103 0.0000
# 4 0.0000 0.0000 0.0000 23.6638 0.0000 0.5318
# 5 1.2806 6.5712 -2.4103 0.0000 23.5728 0.0000
# 6 0.0000 0.0000 0.0000 0.5318 0.0000 24.7926
#
#
#
# Elastic Compliance Matrix: (Units=1/GPa)
#
#
# Indices 1 2 3 4 5 6 
#
# 1 0.021955 -0.003816 -0.001825 0.000000 -0.000315 0.000000
# 2 -0.003816 0.015353 -0.003533 0.000000 -0.004434 0.000000
# 3 -0.001825 -0.003533 0.008710 0.000000 0.001975 0.000000
# 4 0.000000 0.000000 0.000000 0.042279 0.000000 -0.000907
# 5 -0.000315 -0.004434 0.001975 0.000000 0.043877 0.000000
# 6 0.000000 0.000000 0.000000 -0.000907 0.000000 0.040354
#
#
# Mechanical properties :
#
#
# Convention : Reuss Voigt Hill
#
# Bulk Modulus (GPa) = 36.13998 44.09127 40.11563
# Shear Modulus (GPa) = 24.98758 27.33716 26.16237
#
# Velocity S-wave (km/s) = 3.47589 3.63564 3.55666
# Velocity P-wave (km/s) = 5.79510 6.24039 6.02187
#
# Compressibility (1/GPa) = 0.02767018
#
# Stress axis : x y z
#
# Youngs Moduli (GPa) = 45.54733 65.13249 114.81534
#
# Poissons Ratio (x) = 0.24858 0.20949
# Poissons Ratio (y) = 0.17383 0.40563
# Poissons Ratio (z) = 0.08311 0.23010
#
# Static dielectric constant tensor:
#      x y z
#    x 3.429560 0.000000 0.056930 
#    y 0.000000 3.633280 0.000000 
#    z 0.056930 0.000000 4.322210 
# 
# 
# High freq. dielectric constant tensor:
#      x y z
#    x 1.781150 0.000000 0.006760 
#    y 0.000000 1.804540 0.000000 
#    z 0.006760 0.000000 1.835960 
# 
# From -- ./inp_files/104193.got.cif
#   From: 2010.06.25/outbox.cif.g09.slc.cpg/sg15_53_cif.got.tgz:104193.got - 2010.06.28 07:06:18.
