data_PCOD8148799
_publ_section_title
;
Structure prediction by ZEFSAII (Michael W. Deem and Ramdas Pophale) SiO2 
 PCOD8148799
Probable space group: C 2/C
;
_chemical_formula_sum "Si O2"
_cell_formula_units_Z 32
_cell_length_a 7.205194
_cell_length_b 7.305561
_cell_length_c 24.819023
_cell_angle_alpha 90.000000
_cell_angle_beta 51.104524
_cell_angle_gamma 90.000000
_cell_volume 1016.779789
_symmetry_space_group_name_H-M "C 2/C"
_symmetry_group_IT_number 15
_symmetry_cell_setting 'monoclinic'
loop_
_space_group_symop_operation_xyz
x,y,z
-x,y,1/2-z
-x,-y,-z
x,-y,1/2+z
1/2+x,1/2+y,z
1/2-x,1/2+y,1/2-z
1/2-x,1/2-y,-z
1/2+x,1/2-y,1/2+z
loop_
_atom_site_type_symbol
_atom_site_label
_atom_site_fract_x
_atom_site_fract_y
_atom_site_fract_z
Si Si1 0.680796 0.159417 0.951600
Si Si2 0.770084 0.167525 0.706759
Si Si3 0.134184 0.038462 0.916817
Si Si4 0.852338 0.556772 0.658709
O O1 0.785755 0.102596 0.872166
O O2 0.898709 0.171179 0.955960
O O3 0.552878 0.357427 0.965250
O O4 0.500000 0.000000 0.000000
O O5 0.500000 0.233782 0.750000
O O6 0.918872 0.342201 0.656740
O O7 0.815231 0.996295 0.656747
O O8 0.814120 0.120096 0.761174
O O9 0.374850 0.139041 0.895004
#
# Coordination Sequence:
#
# PCOD8148799 Si02
#       4
#     8   8   8   8
#     4  12  28  46  72 104 144 201 258 308 377 457
#     4  10  23  42  72 110 137 192 238 311 393 465
#     4  11  25  48  69 105 143 192 245 311 380 448
#     4  11  25  45  73 102 152 182 245 307 389 452
#
# _framework density 31.471905
#
# number of rings (size 3 to 8) (size 9 to 14) (size 15 to 20)
#    0.000    1.000    2.500    2.250   10.500    2.000 
#    0.000    0.000    0.000    0.000    0.000    0.000 
#    0.000    0.000    0.000    0.000    0.000    0.000 
#
# Total GULP energy -198312.263401 kJ/mol
# GULP energy per Si atom -12394.516463 kJ/mol
# Density = 3.140027 g / cm^3
# Si number density = 31.471905 Si / 1000 Ang^3
#
#
#
# Elastic Constant Matrix: (Units=GPa)
#
#
# Indices 1 2 3 4 5 6 
#
# 1 190.0517 51.3165 32.3613 0.0000 25.3708 0.0000
# 2 51.3165 148.4741 43.8658 0.0000 17.5293 0.0000
# 3 32.3613 43.8658 151.2867 0.0001 34.7760 0.0001
# 4 0.0000 0.0000 0.0001 66.6059 0.0000 -4.8208
# 5 25.3708 17.5293 34.7760 0.0000 62.1137 0.0000
# 6 0.0000 0.0000 0.0001 -4.8208 0.0000 31.3956
#
#
#
# Elastic Compliance Matrix: (Units=1/GPa)
#
#
# Indices 1 2 3 4 5 6 
#
# 1 0.006038 -0.001769 -0.000375 0.000000 -0.001757 0.000000
# 2 -0.001769 0.007940 -0.001808 0.000000 -0.000506 0.000000
# 3 -0.000375 -0.001808 0.008105 0.000000 -0.003875 0.000000
# 4 0.000000 0.000000 0.000000 0.015182 0.000000 0.002331
# 5 -0.001757 -0.000506 -0.003875 0.000000 0.019129 0.000000
# 6 0.000000 0.000000 0.000000 0.002331 0.000000 0.032210
#
#
# Mechanical properties :
#
#
# Convention : Reuss Voigt Hill
#
# Bulk Modulus (GPa) = 70.51714 82.76662 76.64188
# Shear Modulus (GPa) = 49.39098 56.17429 52.78264
#
# Velocity S-wave (km/s) = 3.96582 4.22939 4.09973
# Velocity P-wave (km/s) = 6.58979 7.08562 6.84220
#
# Compressibility (1/GPa) = 0.01418095
#
# Stress axis : x y z
#
# Youngs Moduli (GPa) = 165.62711 125.94020 123.38266
#
# Poissons Ratio (x) = 0.22274 0.04624
# Poissons Ratio (y) = 0.29293 0.22302
# Poissons Ratio (z) = 0.06207 0.22765
#
# Static dielectric constant tensor:
#      x y z
#    x 6.023490 0.000000 0.279150 
#    y 0.000000 5.297170 0.000000 
#    z 0.279150 0.000000 6.937250 
# 
# 
# High freq. dielectric constant tensor:
#      x y z
#    x 2.325460 0.000000 0.008860 
#    y 0.000000 2.259270 0.000000 
#    z 0.008860 0.000000 2.367460 
# 
# From -- ./inp_files/229252.got.cif
#   From: 2010.06.25/outbox.cif.g09.slc.cpg/sg15_115_cif.got.tgz:229252.got - 2010.06.28 07:06:18.
