data_PCOD8148524
_publ_section_title
;
Structure prediction by ZEFSAII (Michael W. Deem and Ramdas Pophale) SiO2 
 PCOD8148524
Probable space group: C 2/C
;
_chemical_formula_sum "Si O2"
_cell_formula_units_Z 56
_cell_length_a 15.774874
_cell_length_b 16.755743
_cell_length_c 20.836369
_cell_angle_alpha 90.000000
_cell_angle_beta 151.355830
_cell_angle_gamma 90.000000
_cell_volume 2640.104876
_symmetry_space_group_name_H-M "C 2/C"
_symmetry_group_IT_number 15
_symmetry_cell_setting 'monoclinic'
loop_
_space_group_symop_operation_xyz
x,y,z
-x,y,1/2-z
-x,-y,-z
x,-y,1/2+z
1/2+x,1/2+y,z
1/2-x,1/2+y,1/2-z
1/2-x,1/2-y,-z
1/2+x,1/2-y,1/2+z
loop_
_atom_site_type_symbol
_atom_site_label
_atom_site_fract_x
_atom_site_fract_y
_atom_site_fract_z
Si Si1 0.500000 0.487567 0.750000
Si Si2 0.290677 0.666171 0.780213
Si Si3 0.908728 0.139972 0.090426
Si Si4 0.519593 0.183091 0.836465
Si Si5 0.533252 0.409074 0.537598
Si Si6 0.263193 0.878435 0.398030
Si Si7 0.000000 0.743706 0.250000
Si Si8 0.895084 0.336035 0.806352
O O1 0.495381 0.432411 0.809778
O O2 0.325456 0.542425 0.631773
O O3 0.263040 0.618872 0.695836
O O4 0.298702 0.760489 0.773949
O O5 0.128735 0.641259 0.718640
O O6 0.474443 0.641143 0.935942
O O7 0.007144 0.222321 0.171698
O O8 0.917158 0.121640 0.020454
O O9 0.709665 0.150341 0.984802
O O10 0.500000 0.158713 0.750000
O O11 0.500000 0.500000 0.500000
O O12 0.741879 0.398838 0.687983
O O13 0.173825 0.798996 0.367833
O O14 0.469589 0.876939 0.553903
O O15 0.997806 0.687749 0.186260
#
# Coordination Sequence:
#
# PCOD8148524 Si02
#       8
#     4   8   8   8   8   8   4   8
#     4  11  24  44  62  92 139 174 208 272 339 398
#     4  11  22  43  70  98 131 171 227 280 328 402
#     4  11  24  41  65  94 130 172 220 274 331 391
#     4  11  22  41  70  95 121 171 231 276 319 393
#     4  12  26  42  63  98 140 173 216 282 345 389
#     4  10  23  41  69  98 131 171 221 270 333 397
#     4   9  20  40  68 102 123 166 224 280 319 390
#     4  11  23  41  69  97 131 176 226 272 328 404
#
# _framework density 21.211278
#
# number of rings (size 3 to 8) (size 9 to 14) (size 15 to 20)
#    0.000    1.143    3.571    3.000    0.000    5.714 
#    0.000    2.143    0.000    0.000    0.000    0.000 
#    0.000    0.000    0.000    0.000    0.000    0.000 
#
# Total GULP energy -347342.166014 kJ/mol
# GULP energy per Si atom -12405.077358 kJ/mol
# Density = 2.116300 g / cm^3
# Si number density = 21.211278 Si / 1000 Ang^3
#
#
#
# Elastic Constant Matrix: (Units=GPa)
#
#
# Indices 1 2 3 4 5 6 
#
# 1 121.4287 17.4671 37.4814 0.0083 -4.7151 0.0197
# 2 17.4671 78.3938 28.7495 -0.0168 -5.5179 0.0201
# 3 37.4814 28.7495 139.0617 -0.0049 -5.8014 0.0338
# 4 0.0083 -0.0168 -0.0049 27.9657 0.0022 -6.6154
# 5 -4.7151 -5.5179 -5.8014 0.0022 36.3057 0.0150
# 6 0.0197 0.0201 0.0338 -6.6154 0.0150 14.6542
#
#
#
# Elastic Compliance Matrix: (Units=1/GPa)
#
#
# Indices 1 2 3 4 5 6 
#
# 1 0.009104 -0.001182 -0.002182 -0.000006 0.000654 -0.000009
# 2 -0.001182 0.014055 -0.002521 0.000006 0.001580 -0.000011
# 3 -0.002182 -0.002521 0.008328 -0.000003 0.000664 -0.000015
# 4 -0.000006 0.000006 -0.000003 0.040033 -0.000010 0.018072
# 5 0.000654 0.001580 0.000664 -0.000010 0.027975 -0.000038
# 6 -0.000009 -0.000011 -0.000015 0.018072 -0.000038 0.076399
#
#
# Mechanical properties :
#
#
# Convention : Reuss Voigt Hill
#
# Bulk Modulus (GPa) = 50.71894 56.25337 53.48615
# Shear Modulus (GPa) = 25.74159 32.79752 29.26956
#
# Velocity S-wave (km/s) = 3.48743 3.93648 3.71874
# Velocity P-wave (km/s) = 6.33872 6.87308 6.61130
#
# Compressibility (1/GPa) = 0.01971650
#
# Stress axis : x y z
#
# Youngs Moduli (GPa) = 109.83796 71.14732 120.07437
#
# Poissons Ratio (x) = 0.08411 0.26203
# Poissons Ratio (y) = 0.12985 0.30274
# Poissons Ratio (z) = 0.23969 0.17938
#
# Static dielectric constant tensor:
#      x y z
#    x 3.898940 -0.000010 -0.032210 
#    y -0.000010 3.610450 -0.000010 
#    z -0.032210 -0.000010 3.938210 
# 
# 
# High freq. dielectric constant tensor:
#      x y z
#    x 1.839440 0.000000 -0.003370 
#    y 0.000000 1.817590 0.000000 
#    z -0.003370 0.000000 1.835310 
# 
# From -- ./inp_files/245197.got.cif
#   From: 2010.06.25/outbox.cif.g09.slc.cpg/sg15_123_cif.got.tgz:245197.got - 2010.06.28 07:06:18.
