data_PCOD8148168
_publ_section_title
;
Structure prediction by ZEFSAII (Michael W. Deem and Ramdas Pophale) SiO2 
 PCOD8148168
Probable space group: C 2/C
;
_chemical_formula_sum "Si O2"
_cell_formula_units_Z 48
_cell_length_a 23.877027
_cell_length_b 14.053159
_cell_length_c 8.890582
_cell_angle_alpha 90.000000
_cell_angle_beta 47.753755
_cell_angle_gamma 90.000000
_cell_volume 2208.360501
_symmetry_space_group_name_H-M "C 2/C"
_symmetry_group_IT_number 15
_symmetry_cell_setting 'monoclinic'
loop_
_space_group_symop_operation_xyz
x,y,z
-x,y,1/2-z
-x,-y,-z
x,-y,1/2+z
1/2+x,1/2+y,z
1/2-x,1/2+y,1/2-z
1/2-x,1/2-y,-z
1/2+x,1/2-y,1/2+z
loop_
_atom_site_type_symbol
_atom_site_label
_atom_site_fract_x
_atom_site_fract_y
_atom_site_fract_z
Si Si1 0.473877 0.866510 0.534372
Si Si2 0.500000 0.004605 0.250000
Si Si3 0.364305 0.784626 0.339670
Si Si4 0.152892 0.952126 0.090701
Si Si5 0.097658 0.180213 0.923362
Si Si6 0.213129 0.879757 0.673958
Si Si7 0.500000 0.466142 0.750000
O O1 0.446374 0.933924 0.445229
O O2 0.562164 0.841647 0.348476
O O3 0.428217 0.769873 0.627671
O O4 0.455453 0.925696 0.717844
O O5 0.376426 0.714943 0.460326
O O6 0.302226 0.863016 0.493825
O O7 0.333979 0.718318 0.259014
O O8 0.160636 0.872175 0.208012
O O9 0.186775 0.049236 0.091344
O O10 0.065946 0.966980 0.196292
O O11 0.201500 0.920363 0.860840
O O12 0.030737 0.102747 0.062428
#
# Coordination Sequence:
#
# PCOD8148168 Si02
#       7
#     8   4   8   8   8   8   4
#     4  11  22  42  64  98 123 169 214 274 324 381
#     4  10  23  39  64  94 128 154 220 271 317 386
#     4  11  23  43  64  87 135 178 209 264 320 384
#     4  12  25  41  66 102 130 169 222 264 332 389
#     4  12  22  41  69  98 134 165 216 276 326 384
#     4  11  25  43  62  93 132 173 217 258 320 400
#     4  12  21  39  70  98 136 166 204 283 323 380
#
# _framework density 21.735579999999999
#
# number of rings (size 3 to 8) (size 9 to 14) (size 15 to 20)
#    0.000    0.667    6.667    0.500    4.667    2.000 
#    0.000    0.000    0.000    0.000    0.000    0.000 
#    0.000    0.000    0.000    0.000    0.000    0.000 
#
# Total GULP energy -297513.643081 kJ/mol
# GULP energy per Si atom -12396.401795 kJ/mol
# Density = 2.168611 g / cm^3
# Si number density = 21.735580 Si / 1000 Ang^3
#
#
#
# Elastic Constant Matrix: (Units=GPa)
#
#
# Indices 1 2 3 4 5 6 
#
# 1 49.9737 21.2269 31.8864 0.0000 -2.9607 0.0000
# 2 21.2269 105.9375 46.3280 0.0000 2.5487 0.0000
# 3 31.8864 46.3280 89.8261 0.0000 14.8904 0.0000
# 4 0.0000 0.0000 0.0000 36.0094 0.0000 0.9969
# 5 -2.9607 2.5487 14.8904 0.0000 37.2796 0.0000
# 6 0.0000 0.0000 0.0000 0.9969 0.0000 26.7514
#
#
#
# Elastic Compliance Matrix: (Units=1/GPa)
#
#
# Indices 1 2 3 4 5 6 
#
# 1 0.027364 -0.001200 -0.010140 0.000000 0.006305 0.000000
# 2 -0.001200 0.012355 -0.006201 0.000000 0.001537 0.000000
# 3 -0.010140 -0.006201 0.019269 0.000000 -0.008078 0.000000
# 4 0.000000 0.000000 0.000000 0.027799 0.000000 -0.001036
# 5 0.006305 0.001537 -0.008078 0.000000 0.030447 0.000000
# 6 0.000000 0.000000 0.000000 -0.001036 0.000000 0.037420
#
#
# Mechanical properties :
#
#
# Convention : Reuss Voigt Hill
#
# Bulk Modulus (GPa) = 41.83022 49.40221 45.61622
# Shear Modulus (GPa) = 25.29046 29.76114 27.52580
#
# Velocity S-wave (km/s) = 3.41479 3.70433 3.56250
# Velocity P-wave (km/s) = 5.90208 6.40891 6.16071
#
# Compressibility (1/GPa) = 0.02390616
#
# Stress axis : x y z
#
# Youngs Moduli (GPa) = 36.54474 80.94092 51.89676
#
# Poissons Ratio (x) = 0.09716 0.52622
# Poissons Ratio (y) = 0.04387 0.32179
# Poissons Ratio (z) = 0.37055 0.50188
#
# Static dielectric constant tensor:
#      x y z
#    x 3.833740 0.000000 0.228000 
#    y 0.000000 4.184420 0.000000 
#    z 0.228000 0.000000 3.816780 
# 
# 
# High freq. dielectric constant tensor:
#      x y z
#    x 1.838850 0.000000 0.024180 
#    y 0.000000 1.878220 0.000000 
#    z 0.024180 0.000000 1.838230 
# 
# From -- ./inp_files/55002.got.cif
#   From: 2010.06.25/outbox.cif.g09.slc.cpg/sg15_28_cif.got.tgz:55002.got - 2010.06.28 07:06:18.
