data_PCOD8148410
_publ_section_title
;
Structure prediction by ZEFSAII (Michael W. Deem and Ramdas Pophale) SiO2 
 PCOD8148410
Probable space group: C 2/C
;
_chemical_formula_sum "Si O2"
_cell_formula_units_Z 52
_cell_length_a 9.699011
_cell_length_b 10.343270
_cell_length_c 25.221320
_cell_angle_alpha 90.000000
_cell_angle_beta 70.610848
_cell_angle_gamma 90.000000
_cell_volume 2386.691566
_symmetry_space_group_name_H-M "C 2/C"
_symmetry_group_IT_number 15
_symmetry_cell_setting 'monoclinic'
loop_
_space_group_symop_operation_xyz
x,y,z
-x,y,1/2-z
-x,-y,-z
x,-y,1/2+z
1/2+x,1/2+y,z
1/2-x,1/2+y,1/2-z
1/2-x,1/2-y,-z
1/2+x,1/2-y,1/2+z
loop_
_atom_site_type_symbol
_atom_site_label
_atom_site_fract_x
_atom_site_fract_y
_atom_site_fract_z
Si Si1 0.112051 0.981544 0.630160
Si Si2 0.756073 0.801104 0.266802
Si Si3 0.426525 0.104903 0.971880
Si Si4 0.412771 0.394076 0.979079
Si Si5 0.000000 0.138738 0.250000
Si Si6 0.403320 0.998845 0.640986
Si Si7 0.036349 0.755593 0.169569
O O1 0.048921 0.904519 0.588368
O O2 0.031277 0.948713 0.695209
O O3 0.282885 0.945556 0.615003
O O4 0.098318 0.136354 0.621065
O O5 0.639826 0.723638 0.247055
O O6 0.677947 0.931137 0.299057
O O7 0.892162 0.827913 0.210839
O O8 0.832758 0.723676 0.305519
O O9 0.455540 0.248924 0.991160
O O10 0.490778 0.096568 0.903917
O O11 0.255869 0.076388 0.989148
O O12 0.500000 0.000000 0.000000
O O13 0.500000 0.500000 0.000000
O O14 0.500411 0.879716 0.647602
#
# Coordination Sequence:
#
# PCOD8148410 Si02
#       7
#     8   8   8   8   4   8   8
#     4  11  23  42  68 100 142 182 231 296 353 416
#     4  10  23  41  64 101 135 180 233 278 349 426
#     4  11  25  46  72 100 140 182 241 296 348 423
#     4  11  27  47  72 107 141 185 245 295 359 424
#     4  12  22  42  68  96 144 178 224 298 348 406
#     4  11  22  44  69 100 136 187 233 289 352 423
#     4  10  23  42  68  97 139 182 232 284 351 428
#
# _framework density 21.787482000000001
#
# number of rings (size 3 to 8) (size 9 to 14) (size 15 to 20)
#    0.000    1.231    3.077    2.769    2.154    5.538 
#    2.769    0.000    0.000    0.000    0.000    0.000 
#    0.000    0.000    0.000    0.000    0.000    0.000 
#
# Total GULP energy -322265.308988 kJ/mol
# GULP energy per Si atom -12394.819576 kJ/mol
# Density = 2.173789 g / cm^3
# Si number density = 21.787482 Si / 1000 Ang^3
#
#
#
# Elastic Constant Matrix: (Units=GPa)
#
#
# Indices 1 2 3 4 5 6 
#
# 1 129.3592 76.5837 29.7595 0.0000 10.7325 0.0000
# 2 76.5837 137.2719 27.3340 0.0000 19.0180 0.0000
# 3 29.7595 27.3340 88.2004 0.0000 1.9189 0.0000
# 4 0.0000 0.0000 0.0000 30.7965 0.0000 4.0671
# 5 10.7325 19.0180 1.9189 0.0000 26.5997 0.0000
# 6 0.0000 0.0000 0.0000 4.0671 0.0000 44.1304
#
#
#
# Elastic Compliance Matrix: (Units=1/GPa)
#
#
# Indices 1 2 3 4 5 6 
#
# 1 0.011893 -0.006188 -0.002090 0.000000 -0.000224 0.000000
# 2 -0.006188 0.011839 -0.001453 0.000000 -0.005863 0.000000
# 3 -0.002090 -0.001453 0.012472 0.000000 0.000983 0.000000
# 4 0.000000 0.000000 0.000000 0.032871 0.000000 -0.003029
# 5 -0.000224 -0.005863 0.000983 0.000000 0.041805 0.000000
# 6 0.000000 0.000000 0.000000 -0.003029 0.000000 0.022939
#
#
# Mechanical properties :
#
#
# Convention : Reuss Voigt Hill
#
# Bulk Modulus (GPa) = 59.73507 69.13177 64.43342
# Shear Modulus (GPa) = 31.47343 35.04895 33.26119
#
# Velocity S-wave (km/s) = 3.80487 4.01518 3.91144
# Velocity P-wave (km/s) = 6.83954 7.30031 7.07368
#
# Compressibility (1/GPa) = 0.01674059
#
# Stress axis : x y z
#
# Youngs Moduli (GPa) = 84.08078 84.46832 80.17851
#
# Poissons Ratio (x) = 0.52269 0.16760
# Poissons Ratio (y) = 0.52029 0.11654
# Poissons Ratio (z) = 0.17576 0.12277
#
# Static dielectric constant tensor:
#      x y z
#    x 4.213880 0.000000 -0.275510 
#    y 0.000000 4.006810 0.000000 
#    z -0.275510 0.000000 4.078130 
# 
# 
# High freq. dielectric constant tensor:
#      x y z
#    x 1.864590 0.000000 -0.011830 
#    y 0.000000 1.854780 0.000000 
#    z -0.011830 0.000000 1.851520 
# 
# From -- ./inp_files/287604.got.cif
#   From: 2010.06.25/outbox.cif.g09.slc.cpg/sg15_144_cif.got.tgz:287604.got - 2010.06.28 07:06:18.
