data_PCOD8148669
_publ_section_title
;
Structure prediction by ZEFSAII (Michael W. Deem and Ramdas Pophale) SiO2 
 PCOD8148669
Probable space group: C 2/C
;
_chemical_formula_sum "Si O2"
_cell_formula_units_Z 56
_cell_length_a 14.554055
_cell_length_b 13.928405
_cell_length_c 21.291125
_cell_angle_alpha 90.000000
_cell_angle_beta 35.516925
_cell_angle_gamma 90.000000
_cell_volume 2507.366639
_symmetry_space_group_name_H-M "C 2/C"
_symmetry_group_IT_number 15
_symmetry_cell_setting 'monoclinic'
loop_
_space_group_symop_operation_xyz
x,y,z
-x,y,1/2-z
-x,-y,-z
x,-y,1/2+z
1/2+x,1/2+y,z
1/2-x,1/2+y,1/2-z
1/2-x,1/2-y,-z
1/2+x,1/2-y,1/2+z
loop_
_atom_site_type_symbol
_atom_site_label
_atom_site_fract_x
_atom_site_fract_y
_atom_site_fract_z
Si Si1 0.187281 0.527851 0.146215
Si Si2 0.837857 0.363667 0.131522
Si Si3 0.818076 0.268237 0.683465
Si Si4 0.635300 0.387814 0.540960
Si Si5 0.821685 0.769837 0.527896
Si Si6 0.680834 0.188301 0.451626
Si Si7 0.214205 0.965746 0.773305
O O1 0.236488 0.451063 0.066836
O O2 0.259899 0.631609 0.091163
O O3 0.253849 0.488162 0.175922
O O4 0.000000 0.535826 0.250000
O O5 0.798854 0.296046 0.211748
O O6 0.774651 0.317113 0.101447
O O7 0.757780 0.465782 0.190482
O O8 0.026576 0.376344 0.022654
O O9 0.739336 0.280267 0.658388
O O10 0.828786 0.373387 0.708486
O O11 0.990024 0.220051 0.583654
O O12 0.620158 0.282574 0.520775
O O13 0.695544 0.375897 0.578765
O O14 0.468354 0.439978 0.633028
O O15 0.750000 0.750000 0.500000
#
# Coordination Sequence:
#
# PCOD8148669 Si02
#       7
#     8   8   8   8   8   8   8
#     4  12  24  43  69 100 135 184 236 284 349 417
#     4  11  23  44  68  99 136 181 228 283 348 406
#     4  11  22  43  66  96 131 183 221 280 343 399
#     4  11  23  43  65 103 133 176 228 285 343 418
#     4  11  25  42  67  97 141 180 230 283 341 416
#     4  10  23  42  66  96 140 171 225 287 343 405
#     4  12  23  41  71  96 137 181 230 282 350 420
#
# _framework density 22.33419
#
# number of rings (size 3 to 8) (size 9 to 14) (size 15 to 20)
#    0.000    0.857    2.857    4.714    0.000    4.000 
#    0.000    1.429    0.000    0.000    0.000    0.000 
#    0.000    0.000    0.000    0.000    0.000    0.000 
#
# Total GULP energy -347297.343631 kJ/mol
# GULP energy per Si atom -12403.476558 kJ/mol
# Density = 2.228336 g / cm^3
# Si number density = 22.334190 Si / 1000 Ang^3
#
#
#
# Elastic Constant Matrix: (Units=GPa)
#
#
# Indices 1 2 3 4 5 6 
#
# 1 149.4170 5.6463 48.0462 0.0001 -1.5930 0.0000
# 2 5.6463 65.6017 28.3594 -0.0003 -16.1005 0.0000
# 3 48.0462 28.3594 104.8871 -0.0011 -5.3307 0.0002
# 4 0.0001 -0.0003 -0.0011 36.6088 0.0004 10.7650
# 5 -1.5930 -16.1005 -5.3307 0.0004 29.6283 -0.0001
# 6 0.0000 0.0000 0.0002 10.7650 -0.0001 29.1919
#
#
#
# Elastic Compliance Matrix: (Units=1/GPa)
#
#
# Indices 1 2 3 4 5 6 
#
# 1 0.007909 0.001081 -0.003900 0.000000 0.000311 0.000000
# 2 0.001081 0.019905 -0.005374 0.000000 0.009908 0.000000
# 3 -0.003900 -0.005374 0.012731 0.000000 -0.000839 0.000000
# 4 0.000000 0.000000 0.000000 0.030638 0.000000 -0.011298
# 5 0.000311 0.009908 -0.000839 0.000000 0.039001 0.000000
# 6 0.000000 0.000000 0.000000 -0.011298 0.000000 0.038423
#
#
# Mechanical properties :
#
#
# Convention : Reuss Voigt Hill
#
# Bulk Modulus (GPa) = 41.38879 53.77887 47.58383
# Shear Modulus (GPa) = 28.89430 34.94274 31.91852
#
# Velocity S-wave (km/s) = 3.60074 3.95972 3.78449
# Velocity P-wave (km/s) = 5.98823 6.71098 6.35988
#
# Compressibility (1/GPa) = 0.02416113
#
# Stress axis : x y z
#
# Youngs Moduli (GPa) = 126.43739 50.23809 78.55060
#
# Poissons Ratio (x) = -0.05433 0.30631
# Poissons Ratio (y) = -0.13673 0.42211
# Poissons Ratio (z) = 0.49305 0.26997
#
# Static dielectric constant tensor:
#      x y z
#    x 4.194730 0.000000 0.279580 
#    y 0.000000 4.125420 0.000000 
#    z 0.279580 0.000000 4.111440 
# 
# 
# High freq. dielectric constant tensor:
#      x y z
#    x 1.884040 0.000000 0.012320 
#    y 0.000000 1.881340 0.000000 
#    z 0.012320 0.000000 1.889530 
# 
# From -- ./inp_files/274456.got.cif
#   From: 2010.06.25/outbox.cif.g09.slc.cpg/sg15_138_cif.got.tgz:274456.got - 2010.06.28 07:06:18.
