data_PCOD8148113
_publ_section_title
;
Structure prediction by ZEFSAII (Michael W. Deem and Ramdas Pophale) SiO2 
 PCOD8148113
Probable space group: C 2/C
;
_chemical_formula_sum "Si O2"
_cell_formula_units_Z 48
_cell_length_a 25.214715
_cell_length_b 8.802685
_cell_length_c 13.364648
_cell_angle_alpha 90.000000
_cell_angle_beta 41.979357
_cell_angle_gamma 90.000000
_cell_volume 1984.101123
_symmetry_space_group_name_H-M "C 2/C"
_symmetry_group_IT_number 15
_symmetry_cell_setting 'monoclinic'
loop_
_space_group_symop_operation_xyz
x,y,z
-x,y,1/2-z
-x,-y,-z
x,-y,1/2+z
1/2+x,1/2+y,z
1/2-x,1/2+y,1/2-z
1/2-x,1/2-y,-z
1/2+x,1/2-y,1/2+z
loop_
_atom_site_type_symbol
_atom_site_label
_atom_site_fract_x
_atom_site_fract_y
_atom_site_fract_z
Si Si1 0.774528 0.812897 0.256956
Si Si2 0.878251 0.187963 0.925723
Si Si3 0.317375 0.875879 0.313317
Si Si4 0.320241 0.455709 0.857311
Si Si5 0.914431 0.402365 0.563219
Si Si6 0.501851 0.819286 0.615042
O O1 0.710865 0.733446 0.419493
O O2 0.736826 0.882377 0.211016
O O3 0.840552 0.692934 0.124594
O O4 0.817648 0.942713 0.260991
O O5 0.922422 0.312368 0.793865
O O6 0.935481 0.183535 0.943703
O O7 0.874526 0.031014 0.868193
O O8 0.354242 0.708852 0.280206
O O9 0.268859 0.931777 0.477402
O O10 0.388315 0.990792 0.194019
O O11 0.979129 0.296792 0.529634
O O12 0.953162 0.517060 0.428212
#
# Coordination Sequence:
#
# PCOD8148113 Si02
#       6
#     8   8   8   8   8   8
#     4  12  22  42  75 100 136 191 249 287 357 434
#     4  11  21  41  67  99 131 196 234 289 357 441
#     4  11  24  40  68 108 143 174 242 309 355 416
#     4  11  24  41  66 103 140 178 235 305 354 418
#     4  11  21  43  67 103 133 187 243 300 357 435
#     4  10  23  38  70  96 139 178 245 291 361 425
#
# _framework density 24.192315000000001
#
# number of rings (size 3 to 8) (size 9 to 14) (size 15 to 20)
#    0.000    1.000    5.000    2.500    0.000    0.000 
#    3.000    0.833   14.667    0.000    0.000    0.000 
#    0.000    0.000    0.000    0.000    0.000    0.000 
#
# Total GULP energy -297362.953682 kJ/mol
# GULP energy per Si atom -12390.123070 kJ/mol
# Density = 2.413725 g / cm^3
# Si number density = 24.192315 Si / 1000 Ang^3
#
#
#
# Elastic Constant Matrix: (Units=GPa)
#
#
# Indices 1 2 3 4 5 6 
#
# 1 104.3621 32.4228 -10.8250 0.0001 -1.5474 0.0000
# 2 32.4228 91.8459 16.5764 0.0007 2.6322 -0.0003
# 3 -10.8250 16.5764 68.7081 0.0002 -7.7825 -0.0001
# 4 0.0001 0.0007 0.0002 46.5619 0.0000 0.9765
# 5 -1.5474 2.6322 -7.7825 0.0000 27.7235 0.0000
# 6 0.0000 -0.0003 -0.0001 0.9765 0.0000 25.9585
#
#
#
# Elastic Compliance Matrix: (Units=1/GPa)
#
#
# Indices 1 2 3 4 5 6 
#
# 1 0.011377 -0.004638 0.003133 0.000000 0.001955 0.000000
# 2 -0.004638 0.013373 -0.004266 0.000000 -0.002726 0.000000
# 3 0.003133 -0.004266 0.016673 0.000000 0.005260 0.000000
# 4 0.000000 0.000000 0.000000 0.021494 0.000000 -0.000809
# 5 0.001955 -0.002726 0.005260 0.000000 0.037915 0.000000
# 6 0.000000 0.000000 0.000000 -0.000809 0.000000 0.038554
#
#
# Mechanical properties :
#
#
# Convention : Reuss Voigt Hill
#
# Bulk Modulus (GPa) = 33.46580 37.91827 35.69204
# Shear Modulus (GPa) = 31.07783 35.16491 33.12137
#
# Velocity S-wave (km/s) = 3.58804 3.81669 3.70413
# Velocity P-wave (km/s) = 5.57034 5.92710 5.75149
#
# Compressibility (1/GPa) = 0.02988125
#
# Stress axis : x y z
#
# Youngs Moduli (GPa) = 87.89892 74.77800 59.97774
#
# Poissons Ratio (x) = 0.34678 -0.18789
# Poissons Ratio (y) = 0.40763 0.25585
# Poissons Ratio (z) = -0.27536 0.31898
#
# Static dielectric constant tensor:
#      x y z
#    x 4.380850 0.000000 -0.045670 
#    y 0.000000 4.327310 0.000000 
#    z -0.045670 0.000000 4.454520 
# 
# 
# High freq. dielectric constant tensor:
#      x y z
#    x 1.956260 0.000000 -0.003560 
#    y 0.000000 1.941790 0.000000 
#    z -0.003560 0.000000 1.957370 
# 
# From -- ./inp_files/176881.got.cif
#   From: 2010.06.25/outbox.cif.g09.slc.cpg/sg15_89_cif.got.tgz:176881.got - 2010.06.28 07:06:18.
