data_PCOD8148481
_publ_section_title
;
Structure prediction by ZEFSAII (Michael W. Deem and Ramdas Pophale) SiO2 
 PCOD8148481
Probable space group: C 2/C
;
_chemical_formula_sum "Si O2"
_cell_formula_units_Z 52
_cell_length_a 30.607546
_cell_length_b 5.373592
_cell_length_c 15.085914
_cell_angle_alpha 90.000000
_cell_angle_beta 108.954946
_cell_angle_gamma 90.000000
_cell_volume 2346.671676
_symmetry_space_group_name_H-M "C 2/C"
_symmetry_group_IT_number 15
_symmetry_cell_setting 'monoclinic'
loop_
_space_group_symop_operation_xyz
x,y,z
-x,y,1/2-z
-x,-y,-z
x,-y,1/2+z
1/2+x,1/2+y,z
1/2-x,1/2+y,1/2-z
1/2-x,1/2-y,-z
1/2+x,1/2-y,1/2+z
loop_
_atom_site_type_symbol
_atom_site_label
_atom_site_fract_x
_atom_site_fract_y
_atom_site_fract_z
Si Si1 0.753671 0.246596 0.201326
Si Si2 0.153212 0.139475 0.334598
Si Si3 0.933243 0.625256 0.819668
Si Si4 0.389796 0.149021 0.971920
Si Si5 0.836452 0.173860 0.959155
Si Si6 0.417721 0.740953 0.675726
Si Si7 0.500000 0.591036 0.250000
O O1 0.766180 0.500641 0.262359
O O2 0.800109 0.137768 0.189603
O O3 0.716504 0.342204 0.105593
O O4 0.114123 0.289160 0.257857
O O5 0.163242 0.249636 0.437840
O O6 0.133447 0.861775 0.335640
O O7 0.929559 0.652843 0.922879
O O8 0.938178 0.352599 0.780362
O O9 0.979878 0.758702 0.820125
O O10 0.361883 0.411844 0.953408
O O11 0.359319 0.909507 0.924504
O O12 0.412816 0.093451 0.083272
O O13 0.456707 0.542800 0.675332
#
# Coordination Sequence:
#
# PCOD8148481 Si02
#       7
#     8   8   8   8   8   8   4
#     4  12  26  40  63 101 137 178 231 275 325 398
#     4  10  23  41  67  91 136 181 219 283 334 389
#     4  11  22  43  68  96 133 176 222 275 342 397
#     4  11  25  42  73  98 136 179 224 276 328 402
#     4  11  23  45  63 101 134 178 230 272 334 391
#     4  10  23  45  66 100 133 172 227 272 343 402
#     4  10  24  42  68  98 134 174 216 280 338 408
#
# _framework density 22.159043
#
# number of rings (size 3 to 8) (size 9 to 14) (size 15 to 20)
#    0.000    1.231    1.538    3.692    8.615    0.615 
#    0.000    6.923    0.000    0.000    0.000    0.000 
#    0.000    0.000    0.000    0.000    0.000    0.000 
#
# Total GULP energy -322095.266931 kJ/mol
# GULP energy per Si atom -12388.279497 kJ/mol
# Density = 2.210861 g / cm^3
# Si number density = 22.159043 Si / 1000 Ang^3
#
#
#
# Elastic Constant Matrix: (Units=GPa)
#
#
# Indices 1 2 3 4 5 6 
#
# 1 130.3488 31.6391 26.2223 0.0000 -12.8712 0.0000
# 2 31.6391 111.5058 22.4000 0.0000 -6.6371 0.0000
# 3 26.2223 22.4000 71.5174 0.0000 -17.0020 0.0000
# 4 0.0000 0.0000 0.0000 22.3605 0.0000 -0.6706
# 5 -12.8712 -6.6371 -17.0020 0.0000 30.6711 0.0000
# 6 0.0000 0.0000 0.0000 -0.6706 0.0000 21.6030
#
#
#
# Elastic Compliance Matrix: (Units=1/GPa)
#
#
# Indices 1 2 3 4 5 6 
#
# 1 0.008774 -0.001941 -0.002112 0.000000 0.002091 0.000000
# 2 -0.001941 0.010006 -0.002420 0.000000 0.000009 0.000000
# 3 -0.002112 -0.002420 0.017484 0.000000 0.008282 0.000000
# 4 0.000000 0.000000 0.000000 0.044763 0.000000 0.001390
# 5 0.002091 0.000009 0.008282 0.000000 0.038074 0.000000
# 6 0.000000 0.000000 0.000000 0.001390 0.000000 0.046333
#
#
# Mechanical properties :
#
#
# Convention : Reuss Voigt Hill
#
# Bulk Modulus (GPa) = 42.88583 52.65498 47.77041
# Shear Modulus (GPa) = 26.85964 30.46763 28.66364
#
# Velocity S-wave (km/s) = 3.48534 3.71206 3.60049
# Velocity P-wave (km/s) = 5.96594 6.49510 6.23614
#
# Compressibility (1/GPa) = 0.02331772
#
# Stress axis : x y z
#
# Youngs Moduli (GPa) = 113.97040 99.94458 57.19574
#
# Poissons Ratio (x) = 0.19398 0.12080
# Poissons Ratio (y) = 0.22120 0.13841
# Poissons Ratio (z) = 0.24071 0.24187
#
# Static dielectric constant tensor:
#      x y z
#    x 4.004860 0.000000 -0.088860 
#    y 0.000000 4.156040 0.000000 
#    z -0.088860 0.000000 3.982660 
# 
# 
# High freq. dielectric constant tensor:
#      x y z
#    x 1.875500 0.000000 -0.001530 
#    y 0.000000 1.876280 0.000000 
#    z -0.001530 0.000000 1.869050 
# 
# From -- ./inp_files/180158.got.cif
#   From: 2010.06.25/outbox.cif.g09.slc.cpg/sg15_91_cif.got.tgz:180158.got - 2010.06.28 07:06:18.
