data_PCOD8148771
_publ_section_title
;
Structure prediction by ZEFSAII (Michael W. Deem and Ramdas Pophale) SiO2 
 PCOD8148771
Probable space group: C 2/C
;
_chemical_formula_sum "Si O2"
_cell_formula_units_Z 48
_cell_length_a 10.560438
_cell_length_b 16.305462
_cell_length_c 21.149231
_cell_angle_alpha 90.000000
_cell_angle_beta 141.704052
_cell_angle_gamma 90.000000
_cell_volume 2256.875525
_symmetry_space_group_name_H-M "C 2/C"
_symmetry_group_IT_number 15
_symmetry_cell_setting 'monoclinic'
loop_
_space_group_symop_operation_xyz
x,y,z
-x,y,1/2-z
-x,-y,-z
x,-y,1/2+z
1/2+x,1/2+y,z
1/2-x,1/2+y,1/2-z
1/2-x,1/2-y,-z
1/2+x,1/2-y,1/2+z
loop_
_atom_site_type_symbol
_atom_site_label
_atom_site_fract_x
_atom_site_fract_y
_atom_site_fract_z
Si Si1 0.500000 0.624552 0.250000
Si Si2 0.584000 0.422281 0.572408
Si Si3 0.651893 0.207599 0.401584
Si Si4 0.162385 0.434120 0.708747
Si Si5 0.419743 0.059211 0.913191
Si Si6 0.716555 0.666849 0.454217
Si Si7 0.500000 0.344685 0.250000
O O1 0.661275 0.567547 0.276265
O O2 0.600667 0.681760 0.342727
O O3 0.500000 0.500000 0.500000
O O4 0.674051 0.346198 0.566735
O O5 0.764088 0.449877 0.690840
O O6 0.400370 0.394087 0.544923
O O7 0.750000 0.250000 0.500000
O O8 0.469600 0.147524 0.349421
O O9 0.539904 0.282322 0.322846
O O10 0.035301 0.513424 0.636280
O O11 0.189995 0.093310 0.822828
O O12 0.557716 0.138255 0.972439
O O13 0.500000 0.000000 0.000000
O O14 0.750000 0.750000 0.500000
#
# Coordination Sequence:
#
# PCOD8148771 Si02
#       7
#     4   8   8   8   8   8   4
#     4  10  23  42  70  95 138 182 220 288 347 406
#     4  11  25  46  70 100 141 183 230 291 355 416
#     4  12  26  46  72 101 140 191 235 297 358 419
#     4  11  23  45  71  98 142 178 235 285 352 421
#     4  12  25  43  73 104 138 189 236 283 353 429
#     4  11  25  45  69 101 141 179 234 288 351 421
#     4  12  27  46  68 109 144 176 248 290 349 424
#
# _framework density 21.268340999999999
#
# number of rings (size 3 to 8) (size 9 to 14) (size 15 to 20)
#    0.000    0.667    3.333    3.500    9.333    0.000 
#    3.000    0.000    0.000    0.000    0.000    0.000 
#    0.000    0.000    0.000    0.000    0.000    0.000 
#
# Total GULP energy -297332.998557 kJ/mol
# GULP energy per Si atom -12388.874940 kJ/mol
# Density = 2.121993 g / cm^3
# Si number density = 21.268341 Si / 1000 Ang^3
#
#
#
# Elastic Constant Matrix: (Units=GPa)
#
#
# Indices 1 2 3 4 5 6 
#
# 1 87.6995 38.7962 64.8850 0.0001 -2.1510 0.0000
# 2 38.7962 148.0483 102.4321 0.0001 -7.0268 0.0000
# 3 64.8850 102.4321 204.1131 0.0004 -13.6487 0.0001
# 4 0.0001 0.0001 0.0004 48.9048 0.0002 -1.4456
# 5 -2.1510 -7.0268 -13.6487 0.0002 40.2430 0.0001
# 6 0.0000 0.0000 0.0001 -1.4456 0.0001 46.6375
#
#
#
# Elastic Compliance Matrix: (Units=1/GPa)
#
#
# Indices 1 2 3 4 5 6 
#
# 1 0.015027 -0.000971 -0.004346 0.000000 -0.000840 0.000000
# 2 -0.000971 0.010410 -0.004909 0.000000 0.000101 0.000000
# 3 -0.004346 -0.004909 0.008873 0.000000 0.001920 0.000000
# 4 0.000000 0.000000 0.000000 0.020467 0.000000 0.000634
# 5 -0.000840 0.000101 0.001920 0.000000 0.025473 0.000000
# 6 0.000000 0.000000 0.000000 0.000634 0.000000 0.021462
#
#
# Mechanical properties :
#
#
# Convention : Reuss Voigt Hill
#
# Bulk Modulus (GPa) = 72.15848 94.67639 83.41744
# Shear Modulus (GPa) = 39.43814 42.74023 41.08919
#
# Velocity S-wave (km/s) = 4.31084 4.48769 4.40015
# Velocity P-wave (km/s) = 7.66676 8.45365 8.06980
#
# Compressibility (1/GPa) = 0.01385838
#
# Stress axis : x y z
#
# Youngs Moduli (GPa) = 66.54826 96.06063 112.70765
#
# Poissons Ratio (x) = 0.09326 0.48980
# Poissons Ratio (y) = 0.06461 0.55326
# Poissons Ratio (z) = 0.28920 0.47154
#
# Static dielectric constant tensor:
#      x y z
#    x 3.854040 0.000010 0.021080 
#    y 0.000010 6.889080 0.000000 
#    z 0.021080 0.000000 4.319480 
# 
# 
# High freq. dielectric constant tensor:
#      x y z
#    x 1.835020 0.000000 0.002300 
#    y 0.000000 1.839270 0.000000 
#    z 0.002300 0.000000 1.862790 
# 
# From -- ./inp_files/239050.got.cif
#   From: 2010.06.25/outbox.cif.g09.slc.cpg/sg15_120_cif.got.tgz:239050.got - 2010.06.28 07:06:18.
