data_PCOD8148411
_publ_section_title
;
Structure prediction by ZEFSAII (Michael W. Deem and Ramdas Pophale) SiO2 
 PCOD8148411
Probable space group: C 2/C
;
_chemical_formula_sum "Si O2"
_cell_formula_units_Z 64
_cell_length_a 16.651717
_cell_length_b 15.446645
_cell_length_c 23.069813
_cell_angle_alpha 90.000000
_cell_angle_beta 146.689311
_cell_angle_gamma 90.000000
_cell_volume 3258.749471
_symmetry_space_group_name_H-M "C 2/C"
_symmetry_group_IT_number 15
_symmetry_cell_setting 'monoclinic'
loop_
_space_group_symop_operation_xyz
x,y,z
-x,y,1/2-z
-x,-y,-z
x,-y,1/2+z
1/2+x,1/2+y,z
1/2-x,1/2+y,1/2-z
1/2-x,1/2-y,-z
1/2+x,1/2-y,1/2+z
loop_
_atom_site_type_symbol
_atom_site_label
_atom_site_fract_x
_atom_site_fract_y
_atom_site_fract_z
Si Si1 0.956030 0.369573 0.476811
Si Si2 0.533752 0.271147 0.831332
Si Si3 0.142509 0.461728 0.793981
Si Si4 0.783390 0.631669 0.518245
Si Si5 0.476293 0.003285 0.582043
Si Si6 0.658240 0.626691 0.567807
Si Si7 0.670015 0.312269 0.625953
Si Si8 0.264911 0.785932 0.809269
O O1 0.951235 0.419530 0.412515
O O2 0.124047 0.350487 0.593051
O O3 0.902075 0.431515 0.496140
O O4 0.863698 0.281134 0.422813
O O5 0.500000 0.224609 0.750000
O O6 0.578185 0.196755 0.904237
O O7 0.394325 0.321642 0.770687
O O8 0.660320 0.342686 0.897452
O O9 0.270794 0.532212 0.880371
O O10 0.222396 0.368644 0.850721
O O11 0.000000 0.472478 0.750000
O O12 0.096029 0.466462 0.698409
O O13 0.840718 0.536164 0.540048
O O14 0.717200 0.654793 0.540899
O O15 0.480718 0.632311 0.456767
O O16 0.713961 0.688403 0.653384
O O17 0.766855 0.290537 0.741083
#
# Coordination Sequence:
#
# PCOD8148411 Si02
#       8
#     8   8   8   8   8   8   8   8
#     4  10  23  41  64  89 121 166 207 252 304 364
#     4  11  20  30  51  86 127 159 189 234 300 371
#     4  12  24  41  65  90 121 164 212 256 303 361
#     4  11  21  32  54  90 124 159 193 242 305 366
#     4  11  22  40  63  91 123 162 207 251 306 370
#     4  11  22  36  61  91 126 154 198 255 309 362
#     4  11  23  42  62  88 125 160 208 254 306 366
#     4  11  20  36  60  89 121 165 196 247 309 371
#
# _framework density 19.639436
#
# number of rings (size 3 to 8) (size 9 to 14) (size 15 to 20)
#    0.000    1.000    5.000    3.375    3.500    0.000 
#    0.000    0.625    0.000    3.750    0.000    0.000 
#    0.000    0.000    0.000    0.000    0.000    0.000 
#
# Total GULP energy -396443.181192 kJ/mol
# GULP energy per Si atom -12388.849412 kJ/mol
# Density = 1.959474 g / cm^3
# Si number density = 19.639436 Si / 1000 Ang^3
#
#
#
# Elastic Constant Matrix: (Units=GPa)
#
#
# Indices 1 2 3 4 5 6 
#
# 1 61.6194 41.0181 30.1153 -0.0002 -0.9774 0.0000
# 2 41.0181 121.7116 43.3024 -0.0002 3.9399 0.0000
# 3 30.1153 43.3024 101.3779 -0.0003 -2.5980 0.0002
# 4 -0.0002 -0.0002 -0.0003 28.0400 0.0001 0.0490
# 5 -0.9774 3.9399 -2.5980 0.0001 27.0356 0.0001
# 6 0.0000 0.0000 0.0002 0.0490 0.0001 30.9115
#
#
#
# Elastic Compliance Matrix: (Units=1/GPa)
#
#
# Indices 1 2 3 4 5 6 
#
# 1 0.022272 -0.006140 -0.003960 0.000000 0.001319 0.000000
# 2 -0.006140 0.011471 -0.003132 0.000000 -0.002195 0.000000
# 3 -0.003960 -0.003132 0.012417 0.000000 0.001506 0.000000
# 4 0.000000 0.000000 0.000000 0.035663 0.000000 -0.000056
# 5 0.001319 -0.002195 0.001506 0.000000 0.037500 0.000000
# 6 0.000000 0.000000 0.000000 -0.000056 0.000000 0.032350
#
#
# Mechanical properties :
#
#
# Convention : Reuss Voigt Hill
#
# Bulk Modulus (GPa) = 50.77069 57.06448 53.91758
# Shear Modulus (GPa) = 27.07066 28.54899 27.80982
#
# Velocity S-wave (km/s) = 3.71669 3.81682 3.76709
# Velocity P-wave (km/s) = 6.65777 6.96730 6.81429
#
# Compressibility (1/GPa) = 0.01969640
#
# Stress axis : x y z
#
# Youngs Moduli (GPa) = 44.89967 87.17929 80.53662
#
# Poissons Ratio (x) = 0.53526 0.31890
# Poissons Ratio (y) = 0.27567 0.25223
# Poissons Ratio (z) = 0.17779 0.27304
#
# Static dielectric constant tensor:
#      x y z
#    x 3.478420 0.000000 -0.080600 
#    y 0.000000 3.528700 0.000000 
#    z -0.080600 0.000000 3.854050 
# 
# 
# High freq. dielectric constant tensor:
#      x y z
#    x 1.742770 0.000000 -0.012270 
#    y 0.000000 1.751850 0.000000 
#    z -0.012270 0.000000 1.783190 
# 
# From -- ./inp_files/123493.got.cif
#   From: 2010.06.25/outbox.cif.g09.slc.cpg/sg15_62_cif.got.tgz:123493.got - 2010.06.28 07:06:18.
