data_PCOD8148232
_publ_section_title
;
Structure prediction by ZEFSAII (Michael W. Deem and Ramdas Pophale) SiO2 
 PCOD8148232
Probable space group: C 2/C
;
_chemical_formula_sum "Si O2"
_cell_formula_units_Z 56
_cell_length_a 14.397997
_cell_length_b 22.519784
_cell_length_c 9.016873
_cell_angle_alpha 90.000000
_cell_angle_beta 67.532019
_cell_angle_gamma 90.000000
_cell_volume 2701.705757
_symmetry_space_group_name_H-M "C 2/C"
_symmetry_group_IT_number 15
_symmetry_cell_setting 'monoclinic'
loop_
_space_group_symop_operation_xyz
x,y,z
-x,y,1/2-z
-x,-y,-z
x,-y,1/2+z
1/2+x,1/2+y,z
1/2-x,1/2+y,1/2-z
1/2-x,1/2-y,-z
1/2+x,1/2-y,1/2+z
loop_
_atom_site_type_symbol
_atom_site_label
_atom_site_fract_x
_atom_site_fract_y
_atom_site_fract_z
Si Si1 0.199029 0.538619 0.294899
Si Si2 0.693316 0.688190 0.531547
Si Si3 0.584285 0.200816 0.481823
Si Si4 0.500000 0.747509 0.750000
Si Si5 0.509866 0.926212 0.075779
Si Si6 0.209515 0.156640 0.189786
Si Si7 0.500000 0.706777 0.250000
Si Si8 0.700290 0.074430 0.949030
O O1 0.254299 0.589229 0.358445
O O2 0.250176 0.475806 0.310348
O O3 0.083599 0.532772 0.428905
O O4 0.199226 0.550302 0.119267
O O5 0.750000 0.750000 0.500000
O O6 0.578521 0.700735 0.637344
O O7 0.700600 0.660366 0.368580
O O8 0.740115 0.636800 0.608946
O O9 0.554054 0.206830 0.328622
O O10 0.558952 0.138108 0.567057
O O11 0.706961 0.204482 0.420285
O O12 0.518494 0.251899 0.597677
O O13 0.500000 0.952607 0.250000
O O14 0.409871 0.913323 0.045349
O O15 0.099296 0.166569 0.191502
#
# Coordination Sequence:
#
# PCOD8148232 Si02
#       8
#     8   8   8   4   8   8   4   8
#     4  10  23  42  61  90 120 167 217 255 323 370
#     4  11  22  40  66  94 124 162 215 260 323 377
#     4  11  23  36  63  93 132 165 213 254 331 382
#     4  12  22  40  63  92 127 168 208 268 320 390
#     4  11  22  37  60  94 128 168 210 262 318 385
#     4  10  23  40  62  91 125 170 208 265 311 391
#     4  12  22  42  59  92 133 168 212 264 324 374
#     4  11  23  41  65  89 128 168 211 270 309 384
#
# _framework density 20.727646
#
# number of rings (size 3 to 8) (size 9 to 14) (size 15 to 20)
#    0.000    1.143    3.571    3.000    4.000    0.000 
#    7.714    0.714    0.000    3.429    0.000    0.000 
#    0.000    0.000    0.000    0.000    0.000    0.000 
#
# Total GULP energy -346948.884038 kJ/mol
# GULP energy per Si atom -12391.031573 kJ/mol
# Density = 2.068047 g / cm^3
# Si number density = 20.727646 Si / 1000 Ang^3
#
#
#
# Elastic Constant Matrix: (Units=GPa)
#
#
# Indices 1 2 3 4 5 6 
#
# 1 107.0379 39.0174 27.8328 0.0000 -11.6018 0.0000
# 2 39.0174 95.3720 23.2905 0.0000 -4.1263 0.0000
# 3 27.8328 23.2905 66.4508 0.0000 -4.6566 0.0000
# 4 0.0000 0.0000 0.0000 28.9543 0.0000 2.5390
# 5 -11.6018 -4.1263 -4.6566 0.0000 38.1654 0.0000
# 6 0.0000 0.0000 0.0000 2.5390 0.0000 11.1154
#
#
#
# Elastic Compliance Matrix: (Units=1/GPa)
#
#
# Indices 1 2 3 4 5 6 
#
# 1 0.011975 -0.003938 -0.003440 0.000000 0.002795 0.000000
# 2 -0.003938 0.012784 -0.002842 0.000000 -0.000162 0.000000
# 3 -0.003440 -0.002842 0.017541 0.000000 0.000787 0.000000
# 4 0.000000 0.000000 0.000000 0.035243 0.000000 -0.008050
# 5 0.002795 -0.000162 0.000787 0.000000 0.027130 0.000000
# 6 0.000000 0.000000 0.000000 -0.008050 0.000000 0.091804
#
#
# Mechanical properties :
#
#
# Convention : Reuss Voigt Hill
#
# Bulk Modulus (GPa) = 45.74744 49.90469 47.82607
# Shear Modulus (GPa) = 22.30110 27.56168 24.93139
#
# Velocity S-wave (km/s) = 3.28367 3.65047 3.47192
# Velocity P-wave (km/s) = 6.04113 6.47276 6.26066
#
# Compressibility (1/GPa) = 0.02185915
#
# Stress axis : x y z
#
# Youngs Moduli (GPa) = 83.50424 78.22546 57.00985
#
# Poissons Ratio (x) = 0.30808 0.19610
# Poissons Ratio (y) = 0.32887 0.16204
# Poissons Ratio (z) = 0.28723 0.22234
#
# Static dielectric constant tensor:
#      x y z
#    x 3.855930 0.000000 -0.247930 
#    y 0.000000 4.105790 0.000000 
#    z -0.247930 0.000000 3.951580 
# 
# 
# High freq. dielectric constant tensor:
#      x y z
#    x 1.799490 0.000000 0.002580 
#    y 0.000000 1.820590 0.000000 
#    z 0.002580 0.000000 1.810290 
# 
# From -- ./inp_files/42569.got.cif
#   From: 2010.06.25/outbox.cif.g09.slc.cpg/sg15_22_cif.got.tgz:42569.got - 2010.06.28 07:06:18.
