data_PCOD8148969
_publ_section_title
;
Structure prediction by ZEFSAII (Michael W. Deem and Ramdas Pophale) SiO2 
 PCOD8148969
Probable space group: C 2/C
;
_chemical_formula_sum "Si O2"
_cell_formula_units_Z 64
_cell_length_a 23.377230
_cell_length_b 8.546397
_cell_length_c 30.289002
_cell_angle_alpha 90.000000
_cell_angle_beta 29.318622
_cell_angle_gamma 90.000000
_cell_volume 2963.199581
_symmetry_space_group_name_H-M "C 2/C"
_symmetry_group_IT_number 15
_symmetry_cell_setting 'monoclinic'
loop_
_space_group_symop_operation_xyz
x,y,z
-x,y,1/2-z
-x,-y,-z
x,-y,1/2+z
1/2+x,1/2+y,z
1/2-x,1/2+y,1/2-z
1/2-x,1/2-y,-z
1/2+x,1/2-y,1/2+z
loop_
_atom_site_type_symbol
_atom_site_label
_atom_site_fract_x
_atom_site_fract_y
_atom_site_fract_z
Si Si1 0.771527 0.255278 0.758002
Si Si2 0.972633 0.323615 0.935039
Si Si3 0.184952 0.115925 0.518275
Si Si4 0.202151 0.686922 0.577467
Si Si5 0.288670 0.417597 0.785598
Si Si6 0.129500 0.638323 0.471372
Si Si7 0.951745 0.828644 0.541795
Si Si8 0.983264 0.084611 0.308883
O O1 0.718841 0.274494 0.744044
O O2 0.789023 0.072682 0.755590
O O3 0.685695 0.332407 0.852530
O O4 0.899395 0.335982 0.673354
O O5 0.897177 0.188111 0.963556
O O6 0.911728 0.492597 0.970847
O O7 0.978814 0.281002 0.982161
O O8 0.250000 0.250000 0.500000
O O9 0.109607 0.019565 0.603440
O O10 0.280109 0.000548 0.431279
O O11 0.250000 0.750000 0.500000
O O12 0.268207 0.768464 0.573487
O O13 0.066931 0.740940 0.668664
O O14 0.176471 0.422781 0.892678
O O15 0.402154 0.399226 0.739166
O O16 0.020393 0.754275 0.537227
O O17 0.000000 0.000000 0.500000
O O18 0.000000 0.000589 0.250000
#
# Coordination Sequence:
#
# PCOD8148969 Si02
#       8
#     8   8   8   8   8   8   8   8
#     4  12  26  44  70 103 144 185 245 290 362 429
#     4  12  23  45  70 102 139 188 238 292 361 431
#     4  11  25  46  72 102 141 184 236 297 365 432
#     4  10  23  43  69 101 133 184 231 288 359 427
#     4  12  25  47  70 105 143 192 237 300 358 432
#     4  12  24  45  72  96 141 191 238 288 366 433
#     4  12  26  43  67 103 144 187 236 303 353 421
#     4  11  23  45  74 104 141 187 241 299 364 431
#
# _framework density 21.598272999999999
#
# number of rings (size 3 to 8) (size 9 to 14) (size 15 to 20)
#    0.000    0.500    5.000    4.125    3.500    0.000 
#    2.250    0.625    0.000    0.000    0.000    0.000 
#    0.000    0.000    0.000    0.000    0.000    0.000 
#
# Total GULP energy -396782.242101 kJ/mol
# GULP energy per Si atom -12399.445066 kJ/mol
# Density = 2.154911 g / cm^3
# Si number density = 21.598273 Si / 1000 Ang^3
#
#
#
# Elastic Constant Matrix: (Units=GPa)
#
#
# Indices 1 2 3 4 5 6 
#
# 1 130.7753 61.1406 34.4963 0.0575 -14.1831 0.1909
# 2 61.1406 143.2354 54.0219 -0.0465 -13.1175 0.0502
# 3 34.4963 54.0219 124.6162 0.0175 -9.8649 -0.0500
# 4 0.0575 -0.0465 0.0175 24.3416 -0.0213 11.4155
# 5 -14.1831 -13.1175 -9.8649 -0.0213 34.6866 -0.0991
# 6 0.1909 0.0502 -0.0500 11.4155 -0.0991 30.7093
#
#
#
# Elastic Compliance Matrix: (Units=1/GPa)
#
#
# Indices 1 2 3 4 5 6 
#
# 1 0.009855 -0.003623 -0.000969 -0.000005 0.002384 -0.000047
# 2 -0.003623 0.009842 -0.003157 0.000034 0.001343 -0.000007
# 3 -0.000969 -0.003157 0.009755 -0.000029 0.001184 0.000042
# 4 -0.000005 0.000034 -0.000029 0.049756 -0.000020 -0.018496
# 5 0.002384 0.001343 0.001184 -0.000020 0.030649 0.000091
# 6 -0.000047 -0.000007 0.000042 -0.018496 0.000091 0.039439
#
#
# Mechanical properties :
#
#
# Convention : Reuss Voigt Hill
#
# Bulk Modulus (GPa) = 71.66463 77.54937 74.60700
# Shear Modulus (GPa) = 29.50810 34.54538 32.02674
#
# Velocity S-wave (km/s) = 3.70026 4.00365 3.85494
# Velocity P-wave (km/s) = 7.17695 7.57335 7.37781
#
# Compressibility (1/GPa) = 0.01395389
#
# Stress axis : x y z
#
# Youngs Moduli (GPa) = 101.47561 101.60881 102.50836
#
# Poissons Ratio (x) = 0.36811 0.09931
# Poissons Ratio (y) = 0.36762 0.32365
# Poissons Ratio (z) = 0.09831 0.32081
#
# Static dielectric constant tensor:
#      x y z
#    x 3.966660 -0.000190 -0.266370 
#    y -0.000190 4.043230 0.013000 
#    z -0.266370 0.013000 3.924000 
# 
# 
# High freq. dielectric constant tensor:
#      x y z
#    x 1.857290 -0.000030 -0.002250 
#    y -0.000030 1.844000 0.000010 
#    z -0.002250 0.000010 1.856980 
# 
# From -- ./inp_files/318610.got.cif
#   From: 2010.06.25/outbox.cif.g09.slc.cpg/sg15_160_cif.got.tgz:318610.got - 2010.06.28 07:06:18.
