data_PCOD8148939
_publ_section_title
;
Structure prediction by ZEFSAII (Michael W. Deem and Ramdas Pophale) SiO2 
 PCOD8148939
Probable space group: C 2/C
;
_chemical_formula_sum "Si O2"
_cell_formula_units_Z 28
_cell_length_a 9.000484
_cell_length_b 12.203971
_cell_length_c 9.583107
_cell_angle_alpha 90.000000
_cell_angle_beta 57.677125
_cell_angle_gamma 90.000000
_cell_volume 889.518464
_symmetry_space_group_name_H-M "C 2/C"
_symmetry_group_IT_number 15
_symmetry_cell_setting 'monoclinic'
loop_
_space_group_symop_operation_xyz
x,y,z
-x,y,1/2-z
-x,-y,-z
x,-y,1/2+z
1/2+x,1/2+y,z
1/2-x,1/2+y,1/2-z
1/2-x,1/2-y,-z
1/2+x,1/2-y,1/2+z
loop_
_atom_site_type_symbol
_atom_site_label
_atom_site_fract_x
_atom_site_fract_y
_atom_site_fract_z
Si Si1 0.762761 0.944083 0.330628
Si Si2 0.742274 0.818398 0.857716
Si Si3 0.938825 0.832125 0.470702
Si Si4 0.000000 0.364446 0.250000
O O1 0.780327 0.843910 0.434860
O O2 0.581209 0.933769 0.334623
O O3 0.747260 0.059726 0.422969
O O4 0.928079 0.932977 0.140252
O O5 0.864334 0.841367 0.662193
O O6 0.847773 0.718015 0.890843
O O7 0.551011 0.780252 0.901098
#
# Coordination Sequence:
#
# PCOD8148939 Si02
#       4
#     8   8   8   4
#     4  10  23  43  68 100 136 181 228 279 341 407
#     4  11  24  47  70 100 143 179 226 290 337 407
#     4  10  24  45  71 101 138 184 228 277 351 408
#     4  10  24  40  66 104 134 178 232 276 342 406
#
# _framework density 31.477705
#
# number of rings (size 3 to 8) (size 9 to 14) (size 15 to 20)
#    0.000    1.714    0.000    2.571    0.000   21.714 
#    0.000   12.857    0.000    0.000    0.000    0.000 
#    0.000    0.000    0.000    0.000    0.000    0.000 
#
# Total GULP energy -173554.022364 kJ/mol
# GULP energy per Si atom -12396.715883 kJ/mol
# Density = 3.140606 g / cm^3
# Si number density = 31.477705 Si / 1000 Ang^3
#
#
#
# Elastic Constant Matrix: (Units=GPa)
#
#
# Indices 1 2 3 4 5 6 
#
# 1 219.9232 65.2744 31.1609 0.0000 -1.6198 0.0000
# 2 65.2744 165.3220 27.9089 0.0000 29.1300 0.0000
# 3 31.1609 27.9089 122.2896 0.0000 3.1962 0.0000
# 4 0.0000 0.0000 0.0000 24.3673 0.0000 13.2099
# 5 -1.6198 29.1300 3.1962 0.0000 36.6454 0.0000
# 6 0.0000 0.0000 0.0000 13.2099 0.0000 55.1545
#
#
#
# Elastic Compliance Matrix: (Units=1/GPa)
#
#
# Indices 1 2 3 4 5 6 
#
# 1 0.005392 -0.002365 -0.000891 0.000000 0.002196 0.000000
# 2 -0.002365 0.008343 -0.001128 0.000000 -0.006638 0.000000
# 3 -0.000891 -0.001128 0.008659 0.000000 0.000102 0.000000
# 4 0.000000 0.000000 0.000000 0.047162 0.000000 -0.011296
# 5 0.002196 -0.006638 0.000102 0.000000 0.032653 0.000000
# 6 0.000000 0.000000 0.000000 -0.011296 0.000000 0.020836
#
#
# Mechanical properties :
#
#
# Convention : Reuss Voigt Hill
#
# Bulk Modulus (GPa) = 73.39733 84.02480 78.71106
# Shear Modulus (GPa) = 36.66881 48.77949 42.72415
#
# Velocity S-wave (km/s) = 3.41679 3.94083 3.68813
# Velocity P-wave (km/s) = 6.23969 6.88900 6.57237
#
# Compressibility (1/GPa) = 0.01362447
#
# Stress axis : x y z
#
# Youngs Moduli (GPa) = 185.47560 119.86555 115.48437
#
# Poissons Ratio (x) = 0.28351 0.10295
# Poissons Ratio (y) = 0.43870 0.13024
# Poissons Ratio (z) = 0.16534 0.13518
#
# Static dielectric constant tensor:
#      x y z
#    x 6.136610 0.000000 -0.094270 
#    y 0.000000 6.204000 0.000000 
#    z -0.094270 0.000000 6.627950 
# 
# 
# High freq. dielectric constant tensor:
#      x y z
#    x 2.299250 0.000000 -0.002800 
#    y 0.000000 2.294610 0.000000 
#    z -0.002800 0.000000 2.364150 
# 
# From -- ./inp_files/27254.got.cif
#   From: 2010.06.25/outbox.cif.g09.slc.cpg/sg15_14_cif.got.tgz:27254.got - 2010.06.28 07:06:18.
