data_PCOD8148850
_publ_section_title
;
Structure prediction by ZEFSAII (Michael W. Deem and Ramdas Pophale) SiO2 
 PCOD8148850
Probable space group: C 2/C
;
_chemical_formula_sum "Si O2"
_cell_formula_units_Z 52
_cell_length_a 17.817522
_cell_length_b 11.071599
_cell_length_c 12.942321
_cell_angle_alpha 90.000000
_cell_angle_beta 71.371117
_cell_angle_gamma 90.000000
_cell_volume 2419.347814
_symmetry_space_group_name_H-M "C 2/C"
_symmetry_group_IT_number 15
_symmetry_cell_setting 'monoclinic'
loop_
_space_group_symop_operation_xyz
x,y,z
-x,y,1/2-z
-x,-y,-z
x,-y,1/2+z
1/2+x,1/2+y,z
1/2-x,1/2+y,1/2-z
1/2-x,1/2-y,-z
1/2+x,1/2-y,1/2+z
loop_
_atom_site_type_symbol
_atom_site_label
_atom_site_fract_x
_atom_site_fract_y
_atom_site_fract_z
Si Si1 0.079278 0.833258 0.996523
Si Si2 0.109276 0.435721 0.530915
Si Si3 0.000000 0.569420 0.250000
Si Si4 0.183378 0.821145 0.468696
Si Si5 0.035219 0.934507 0.624277
Si Si6 0.252383 0.567735 0.115867
Si Si7 0.631748 0.122147 0.340508
O O1 0.172404 0.846478 0.931647
O O2 0.028327 0.872254 0.921323
O O3 0.066363 0.693362 0.031155
O O4 0.049999 0.922581 0.100260
O O5 0.053320 0.504897 0.641962
O O6 0.196231 0.417111 0.540313
O O7 0.112330 0.508087 0.422768
O O8 0.937374 0.648108 0.211845
O O9 0.250000 0.750000 0.500000
O O10 0.119836 0.868723 0.578891
O O11 0.138262 0.740266 0.405885
O O12 0.221609 0.929041 0.387291
O O13 0.000000 0.912812 0.750000
O O14 0.212387 0.599079 0.242599
#
# Coordination Sequence:
#
# PCOD8148850 Si02
#       7
#     8   8   4   8   8   8   8
#     4  10  23  43  64  97 132 167 229 274 333 404
#     4  11  22  42  65  98 132 172 221 277 340 404
#     4  10  24  42  60  98 128 174 218 266 340 396
#     4  11  23  45  68  97 139 174 228 279 333 408
#     4  10  24  43  68  96 130 180 221 277 338 395
#     4  10  24  41  66  99 128 177 223 275 342 400
#     4  11  24  42  68  95 135 176 221 282 338 408
#
# _framework density 21.493395
#
# number of rings (size 3 to 8) (size 9 to 14) (size 15 to 20)
#    0.000    1.538    1.538    1.846    5.385    0.000 
#    8.308    0.000    0.000    0.000    0.000    0.000 
#    0.000    0.000    0.000    0.000    0.000    0.000 
#
# Total GULP energy -322310.609666 kJ/mol
# GULP energy per Si atom -12396.561910 kJ/mol
# Density = 2.144448 g / cm^3
# Si number density = 21.493395 Si / 1000 Ang^3
#
#
#
# Elastic Constant Matrix: (Units=GPa)
#
#
# Indices 1 2 3 4 5 6 
#
# 1 100.2789 15.0642 35.8311 0.0000 -2.4725 0.0000
# 2 15.0642 108.0687 37.1951 0.0000 3.3336 0.0000
# 3 35.8311 37.1951 133.4831 0.0000 -11.4971 0.0000
# 4 0.0000 0.0000 0.0000 8.4313 0.0000 -17.5454
# 5 -2.4725 3.3336 -11.4971 0.0000 34.0774 0.0000
# 6 0.0000 0.0000 0.0000 -17.5454 0.0000 -18.4790
#
#
#
# Elastic Compliance Matrix: (Units=1/GPa)
#
#
# Indices 1 2 3 4 5 6 
#
# 1 0.011063 -0.000569 -0.002819 0.000000 -0.000093 0.000000
# 2 -0.000569 0.010401 -0.002922 0.000000 -0.002045 0.000000
# 3 -0.002819 -0.002922 0.009341 0.000000 0.003233 0.000000
# 4 0.000000 0.000000 0.000000 0.039856 0.000000 -0.037842
# 5 -0.000093 -0.002045 0.003233 0.000000 0.030629 0.000000
# 6 0.000000 0.000000 0.000000 -0.037842 0.000000 -0.018185
#
#
# Mechanical properties :
#
#
# Convention : Reuss Voigt Hill
#
# Bulk Modulus (GPa) = 54.98890 57.55685 56.27287
# Shear Modulus (GPa) = 49.12270 21.72197 35.42234
#
# Velocity S-wave (km/s) = 4.78585 3.18250 4.06403
# Velocity P-wave (km/s) = 7.49525 6.35149 6.94695
#
# Compressibility (1/GPa) = 0.01818549
#
# Stress axis : x y z
#
# Youngs Moduli (GPa) = 90.39431 96.14134 107.05640
#
# Poissons Ratio (x) = 0.05470 0.30179
# Poissons Ratio (y) = 0.05143 0.31279
# Poissons Ratio (z) = 0.25482 0.28090
#
# Static dielectric constant tensor:
#      x y z
#    x 4.120350 0.000000 -0.055990 
#    y 0.000000 4.240240 0.000000 
#    z -0.055990 0.000000 3.905130 
# 
# 
# High freq. dielectric constant tensor:
#      x y z
#    x 1.868910 0.000000 -0.010350 
#    y 0.000000 1.827470 0.000000 
#    z -0.010350 0.000000 1.850570 
# 
# From -- ./inp_files/111512.got.cif
#   From: 2010.06.25/outbox.cif.g09.slc.cpg/sg15_56_cif.got.tgz:111512.got - 2010.06.28 07:06:18.
