data_PCOD8148603
_publ_section_title
;
Structure prediction by ZEFSAII (Michael W. Deem and Ramdas Pophale) SiO2 
 PCOD8148603
Probable space group: C 2/C
;
_chemical_formula_sum "Si O2"
_cell_formula_units_Z 28
_cell_length_a 15.123806
_cell_length_b 7.483208
_cell_length_c 22.359376
_cell_angle_alpha 90.000000
_cell_angle_beta 29.835922
_cell_angle_gamma 90.000000
_cell_volume 1258.975613
_symmetry_space_group_name_H-M "C 2/C"
_symmetry_group_IT_number 15
_symmetry_cell_setting 'monoclinic'
loop_
_space_group_symop_operation_xyz
x,y,z
-x,y,1/2-z
-x,-y,-z
x,-y,1/2+z
1/2+x,1/2+y,z
1/2-x,1/2+y,1/2-z
1/2-x,1/2-y,-z
1/2+x,1/2-y,1/2+z
loop_
_atom_site_type_symbol
_atom_site_label
_atom_site_fract_x
_atom_site_fract_y
_atom_site_fract_z
Si Si1 0.475426 0.390189 0.647904
Si Si2 0.174261 0.052560 0.434247
Si Si3 0.000000 0.694405 0.750000
Si Si4 0.856574 0.616854 0.618141
O O1 0.619301 0.531139 0.536303
O O2 0.560222 0.317649 0.659410
O O3 0.290141 0.488045 0.768107
O O4 0.446761 0.227095 0.618800
O O5 0.229346 0.251891 0.381863
O O6 0.336605 0.923586 0.322800
O O7 0.000000 0.000000 0.500000
O O8 0.000000 0.500000 0.500000
#
# Coordination Sequence:
#
# PCOD8148603 Si02
#       4
#     8   8   4   8
#     4  11  22  41  65  97 133 171 215 269 322 384
#     4  10  23  42  64  94 130 170 214 263 320 381
#     4  12  24  42  68 100 132 170 216 268 324 386
#     4  11  22  42  69  96 129 174 217 266 325 386
#
# _framework density 22.240304999999999
#
# number of rings (size 3 to 8) (size 9 to 14) (size 15 to 20)
#    0.000    1.143    0.000    9.429    0.000    1.143 
#    0.000    4.286    0.000    0.000    0.000    0.000 
#    0.000    0.000    0.000    0.000    0.000    0.000 
#
# Total GULP energy -173594.693021 kJ/mol
# GULP energy per Si atom -12399.620930 kJ/mol
# Density = 2.218968 g / cm^3
# Si number density = 22.240305 Si / 1000 Ang^3
#
#
#
# Elastic Constant Matrix: (Units=GPa)
#
#
# Indices 1 2 3 4 5 6 
#
# 1 103.1566 54.0755 30.9712 -0.0002 21.2032 -0.0002
# 2 54.0755 104.6200 36.8523 0.0001 27.0350 -0.0002
# 3 30.9712 36.8523 111.1156 0.0008 24.4758 0.0005
# 4 -0.0002 0.0001 0.0008 59.1512 0.0002 11.7297
# 5 21.2032 27.0350 24.4758 0.0002 46.0293 0.0001
# 6 -0.0002 -0.0002 0.0005 11.7297 0.0001 36.0476
#
#
#
# Elastic Compliance Matrix: (Units=1/GPa)
#
#
# Indices 1 2 3 4 5 6 
#
# 1 0.013706 -0.006085 -0.001358 0.000000 -0.002018 0.000000
# 2 -0.006085 0.014664 -0.002138 0.000000 -0.004673 0.000000
# 3 -0.001358 -0.002138 0.010956 0.000000 -0.003945 0.000000
# 4 0.000000 0.000000 0.000000 0.018072 0.000000 -0.005881
# 5 -0.002018 -0.004673 -0.003945 0.000000 0.027497 0.000000
# 6 0.000000 0.000000 0.000000 -0.005881 0.000000 0.029655
#
#
# Mechanical properties :
#
#
# Convention : Reuss Voigt Hill
#
# Bulk Modulus (GPa) = 49.59039 62.52112 56.05575
# Shear Modulus (GPa) = 35.60428 41.37850 38.49139
#
# Velocity S-wave (km/s) = 4.00545 4.31805 4.16469
# Velocity P-wave (km/s) = 6.61343 7.28241 6.95597
#
# Compressibility (1/GPa) = 0.02016520
#
# Stress axis : x y z
#
# Youngs Moduli (GPa) = 72.96074 68.19373 91.27326
#
# Poissons Ratio (x) = 0.41493 0.12393
# Poissons Ratio (y) = 0.44393 0.19516
# Poissons Ratio (z) = 0.09907 0.14581
#
# Static dielectric constant tensor:
#      x y z
#    x 4.032670 0.000000 0.484710 
#    y 0.000000 4.497600 0.000000 
#    z 0.484710 0.000000 4.458110 
# 
# 
# High freq. dielectric constant tensor:
#      x y z
#    x 1.859840 0.000000 0.019400 
#    y 0.000000 1.880280 0.000000 
#    z 0.019400 0.000000 1.896800 
# 
# From -- ./inp_files/64690.got.cif
#   From: 2010.06.25/outbox.cif.g09.slc.cpg/sg15_33_cif.got.tgz:64690.got - 2010.06.28 07:06:18.
