data_PCOD8148189
_publ_section_title
;
Structure prediction by ZEFSAII (Michael W. Deem and Ramdas Pophale) SiO2 
 PCOD8148189
Probable space group: C 2/C
;
_chemical_formula_sum "Si O2"
_cell_formula_units_Z 40
_cell_length_a 33.336178
_cell_length_b 10.300391
_cell_length_c 9.415172
_cell_angle_alpha 90.000000
_cell_angle_beta 29.574645
_cell_angle_gamma 90.000000
_cell_volume 1595.640784
_symmetry_space_group_name_H-M "C 2/C"
_symmetry_group_IT_number 15
_symmetry_cell_setting 'monoclinic'
loop_
_space_group_symop_operation_xyz
x,y,z
-x,y,1/2-z
-x,-y,-z
x,-y,1/2+z
1/2+x,1/2+y,z
1/2-x,1/2+y,1/2-z
1/2-x,1/2-y,-z
1/2+x,1/2-y,1/2+z
loop_
_atom_site_type_symbol
_atom_site_label
_atom_site_fract_x
_atom_site_fract_y
_atom_site_fract_z
Si Si1 0.141675 0.414577 0.757860
Si Si2 0.950044 0.083159 0.044029
Si Si3 0.708579 0.450998 0.602319
Si Si4 0.205038 0.242206 0.343964
Si Si5 0.119382 0.650497 0.632705
O O1 0.239148 0.435366 0.486390
O O2 0.139897 0.285430 0.664325
O O3 0.100554 0.536040 0.803211
O O4 0.092893 0.390051 0.054374
O O5 0.866559 0.002585 0.264512
O O6 0.929414 0.222074 0.174617
O O7 0.000000 0.108456 0.750000
O O8 0.000000 0.000000 0.000000
O O9 0.773868 0.372081 0.308562
O O10 0.666046 0.359111 0.852894
O O11 0.284164 0.175630 0.168341
#
# Coordination Sequence:
#
# PCOD8148189 Si02
#       5
#     8   8   8   8   8
#     4  11  19  38  70 109 141 171 223 311 377 405
#     4  11  27  49  67  94 143 197 245 277 326 430
#     4   9  20  37  65 102 137 175 226 285 360 408
#     4   9  18  35  63 103 143 168 210 300 369 417
#     4  10  23  39  67 106 139 181 234 290 365 413
#
# _framework density 25.068299
#
# number of rings (size 3 to 8) (size 9 to 14) (size 15 to 20)
#    0.000    2.000    2.000    1.800    5.600    0.000 
#    3.600    1.000    0.000    0.000    0.000    0.000 
#    0.000    0.000    0.000    0.000    0.000    0.000 
#
# Total GULP energy -247988.657617 kJ/mol
# GULP energy per Si atom -12399.432881 kJ/mol
# Density = 2.501124 g / cm^3
# Si number density = 25.068299 Si / 1000 Ang^3
#
#
#
# Elastic Constant Matrix: (Units=GPa)
#
#
# Indices 1 2 3 4 5 6 
#
# 1 136.4280 44.4944 48.5461 0.0000 28.7229 0.0000
# 2 44.4944 67.1974 20.5005 0.0000 16.9403 0.0000
# 3 48.5461 20.5005 71.5309 0.0000 29.7436 0.0000
# 4 0.0000 0.0000 0.0000 30.1810 0.0000 8.0697
# 5 28.7229 16.9403 29.7436 0.0000 48.8096 0.0000
# 6 0.0000 0.0000 0.0000 8.0697 0.0000 35.3944
#
#
#
# Elastic Compliance Matrix: (Units=1/GPa)
#
#
# Indices 1 2 3 4 5 6 
#
# 1 0.011403 -0.005494 -0.005581 0.000000 -0.001402 0.000000
# 2 -0.005494 0.019488 -0.000520 0.000000 -0.003214 0.000000
# 3 -0.005581 -0.000520 0.022068 0.000000 -0.009983 0.000000
# 4 0.000000 0.000000 0.000000 0.035284 0.000000 -0.008045
# 5 -0.001402 -0.003214 -0.009983 0.000000 0.028512 0.000000
# 6 0.000000 0.000000 0.000000 -0.008045 0.000000 0.030087
#
#
# Mechanical properties :
#
#
# Convention : Reuss Voigt Hill
#
# Bulk Modulus (GPa) = 33.59315 55.80425 44.69870
# Shear Modulus (GPa) = 27.78452 33.65136 30.71794
#
# Velocity S-wave (km/s) = 3.33281 3.66783 3.50433
# Velocity P-wave (km/s) = 5.31412 6.34402 5.85177
#
# Compressibility (1/GPa) = 0.02976797
#
# Stress axis : x y z
#
# Youngs Moduli (GPa) = 87.69646 51.31275 45.31481
#
# Poissons Ratio (x) = 0.28192 0.25291
# Poissons Ratio (y) = 0.48182 0.02358
# Poissons Ratio (z) = 0.48945 0.02670
#
# Static dielectric constant tensor:
#      x y z
#    x 5.081760 0.000000 0.402580 
#    y 0.000000 4.453990 0.000000 
#    z 0.402580 0.000000 4.123700 
# 
# 
# High freq. dielectric constant tensor:
#      x y z
#    x 2.010850 0.000000 0.033750 
#    y 0.000000 1.997660 0.000000 
#    z 0.033750 0.000000 1.966220 
# 
# From -- ./inp_files/68950.got.cif
#   From: 2010.06.25/outbox.cif.g09.slc.cpg/sg15_35_cif.got.tgz:68950.got - 2010.06.28 07:06:18.
