data_PCOD8148323
_publ_section_title
;
Structure prediction by ZEFSAII (Michael W. Deem and Ramdas Pophale) SiO2 
 PCOD8148323
Probable space group: C 2/C
;
_chemical_formula_sum "Si O2"
_cell_formula_units_Z 40
_cell_length_a 25.444957
_cell_length_b 8.932255
_cell_length_c 9.907967
_cell_angle_alpha 90.000000
_cell_angle_beta 51.102617
_cell_angle_gamma 90.000000
_cell_volume 1752.583412
_symmetry_space_group_name_H-M "C 2/C"
_symmetry_group_IT_number 15
_symmetry_cell_setting 'monoclinic'
loop_
_space_group_symop_operation_xyz
x,y,z
-x,y,1/2-z
-x,-y,-z
x,-y,1/2+z
1/2+x,1/2+y,z
1/2-x,1/2+y,1/2-z
1/2-x,1/2-y,-z
1/2+x,1/2-y,1/2+z
loop_
_atom_site_type_symbol
_atom_site_label
_atom_site_fract_x
_atom_site_fract_y
_atom_site_fract_z
Si Si1 0.996172 0.298747 0.902184
Si Si2 0.285880 0.177024 0.813920
Si Si3 0.107340 0.904309 0.817819
Si Si4 0.854939 0.849569 0.046320
Si Si5 0.894532 0.441397 0.609372
O O1 0.000000 0.220984 0.750000
O O2 0.070865 0.348754 0.825583
O O3 0.966139 0.173945 0.052516
O O4 0.948476 0.443588 0.962659
O O5 0.340159 0.301522 0.680580
O O6 0.327339 0.023446 0.775022
O O7 0.250000 0.250000 0.000000
O O8 0.226710 0.141839 0.801953
O O9 0.124188 0.918316 0.632168
O O10 0.109239 0.064802 0.887387
O O11 0.875847 0.674978 0.020011
#
# Coordination Sequence:
#
# PCOD8148323 Si02
#       5
#     8   8   8   8   8
#     4  10  24  42  65  93 132 172 236 272 323 403
#     4   9  20  42  67  96 132 169 224 275 332 401
#     4  10  24  43  63  97 136 179 222 279 332 396
#     4  11  23  42  67  97 138 174 223 275 343 395
#     4  10  23  40  68  95 127 182 216 277 336 388
#
# _framework density 22.823449
#
# number of rings (size 3 to 8) (size 9 to 14) (size 15 to 20)
#    0.000    2.000    0.000    1.200   14.000    0.800 
#    3.600    5.000    0.000    0.000    0.000    0.000 
#    0.000    0.000    0.000    0.000    0.000    0.000 
#
# Total GULP energy -247894.370217 kJ/mol
# GULP energy per Si atom -12394.718511 kJ/mol
# Density = 2.277150 g / cm^3
# Si number density = 22.823449 Si / 1000 Ang^3
#
#
#
# Elastic Constant Matrix: (Units=GPa)
#
#
# Indices 1 2 3 4 5 6 
#
# 1 96.4628 45.0533 35.5209 0.0000 -12.8096 0.0000
# 2 45.0533 121.6747 35.4114 0.0000 -6.1952 0.0000
# 3 35.5209 35.4114 81.8277 0.0000 5.5081 0.0000
# 4 0.0000 0.0000 0.0000 30.7254 0.0000 0.4763
# 5 -12.8096 -6.1952 5.5081 0.0000 39.2511 0.0000
# 6 0.0000 0.0000 0.0000 0.4763 0.0000 42.8520
#
#
#
# Elastic Compliance Matrix: (Units=1/GPa)
#
#
# Indices 1 2 3 4 5 6 
#
# 1 0.014606 -0.003681 -0.005077 0.000000 0.004898 0.000000
# 2 -0.003681 0.010501 -0.003005 0.000000 0.000878 0.000000
# 3 -0.005077 -0.003005 0.016020 0.000000 -0.004379 0.000000
# 4 0.000000 0.000000 0.000000 0.032552 0.000000 -0.000362
# 5 0.004898 0.000878 -0.004379 0.000000 0.027829 0.000000
# 6 0.000000 0.000000 0.000000 -0.000362 0.000000 0.023340
#
#
# Mechanical properties :
#
#
# Convention : Reuss Voigt Hill
#
# Bulk Modulus (GPa) = 56.81909 59.10406 57.96158
# Shear Modulus (GPa) = 32.41658 34.83101 33.62379
#
# Velocity S-wave (km/s) = 3.77280 3.91078 3.84241
# Velocity P-wave (km/s) = 6.62780 6.80769 6.71835
#
# Compressibility (1/GPa) = 0.01759972
#
# Stress axis : x y z
#
# Youngs Moduli (GPa) = 68.46498 95.22796 62.42154
#
# Poissons Ratio (x) = 0.35056 0.31691
# Poissons Ratio (y) = 0.25204 0.18761
# Poissons Ratio (z) = 0.34760 0.28620
#
# Static dielectric constant tensor:
#      x y z
#    x 4.452870 0.000000 -0.557200 
#    y 0.000000 4.097740 0.000000 
#    z -0.557200 0.000000 3.884080 
# 
# 
# High freq. dielectric constant tensor:
#      x y z
#    x 1.905380 0.000000 -0.024670 
#    y 0.000000 1.904810 0.000000 
#    z -0.024670 0.000000 1.877650 
# 
# From -- ./inp_files/109687.got.cif
#   From: 2010.06.25/outbox.cif.g09.slc.cpg/sg15_55_cif.got.tgz:109687.got - 2010.06.28 07:06:18.
