data_PCOD8148049
_publ_section_title
;
Structure prediction by ZEFSAII (Michael W. Deem and Ramdas Pophale) SiO2 
 PCOD8148049
Probable space group: C 2/C
;
_chemical_formula_sum "Si O2"
_cell_formula_units_Z 56
_cell_length_a 20.647617
_cell_length_b 18.259282
_cell_length_c 8.866443
_cell_angle_alpha 90.000000
_cell_angle_beta 120.353404
_cell_angle_gamma 90.000000
_cell_volume 2884.536694
_symmetry_space_group_name_H-M "C 2/C"
_symmetry_group_IT_number 15
_symmetry_cell_setting 'monoclinic'
loop_
_space_group_symop_operation_xyz
x,y,z
-x,y,1/2-z
-x,-y,-z
x,-y,1/2+z
1/2+x,1/2+y,z
1/2-x,1/2+y,1/2-z
1/2-x,1/2-y,-z
1/2+x,1/2-y,1/2+z
loop_
_atom_site_type_symbol
_atom_site_label
_atom_site_fract_x
_atom_site_fract_y
_atom_site_fract_z
Si Si1 0.288479 0.670902 0.218042
Si Si2 0.705604 0.036011 0.036322
Si Si3 0.451882 0.219388 0.403321
Si Si4 0.282906 0.897013 0.280431
Si Si5 0.959047 0.562341 0.546399
Si Si6 0.835833 0.786941 0.464090
Si Si7 0.614603 0.769175 0.989644
O O1 0.209611 0.710939 0.094138
O O2 0.329700 0.700050 0.416468
O O3 0.267221 0.585477 0.197597
O O4 0.345706 0.688600 0.148455
O O5 0.701302 0.057652 0.855290
O O6 0.625897 0.040617 0.023303
O O7 0.729806 0.951760 0.093312
O O8 0.462097 0.135203 0.453398
O O9 0.418214 0.270187 0.495818
O O10 0.533118 0.251001 0.459075
O O11 0.391870 0.221451 0.196518
O O12 0.206933 0.850185 0.178571
O O13 0.352663 0.842561 0.393566
O O14 0.000000 0.576931 0.750000
O O15 0.000000 0.500000 0.500000
#
# Coordination Sequence:
#
# PCOD8148049 Si02
#       7
#     8   8   8   8   8   8   8
#     4   9  19  37  58  79 111 146 197 241 278 334
#     4  11  21  38  56  83 112 155 187 235 283 333
#     4  11  23  37  56  83 113 153 192 233 291 333
#     4  10  23  37  58  82 117 149 195 234 281 340
#     4  12  26  37  54  81 119 159 189 224 279 345
#     4   9  19  37  57  81 106 148 199 237 279 339
#     4  10  23  38  54  84 119 146 190 240 277 347
#
# _framework density 19.413864
#
# number of rings (size 3 to 8) (size 9 to 14) (size 15 to 20)
#    0.000    1.714    1.429    3.429    8.000    3.429 
#    0.000    0.000    0.000    0.857    0.000    0.000 
#    0.000    0.000    0.000    0.000    0.000    0.000 
#
# Total GULP energy -347186.551032 kJ/mol
# GULP energy per Si atom -12399.519680 kJ/mol
# Density = 1.936968 g / cm^3
# Si number density = 19.413864 Si / 1000 Ang^3
#
#
#
# Elastic Constant Matrix: (Units=GPa)
#
#
# Indices 1 2 3 4 5 6 
#
# 1 78.6823 37.4541 11.0045 0.0000 -6.9574 0.0000
# 2 37.4541 67.2699 31.8883 0.0000 7.2628 0.0000
# 3 11.0045 31.8883 98.3258 0.0000 4.0790 0.0000
# 4 0.0000 0.0000 0.0000 34.2236 0.0000 -2.6129
# 5 -6.9574 7.2628 4.0790 0.0000 21.3176 0.0000
# 6 0.0000 0.0000 0.0000 -2.6129 0.0000 29.6451
#
#
#
# Elastic Compliance Matrix: (Units=1/GPa)
#
#
# Indices 1 2 3 4 5 6 
#
# 1 0.019440 -0.012653 0.001498 0.000000 0.010369 0.000000
# 2 -0.012653 0.026332 -0.006633 0.000000 -0.011832 0.000000
# 3 0.001498 -0.006633 0.012136 0.000000 0.000426 0.000000
# 4 0.000000 0.000000 0.000000 0.029418 0.000000 0.002593
# 5 0.010369 -0.011832 0.000426 0.000000 0.054243 0.000000
# 6 0.000000 0.000000 0.000000 0.002593 0.000000 0.033961
#
#
# Mechanical properties :
#
#
# Convention : Reuss Voigt Hill
#
# Bulk Modulus (GPa) = 44.77974 44.99686 44.88830
# Shear Modulus (GPa) = 22.87814 27.96601 25.42207
#
# Velocity S-wave (km/s) = 3.43657 3.79953 3.62260
# Velocity P-wave (km/s) = 6.23399 6.51741 6.37727
#
# Compressibility (1/GPa) = 0.02233153
#
# Stress axis : x y z
#
# Youngs Moduli (GPa) = 51.44101 37.97673 82.39894
#
# Poissons Ratio (x) = 0.48052 -0.12341
# Poissons Ratio (y) = 0.65088 0.54654
# Poissons Ratio (z) = -0.07704 0.25189
#
# Static dielectric constant tensor:
#      x y z
#    x 3.572350 0.000000 0.341220 
#    y 0.000000 3.502140 0.000000 
#    z 0.341220 0.000000 4.748250 
# 
# 
# High freq. dielectric constant tensor:
#      x y z
#    x 1.746110 0.000000 -0.007560 
#    y 0.000000 1.743210 0.000000 
#    z -0.007560 0.000000 1.759730 
# 
# From -- ./inp_files/56728.got.cif
#   From: 2010.06.25/outbox.cif.g09.slc.cpg/sg15_29_cif.got.tgz:56728.got - 2010.06.28 07:06:18.
