data_PCOD8148421
_publ_section_title
;
Structure prediction by ZEFSAII (Michael W. Deem and Ramdas Pophale) SiO2 
 PCOD8148421
Probable space group: C 2/C
;
_chemical_formula_sum "Si O2"
_cell_formula_units_Z 40
_cell_length_a 17.010969
_cell_length_b 6.065118
_cell_length_c 17.673611
_cell_angle_alpha 90.000000
_cell_angle_beta 97.347612
_cell_angle_gamma 90.000000
_cell_volume 1808.475680
_symmetry_space_group_name_H-M "C 2/C"
_symmetry_group_IT_number 15
_symmetry_cell_setting 'monoclinic'
loop_
_space_group_symop_operation_xyz
x,y,z
-x,y,1/2-z
-x,-y,-z
x,-y,1/2+z
1/2+x,1/2+y,z
1/2-x,1/2+y,1/2-z
1/2-x,1/2-y,-z
1/2+x,1/2-y,1/2+z
loop_
_atom_site_type_symbol
_atom_site_label
_atom_site_fract_x
_atom_site_fract_y
_atom_site_fract_z
Si Si1 0.221073 0.203871 0.413715
Si Si2 0.315933 0.497464 0.830650
Si Si3 0.665064 0.692495 0.821256
Si Si4 0.949840 0.802281 0.953940
Si Si5 0.924244 0.512620 0.092588
O O1 0.250000 0.250000 0.500000
O O2 0.290216 0.269100 0.363449
O O3 0.147888 0.361582 0.394385
O O4 0.194757 0.954092 0.395963
O O5 0.356246 0.543649 0.754255
O O6 0.239029 0.346951 0.808870
O O7 0.379492 0.394110 0.894999
O O8 0.582957 0.811840 0.838499
O O9 0.999648 0.645371 0.902901
O O10 0.913087 0.644339 0.013027
O O11 0.000000 0.000000 0.000000
#
# Coordination Sequence:
#
# PCOD8148421 Si02
#       5
#     8   8   8   8   8
#     4  11  21  39  67  96 125 172 223 281 324 401
#     4  11  23  40  68  95 131 170 227 277 339 404
#     4  11  22  42  65  98 130 174 221 287 340 400
#     4  11  23  44  66  96 131 181 221 276 335 414
#     4  10  23  41  64  95 133 167 225 269 341 401
#
# _framework density 22.118075000000001
#
# number of rings (size 3 to 8) (size 9 to 14) (size 15 to 20)
#    0.000    1.200    2.000    4.800    0.000    4.800 
#    0.000    6.000    0.000    0.000    0.000    0.000 
#    0.000    0.000    0.000    0.000    0.000    0.000 
#
# Total GULP energy -247808.938363 kJ/mol
# GULP energy per Si atom -12390.446918 kJ/mol
# Density = 2.206773 g / cm^3
# Si number density = 22.118075 Si / 1000 Ang^3
#
#
#
# Elastic Constant Matrix: (Units=GPa)
#
#
# Indices 1 2 3 4 5 6 
#
# 1 86.4440 32.0502 33.8166 0.0000 -17.0566 0.0000
# 2 32.0502 99.6556 29.5518 0.0000 -20.0547 0.0000
# 3 33.8166 29.5518 87.4676 0.0000 -20.2459 0.0000
# 4 0.0000 0.0000 0.0000 41.5092 0.0000 -14.4984
# 5 -17.0566 -20.0547 -20.2459 0.0000 35.8769 0.0000
# 6 0.0000 0.0000 0.0000 -14.4984 0.0000 31.6770
#
#
#
# Elastic Compliance Matrix: (Units=1/GPa)
#
#
# Indices 1 2 3 4 5 6 
#
# 1 0.014855 -0.002953 -0.004018 0.000000 0.003144 0.000000
# 2 -0.002953 0.012482 -0.002053 0.000000 0.004414 0.000000
# 3 -0.004018 -0.002053 0.014921 0.000000 0.005362 0.000000
# 4 0.000000 0.000000 0.000000 0.028675 0.000000 0.013125
# 5 0.003144 0.004414 0.005362 0.000000 0.034861 0.000000
# 6 0.000000 0.000000 0.000000 0.013125 0.000000 0.037576
#
#
# Mechanical properties :
#
#
# Convention : Reuss Voigt Hill
#
# Bulk Modulus (GPa) = 41.30711 51.60047 46.45379
# Shear Modulus (GPa) = 29.50041 33.68921 31.59481
#
# Velocity S-wave (km/s) = 3.65604 3.90699 3.78360
# Velocity P-wave (km/s) = 6.04471 6.61309 6.33528
#
# Compressibility (1/GPa) = 0.02420891
#
# Stress axis : x y z
#
# Youngs Moduli (GPa) = 67.31590 80.11768 67.01923
#
# Poissons Ratio (x) = 0.23662 0.26926
# Poissons Ratio (y) = 0.19881 0.13762
# Poissons Ratio (z) = 0.27045 0.16452
#
# Static dielectric constant tensor:
#      x y z
#    x 3.936470 0.000000 -0.429250 
#    y 0.000000 4.412680 0.000000 
#    z -0.429250 0.000000 4.083660 
# 
# 
# High freq. dielectric constant tensor:
#      x y z
#    x 1.855640 0.000000 -0.027460 
#    y 0.000000 1.889870 0.000000 
#    z -0.027460 0.000000 1.872300 
# 
# From -- ./inp_files/208036.got.cif
#   From: 2010.06.25/outbox.cif.g09.slc.cpg/sg15_105_cif.got.tgz:208036.got - 2010.06.28 07:06:18.
