data_PCOD8148321
_publ_section_title
;
Structure prediction by ZEFSAII (Michael W. Deem and Ramdas Pophale) SiO2 
 PCOD8148321
Probable space group: C 2/C
;
_chemical_formula_sum "Si O2"
_cell_formula_units_Z 32
_cell_length_a 9.696183
_cell_length_b 14.514849
_cell_length_c 9.745434
_cell_angle_alpha 90.000000
_cell_angle_beta 106.230208
_cell_angle_gamma 90.000000
_cell_volume 1316.897567
_symmetry_space_group_name_H-M "C 2/C"
_symmetry_group_IT_number 15
_symmetry_cell_setting 'monoclinic'
loop_
_space_group_symop_operation_xyz
x,y,z
-x,y,1/2-z
-x,-y,-z
x,-y,1/2+z
1/2+x,1/2+y,z
1/2-x,1/2+y,1/2-z
1/2-x,1/2-y,-z
1/2+x,1/2-y,1/2+z
loop_
_atom_site_type_symbol
_atom_site_label
_atom_site_fract_x
_atom_site_fract_y
_atom_site_fract_z
Si Si1 0.840682 0.471558 0.236257
Si Si2 0.839236 0.974162 0.058332
Si Si3 0.264939 0.763679 0.165161
Si Si4 0.500000 0.378057 0.750000
Si Si5 0.500000 0.316046 0.250000
O O1 0.795281 0.495670 0.378226
O O2 0.833309 0.362888 0.209617
O O3 0.000000 0.508322 0.250000
O O4 0.723919 0.525160 0.111350
O O5 0.912951 0.877738 0.116335
O O6 0.956624 0.056801 0.108028
O O7 0.367730 0.686353 0.259081
O O8 0.110325 0.752562 0.196026
O O9 0.250000 0.750000 0.000000
#
# Coordination Sequence:
#
# PCOD8148321 Si02
#       5
#     8   8   8   4   4
#     4  11  22  41  65  97 130 175 219 273 325 392
#     4  10  23  40  68  91 134 173 222 264 330 395
#     4  11  22  41  68  93 138 167 220 269 337 384
#     4  11  22  40  66  97 124 182 210 273 326 394
#     4   9  24  42  64 101 128 176 216 271 328 394
#
# _framework density 24.299536
#
# number of rings (size 3 to 8) (size 9 to 14) (size 15 to 20)
#    0.000    1.500    3.750    0.750    3.500    3.000 
#    2.250    1.250    0.000    0.000    0.000    0.000 
#    0.000    0.000    0.000    0.000    0.000    0.000 
#
# Total GULP energy -198474.792102 kJ/mol
# GULP energy per Si atom -12404.674506 kJ/mol
# Density = 2.424423 g / cm^3
# Si number density = 24.299536 Si / 1000 Ang^3
#
#
#
# Elastic Constant Matrix: (Units=GPa)
#
#
# Indices 1 2 3 4 5 6 
#
# 1 194.7472 30.8408 16.4951 0.0000 5.8488 0.0000
# 2 30.8408 75.3767 14.1301 0.0000 7.7628 0.0000
# 3 16.4951 14.1301 53.9265 0.0000 8.4629 0.0000
# 4 0.0000 0.0000 0.0000 22.7255 0.0000 -1.9661
# 5 5.8488 7.7628 8.4629 0.0000 38.4981 0.0000
# 6 0.0000 0.0000 0.0000 -1.9661 0.0000 42.4015
#
#
#
# Elastic Compliance Matrix: (Units=1/GPa)
#
#
# Indices 1 2 3 4 5 6 
#
# 1 0.005560 -0.002043 -0.001137 0.000000 -0.000183 0.000000
# 2 -0.002043 0.014866 -0.002950 0.000000 -0.002039 0.000000
# 3 -0.001137 -0.002950 0.020242 0.000000 -0.003682 0.000000
# 4 0.000000 0.000000 0.000000 0.044181 0.000000 0.002049
# 5 -0.000183 -0.002039 -0.003682 0.000000 0.027224 0.000000
# 6 0.000000 0.000000 0.000000 0.002049 0.000000 0.023679
#
#
# Mechanical properties :
#
#
# Convention : Reuss Voigt Hill
#
# Bulk Modulus (GPa) = 35.20134 49.66473 42.43303
# Shear Modulus (GPa) = 31.74984 38.23064 34.99024
#
# Velocity S-wave (km/s) = 3.61862 3.97080 3.79879
# Velocity P-wave (km/s) = 5.65483 6.44251 6.06147
#
# Compressibility (1/GPa) = 0.02840801
#
# Stress axis : x y z
#
# Youngs Moduli (GPa) = 179.85026 67.26919 49.40125
#
# Poissons Ratio (x) = 0.13743 0.05616
# Poissons Ratio (y) = 0.36744 0.14575
# Poissons Ratio (z) = 0.20444 0.19847
#
# Static dielectric constant tensor:
#      x y z
#    x 4.980270 0.000000 0.058220 
#    y 0.000000 4.332740 0.000000 
#    z 0.058220 0.000000 4.095330 
# 
# 
# High freq. dielectric constant tensor:
#      x y z
#    x 1.990340 0.000000 -0.002500 
#    y 0.000000 1.953630 0.000000 
#    z -0.002500 0.000000 1.952870 
# 
# From -- ./inp_files/75703.got.cif
#   From: 2010.06.25/outbox.cif.g09.slc.cpg/sg15_38_cif.got.tgz:75703.got - 2010.06.28 07:06:18.
