data_PCOD8148425
_publ_section_title
;
Structure prediction by ZEFSAII (Michael W. Deem and Ramdas Pophale) SiO2 
 PCOD8148425
Probable space group: C 2/C
;
_chemical_formula_sum "Si O2"
_cell_formula_units_Z 44
_cell_length_a 12.245530
_cell_length_b 18.824984
_cell_length_c 9.432208
_cell_angle_alpha 90.000000
_cell_angle_beta 77.828625
_cell_angle_gamma 90.000000
_cell_volume 2125.454554
_symmetry_space_group_name_H-M "C 2/C"
_symmetry_group_IT_number 15
_symmetry_cell_setting 'monoclinic'
loop_
_space_group_symop_operation_xyz
x,y,z
-x,y,1/2-z
-x,-y,-z
x,-y,1/2+z
1/2+x,1/2+y,z
1/2-x,1/2+y,1/2-z
1/2-x,1/2-y,-z
1/2+x,1/2-y,1/2+z
loop_
_atom_site_type_symbol
_atom_site_label
_atom_site_fract_x
_atom_site_fract_y
_atom_site_fract_z
Si Si1 0.000000 0.494533 0.750000
Si Si2 0.497857 0.427142 0.416280
Si Si3 0.697244 0.678124 0.577898
Si Si4 0.579826 0.199183 0.597611
Si Si5 0.820472 0.824964 0.105707
Si Si6 0.584217 0.091090 0.972335
O O1 0.926040 0.541838 0.664002
O O2 0.077733 0.447697 0.625913
O O3 0.500000 0.445225 0.250000
O O4 0.500000 0.500000 0.500000
O O5 0.401887 0.365935 0.476661
O O6 0.616432 0.398113 0.435786
O O7 0.750000 0.750000 0.500000
O O8 0.653169 0.703107 0.743159
O O9 0.793544 0.621371 0.570854
O O10 0.500000 0.219103 0.750000
O O11 0.689540 0.157733 0.621152
O O12 0.626247 0.270168 0.517486
O O13 0.512671 0.151057 0.504053
#
# Coordination Sequence:
#
# PCOD8148425 Si02
#       6
#     4   8   8   8   8   8
#     4  10  24  38  62  92 128 172 206 272 322 390
#     4  10  24  44  63  93 132 175 217 271 326 402
#     4  11  23  41  66  93 130 170 219 272 326 391
#     4  11  21  40  67  94 132 165 219 278 326 386
#     4  10  23  41  64  96 131 170 214 273 328 394
#     4  11  22  41  61  95 128 168 219 267 328 383
#
# _framework density 20.701454999999999
#
# number of rings (size 3 to 8) (size 9 to 14) (size 15 to 20)
#    0.000    1.455    2.727    1.091    2.545    6.545 
#    3.273    0.000    0.000    0.000    0.000    0.000 
#    0.000    0.000    0.000    0.000    0.000    0.000 
#
# Total GULP energy -272570.046099 kJ/mol
# GULP energy per Si atom -12389.547550 kJ/mol
# Density = 2.065434 g / cm^3
# Si number density = 20.701455 Si / 1000 Ang^3
#
#
#
# Elastic Constant Matrix: (Units=GPa)
#
#
# Indices 1 2 3 4 5 6 
#
# 1 133.5577 36.6490 41.8001 0.0000 -14.2992 0.0000
# 2 36.6490 82.2407 52.6652 0.0000 -19.0582 0.0000
# 3 41.8001 52.6652 110.4523 0.0000 -12.3620 0.0000
# 4 0.0000 0.0000 0.0000 115.9560 0.0000 32.9275
# 5 -14.2992 -19.0582 -12.3620 0.0000 24.9287 0.0000
# 6 0.0000 0.0000 0.0000 32.9275 0.0000 56.9584
#
#
#
# Elastic Compliance Matrix: (Units=1/GPa)
#
#
# Indices 1 2 3 4 5 6 
#
# 1 0.008991 -0.002048 -0.002143 0.000000 0.002529 0.000000
# 2 -0.002048 0.020559 -0.007835 0.000000 0.010657 0.000000
# 3 -0.002143 -0.007835 0.013544 0.000000 -0.000503 0.000000
# 4 0.000000 0.000000 0.000000 0.010318 0.000000 -0.005965
# 5 0.002529 0.010657 -0.000503 0.000000 0.049463 0.000000
# 6 0.000000 0.000000 0.000000 -0.005965 0.000000 0.021005
#
#
# Mechanical properties :
#
#
# Convention : Reuss Voigt Hill
#
# Bulk Modulus (GPa) = 52.51555 65.38660 58.95107
# Shear Modulus (GPa) = 32.40860 52.57772 42.49316
#
# Velocity S-wave (km/s) = 3.96096 5.04512 4.53555
# Velocity P-wave (km/s) = 6.80750 8.09887 7.48110
#
# Compressibility (1/GPa) = 0.01904198
#
# Stress axis : x y z
#
# Youngs Moduli (GPa) = 111.22396 48.63968 73.83231
#
# Poissons Ratio (x) = 0.09963 0.15821
# Poissons Ratio (y) = 0.22783 0.57847
# Poissons Ratio (z) = 0.23833 0.38109
#
# Static dielectric constant tensor:
#      x y z
#    x 4.205040 0.000000 0.070480 
#    y 0.000000 3.750070 0.000000 
#    z 0.070480 0.000000 3.926620 
# 
# 
# High freq. dielectric constant tensor:
#      x y z
#    x 1.822680 0.000000 -0.005550 
#    y 0.000000 1.811200 0.000000 
#    z -0.005550 0.000000 1.811450 
# 
# From -- ./inp_files/30854.got.cif
#   From: 2010.06.25/outbox.cif.g09.slc.cpg/sg15_16_cif.got.tgz:30854.got - 2010.06.28 07:06:18.
