data_PCOD8148345
_publ_section_title
;
Structure prediction by ZEFSAII (Michael W. Deem and Ramdas Pophale) SiO2 
 PCOD8148345
Probable space group: C 2/C
;
_chemical_formula_sum "Si O2"
_cell_formula_units_Z 48
_cell_length_a 26.231326
_cell_length_b 8.851532
_cell_length_c 14.053231
_cell_angle_alpha 90.000000
_cell_angle_beta 142.563896
_cell_angle_gamma 90.000000
_cell_volume 1983.490340
_symmetry_space_group_name_H-M "C 2/C"
_symmetry_group_IT_number 15
_symmetry_cell_setting 'monoclinic'
loop_
_space_group_symop_operation_xyz
x,y,z
-x,y,1/2-z
-x,-y,-z
x,-y,1/2+z
1/2+x,1/2+y,z
1/2-x,1/2+y,1/2-z
1/2-x,1/2-y,-z
1/2+x,1/2-y,1/2+z
loop_
_atom_site_type_symbol
_atom_site_label
_atom_site_fract_x
_atom_site_fract_y
_atom_site_fract_z
Si Si1 0.429955 0.669889 0.723193
Si Si2 0.803276 0.350299 0.203389
Si Si3 0.581944 0.916293 0.409229
Si Si4 0.705652 0.177046 0.594197
Si Si5 0.870283 0.151610 0.141476
Si Si6 0.620988 0.171163 0.174530
O O1 0.500000 0.709712 0.750000
O O2 0.340155 0.709204 0.544647
O O3 0.428760 0.493012 0.746613
O O4 0.443419 0.764988 0.841189
O O5 0.817314 0.290252 0.330799
O O6 0.836204 0.210926 0.191115
O O7 0.848989 0.507063 0.246504
O O8 0.705918 0.385115 0.042592
O O9 0.500000 0.013121 0.250000
O O10 0.574480 0.777446 0.326516
O O11 0.573929 0.853762 0.504893
O O12 0.669777 0.006604 0.522361
O O13 0.804544 0.202948 0.723644
#
# Coordination Sequence:
#
# PCOD8148345 Si02
#       6
#     8   8   8   8   8   8
#     4  12  27  44  69 103 145 186 238 299 358 420
#     4  10  23  40  71 105 132 183 235 294 344 420
#     4  11  25  45  72 106 149 189 231 294 365 429
#     4  11  23  44  73 107 140 186 242 291 351 428
#     4  11  23  41  67 103 144 178 235 287 358 414
#     4  11  24  46  73 103 139 191 244 293 350 428
#
# _framework density 24.199764999999999
#
# number of rings (size 3 to 8) (size 9 to 14) (size 15 to 20)
#    0.000    1.000    3.333    2.500    4.667    2.667 
#    0.000    7.500    0.000    0.000    0.000    0.000 
#    0.000    0.000    0.000    0.000    0.000    0.000 
#
# Total GULP energy -297541.032313 kJ/mol
# GULP energy per Si atom -12397.543013 kJ/mol
# Density = 2.414469 g / cm^3
# Si number density = 24.199765 Si / 1000 Ang^3
#
#
#
# Elastic Constant Matrix: (Units=GPa)
#
#
# Indices 1 2 3 4 5 6 
#
# 1 117.5477 34.2704 28.5650 0.0000 -6.2846 0.0000
# 2 34.2704 97.7649 17.9840 0.0000 -12.0016 0.0000
# 3 28.5650 17.9840 101.2806 0.0000 -9.2640 0.0000
# 4 0.0000 0.0000 0.0000 15.1825 0.0000 -6.2591
# 5 -6.2846 -12.0016 -9.2640 0.0000 31.0485 0.0000
# 6 0.0000 0.0000 0.0000 -6.2591 0.0000 32.1478
#
#
#
# Elastic Compliance Matrix: (Units=1/GPa)
#
#
# Indices 1 2 3 4 5 6 
#
# 1 0.009953 -0.003055 -0.002250 0.000000 0.000162 0.000000
# 2 -0.003055 0.011924 -0.000916 0.000000 0.003718 0.000000
# 3 -0.002250 -0.000916 0.010894 0.000000 0.002441 0.000000
# 4 0.000000 0.000000 0.000000 0.071613 0.000000 0.013943
# 5 0.000162 0.003718 0.002441 0.000000 0.034406 0.000000
# 6 0.000000 0.000000 0.000000 0.013943 0.000000 0.033821
#
#
# Mechanical properties :
#
#
# Convention : Reuss Voigt Hill
#
# Bulk Modulus (GPa) = 49.18772 53.13692 51.16232
# Shear Modulus (GPa) = 26.06472 31.39401 28.72936
#
# Velocity S-wave (km/s) = 3.28543 3.60569 3.44928
# Velocity P-wave (km/s) = 5.89592 6.27216 6.08695
#
# Compressibility (1/GPa) = 0.02033028
#
# Stress axis : x y z
#
# Youngs Moduli (GPa) = 100.46880 83.86159 91.79386
#
# Poissons Ratio (x) = 0.25622 0.20652
# Poissons Ratio (y) = 0.30696 0.08405
# Poissons Ratio (z) = 0.22604 0.07679
#
# Static dielectric constant tensor:
#      x y z
#    x 4.256960 0.000000 -0.132260 
#    y 0.000000 4.308100 0.000000 
#    z -0.132260 0.000000 4.380690 
# 
# 
# High freq. dielectric constant tensor:
#      x y z
#    x 1.962780 0.000000 -0.014600 
#    y 0.000000 1.964750 0.000000 
#    z -0.014600 0.000000 1.955360 
# 
# From -- ./inp_files/176979.got.cif
#   From: 2010.06.25/outbox.cif.g09.slc.cpg/sg15_89_cif.got.tgz:176979.got - 2010.06.28 07:06:18.
