data_PCOD8148620
_publ_section_title
;
Structure prediction by ZEFSAII (Michael W. Deem and Ramdas Pophale) SiO2 
 PCOD8148620
Probable space group: C 2/C
;
_chemical_formula_sum "Si O2"
_cell_formula_units_Z 64
_cell_length_a 28.025195
_cell_length_b 9.595089
_cell_length_c 15.872463
_cell_angle_alpha 90.000000
_cell_angle_beta 48.251703
_cell_angle_gamma 90.000000
_cell_volume 3184.386124
_symmetry_space_group_name_H-M "C 2/C"
_symmetry_group_IT_number 15
_symmetry_cell_setting 'monoclinic'
loop_
_space_group_symop_operation_xyz
x,y,z
-x,y,1/2-z
-x,-y,-z
x,-y,1/2+z
1/2+x,1/2+y,z
1/2-x,1/2+y,1/2-z
1/2-x,1/2-y,-z
1/2+x,1/2-y,1/2+z
loop_
_atom_site_type_symbol
_atom_site_label
_atom_site_fract_x
_atom_site_fract_y
_atom_site_fract_z
Si Si1 0.432378 0.566803 0.851808
Si Si2 0.354113 0.919769 0.559519
Si Si3 0.192942 0.672261 0.115189
Si Si4 0.637482 0.566903 0.738968
Si Si5 0.735017 0.671785 0.103215
Si Si6 0.725356 0.054856 0.703970
Si Si7 0.571620 0.123857 0.137246
Si Si8 0.367869 0.601433 0.574142
O O1 0.500000 0.499470 0.750000
O O2 0.406805 0.589735 0.788254
O O3 0.434636 0.719383 0.892765
O O4 0.397152 0.463553 0.955822
O O5 0.298363 0.909661 0.556232
O O6 0.329145 0.999183 0.670953
O O7 0.379050 0.766401 0.553404
O O8 0.411309 0.013184 0.455401
O O9 0.174797 0.786299 0.207878
O O10 0.224309 0.536218 0.119988
O O11 0.129803 0.624495 0.137059
O O12 0.250000 0.750000 0.000000
O O13 0.679356 0.438012 0.659337
O O14 0.602689 0.545250 0.871208
O O15 0.711893 0.784164 0.199131
O O16 0.750000 0.750000 0.000000
O O17 0.794681 0.049411 0.665753
O O18 0.500000 0.078404 0.250000
#
# Coordination Sequence:
#
# PCOD8148620 Si02
#       8
#     8   8   8   8   8   8   8   8
#     4  10  24  43  64  87 120 166 214 259 317 382
#     4  11  22  38  60  91 126 159 202 252 319 380
#     4  11  21  37  66  90 123 168 208 258 325 384
#     4  11  21  38  61  91 124 160 209 259 318 379
#     4  11  22  36  58  92 126 157 201 259 319 381
#     4  11  22  36  58  95 126 155 200 258 320 377
#     4  10  23  42  65  88 123 168 215 261 318 383
#     4  11  23  38  63  93 129 162 204 267 321 379
#
# _framework density 20.098065999999999
#
# number of rings (size 3 to 8) (size 9 to 14) (size 15 to 20)
#    0.000    1.250    2.500    5.250    1.750    1.000 
#    0.000    0.625    0.000    0.000    0.000    0.000 
#    0.000    0.000    0.000    0.000    0.000    0.000 
#
# Total GULP energy -396513.114238 kJ/mol
# GULP energy per Si atom -12391.034820 kJ/mol
# Density = 2.005232 g / cm^3
# Si number density = 20.098066 Si / 1000 Ang^3
#
#
#
# Elastic Constant Matrix: (Units=GPa)
#
#
# Indices 1 2 3 4 5 6 
#
# 1 57.3603 31.8008 52.3838 0.0000 1.4558 0.0000
# 2 31.8008 99.0262 50.4047 -0.0001 -11.7576 -0.0002
# 3 52.3838 50.4047 111.1545 -0.0001 -0.8180 0.0000
# 4 0.0000 -0.0001 -0.0001 30.4086 0.0000 6.5515
# 5 1.4558 -11.7576 -0.8180 0.0000 28.2219 0.0000
# 6 0.0000 -0.0002 0.0000 6.5515 0.0000 18.0911
#
#
#
# Elastic Compliance Matrix: (Units=1/GPa)
#
#
# Indices 1 2 3 4 5 6 
#
# 1 0.031772 -0.003902 -0.013231 0.000000 -0.003648 0.000000
# 2 -0.003902 0.014451 -0.004669 0.000000 0.006086 0.000000
# 3 -0.013231 -0.004669 0.017344 0.000000 -0.000760 0.000000
# 4 0.000000 0.000000 0.000000 0.035668 0.000000 -0.012917
# 5 -0.003648 0.006086 -0.000760 0.000000 0.038135 0.000000
# 6 0.000000 0.000000 0.000000 -0.012917 0.000000 0.059954
#
#
# Mechanical properties :
#
#
# Convention : Reuss Voigt Hill
#
# Bulk Modulus (GPa) = 50.09342 59.63550 54.86446
# Shear Modulus (GPa) = 20.19531 24.20776 22.20153
#
# Velocity S-wave (km/s) = 3.17336 3.47433 3.32725
# Velocity P-wave (km/s) = 6.19722 6.76988 6.48987
#
# Compressibility (1/GPa) = 0.01996270
#
# Stress axis : x y z
#
# Youngs Moduli (GPa) = 31.47380 69.20093 57.65819
#
# Poissons Ratio (x) = 0.27001 0.76287
# Poissons Ratio (y) = 0.12280 0.26922
# Poissons Ratio (z) = 0.41643 0.32312
#
# Static dielectric constant tensor:
#      x y z
#    x 3.474350 0.000000 0.008790 
#    y 0.000000 3.965410 0.000000 
#    z 0.008790 0.000000 3.603160 
# 
# 
# High freq. dielectric constant tensor:
#      x y z
#    x 1.767450 0.000000 0.014470 
#    y 0.000000 1.803090 0.000000 
#    z 0.014470 0.000000 1.782980 
# 
# From -- ./inp_files/181153.got.cif
#   From: 2010.06.25/outbox.cif.g09.slc.cpg/sg15_91_cif.got.tgz:181153.got - 2010.06.28 07:06:18.
