data_PCOD8148767
_publ_section_title
;
Structure prediction by ZEFSAII (Michael W. Deem and Ramdas Pophale) SiO2 
 PCOD8148767
Probable space group: C 2/C
;
_chemical_formula_sum "Si O2"
_cell_formula_units_Z 40
_cell_length_a 17.697878
_cell_length_b 6.670960
_cell_length_c 18.251380
_cell_angle_alpha 90.000000
_cell_angle_beta 50.757572
_cell_angle_gamma 90.000000
_cell_volume 1668.834798
_symmetry_space_group_name_H-M "C 2/C"
_symmetry_group_IT_number 15
_symmetry_cell_setting 'monoclinic'
loop_
_space_group_symop_operation_xyz
x,y,z
-x,y,1/2-z
-x,-y,-z
x,-y,1/2+z
1/2+x,1/2+y,z
1/2-x,1/2+y,1/2-z
1/2-x,1/2-y,-z
1/2+x,1/2-y,1/2+z
loop_
_atom_site_type_symbol
_atom_site_label
_atom_site_fract_x
_atom_site_fract_y
_atom_site_fract_z
Si Si1 0.827229 0.688573 0.892770
Si Si2 0.304555 0.351879 0.549403
Si Si3 0.539050 0.494478 0.148970
Si Si4 0.131447 0.099560 0.856109
Si Si5 0.226537 0.536838 0.348151
O O1 0.805046 0.452395 0.890186
O O2 0.808195 0.811374 0.829342
O O3 0.933553 0.765710 0.856202
O O4 0.750000 0.750000 0.000000
O O5 0.362576 0.376268 0.436629
O O6 0.367360 0.461272 0.573323
O O7 0.300414 0.118279 0.571027
O O8 0.500000 0.404262 0.250000
O O9 0.461531 0.463919 0.132994
O O10 0.131404 0.333202 0.881957
O O11 0.230121 0.078252 0.748030
#
# Coordination Sequence:
#
# PCOD8148767 Si02
#       5
#     8   8   8   8   8
#     4   9  21  41  66  93 127 174 221 277 355 404
#     4  10  23  42  70  94 132 185 226 279 345 422
#     4  11  22  41  67 100 139 170 227 295 344 400
#     4  11  22  40  67  98 130 185 231 282 341 412
#     4  11  21  40  68  91 133 181 233 270 343 424
#
# _framework density 23.968819
#
# number of rings (size 3 to 8) (size 9 to 14) (size 15 to 20)
#    0.000    1.600    4.000    0.600    0.000    4.000 
#    0.000    2.000    0.000    0.000    0.000    0.000 
#    0.000    0.000    0.000    0.000    0.000    0.000 
#
# Total GULP energy -247768.436745 kJ/mol
# GULP energy per Si atom -12388.421837 kJ/mol
# Density = 2.391427 g / cm^3
# Si number density = 23.968819 Si / 1000 Ang^3
#
#
#
# Elastic Constant Matrix: (Units=GPa)
#
#
# Indices 1 2 3 4 5 6 
#
# 1 142.5561 88.7849 12.5422 -0.0001 6.1063 -0.0019
# 2 88.7849 132.5239 34.4055 -0.0086 -5.1013 0.0023
# 3 12.5422 34.4055 112.2398 -0.0003 13.5970 0.0007
# 4 -0.0001 -0.0086 -0.0003 27.7665 0.0007 11.4266
# 5 6.1063 -5.1013 13.5970 0.0007 30.9296 -0.0016
# 6 -0.0019 0.0023 0.0007 11.4266 -0.0016 43.0680
#
#
#
# Elastic Compliance Matrix: (Units=1/GPa)
#
#
# Indices 1 2 3 4 5 6 
#
# 1 0.012864 -0.009335 0.002026 -0.000003 -0.004970 0.000002
# 2 -0.009335 0.015175 -0.004368 0.000005 0.006266 -0.000002
# 3 0.002026 -0.004368 0.010729 -0.000001 -0.005837 0.000000
# 4 -0.000003 0.000005 -0.000001 0.040429 0.000001 -0.010726
# 5 -0.004970 0.006266 -0.005837 0.000001 0.036912 0.000001
# 6 0.000002 -0.000002 0.000000 -0.010726 0.000001 0.026065
#
#
# Mechanical properties :
#
#
# Convention : Reuss Voigt Hill
#
# Bulk Modulus (GPa) = 64.87479 73.19832 69.03655
# Shear Modulus (GPa) = 29.29714 37.12530 33.21122
#
# Velocity S-wave (km/s) = 3.49994 3.93988 3.72640
# Velocity P-wave (km/s) = 6.59226 7.16255 6.88331
#
# Compressibility (1/GPa) = 0.01541431
#
# Stress axis : x y z
#
# Youngs Moduli (GPa) = 77.73929 65.89713 93.20517
#
# Poissons Ratio (x) = 0.61517 -0.18886
# Poissons Ratio (y) = 0.72572 0.40709
# Poissons Ratio (z) = -0.15752 0.28781
#
# Static dielectric constant tensor:
#      x y z
#    x 4.649860 -0.000010 0.310100 
#    y -0.000010 4.461190 0.000000 
#    z 0.310100 0.000000 4.492110 
# 
# 
# High freq. dielectric constant tensor:
#      x y z
#    x 1.945070 0.000000 0.035440 
#    y 0.000000 1.936670 0.000000 
#    z 0.035440 0.000000 1.950580 
# 
# From -- ./inp_files/251008.got.cif
#   From: 2010.06.25/outbox.cif.g09.slc.cpg/sg15_126_cif.got.tgz:251008.got - 2010.06.28 07:06:18.
