data_PCOD8148555
_publ_section_title
;
Structure prediction by ZEFSAII (Michael W. Deem and Ramdas Pophale) SiO2 
 PCOD8148555
Probable space group: C 2/C
;
_chemical_formula_sum "Si O2"
_cell_formula_units_Z 44
_cell_length_a 7.728867
_cell_length_b 16.706445
_cell_length_c 14.901314
_cell_angle_alpha 90.000000
_cell_angle_beta 93.022777
_cell_angle_gamma 90.000000
_cell_volume 1921.408773
_symmetry_space_group_name_H-M "C 2/C"
_symmetry_group_IT_number 15
_symmetry_cell_setting 'monoclinic'
loop_
_space_group_symop_operation_xyz
x,y,z
-x,y,1/2-z
-x,-y,-z
x,-y,1/2+z
1/2+x,1/2+y,z
1/2-x,1/2+y,1/2-z
1/2-x,1/2-y,-z
1/2+x,1/2-y,1/2+z
loop_
_atom_site_type_symbol
_atom_site_label
_atom_site_fract_x
_atom_site_fract_y
_atom_site_fract_z
Si Si1 0.383518 0.900369 0.664694
Si Si2 0.601244 0.284408 0.584968
Si Si3 0.000000 0.302308 0.250000
Si Si4 0.722168 0.075957 0.833167
Si Si5 0.546726 0.419946 0.451964
Si Si6 0.073124 0.611608 0.530604
O O1 0.500000 0.870563 0.750000
O O2 0.256721 0.826890 0.642172
O O3 0.480014 0.917264 0.571642
O O4 0.292436 0.982840 0.694566
O O5 0.479103 0.252039 0.661776
O O6 0.505130 0.347906 0.519713
O O7 0.639392 0.204731 0.526872
O O8 0.166941 0.363593 0.251023
O O9 0.921669 0.093181 0.863375
O O10 0.589173 0.094830 0.911181
O O11 0.500000 0.500000 0.500000
O O12 0.748664 0.430145 0.430769
#
# Coordination Sequence:
#
# PCOD8148555 Si02
#       6
#     8   8   4   8   8   8
#     4  11  21  37  65  92 124 164 204 262 316 362
#     4  10  23  42  61  95 131 162 210 264 305 377
#     4  10  24  42  60  94 136 160 206 266 314 366
#     4  11  22  42  67  90 127 169 208 255 313 374
#     4  11  21  38  68  93 120 163 218 257 305 373
#     4  10  23  42  65  93 127 163 212 256 310 376
#
# _framework density 22.899863
#
# number of rings (size 3 to 8) (size 9 to 14) (size 15 to 20)
#    0.000    1.455    4.545    2.727    0.000    7.273 
#    0.000    2.727    0.000    0.000    0.000    0.000 
#    0.000    0.000    0.000    0.000    0.000    0.000 
#
# Total GULP energy -272554.309262 kJ/mol
# GULP energy per Si atom -12388.832239 kJ/mol
# Density = 2.284774 g / cm^3
# Si number density = 22.899863 Si / 1000 Ang^3
#
#
#
# Elastic Constant Matrix: (Units=GPa)
#
#
# Indices 1 2 3 4 5 6 
#
# 1 69.7432 4.9034 16.6869 0.0000 21.9664 0.0000
# 2 4.9034 118.6142 3.1635 0.0000 15.1613 0.0000
# 3 16.6869 3.1635 58.2964 0.0000 28.4410 0.0000
# 4 0.0000 0.0000 0.0000 39.9094 0.0000 10.4786
# 5 21.9664 15.1613 28.4410 0.0000 41.8138 0.0000
# 6 0.0000 0.0000 0.0000 10.4786 0.0000 26.6395
#
#
#
# Elastic Compliance Matrix: (Units=1/GPa)
#
#
# Indices 1 2 3 4 5 6 
#
# 1 0.017224 0.000422 -0.000694 0.000000 -0.008729 0.000000
# 2 0.000422 0.008955 0.001625 0.000000 -0.004574 0.000000
# 3 -0.000694 0.001625 0.026002 0.000000 -0.017910 0.000000
# 4 0.000000 0.000000 0.000000 0.027943 0.000000 -0.010991
# 5 -0.008729 -0.004574 -0.017910 0.000000 0.042342 0.000000
# 6 0.000000 0.000000 0.000000 -0.010991 0.000000 0.041862
#
#
# Mechanical properties :
#
#
# Convention : Reuss Voigt Hill
#
# Bulk Modulus (GPa) = 18.21973 32.90684 25.56328
# Shear Modulus (GPa) = 27.79048 36.46588 32.12818
#
# Velocity S-wave (km/s) = 3.48741 3.99483 3.74971
# Velocity P-wave (km/s) = 4.91829 5.97321 5.47123
#
# Compressibility (1/GPa) = 0.05488556
#
# Stress axis : x y z
#
# Youngs Moduli (GPa) = 58.05804 111.67552 38.45814
#
# Poissons Ratio (x) = -0.04716 0.02671
# Poissons Ratio (y) = -0.02452 -0.06248
# Poissons Ratio (z) = 0.04032 -0.18142
#
# Static dielectric constant tensor:
#      x y z
#    x 2.997700 0.000000 0.169440 
#    y 0.000000 4.492260 0.000000 
#    z 0.169440 0.000000 4.377410 
# 
# 
# High freq. dielectric constant tensor:
#      x y z
#    x 1.872590 0.000000 0.010630 
#    y 0.000000 1.929570 0.000000 
#    z 0.010630 0.000000 1.907740 
# 
# From -- ./inp_files/134488.got.cif
#   From: 2010.06.25/outbox.cif.g09.slc.cpg/sg15_68_cif.got.tgz:134488.got - 2010.06.28 07:06:18.
