data_PCOD8148433
_publ_section_title
;
Structure prediction by ZEFSAII (Michael W. Deem and Ramdas Pophale) SiO2 
 PCOD8148433
Probable space group: C 2/C
;
_chemical_formula_sum "Si O2"
_cell_formula_units_Z 52
_cell_length_a 5.136401
_cell_length_b 18.542956
_cell_length_c 26.255465
_cell_angle_alpha 90.000000
_cell_angle_beta 84.173181
_cell_angle_gamma 90.000000
_cell_volume 2487.756770
_symmetry_space_group_name_H-M "C 2/C"
_symmetry_group_IT_number 15
_symmetry_cell_setting 'monoclinic'
loop_
_space_group_symop_operation_xyz
x,y,z
-x,y,1/2-z
-x,-y,-z
x,-y,1/2+z
1/2+x,1/2+y,z
1/2-x,1/2+y,1/2-z
1/2-x,1/2-y,-z
1/2+x,1/2-y,1/2+z
loop_
_atom_site_type_symbol
_atom_site_label
_atom_site_fract_x
_atom_site_fract_y
_atom_site_fract_z
Si Si1 0.505948 0.201303 0.992007
Si Si2 0.692098 0.250161 0.345459
Si Si3 0.500000 0.816951 0.750000
Si Si4 0.438135 0.116271 0.091349
Si Si5 0.263205 0.505319 0.848422
Si Si6 0.666869 0.831732 0.378183
Si Si7 0.216632 0.431068 0.676629
O O1 0.535325 0.165791 0.936308
O O2 0.750000 0.250000 0.000000
O O3 0.495738 0.135269 0.032022
O O4 0.250000 0.250000 0.000000
O O5 0.652843 0.233438 0.286729
O O6 0.738357 0.177748 0.377394
O O7 0.433502 0.286777 0.374166
O O8 0.950991 0.299198 0.344146
O O9 0.716553 0.866613 0.717620
O O10 0.277544 0.040727 0.098178
O O11 0.704770 0.105761 0.119929
O O12 0.244660 0.589154 0.858956
O O13 0.543404 0.484774 0.819684
O O14 0.046049 0.479823 0.811655
#
# Coordination Sequence:
#
# PCOD8148433 Si02
#       7
#     8   8   4   8   8   8   8
#     4  12  23  37  64  97 130 177 217 265 317 382
#     4  11  24  41  69  94 129 167 219 275 318 386
#     4  10  24  42  74 100 116 172 232 272 320 402
#     4   9  22  39  65  93 126 170 225 256 306 390
#     4  10  23  41  65  91 137 168 205 271 328 383
#     4  12  24  43  63 101 138 169 206 273 340 373
#     4   9  22  40  66  95 123 165 220 271 315 383
#
# _framework density 20.902365
#
# number of rings (size 3 to 8) (size 9 to 14) (size 15 to 20)
#    0.923    0.615    3.077    0.923    6.462    3.077 
#    0.000    3.846    0.000    0.000    0.000    0.000 
#    0.000    0.000    0.000    0.000    0.000    0.000 
#
# Total GULP energy -322265.474683 kJ/mol
# GULP energy per Si atom -12394.825949 kJ/mol
# Density = 2.085479 g / cm^3
# Si number density = 20.902365 Si / 1000 Ang^3
#
#
#
# Elastic Constant Matrix: (Units=GPa)
#
#
# Indices 1 2 3 4 5 6 
#
# 1 131.9353 38.1428 11.6310 0.0000 -1.3111 0.0000
# 2 38.1428 109.3464 26.2568 0.0000 3.6535 0.0000
# 3 11.6310 26.2568 85.0144 0.0000 13.7907 0.0000
# 4 0.0000 0.0000 0.0000 28.0420 0.0000 -9.3722
# 5 -1.3111 3.6535 13.7907 0.0000 19.3221 0.0000
# 6 0.0000 0.0000 0.0000 -9.3722 0.0000 30.3994
#
#
#
# Elastic Compliance Matrix: (Units=1/GPa)
#
#
# Indices 1 2 3 4 5 6 
#
# 1 0.008473 -0.002883 -0.000509 0.000000 0.001484 0.000000
# 2 -0.002883 0.010861 -0.002935 0.000000 -0.000154 0.000000
# 3 -0.000509 -0.002935 0.014311 0.000000 -0.009694 0.000000
# 4 0.000000 0.000000 0.000000 0.039757 0.000000 0.012257
# 5 0.001484 -0.000154 -0.009694 0.000000 0.058803 0.000000
# 6 0.000000 0.000000 0.000000 0.012257 0.000000 0.036674
#
#
# Mechanical properties :
#
#
# Convention : Reuss Voigt Hill
#
# Bulk Modulus (GPa) = 47.64060 53.15082 50.39571
# Shear Modulus (GPa) = 26.52096 32.23707 29.37902
#
# Velocity S-wave (km/s) = 3.56589 3.93143 3.75311
# Velocity P-wave (km/s) = 6.30837 6.78908 6.55313
#
# Compressibility (1/GPa) = 0.02099050
#
# Stress axis : x y z
#
# Youngs Moduli (GPa) = 118.02877 92.07512 69.87443
#
# Poissons Ratio (x) = 0.26542 0.03560
# Poissons Ratio (y) = 0.34024 0.20507
# Poissons Ratio (z) = 0.06013 0.27023
#
# Static dielectric constant tensor:
#      x y z
#    x 3.724720 0.000000 0.048370 
#    y 0.000000 3.658130 0.000000 
#    z 0.048370 0.000000 3.806920 
# 
# 
# High freq. dielectric constant tensor:
#      x y z
#    x 1.822510 0.000000 0.001970 
#    y 0.000000 1.811160 0.000000 
#    z 0.001970 0.000000 1.804500 
# 
# From -- ./inp_files/285828.got.cif
#   From: 2010.06.25/outbox.cif.g09.slc.cpg/sg15_143_cif.got.tgz:285828.got - 2010.06.28 07:06:18.
