data_PCOD8148275
_publ_section_title
;
Structure prediction by ZEFSAII (Michael W. Deem and Ramdas Pophale) SiO2 
 PCOD8148275
Probable space group: C 2/C
;
_chemical_formula_sum "Si O2"
_cell_formula_units_Z 60
_cell_length_a 17.596766
_cell_length_b 22.233114
_cell_length_c 15.170860
_cell_angle_alpha 90.000000
_cell_angle_beta 149.122981
_cell_angle_gamma 90.000000
_cell_volume 3045.983189
_symmetry_space_group_name_H-M "C 2/C"
_symmetry_group_IT_number 15
_symmetry_cell_setting 'monoclinic'
loop_
_space_group_symop_operation_xyz
x,y,z
-x,y,1/2-z
-x,-y,-z
x,-y,1/2+z
1/2+x,1/2+y,z
1/2-x,1/2+y,1/2-z
1/2-x,1/2-y,-z
1/2+x,1/2-y,1/2+z
loop_
_atom_site_type_symbol
_atom_site_label
_atom_site_fract_x
_atom_site_fract_y
_atom_site_fract_z
Si Si1 0.724169 0.208153 0.891213
Si Si2 0.576524 0.795659 0.501488
Si Si3 0.341647 0.294059 0.151634
Si Si4 0.583129 0.404791 0.921798
Si Si5 0.175270 0.870141 0.701964
Si Si6 0.597073 0.475993 0.515989
Si Si7 0.000000 0.096033 0.750000
Si Si8 0.900800 0.249160 0.480964
O O1 0.549170 0.203337 0.698740
O O2 0.750000 0.250000 0.000000
O O3 0.811795 0.239100 0.898156
O O4 0.789667 0.142606 0.973628
O O5 0.674148 0.856984 0.593263
O O6 0.504887 0.791159 0.525830
O O7 0.356103 0.361201 0.125131
O O8 0.508307 0.270402 0.340156
O O9 0.250000 0.250000 0.000000
O O10 0.241051 0.291768 0.140075
O O11 0.500000 0.423114 0.750000
O O12 0.463221 0.379291 0.871378
O O13 0.668328 0.463747 0.044974
O O14 0.207011 0.927447 0.669899
O O15 0.144761 0.811943 0.612549
O O16 0.500000 0.500000 0.500000
O O17 0.512010 0.443528 0.350620
#
# Coordination Sequence:
#
# PCOD8148275 Si02
#       8
#     8   8   8   8   8   8   4   8
#     4  12  23  37  60  95 127 166 212 264 330 388
#     4  12  22  37  58  92 132 165 201 263 330 384
#     4  12  22  36  59  92 129 161 203 257 321 386
#     4  11  22  40  63  91 122 164 222 270 316 383
#     4  11  21  39  61  92 129 164 214 260 321 390
#     4  10  23  40  65  91 120 170 219 267 310 375
#     4  12  22  40  64  94 130 166 220 260 322 384
#     4  12  21  35  57  90 132 165 198 251 320 388
#
# _framework density 19.698073999999998
#
# number of rings (size 3 to 8) (size 9 to 14) (size 15 to 20)
#    0.000    0.533    7.333    2.000    0.000    0.000 
#    0.000    0.667    0.000    0.000    3.467    0.000 
#    0.000    0.000    0.000    0.000    0.000    0.000 
#
# Total GULP energy -371746.841162 kJ/mol
# GULP energy per Si atom -12391.561372 kJ/mol
# Density = 1.965324 g / cm^3
# Si number density = 19.698074 Si / 1000 Ang^3
#
#
#
# Elastic Constant Matrix: (Units=GPa)
#
#
# Indices 1 2 3 4 5 6 
#
# 1 84.3780 46.2817 24.7867 0.0000 -3.7949 0.0000
# 2 46.2817 131.1284 47.7352 0.0000 -1.3741 0.0000
# 3 24.7867 47.7352 121.8991 0.0000 -1.3242 0.0000
# 4 0.0000 0.0000 0.0000 31.0486 0.0000 -9.4021
# 5 -3.7949 -1.3741 -1.3242 0.0000 35.3982 0.0000
# 6 0.0000 0.0000 0.0000 -9.4021 0.0000 38.5244
#
#
#
# Elastic Compliance Matrix: (Units=1/GPa)
#
#
# Indices 1 2 3 4 5 6 
#
# 1 0.014894 -0.004835 -0.001120 0.000000 0.001367 0.000000
# 2 -0.004835 0.010465 -0.003117 0.000000 -0.000229 0.000000
# 3 -0.001120 -0.003117 0.009653 0.000000 0.000120 0.000000
# 4 0.000000 0.000000 0.000000 0.034778 0.000000 0.008488
# 5 0.001367 -0.000229 0.000120 0.000000 0.028392 0.000000
# 6 0.000000 0.000000 0.000000 0.008488 0.000000 0.028029
#
#
# Mechanical properties :
#
#
# Convention : Reuss Voigt Hill
#
# Bulk Modulus (GPa) = 59.28642 63.89031 61.58837
# Shear Modulus (GPa) = 33.33809 35.56771 34.45290
#
# Velocity S-wave (km/s) = 4.11841 4.25390 4.18670
# Velocity P-wave (km/s) = 7.26484 7.52547 7.39631
#
# Compressibility (1/GPa) = 0.01686727
#
# Stress axis : x y z
#
# Youngs Moduli (GPa) = 67.14193 95.55723 103.59027
#
# Poissons Ratio (x) = 0.46198 0.11607
# Poissons Ratio (y) = 0.32460 0.32294
# Poissons Ratio (z) = 0.07523 0.29790
#
# Static dielectric constant tensor:
#      x y z
#    x 4.364440 0.000000 0.029940 
#    y 0.000000 3.937300 0.000000 
#    z 0.029940 0.000000 3.916450 
# 
# 
# High freq. dielectric constant tensor:
#      x y z
#    x 1.788320 0.000000 -0.023760 
#    y 0.000000 1.756070 0.000000 
#    z -0.023760 0.000000 1.758250 
# 
# From -- ./inp_files/50685.got.cif
#   From: 2010.06.25/outbox.cif.g09.slc.cpg/sg15_26_cif.got.tgz:50685.got - 2010.06.28 07:06:18.
