data_PCOD8148623
_publ_section_title
;
Structure prediction by ZEFSAII (Michael W. Deem and Ramdas Pophale) SiO2 
 PCOD8148623
Probable space group: C 2/C
;
_chemical_formula_sum "Si O2"
_cell_formula_units_Z 48
_cell_length_a 5.006166
_cell_length_b 29.985474
_cell_length_c 15.207939
_cell_angle_alpha 90.000000
_cell_angle_beta 98.958730
_cell_angle_gamma 90.000000
_cell_volume 2255.048486
_symmetry_space_group_name_H-M "C 2/C"
_symmetry_group_IT_number 15
_symmetry_cell_setting 'monoclinic'
loop_
_space_group_symop_operation_xyz
x,y,z
-x,y,1/2-z
-x,-y,-z
x,-y,1/2+z
1/2+x,1/2+y,z
1/2-x,1/2+y,1/2-z
1/2-x,1/2-y,-z
1/2+x,1/2-y,1/2+z
loop_
_atom_site_type_symbol
_atom_site_label
_atom_site_fract_x
_atom_site_fract_y
_atom_site_fract_z
Si Si1 0.270179 0.374690 0.808244
Si Si2 0.500000 0.152183 0.750000
Si Si3 0.000000 0.093478 0.750000
Si Si4 0.771960 0.976670 0.104943
Si Si5 0.494892 0.305216 0.958807
Si Si6 0.042906 0.296439 0.073111
Si Si7 0.780616 0.465430 0.597187
O O1 0.500000 0.386656 0.750000
O O2 0.392823 0.339729 0.882089
O O3 0.171647 0.419085 0.852186
O O4 0.000000 0.354013 0.750000
O O5 0.235402 0.122627 0.717991
O O6 0.443595 0.182745 0.830531
O O7 0.130599 0.064304 0.832924
O O8 0.510215 0.999015 0.136877
O O9 0.992309 0.015450 0.109855
O O10 0.699517 0.956766 0.006059
O O11 0.487461 0.256418 0.915264
O O12 0.319523 0.307971 0.038151
O O13 0.800267 0.316840 0.002399
#
# Coordination Sequence:
#
# PCOD8148623 Si02
#       7
#     8   4   4   8   8   8   8
#     4  12  26  41  67 103 130 170 223 275 328 389
#     4  12  26  40  68 105 130 171 224 274 326 390
#     4  12  26  42  66 101 130 169 222 276 330 388
#     4  10  23  43  65  90 125 172 213 265 331 386
#     4  10  23  46  68  96 133 178 216 267 334 388
#     4  10  23  44  70  96 133 177 216 268 331 390
#     4  10  23  42  65  91 125 171 213 266 328 387
#
# _framework density 21.285571999999998
#
# number of rings (size 3 to 8) (size 9 to 14) (size 15 to 20)
#    0.000    1.333    0.000    4.000    9.333    0.000 
#    1.500    0.000    0.000    0.000    0.000    0.000 
#    0.000    0.000    0.000    0.000    0.000    0.000 
#
# Total GULP energy -297769.355039 kJ/mol
# GULP energy per Si atom -12407.056460 kJ/mol
# Density = 2.123712 g / cm^3
# Si number density = 21.285572 Si / 1000 Ang^3
#
#
#
# Elastic Constant Matrix: (Units=GPa)
#
#
# Indices 1 2 3 4 5 6 
#
# 1 103.7274 33.3674 30.9433 0.0000 6.7737 0.0000
# 2 33.3674 102.5791 72.7506 0.0000 7.3267 0.0000
# 3 30.9433 72.7506 108.0908 0.0000 6.1819 0.0000
# 4 0.0000 0.0000 0.0000 27.4603 0.0000 4.7786
# 5 6.7737 7.3267 6.1819 0.0000 23.8552 0.0000
# 6 0.0000 0.0000 0.0000 4.7786 0.0000 34.0011
#
#
#
# Elastic Compliance Matrix: (Units=1/GPa)
#
#
# Indices 1 2 3 4 5 6 
#
# 1 0.010970 -0.002448 -0.001378 0.000000 -0.002006 0.000000
# 2 -0.002448 0.019347 -0.012202 0.000000 -0.002085 0.000000
# 3 -0.001378 -0.012202 0.017887 0.000000 -0.000496 0.000000
# 4 0.000000 0.000000 0.000000 0.037329 0.000000 -0.005246
# 5 -0.002006 -0.002085 -0.000496 0.000000 0.043258 0.000000
# 6 0.000000 0.000000 0.000000 -0.005246 0.000000 0.030148
#
#
# Mechanical properties :
#
#
# Convention : Reuss Voigt Hill
#
# Bulk Modulus (GPa) = 61.92377 65.39111 63.65744
# Shear Modulus (GPa) = 25.46101 28.88573 27.17337
#
# Velocity S-wave (km/s) = 3.46231 3.68782 3.57684
# Velocity P-wave (km/s) = 6.71852 6.99435 6.85782
#
# Compressibility (1/GPa) = 0.01614889
#
# Stress axis : x y z
#
# Youngs Moduli (GPa) = 91.15605 51.68651 55.90670
#
# Poissons Ratio (x) = 0.12651 0.07706
# Poissons Ratio (y) = 0.22311 0.68217
# Poissons Ratio (z) = 0.12565 0.63067
#
# Static dielectric constant tensor:
#      x y z
#    x 4.293170 0.000000 -0.048140 
#    y 0.000000 3.762750 0.000000 
#    z -0.048140 0.000000 3.848640 
# 
# 
# High freq. dielectric constant tensor:
#      x y z
#    x 1.857520 0.000000 0.000880 
#    y 0.000000 1.833100 0.000000 
#    z 0.000880 0.000000 1.840370 
# 
# From -- ./inp_files/130105.got.cif
#   From: 2010.06.25/outbox.cif.g09.slc.cpg/sg15_66_cif.got.tgz:130105.got - 2010.06.28 07:06:18.
