data_PCOD8148119
_publ_section_title
;
Structure prediction by ZEFSAII (Michael W. Deem and Ramdas Pophale) SiO2 
 PCOD8148119
Probable space group: C 2/C
;
_chemical_formula_sum "Si O2"
_cell_formula_units_Z 56
_cell_length_a 28.810639
_cell_length_b 16.605067
_cell_length_c 8.903759
_cell_angle_alpha 90.000000
_cell_angle_beta 140.605899
_cell_angle_gamma 90.000000
_cell_volume 2703.347372
_symmetry_space_group_name_H-M "C 2/C"
_symmetry_group_IT_number 15
_symmetry_cell_setting 'monoclinic'
loop_
_space_group_symop_operation_xyz
x,y,z
-x,y,1/2-z
-x,-y,-z
x,-y,1/2+z
1/2+x,1/2+y,z
1/2-x,1/2+y,1/2-z
1/2-x,1/2-y,-z
1/2+x,1/2-y,1/2+z
loop_
_atom_site_type_symbol
_atom_site_label
_atom_site_fract_x
_atom_site_fract_y
_atom_site_fract_z
Si Si1 0.161546 0.074379 0.074898
Si Si2 0.218543 0.848833 0.203848
Si Si3 0.709944 0.116471 0.322917
Si Si4 0.064086 0.819322 0.521118
Si Si5 0.277707 0.946102 0.093859
Si Si6 0.431990 0.423869 0.691673
Si Si7 0.657683 0.799550 0.422069
O O1 0.212625 0.104350 0.068149
O O2 0.130993 0.153491 0.082939
O O3 0.209978 0.027523 0.319831
O O4 0.095949 0.015854 0.857731
O O5 0.270698 0.834047 0.477671
O O6 0.248146 0.924844 0.184786
O O7 0.133832 0.867251 0.035200
O O8 0.220017 0.769802 0.099280
O O9 0.675193 0.028260 0.272447
O O10 0.650099 0.163980 0.072716
O O11 0.042432 0.892089 0.580102
O O12 0.084778 0.740706 0.672540
O O13 0.000000 0.793692 0.250000
O O14 0.321728 0.871563 0.137057
O O15 0.500000 0.419722 0.750000
#
# Coordination Sequence:
#
# PCOD8148119 Si02
#       7
#     8   8   8   8   8   8   8
#     4  11  20  36  57  84 124 163 194 228 271 343
#     4  11  20  36  52  87 118 154 193 237 280 339
#     4  11  21  34  60  89 119 148 191 247 290 342
#     4  11  25  41  57  82 118 165 206 234 282 347
#     4  11  19  37  61  85 117 151 191 240 291 352
#     4  11  23  36  54  83 126 166 203 227 265 336
#     4  10  23  39  58  82 116 153 191 243 302 343
#
# _framework density 20.715060000000001
#
# number of rings (size 3 to 8) (size 9 to 14) (size 15 to 20)
#    0.000    1.143    5.714    2.143    4.000    1.143 
#    0.000    0.000    0.000    0.857    0.000    1.000 
#    0.000    0.000    0.000    0.000    0.000    0.000 
#
# Total GULP energy -347012.081539 kJ/mol
# GULP energy per Si atom -12393.288626 kJ/mol
# Density = 2.066791 g / cm^3
# Si number density = 20.715060 Si / 1000 Ang^3
#
#
#
# Elastic Constant Matrix: (Units=GPa)
#
#
# Indices 1 2 3 4 5 6 
#
# 1 55.3430 4.8220 24.9676 0.0000 -16.5084 0.0000
# 2 4.8220 95.8257 54.0140 0.0000 -8.4482 0.0000
# 3 24.9676 54.0140 143.7833 0.0000 -31.6027 0.0000
# 4 0.0000 0.0000 0.0000 38.2394 0.0000 -12.2933
# 5 -16.5084 -8.4482 -31.6027 0.0000 26.0478 0.0000
# 6 0.0000 0.0000 0.0000 -12.2933 0.0000 24.4772
#
#
#
# Elastic Compliance Matrix: (Units=1/GPa)
#
#
# Indices 1 2 3 4 5 6 
#
# 1 0.022442 0.000773 -0.001372 0.000000 0.012809 0.000000
# 2 0.000773 0.013374 -0.005587 0.000000 -0.001951 0.000000
# 3 -0.001372 -0.005587 0.011867 0.000000 0.011716 0.000000
# 4 0.000000 0.000000 0.000000 0.031186 0.000000 0.015663
# 5 0.012809 -0.001951 0.011716 0.000000 0.060091 0.000000
# 6 0.000000 0.000000 0.000000 0.015663 0.000000 0.048721
#
#
# Mechanical properties :
#
#
# Convention : Reuss Voigt Hill
#
# Bulk Modulus (GPa) = 28.31975 51.39543 39.85759
# Shear Modulus (GPa) = 23.60460 31.82944 27.71702
#
# Velocity S-wave (km/s) = 3.37929 3.92412 3.66185
# Velocity P-wave (km/s) = 5.37838 6.73767 6.09603
#
# Compressibility (1/GPa) = 0.03531105
#
# Stress axis : x y z
#
# Youngs Moduli (GPa) = 44.56011 74.77172 84.26547
#
# Poissons Ratio (x) = -0.05783 0.11562
# Poissons Ratio (y) = -0.03446 0.47081
# Poissons Ratio (z) = 0.06114 0.41777
#
# Static dielectric constant tensor:
#      x y z
#    x 3.491680 0.000000 -0.419400 
#    y 0.000000 3.898270 0.000000 
#    z -0.419400 0.000000 3.778360 
# 
# 
# High freq. dielectric constant tensor:
#      x y z
#    x 1.777140 0.000000 -0.047770 
#    y 0.000000 1.819990 0.000000 
#    z -0.047770 0.000000 1.795010 
# 
# From -- ./inp_files/70521.got.cif
#   From: 2010.06.25/outbox.cif.g09.slc.cpg/sg15_36_cif.got.tgz:70521.got - 2010.06.28 07:06:18.
