data_PCOD8148571
_publ_section_title
;
Structure prediction by ZEFSAII (Michael W. Deem and Ramdas Pophale) SiO2 
 PCOD8148571
Probable space group: C 2/C
;
_chemical_formula_sum "Si O2"
_cell_formula_units_Z 40
_cell_length_a 19.893931
_cell_length_b 9.522003
_cell_length_c 8.969984
_cell_angle_alpha 90.000000
_cell_angle_beta 119.962904
_cell_angle_gamma 90.000000
_cell_volume 1472.086876
_symmetry_space_group_name_H-M "C 2/C"
_symmetry_group_IT_number 15
_symmetry_cell_setting 'monoclinic'
loop_
_space_group_symop_operation_xyz
x,y,z
-x,y,1/2-z
-x,-y,-z
x,-y,1/2+z
1/2+x,1/2+y,z
1/2-x,1/2+y,1/2-z
1/2-x,1/2-y,-z
1/2+x,1/2-y,1/2+z
loop_
_atom_site_type_symbol
_atom_site_label
_atom_site_fract_x
_atom_site_fract_y
_atom_site_fract_z
Si Si1 0.415492 0.926189 0.124023
Si Si2 0.915093 0.248872 0.637133
Si Si3 0.712889 0.566784 0.867629
Si Si4 0.302092 0.097805 0.252816
Si Si5 0.670183 0.273994 0.756263
O O1 0.500000 0.856905 0.250000
O O2 0.419599 0.086863 0.180913
O O3 0.350190 0.857891 0.160999
O O4 0.389700 0.906989 0.921972
O O5 0.891875 0.211089 0.444535
O O6 0.000000 0.180724 0.750000
O O7 0.853863 0.188276 0.695111
O O8 0.757854 0.545175 0.759932
O O9 0.668665 0.418088 0.852936
O O10 0.786546 0.598577 0.057652
O O11 0.255928 0.233758 0.271271
#
# Coordination Sequence:
#
# PCOD8148571 Si02
#       5
#     8   8   8   8   8
#     4  11  24  40  63  95 131 172 206 268 335 381
#     4  10  23  42  62  98 135 164 217 273 316 389
#     4   9  21  43  70  91 125 177 213 276 311 375
#     4   9  21  42  68  95 125 168 226 264 311 390
#     4   9  22  45  63  93 132 171 214 270 317 387
#
# _framework density 27.172308999999998
#
# number of rings (size 3 to 8) (size 9 to 14) (size 15 to 20)
#    1.200    1.200    0.000    0.600    2.800    7.200 
#    7.200    0.000    0.000    0.000    0.000    0.000 
#    0.000    0.000    0.000    0.000    0.000    0.000 
#
# Total GULP energy -247768.783883 kJ/mol
# GULP energy per Si atom -12388.439194 kJ/mol
# Density = 2.711046 g / cm^3
# Si number density = 27.172309 Si / 1000 Ang^3
#
#
#
# Elastic Constant Matrix: (Units=GPa)
#
#
# Indices 1 2 3 4 5 6 
#
# 1 113.2164 -4.6764 41.1005 0.0000 11.8317 0.0000
# 2 -4.6764 66.2891 8.5346 0.0000 11.2384 0.0000
# 3 41.1005 8.5346 171.9863 0.0000 28.1824 0.0000
# 4 0.0000 0.0000 0.0000 22.2744 0.0000 9.7387
# 5 11.8317 11.2384 28.1824 0.0000 50.4471 0.0000
# 6 0.0000 0.0000 0.0000 9.7387 0.0000 21.6417
#
#
#
# Elastic Compliance Matrix: (Units=1/GPa)
#
#
# Indices 1 2 3 4 5 6 
#
# 1 0.009816 0.001203 -0.002184 0.000000 -0.001350 0.000000
# 2 0.001203 0.015833 -0.000494 0.000000 -0.003533 0.000000
# 3 -0.002184 -0.000494 0.006890 0.000000 -0.003227 0.000000
# 4 0.000000 0.000000 0.000000 0.055891 0.000000 -0.025151
# 5 -0.001350 -0.003533 -0.003227 0.000000 0.022729 0.000000
# 6 0.000000 0.000000 0.000000 -0.025151 0.000000 0.057525
#
#
# Mechanical properties :
#
#
# Convention : Reuss Voigt Hill
#
# Bulk Modulus (GPa) = 33.79841 49.04546 41.42194
# Shear Modulus (GPa) = 27.54856 39.30818 33.42837
#
# Velocity S-wave (km/s) = 3.18755 3.80758 3.51128
# Velocity P-wave (km/s) = 5.10028 6.11712 5.63170
#
# Compressibility (1/GPa) = 0.02958719
#
# Stress axis : x y z
#
# Youngs Moduli (GPa) = 101.87071 63.15965 145.14517
#
# Poissons Ratio (x) = -0.07596 0.31705
# Poissons Ratio (y) = -0.12251 0.07172
# Poissons Ratio (z) = 0.22252 0.03121
#
# Static dielectric constant tensor:
#      x y z
#    x 5.256240 0.000000 0.210810 
#    y 0.000000 5.420800 0.000000 
#    z 0.210810 0.000000 4.986120 
# 
# 
# High freq. dielectric constant tensor:
#      x y z
#    x 2.092270 0.000000 -0.000910 
#    y 0.000000 2.125290 0.000000 
#    z -0.000910 0.000000 2.097990 
# 
# From -- ./inp_files/110755.got.cif
#   From: 2010.06.25/outbox.cif.g09.slc.cpg/sg15_56_cif.got.tgz:110755.got - 2010.06.28 07:06:18.
