data_PCOD8148138
_publ_section_title
;
Structure prediction by ZEFSAII (Michael W. Deem and Ramdas Pophale) SiO2 
 PCOD8148138
Probable space group: C 2/C
;
_chemical_formula_sum "Si O2"
_cell_formula_units_Z 44
_cell_length_a 12.869140
_cell_length_b 11.570319
_cell_length_c 21.786185
_cell_angle_alpha 90.000000
_cell_angle_beta 142.756915
_cell_angle_gamma 90.000000
_cell_volume 1963.240336
_symmetry_space_group_name_H-M "C 2/C"
_symmetry_group_IT_number 15
_symmetry_cell_setting 'monoclinic'
loop_
_space_group_symop_operation_xyz
x,y,z
-x,y,1/2-z
-x,-y,-z
x,-y,1/2+z
1/2+x,1/2+y,z
1/2-x,1/2+y,1/2-z
1/2-x,1/2-y,-z
1/2+x,1/2-y,1/2+z
loop_
_atom_site_type_symbol
_atom_site_label
_atom_site_fract_x
_atom_site_fract_y
_atom_site_fract_z
Si Si1 0.416843 0.111807 0.535458
Si Si2 0.743548 0.471398 0.066094
Si Si3 0.737174 0.751300 0.214158
Si Si4 0.933307 0.133065 0.900672
Si Si5 0.000000 0.631928 0.250000
Si Si6 0.877138 0.380460 0.882474
O O1 0.548700 0.220257 0.599628
O O2 0.309609 0.109763 0.421240
O O3 0.291584 0.119792 0.535186
O O4 0.519154 0.991844 0.588507
O O5 0.690373 0.402033 0.101362
O O6 0.906293 0.552528 0.155869
O O7 0.588914 0.546618 0.966564
O O8 0.817655 0.867106 0.283817
O O9 0.856704 0.711067 0.214525
O O10 0.726908 0.649000 0.261726
O O11 0.000706 0.265479 0.940755
#
# Coordination Sequence:
#
# PCOD8148138 Si02
#       6
#     8   8   8   8   4   8
#     4  11  21  41  69  89 133 169 213 261 332 373
#     4  11  21  38  68  93 122 170 213 259 323 389
#     4  10  23  39  61  97 125 166 219 271 307 387
#     4   9  22  39  59  96 127 155 216 264 313 388
#     4  12  22  38  68  88 118 180 214 262 316 382
#     4   9  22  41  60  95 129 167 207 273 315 378
#
# _framework density 22.411926999999999
#
# number of rings (size 3 to 8) (size 9 to 14) (size 15 to 20)
#    1.091    0.727    1.818    2.182    0.000    6.545 
#    0.000    0.000    8.000    0.000    0.000    0.000 
#    0.000    0.000    0.000    0.000    0.000    0.000 
#
# Total GULP energy -272546.605044 kJ/mol
# GULP energy per Si atom -12388.482047 kJ/mol
# Density = 2.236092 g / cm^3
# Si number density = 22.411927 Si / 1000 Ang^3
#
#
#
# Elastic Constant Matrix: (Units=GPa)
#
#
# Indices 1 2 3 4 5 6 
#
# 1 127.7142 6.1114 37.3162 0.0000 -11.1252 0.0000
# 2 6.1114 57.5598 -5.0102 0.0000 2.3799 0.0000
# 3 37.3162 -5.0102 47.6933 0.0000 -13.6516 0.0000
# 4 0.0000 0.0000 0.0000 17.6830 0.0000 -8.9729
# 5 -11.1252 2.3799 -13.6516 0.0000 32.5966 0.0000
# 6 0.0000 0.0000 0.0000 -8.9729 0.0000 33.8158
#
#
#
# Elastic Compliance Matrix: (Units=1/GPa)
#
#
# Indices 1 2 3 4 5 6 
#
# 1 0.010337 -0.001822 -0.008216 0.000000 0.000220 0.000000
# 2 -0.001822 0.017864 0.003125 0.000000 -0.000617 0.000000
# 3 -0.008216 0.003125 0.030514 0.000000 0.009747 0.000000
# 4 0.000000 0.000000 0.000000 0.065351 0.000000 0.017340
# 5 0.000220 -0.000617 0.009747 0.000000 0.034880 0.000000
# 6 0.000000 0.000000 0.000000 0.017340 0.000000 0.034173
#
#
# Mechanical properties :
#
#
# Convention : Reuss Voigt Hill
#
# Bulk Modulus (GPa) = 22.27665 34.42245 28.34955
# Shear Modulus (GPa) = 22.53185 29.78907 26.16046
#
# Velocity S-wave (km/s) = 3.17417 3.64972 3.42022
# Velocity P-wave (km/s) = 4.83684 5.75786 5.31733
#
# Compressibility (1/GPa) = 0.04489005
#
# Stress axis : x y z
#
# Youngs Moduli (GPa) = 96.73981 55.97786 32.77163
#
# Poissons Ratio (x) = 0.10198 0.26926
# Poissons Ratio (y) = 0.17624 -0.10242
# Poissons Ratio (z) = 0.79484 -0.17495
#
# Static dielectric constant tensor:
#      x y z
#    x 3.852430 0.000000 -0.340580 
#    y 0.000000 4.040050 0.000000 
#    z -0.340580 0.000000 3.972170 
# 
# 
# High freq. dielectric constant tensor:
#      x y z
#    x 1.872660 0.000000 -0.033490 
#    y 0.000000 1.887040 0.000000 
#    z -0.033490 0.000000 1.869860 
# 
# From -- ./inp_files/238859.got.cif
#   From: 2010.06.25/outbox.cif.g09.slc.cpg/sg15_120_cif.got.tgz:238859.got - 2010.06.28 07:06:18.
