data_PCOD8148584
_publ_section_title
;
Structure prediction by ZEFSAII (Michael W. Deem and Ramdas Pophale) SiO2 
 PCOD8148584
Probable space group: C 2/C
;
_chemical_formula_sum "Si O2"
_cell_formula_units_Z 56
_cell_length_a 19.401007
_cell_length_b 15.822460
_cell_length_c 8.992443
_cell_angle_alpha 90.000000
_cell_angle_beta 106.998677
_cell_angle_gamma 90.000000
_cell_volume 2639.826316
_symmetry_space_group_name_H-M "C 2/C"
_symmetry_group_IT_number 15
_symmetry_cell_setting 'monoclinic'
loop_
_space_group_symop_operation_xyz
x,y,z
-x,y,1/2-z
-x,-y,-z
x,-y,1/2+z
1/2+x,1/2+y,z
1/2-x,1/2+y,1/2-z
1/2-x,1/2-y,-z
1/2+x,1/2-y,1/2+z
loop_
_atom_site_type_symbol
_atom_site_label
_atom_site_fract_x
_atom_site_fract_y
_atom_site_fract_z
Si Si1 0.786360 0.777762 0.173650
Si Si2 0.664024 0.168938 0.786329
Si Si3 0.800826 0.949930 0.049851
Si Si4 0.885279 0.669310 0.418500
Si Si5 0.959570 0.931100 0.070063
Si Si6 0.796587 0.479276 0.776344
Si Si7 0.525424 0.257979 0.601031
O O1 0.730329 0.774435 0.273900
O O2 0.814557 0.872003 0.167980
O O3 0.854683 0.723157 0.262343
O O4 0.750000 0.750000 0.000000
O O5 0.595060 0.199189 0.650467
O O6 0.677387 0.070942 0.758051
O O7 0.655469 0.188379 0.953758
O O8 0.880224 0.973202 0.041115
O O9 0.760566 0.021159 0.122761
O O10 0.746324 0.929472 0.880041
O O11 0.869468 0.571381 0.367115
O O12 0.968256 0.695285 0.485791
O O13 0.000000 0.916615 0.250000
O O14 0.957348 0.841756 0.982544
O O15 0.000000 0.000000 0.000000
O O16 0.500000 0.285917 0.750000
#
# Coordination Sequence:
#
# PCOD8148584 Si02
#       7
#     8   8   8   8   8   8   8
#     4  11  21  37  63  92 124 167 217 271 324 376
#     4  10  23  42  63  94 130 171 217 269 327 393
#     4  11  23  40  64  94 130 167 219 271 324 389
#     4  11  22  41  64  94 130 171 220 267 329 394
#     4  12  25  45  66  96 133 174 218 269 332 396
#     4  11  22  40  66  96 127 171 220 270 328 380
#     4  10  24  44  66  93 133 176 217 267 331 396
#
# _framework density 21.213515999999998
#
# number of rings (size 3 to 8) (size 9 to 14) (size 15 to 20)
#    0.000    1.143    2.857    3.429    0.000    1.714 
#    2.571    0.000    0.000    0.000    0.000    0.000 
#    0.000    0.000    0.000    0.000    0.000    0.000 
#
# Total GULP energy -347105.953298 kJ/mol
# GULP energy per Si atom -12396.641189 kJ/mol
# Density = 2.116523 g / cm^3
# Si number density = 21.213516 Si / 1000 Ang^3
#
#
#
# Elastic Constant Matrix: (Units=GPa)
#
#
# Indices 1 2 3 4 5 6 
#
# 1 92.7030 36.2383 25.6809 0.0000 7.6888 0.0000
# 2 36.2383 89.0737 32.6432 0.0000 10.3492 0.0000
# 3 25.6809 32.6432 112.9188 0.0000 13.7937 0.0000
# 4 0.0000 0.0000 0.0000 31.7676 0.0000 6.2188
# 5 7.6888 10.3492 13.7937 0.0000 34.3450 0.0000
# 6 0.0000 0.0000 0.0000 6.2188 0.0000 26.2313
#
#
#
# Elastic Compliance Matrix: (Units=1/GPa)
#
#
# Indices 1 2 3 4 5 6 
#
# 1 0.013110 -0.004670 -0.001519 0.000000 -0.000917 0.000000
# 2 -0.004670 0.014419 -0.002843 0.000000 -0.002158 0.000000
# 3 -0.001519 -0.002843 0.010387 0.000000 -0.002975 0.000000
# 4 0.000000 0.000000 0.000000 0.033011 0.000000 -0.007826
# 5 -0.000917 -0.002158 -0.002975 0.000000 0.031167 0.000000
# 6 0.000000 0.000000 0.000000 -0.007826 0.000000 0.039978
#
#
# Mechanical properties :
#
#
# Convention : Reuss Voigt Hill
#
# Bulk Modulus (GPa) = 50.37493 53.75782 52.06637
# Shear Modulus (GPa) = 29.98470 31.81100 30.89785
#
# Velocity S-wave (km/s) = 3.76370 3.87662 3.82057
# Velocity P-wave (km/s) = 6.53340 6.74047 6.63774
#
# Compressibility (1/GPa) = 0.01985114
#
# Stress axis : x y z
#
# Youngs Moduli (GPa) = 76.27939 69.35257 96.27755
#
# Poissons Ratio (x) = 0.32388 0.14628
# Poissons Ratio (y) = 0.35623 0.27368
# Poissons Ratio (z) = 0.11590 0.19715
#
# Static dielectric constant tensor:
#      x y z
#    x 3.972150 0.000000 -0.060720 
#    y 0.000000 4.252410 0.000000 
#    z -0.060720 0.000000 4.094460 
# 
# 
# High freq. dielectric constant tensor:
#      x y z
#    x 1.830390 0.000000 -0.002680 
#    y 0.000000 1.828370 0.000000 
#    z -0.002680 0.000000 1.850370 
# 
# From -- ./inp_files/49148.got.cif
#   From: 2010.06.25/outbox.cif.g09.slc.cpg/sg15_25_cif.got.tgz:49148.got - 2010.06.28 07:06:18.
