data_PCOD8148363
_publ_section_title
;
Structure prediction by ZEFSAII (Michael W. Deem and Ramdas Pophale) SiO2 
 PCOD8148363
Probable space group: C 2/C
;
_chemical_formula_sum "Si O2"
_cell_formula_units_Z 56
_cell_length_a 9.010066
_cell_length_b 11.974870
_cell_length_c 28.625394
_cell_angle_alpha 90.000000
_cell_angle_beta 62.550643
_cell_angle_gamma 90.000000
_cell_volume 2740.809114
_symmetry_space_group_name_H-M "C 2/C"
_symmetry_group_IT_number 15
_symmetry_cell_setting 'monoclinic'
loop_
_space_group_symop_operation_xyz
x,y,z
-x,y,1/2-z
-x,-y,-z
x,-y,1/2+z
1/2+x,1/2+y,z
1/2-x,1/2+y,1/2-z
1/2-x,1/2-y,-z
1/2+x,1/2-y,1/2+z
loop_
_atom_site_type_symbol
_atom_site_label
_atom_site_fract_x
_atom_site_fract_y
_atom_site_fract_z
Si Si1 0.942337 0.710360 0.152388
Si Si2 0.412736 0.742847 0.445291
Si Si3 0.062731 0.499668 0.787496
Si Si4 0.755239 0.789996 0.446284
Si Si5 0.712358 0.142923 0.626436
Si Si6 0.978320 0.996356 0.399669
Si Si7 0.918514 0.078164 0.713452
O O1 0.902532 0.586777 0.175935
O O2 0.793209 0.748283 0.139553
O O3 0.959430 0.794438 0.193673
O O4 0.119143 0.708057 0.099692
O O5 0.250000 0.750000 0.500000
O O6 0.571383 0.785153 0.451107
O O7 0.382427 0.825526 0.406838
O O8 0.440391 0.618029 0.423619
O O9 0.223420 0.569679 0.750511
O O10 0.000000 0.434766 0.750000
O O11 0.924221 0.590264 0.820248
O O12 0.750000 0.750000 0.500000
O O13 0.818910 0.917579 0.433116
O O14 0.861964 0.054251 0.595724
O O15 0.019057 0.000844 0.338184
O O16 0.000000 0.041337 0.750000
#
# Coordination Sequence:
#
# PCOD8148363 Si02
#       7
#     8   8   8   8   8   8   8
#     4  10  23  41  65  92 132 167 217 262 315 386
#     4  12  26  42  70  97 124 169 215 265 324 381
#     4  12  22  41  67  94 130 176 211 260 320 369
#     4  10  23  44  69  94 129 169 210 267 325 381
#     4  10  24  43  62 100 127 160 224 260 308 387
#     4  10  24  46  63  93 137 164 211 266 319 378
#     4  10  23  41  60  96 131 169 214 258 315 378
#
# _framework density 20.431923999999999
#
# number of rings (size 3 to 8) (size 9 to 14) (size 15 to 20)
#    0.000    1.714    2.857    3.000    6.000    5.143 
#    0.000    0.000    0.000    0.000    0.000    0.000 
#    0.000    0.000    0.000    0.000    0.000    0.000 
#
# Total GULP energy -347150.545456 kJ/mol
# GULP energy per Si atom -12398.233766 kJ/mol
# Density = 2.038542 g / cm^3
# Si number density = 20.431924 Si / 1000 Ang^3
#
#
#
# Elastic Constant Matrix: (Units=GPa)
#
#
# Indices 1 2 3 4 5 6 
#
# 1 165.3572 54.8674 83.4536 0.0000 3.3263 0.0000
# 2 54.8674 77.1660 61.8045 0.0000 -5.8420 0.0000
# 3 83.4536 61.8045 135.0675 0.0000 -13.7091 0.0000
# 4 0.0000 0.0000 0.0000 94.8814 0.0000 -3.7640
# 5 3.3263 -5.8420 -13.7091 0.0000 44.4114 0.0000
# 6 0.0000 0.0000 0.0000 -3.7640 0.0000 17.6196
#
#
#
# Elastic Compliance Matrix: (Units=1/GPa)
#
#
# Indices 1 2 3 4 5 6 
#
# 1 0.009529 -0.003229 -0.004672 0.000000 -0.002581 0.000000
# 2 -0.003229 0.021552 -0.007799 0.000000 0.000669 0.000000
# 3 -0.004672 -0.007799 0.014236 0.000000 0.003719 0.000000
# 4 0.000000 0.000000 0.000000 0.010630 0.000000 0.002271
# 5 -0.002581 0.000669 0.003719 0.000000 0.023946 0.000000
# 6 0.000000 0.000000 0.000000 0.002271 0.000000 0.057240
#
#
# Mechanical properties :
#
#
# Convention : Reuss Voigt Hill
#
# Bulk Modulus (GPa) = 71.85031 86.42687 79.13859
# Shear Modulus (GPa) = 28.87326 43.21351 36.04338
#
# Velocity S-wave (km/s) = 3.76326 4.60390 4.20464
# Velocity P-wave (km/s) = 7.35696 8.40553 7.89867
#
# Compressibility (1/GPa) = 0.01391783
#
# Stress axis : x y z
#
# Youngs Moduli (GPa) = 104.94744 46.39992 70.24218
#
# Poissons Ratio (x) = 0.14980 0.32817
# Poissons Ratio (y) = 0.33883 0.54782
# Poissons Ratio (z) = 0.49031 0.36187
#
# Static dielectric constant tensor:
#      x y z
#    x 3.775620 0.000000 -0.075560 
#    y 0.000000 3.459170 0.000000 
#    z -0.075560 0.000000 3.869520 
# 
# 
# High freq. dielectric constant tensor:
#      x y z
#    x 1.811140 0.000000 -0.002910 
#    y 0.000000 1.782650 0.000000 
#    z -0.002910 0.000000 1.814270 
# 
# From -- ./inp_files/307385.got.cif
#   From: 2010.06.25/outbox.cif.g09.slc.cpg/sg15_154_cif.got.tgz:307385.got - 2010.06.28 07:06:18.
