data_PCOD8148927
_publ_section_title
;
Structure prediction by ZEFSAII (Michael W. Deem and Ramdas Pophale) SiO2 
 PCOD8148927
Probable space group: C 2/C
;
_chemical_formula_sum "Si O2"
_cell_formula_units_Z 48
_cell_length_a 13.259236
_cell_length_b 19.347134
_cell_length_c 13.039653
_cell_angle_alpha 90.000000
_cell_angle_beta 42.153750
_cell_angle_gamma 90.000000
_cell_volume 2244.930486
_symmetry_space_group_name_H-M "C 2/C"
_symmetry_group_IT_number 15
_symmetry_cell_setting 'monoclinic'
loop_
_space_group_symop_operation_xyz
x,y,z
-x,y,1/2-z
-x,-y,-z
x,-y,1/2+z
1/2+x,1/2+y,z
1/2-x,1/2+y,1/2-z
1/2-x,1/2-y,-z
1/2+x,1/2-y,1/2+z
loop_
_atom_site_type_symbol
_atom_site_label
_atom_site_fract_x
_atom_site_fract_y
_atom_site_fract_z
Si Si1 0.484034 0.938405 0.090606
Si Si2 0.884458 0.800171 0.929348
Si Si3 0.133646 0.089442 0.571139
Si Si4 0.824250 0.671189 0.575719
Si Si5 0.981226 0.795577 0.076808
Si Si6 0.764049 0.556434 0.941180
O O1 0.432108 0.869123 0.073414
O O2 0.644626 0.928133 0.023556
O O3 0.365723 0.958536 0.266603
O O4 0.500000 0.000000 0.000000
O O5 0.000000 0.802498 0.750000
O O6 0.750000 0.750000 0.000000
O O7 0.835370 0.876377 0.000332
O O8 0.965035 0.773028 0.970580
O O9 0.281760 0.120813 0.513471
O O10 0.079761 0.133859 0.513107
O O11 0.000000 0.096314 0.750000
O O12 0.157166 0.009829 0.527088
O O13 0.917600 0.733507 0.453339
O O14 0.678024 0.699870 0.745617
#
# Coordination Sequence:
#
# PCOD8148927 Si02
#       6
#     8   8   8   8   8   8
#     4  11  23  42  68  94 131 173 221 279 327 397
#     4  12  26  42  66  96 135 181 223 274 332 395
#     4  10  23  43  67  97 132 168 221 276 333 399
#     4  11  22  45  66  99 131 174 219 270 335 393
#     4  11  24  42  67  95 136 175 217 278 325 396
#     4  11  24  42  66 100 130 172 226 273 335 399
#
# _framework density 21.381509000000001
#
# number of rings (size 3 to 8) (size 9 to 14) (size 15 to 20)
#    0.000    1.000    3.333    3.000    2.333    3.333 
#    0.000    0.000    0.000    0.000    0.000    0.000 
#    0.000    0.000    0.000    0.000    0.000    0.000 
#
# Total GULP energy -297627.571255 kJ/mol
# GULP energy per Si atom -12401.148802 kJ/mol
# Density = 2.133284 g / cm^3
# Si number density = 21.381509 Si / 1000 Ang^3
#
#
#
# Elastic Constant Matrix: (Units=GPa)
#
#
# Indices 1 2 3 4 5 6 
#
# 1 92.6351 41.1693 18.0215 -0.0026 -2.2300 0.0030
# 2 41.1693 145.6743 24.2422 -0.0016 -13.3880 0.0019
# 3 18.0215 24.2422 67.4730 -0.0045 1.7692 0.0049
# 4 -0.0026 -0.0016 -0.0045 34.8258 0.0031 -6.5258
# 5 -2.2300 -13.3880 1.7692 0.0031 28.2264 -0.0035
# 6 0.0030 0.0019 0.0049 -6.5258 -0.0035 42.1326
#
#
#
# Elastic Compliance Matrix: (Units=1/GPa)
#
#
# Indices 1 2 3 4 5 6 
#
# 1 0.012657 -0.003247 -0.002203 0.000000 -0.000402 0.000000
# 2 -0.003247 0.008526 -0.002299 0.000000 0.003932 0.000000
# 3 -0.002203 -0.002299 0.016295 0.000002 -0.002286 -0.000002
# 4 0.000000 0.000000 0.000002 0.029573 -0.000003 0.004580
# 5 -0.000402 0.003932 -0.002286 -0.000003 0.037404 0.000003
# 6 0.000000 0.000000 -0.000002 0.004580 0.000003 0.024444
#
#
# Mechanical properties :
#
#
# Convention : Reuss Voigt Hill
#
# Bulk Modulus (GPa) = 45.49794 52.51650 49.00722
# Shear Modulus (GPa) = 32.95420 35.86024 34.40722
#
# Velocity S-wave (km/s) = 3.93013 4.09976 4.01584
# Velocity P-wave (km/s) = 6.47456 6.85753 6.66879
#
# Compressibility (1/GPa) = 0.02197902
#
# Stress axis : x y z
#
# Youngs Moduli (GPa) = 79.00632 117.28396 61.36759
#
# Poissons Ratio (x) = 0.38086 0.13522
# Poissons Ratio (y) = 0.25656 0.14109
# Poissons Ratio (z) = 0.17408 0.26965
#
# Static dielectric constant tensor:
#      x y z
#    x 4.342550 0.000000 0.069210 
#    y 0.000000 4.063910 0.000010 
#    z 0.069210 0.000010 3.639410 
# 
# 
# High freq. dielectric constant tensor:
#      x y z
#    x 1.857090 0.000000 -0.000810 
#    y 0.000000 1.851460 0.000000 
#    z -0.000810 0.000000 1.828550 
# 
# From -- ./inp_files/89406.got.cif
#   From: 2010.06.25/outbox.cif.g09.slc.cpg/sg15_45_cif.got.tgz:89406.got - 2010.06.28 07:06:18.
