data_PCOD8148847
_publ_section_title
;
Structure prediction by ZEFSAII (Michael W. Deem and Ramdas Pophale) SiO2 
 PCOD8148847
Probable space group: C 2/C
;
_chemical_formula_sum "Si O2"
_cell_formula_units_Z 48
_cell_length_a 8.746939
_cell_length_b 11.134756
_cell_length_c 21.716104
_cell_angle_alpha 90.000000
_cell_angle_beta 72.622267
_cell_angle_gamma 90.000000
_cell_volume 2018.502720
_symmetry_space_group_name_H-M "C 2/C"
_symmetry_group_IT_number 15
_symmetry_cell_setting 'monoclinic'
loop_
_space_group_symop_operation_xyz
x,y,z
-x,y,1/2-z
-x,-y,-z
x,-y,1/2+z
1/2+x,1/2+y,z
1/2-x,1/2+y,1/2-z
1/2-x,1/2-y,-z
1/2+x,1/2-y,1/2+z
loop_
_atom_site_type_symbol
_atom_site_label
_atom_site_fract_x
_atom_site_fract_y
_atom_site_fract_z
Si Si1 0.344106 0.965201 0.202945
Si Si2 0.280899 0.191165 0.561270
Si Si3 0.872919 0.966314 0.876695
Si Si4 0.992031 0.708800 0.322639
Si Si5 0.302088 0.416788 0.153373
Si Si6 0.938592 0.300151 0.392016
O O1 0.176904 0.992458 0.186634
O O2 0.468522 0.070074 0.169838
O O3 0.317914 0.964072 0.279093
O O4 0.419312 0.837317 0.173107
O O5 0.250000 0.250000 0.500000
O O6 0.179634 0.261386 0.626067
O O7 0.472959 0.198988 0.552319
O O8 0.232310 0.049883 0.564721
O O9 0.850695 0.825727 0.889759
O O10 0.059346 0.986076 0.869871
O O11 0.000000 0.742424 0.250000
O O12 0.128445 0.787736 0.337707
O O13 0.203035 0.398691 0.101348
#
# Coordination Sequence:
#
# PCOD8148847 Si02
#       6
#     8   8   8   8   8   8
#     4  11  23  37  62 101 139 175 223 275 342 408
#     4  10  25  48  70  96 134 182 233 287 343 405
#     4  10  23  43  64  95 137 176 225 279 336 404
#     4  11  22  41  66  98 137 175 221 282 341 404
#     4  11  22  37  63  98 135 176 220 276 336 403
#     4  11  23  40  66  92 131 177 227 277 340 409
#
# _framework density 23.780004000000002
#
# number of rings (size 3 to 8) (size 9 to 14) (size 15 to 20)
#    0.000    1.333    1.667    5.000    7.000    2.000 
#    0.000    6.667    0.000    0.000    0.000    0.000 
#    0.000    0.000    0.000    0.000    0.000    0.000 
#
# Total GULP energy -297405.143017 kJ/mol
# GULP energy per Si atom -12391.880959 kJ/mol
# Density = 2.372588 g / cm^3
# Si number density = 23.780004 Si / 1000 Ang^3
#
#
#
# Elastic Constant Matrix: (Units=GPa)
#
#
# Indices 1 2 3 4 5 6 
#
# 1 124.6556 13.1353 16.7639 0.0000 28.1419 0.0000
# 2 13.1353 85.0881 -10.0664 0.0000 -12.6839 0.0000
# 3 16.7639 -10.0664 58.1264 0.0000 13.8788 0.0000
# 4 0.0000 0.0000 0.0000 10.9616 0.0000 -3.5457
# 5 28.1419 -12.6839 13.8788 0.0000 31.3164 0.0000
# 6 0.0000 0.0000 0.0000 -3.5457 0.0000 42.5265
#
#
#
# Elastic Compliance Matrix: (Units=1/GPa)
#
#
# Indices 1 2 3 4 5 6 
#
# 1 0.010963 -0.003431 -0.001199 0.000000 -0.010710 0.000000
# 2 -0.003431 0.013641 0.001450 0.000000 0.007965 0.000000
# 3 -0.001199 0.001450 0.019463 0.000000 -0.006961 0.000000
# 4 0.000000 0.000000 0.000000 0.093756 0.000000 0.007817
# 5 -0.010710 0.007965 -0.006961 0.000000 0.047867 0.000000
# 6 0.000000 0.000000 0.000000 0.007817 0.000000 0.024166
#
#
# Mechanical properties :
#
#
# Convention : Reuss Voigt Hill
#
# Bulk Modulus (GPa) = 26.51977 34.17064 30.34521
# Shear Modulus (GPa) = 21.85468 33.49672 27.67570
#
# Velocity S-wave (km/s) = 3.03485 3.75722 3.41519
# Velocity P-wave (km/s) = 4.84322 5.76393 5.32352
#
# Compressibility (1/GPa) = 0.03770772
#
# Stress axis : x y z
#
# Youngs Moduli (GPa) = 91.21967 73.30846 51.38009
#
# Poissons Ratio (x) = 0.25149 0.06159
# Poissons Ratio (y) = 0.31294 -0.07450
# Poissons Ratio (z) = 0.10934 -0.10629
#
# Static dielectric constant tensor:
#      x y z
#    x 4.653610 0.000000 0.270440 
#    y 0.000000 4.291310 0.000000 
#    z 0.270440 0.000000 3.776690 
# 
# 
# High freq. dielectric constant tensor:
#      x y z
#    x 1.971530 0.000000 0.025030 
#    y 0.000000 1.952970 0.000000 
#    z 0.025030 0.000000 1.882560 
# 
# From -- ./inp_files/263107.got.cif
#   From: 2010.06.25/outbox.cif.g09.slc.cpg/sg15_132_cif.got.tgz:263107.got - 2010.06.28 07:06:18.
