data_PCOD8148349
_publ_section_title
;
Structure prediction by ZEFSAII (Michael W. Deem and Ramdas Pophale) SiO2 
 PCOD8148349
Probable space group: C 2/C
;
_chemical_formula_sum "Si O2"
_cell_formula_units_Z 52
_cell_length_a 8.471287
_cell_length_b 18.579714
_cell_length_c 21.838538
_cell_angle_alpha 90.000000
_cell_angle_beta 46.626028
_cell_angle_gamma 90.000000
_cell_volume 2498.496335
_symmetry_space_group_name_H-M "C 2/C"
_symmetry_group_IT_number 15
_symmetry_cell_setting 'monoclinic'
loop_
_space_group_symop_operation_xyz
x,y,z
-x,y,1/2-z
-x,-y,-z
x,-y,1/2+z
1/2+x,1/2+y,z
1/2-x,1/2+y,1/2-z
1/2-x,1/2-y,-z
1/2+x,1/2-y,1/2+z
loop_
_atom_site_type_symbol
_atom_site_label
_atom_site_fract_x
_atom_site_fract_y
_atom_site_fract_z
Si Si1 0.747164 0.988184 0.121026
Si Si2 0.100892 0.811373 0.623417
Si Si3 0.254594 0.046277 0.748200
Si Si4 0.500000 0.570577 0.250000
Si Si5 0.681741 0.709814 0.749381
Si Si6 0.014965 0.888436 0.524175
Si Si7 0.999228 0.228416 0.932499
O O1 0.863037 0.960604 0.153759
O O2 0.502557 0.967753 0.193758
O O3 0.825864 0.954129 0.035580
O O4 0.787952 0.074811 0.106023
O O5 0.108869 0.836769 0.551225
O O6 0.339547 0.780452 0.573067
O O7 0.066297 0.879971 0.675602
O O8 0.909476 0.752336 0.682386
O O9 0.219845 0.125072 0.728231
O O10 0.190639 0.983561 0.718178
O O11 0.500000 0.738000 0.750000
O O12 0.588670 0.724340 0.840710
O O13 0.996444 0.848352 0.464997
O O14 0.750000 0.250000 0.000000
#
# Coordination Sequence:
#
# PCOD8148349 Si02
#       7
#     8   8   8   4   8   8   8
#     4  10  23  40  72  96 135 179 228 279 355 418
#     4  12  26  46  72 100 141 185 238 294 350 418
#     4  11  23  44  69  99 138 185 228 284 342 428
#     4  12  24  44  70 102 136 176 242 290 342 412
#     4  12  25  45  72 102 138 188 237 285 352 426
#     4  11  23  44  66 103 134 178 228 290 354 413
#     4  12  26  43  66 101 141 178 231 293 355 411
#
# _framework density 20.812519999999999
#
# number of rings (size 3 to 8) (size 9 to 14) (size 15 to 20)
#    0.000    0.615    5.385    2.308    4.308    2.462 
#    0.000    0.769    0.000    0.000    0.000    0.000 
#    0.000    0.000    0.000    0.000    0.000    0.000 
#
# Total GULP energy -322225.312532 kJ/mol
# GULP energy per Si atom -12393.281251 kJ/mol
# Density = 2.076515 g / cm^3
# Si number density = 20.812520 Si / 1000 Ang^3
#
#
#
# Elastic Constant Matrix: (Units=GPa)
#
#
# Indices 1 2 3 4 5 6 
#
# 1 118.4657 53.1833 50.9164 0.0007 -4.3348 0.0003
# 2 53.1833 127.0924 41.3090 0.0002 -1.1857 0.0007
# 3 50.9164 41.3090 98.0202 -0.0009 9.2840 0.0024
# 4 0.0007 0.0002 -0.0009 34.1596 0.0006 8.5880
# 5 -4.3348 -1.1857 9.2840 0.0006 39.1556 -0.0010
# 6 0.0003 0.0007 0.0024 8.5880 -0.0010 40.6365
#
#
#
# Elastic Compliance Matrix: (Units=1/GPa)
#
#
# Indices 1 2 3 4 5 6 
#
# 1 0.012302 -0.003443 -0.005175 -0.000001 0.002485 0.000000
# 2 -0.003443 0.010137 -0.002534 0.000000 0.000527 0.000000
# 3 -0.005175 -0.002534 0.014341 0.000001 -0.004050 -0.000001
# 4 -0.000001 0.000000 0.000001 0.030917 -0.000001 -0.006534
# 5 0.002485 0.000527 -0.004050 -0.000001 0.026790 0.000001
# 6 0.000000 0.000000 -0.000001 -0.006534 0.000001 0.025989
#
#
# Mechanical properties :
#
#
# Convention : Reuss Voigt Hill
#
# Bulk Modulus (GPa) = 69.06894 70.48842 69.77868
# Shear Modulus (GPa) = 33.87407 36.00165 34.93786
#
# Velocity S-wave (km/s) = 4.03871 4.16361 4.10163
# Velocity P-wave (km/s) = 7.41664 7.55354 7.48540
#
# Compressibility (1/GPa) = 0.01447829
#
# Stress axis : x y z
#
# Youngs Moduli (GPa) = 81.28918 98.64435 69.72862
#
# Poissons Ratio (x) = 0.33961 0.36081
# Poissons Ratio (y) = 0.27986 0.17668
# Poissons Ratio (z) = 0.42064 0.24995
#
# Static dielectric constant tensor:
#      x y z
#    x 3.732750 -0.000020 0.358950 
#    y -0.000020 3.951360 0.000020 
#    z 0.358950 0.000020 4.232630 
# 
# 
# High freq. dielectric constant tensor:
#      x y z
#    x 1.814190 0.000000 0.014970 
#    y 0.000000 1.828040 0.000000 
#    z 0.014970 0.000000 1.822930 
# 
# From -- ./inp_files/190458.got.cif
#   From: 2010.06.25/outbox.cif.g09.slc.cpg/sg15_96_cif.got.tgz:190458.got - 2010.06.28 07:06:18.
