data_PCOD8148495
_publ_section_title
;
Structure prediction by ZEFSAII (Michael W. Deem and Ramdas Pophale) SiO2 
 PCOD8148495
Probable space group: C 2/C
;
_chemical_formula_sum "Si O2"
_cell_formula_units_Z 44
_cell_length_a 16.664114
_cell_length_b 12.375703
_cell_length_c 29.074474
_cell_angle_alpha 90.000000
_cell_angle_beta 160.089141
_cell_angle_gamma 90.000000
_cell_volume 2041.995327
_symmetry_space_group_name_H-M "C 2/C"
_symmetry_group_IT_number 15
_symmetry_cell_setting 'monoclinic'
loop_
_space_group_symop_operation_xyz
x,y,z
-x,y,1/2-z
-x,-y,-z
x,-y,1/2+z
1/2+x,1/2+y,z
1/2-x,1/2+y,1/2-z
1/2-x,1/2-y,-z
1/2+x,1/2-y,1/2+z
loop_
_atom_site_type_symbol
_atom_site_label
_atom_site_fract_x
_atom_site_fract_y
_atom_site_fract_z
Si Si1 0.400212 0.438691 0.646710
Si Si2 0.275570 0.335195 0.054145
Si Si3 0.936150 0.734013 0.559066
Si Si4 0.007156 0.873710 0.509841
Si Si5 0.281729 0.773125 0.817663
Si Si6 0.000000 0.716610 0.250000
O O1 0.500000 0.477199 0.750000
O O2 0.345237 0.539746 0.582677
O O3 0.154753 0.370068 0.519083
O O4 0.594129 0.364106 0.728343
O O5 0.487949 0.291874 0.199179
O O6 0.250000 0.250000 0.000000
O O7 0.026766 0.336066 0.946020
O O8 0.750000 0.750000 0.500000
O O9 0.961403 0.835546 0.537697
O O10 0.191706 0.716660 0.721405
O O11 0.266006 0.852384 0.629548
O O12 0.805817 0.818463 0.369708
O O13 0.000000 0.000000 0.500000
#
# Coordination Sequence:
#
# PCOD8148495 Si02
#       6
#     8   8   8   8   8   4
#     4  11  22  43  72  97 131 183 240 291 346 419
#     4  11  24  41  64  97 139 174 225 291 357 427
#     4  10  23  41  68 102 137 178 241 298 349 428
#     4  11  24  43  69 100 145 191 239 302 373 441
#     4  10  24  41  66 102 134 185 234 289 356 432
#     4  10  24  40  60  94 132 180 226 286 358 432
#
# _framework density 21.547550000000001
#
# number of rings (size 3 to 8) (size 9 to 14) (size 15 to 20)
#    0.000    1.455    2.727    1.091    0.000   15.273 
#    0.000    0.000    0.000    0.000    0.000    0.000 
#    0.000    0.000    0.000    0.000    0.000    0.000 
#
# Total GULP energy -272565.329091 kJ/mol
# GULP energy per Si atom -12389.333140 kJ/mol
# Density = 2.149851 g / cm^3
# Si number density = 21.547550 Si / 1000 Ang^3
#
#
#
# Elastic Constant Matrix: (Units=GPa)
#
#
# Indices 1 2 3 4 5 6 
#
# 1 90.3680 53.1326 26.9678 0.0022 -21.0414 -0.0013
# 2 53.1326 179.9902 64.0134 0.0089 -10.1998 -0.0008
# 3 26.9678 64.0134 123.2752 0.0457 -29.2077 -0.0043
# 4 0.0022 0.0089 0.0457 33.2963 0.0013 -5.5288
# 5 -21.0414 -10.1998 -29.2077 0.0013 40.8315 0.0007
# 6 -0.0013 -0.0008 -0.0043 -5.5288 0.0007 34.3577
#
#
#
# Elastic Compliance Matrix: (Units=1/GPa)
#
#
# Indices 1 2 3 4 5 6 
#
# 1 0.015044 -0.004252 0.000605 -0.000001 0.007123 0.000000
# 2 -0.004252 0.008050 -0.003965 0.000004 -0.003016 0.000000
# 3 0.000605 -0.003965 0.011893 -0.000016 0.007829 -0.000001
# 4 -0.000001 0.000004 -0.000016 0.030858 -0.000012 0.004966
# 5 0.007123 -0.003016 0.007829 -0.000012 0.033008 -0.000001
# 6 0.000000 0.000000 -0.000001 0.004966 -0.000001 0.029905
#
#
# Mechanical properties :
#
#
# Convention : Reuss Voigt Hill
#
# Bulk Modulus (GPa) = 50.59983 75.76233 63.18108
# Shear Modulus (GPa) = 33.20696 38.33173 35.76934
#
# Velocity S-wave (km/s) = 3.92995 4.22232 4.07875
# Velocity P-wave (km/s) = 6.64278 7.68163 7.18102
#
# Compressibility (1/GPa) = 0.01976291
#
# Stress axis : x y z
#
# Youngs Moduli (GPa) = 66.47101 124.21933 84.08098
#
# Poissons Ratio (x) = 0.52823 -0.05085
# Poissons Ratio (y) = 0.28266 0.33336
# Poissons Ratio (z) = -0.04020 0.49249
#
# Static dielectric constant tensor:
#      x y z
#    x 3.870950 0.000010 -0.280050 
#    y 0.000010 3.985950 -0.000050 
#    z -0.280050 -0.000050 5.020700 
# 
# 
# High freq. dielectric constant tensor:
#      x y z
#    x 1.835940 0.000000 -0.007270 
#    y 0.000000 1.837840 0.000000 
#    z -0.007270 0.000000 1.873000 
# 
# From -- ./inp_files/104079.got.cif
#   From: 2010.06.25/outbox.cif.g09.slc.cpg/sg15_53_cif.got.tgz:104079.got - 2010.06.28 07:06:18.
