data_PCOD8148170
_publ_section_title
;
Structure prediction by ZEFSAII (Michael W. Deem and Ramdas Pophale) SiO2 
 PCOD8148170
Probable space group: C 2/C
;
_chemical_formula_sum "Si O2"
_cell_formula_units_Z 56
_cell_length_a 29.873134
_cell_length_b 13.986181
_cell_length_c 11.836047
_cell_angle_alpha 90.000000
_cell_angle_beta 31.432238
_cell_angle_gamma 90.000000
_cell_volume 2578.887737
_symmetry_space_group_name_H-M "C 2/C"
_symmetry_group_IT_number 15
_symmetry_cell_setting 'monoclinic'
loop_
_space_group_symop_operation_xyz
x,y,z
-x,y,1/2-z
-x,-y,-z
x,-y,1/2+z
1/2+x,1/2+y,z
1/2-x,1/2+y,1/2-z
1/2-x,1/2-y,-z
1/2+x,1/2-y,1/2+z
loop_
_atom_site_type_symbol
_atom_site_label
_atom_site_fract_x
_atom_site_fract_y
_atom_site_fract_z
Si Si1 0.128002 0.723484 0.267292
Si Si2 0.732564 0.079085 0.388628
Si Si3 0.364159 0.537537 0.272458
Si Si4 0.596917 0.999797 0.834974
Si Si5 0.986283 0.124100 0.413338
Si Si6 0.760212 0.751662 0.671341
Si Si7 0.786658 0.432139 0.243115
O O1 0.129550 0.609148 0.262938
O O2 0.036093 0.767137 0.502453
O O3 0.190749 0.773368 0.224559
O O4 0.150625 0.759536 0.090941
O O5 0.824108 0.096338 0.253341
O O6 0.650477 0.078742 0.647664
O O7 0.725701 0.151574 0.300621
O O8 0.727968 0.972278 0.349914
O O9 0.425150 0.603590 0.215034
O O10 0.281139 0.514204 0.528009
O O11 0.411572 0.444157 0.123114
O O12 0.616741 0.041603 0.918805
O O13 0.500000 0.000000 0.000000
O O14 0.000000 0.110866 0.250000
O O15 0.769706 0.680097 0.758127
#
# Coordination Sequence:
#
# PCOD8148170 Si02
#       7
#     8   8   8   8   8   8   8
#     4  11  23  42  66  98 132 179 234 274 329 429
#     4  11  22  42  66  94 127 176 219 282 335 395
#     4  10  23  39  64  95 133 165 222 281 336 398
#     4  11  26  43  64  97 140 174 225 281 346 407
#     4  11  23  40  64  98 134 173 217 280 341 400
#     4  11  23  41  71  96 126 181 234 271 338 405
#     4  11  22  44  67  94 129 181 221 282 334 405
#
# _framework density 21.714787000000001
#
# number of rings (size 3 to 8) (size 9 to 14) (size 15 to 20)
#    0.000    1.143    2.857    3.429    4.000    7.429 
#    0.000    1.429    0.000    0.000    0.000    0.000 
#    0.000    0.000    0.000    0.000    0.000    0.000 
#
# Total GULP energy -346880.324166 kJ/mol
# GULP energy per Si atom -12388.583006 kJ/mol
# Density = 2.166536 g / cm^3
# Si number density = 21.714787 Si / 1000 Ang^3
#
#
#
# Elastic Constant Matrix: (Units=GPa)
#
#
# Indices 1 2 3 4 5 6 
#
# 1 151.3284 42.9745 62.7880 0.0000 -9.9589 0.0000
# 2 42.9745 85.1226 31.5759 0.0000 1.5589 0.0000
# 3 62.7880 31.5759 79.6644 0.0000 -7.4926 0.0000
# 4 0.0000 0.0000 0.0000 33.9428 0.0000 8.4465
# 5 -9.9589 1.5589 -7.4926 0.0000 38.1329 0.0000
# 6 0.0000 0.0000 0.0000 8.4465 0.0000 35.0325
#
#
#
# Elastic Compliance Matrix: (Units=1/GPa)
#
#
# Indices 1 2 3 4 5 6 
#
# 1 0.010351 -0.002669 -0.006964 0.000000 0.001444 0.000000
# 2 -0.002669 0.014565 -0.003863 0.000000 -0.002051 0.000000
# 3 -0.006964 -0.003863 0.019782 0.000000 0.002226 0.000000
# 4 0.000000 0.000000 0.000000 0.031342 0.000000 -0.007557
# 5 0.001444 -0.002051 0.002226 0.000000 0.027122 0.000000
# 6 0.000000 0.000000 0.000000 -0.007557 0.000000 0.030367
#
#
# Mechanical properties :
#
#
# Convention : Reuss Voigt Hill
#
# Bulk Modulus (GPa) = 56.47626 65.64360 61.05993
# Shear Modulus (GPa) = 30.04390 33.34009 31.69200
#
# Velocity S-wave (km/s) = 3.72367 3.92262 3.82444
# Velocity P-wave (km/s) = 6.67475 7.12822 6.90521
#
# Compressibility (1/GPa) = 0.01770655
#
# Stress axis : x y z
#
# Youngs Moduli (GPa) = 96.61281 68.65539 50.55067
#
# Poissons Ratio (x) = 0.18321 0.35205
# Poissons Ratio (y) = 0.25782 0.19527
# Poissons Ratio (z) = 0.67285 0.26521
#
# Static dielectric constant tensor:
#      x y z
#    x 4.190760 0.000000 0.080690 
#    y 0.000000 3.616760 0.000000 
#    z 0.080690 0.000000 3.884430 
# 
# 
# High freq. dielectric constant tensor:
#      x y z
#    x 1.869180 0.000000 0.009990 
#    y 0.000000 1.843480 0.000000 
#    z 0.009990 0.000000 1.842680 
# 
# From -- ./inp_files/97007.got.cif
#   From: 2010.06.25/outbox.cif.g09.slc.cpg/sg15_49_cif.got.tgz:97007.got - 2010.06.28 07:06:18.
