data_PCOD8148648
_publ_section_title
;
Structure prediction by ZEFSAII (Michael W. Deem and Ramdas Pophale) SiO2 
 PCOD8148648
Probable space group: C 2/C
;
_chemical_formula_sum "Si O2"
_cell_formula_units_Z 40
_cell_length_a 22.082765
_cell_length_b 6.631819
_cell_length_c 22.402127
_cell_angle_alpha 90.000000
_cell_angle_beta 29.819731
_cell_angle_gamma 90.000000
_cell_volume 1631.436011
_symmetry_space_group_name_H-M "C 2/C"
_symmetry_group_IT_number 15
_symmetry_cell_setting 'monoclinic'
loop_
_space_group_symop_operation_xyz
x,y,z
-x,y,1/2-z
-x,-y,-z
x,-y,1/2+z
1/2+x,1/2+y,z
1/2-x,1/2+y,1/2-z
1/2-x,1/2-y,-z
1/2+x,1/2-y,1/2+z
loop_
_atom_site_type_symbol
_atom_site_label
_atom_site_fract_x
_atom_site_fract_y
_atom_site_fract_z
Si Si1 0.383307 0.143315 0.378581
Si Si2 0.668172 0.171342 0.677546
Si Si3 0.672876 0.377882 0.889194
Si Si4 0.866883 0.481502 0.515740
Si Si5 0.965986 0.151580 0.105957
O O1 0.500000 0.268756 0.250000
O O2 0.250000 0.250000 0.500000
O O3 0.373673 0.945916 0.345149
O O4 0.431191 0.081213 0.403001
O O5 0.771713 0.325283 0.568483
O O6 0.567186 0.311913 0.796253
O O7 0.713561 0.016100 0.690360
O O8 0.651747 0.378822 0.835826
O O9 0.550819 0.454725 0.027537
O O10 0.699028 0.150262 0.888002
O O11 0.960432 0.354241 0.476967
#
# Coordination Sequence:
#
# PCOD8148648 Si02
#       5
#     8   8   8   8   8
#     4  12  25  48  73 108 145 190 247 303 369 434
#     4  11  24  42  69 104 138 186 240 297 366 436
#     4  10  23  42  66 103 139 182 243 293 365 431
#     4  11  23  44  68  97 141 188 236 298 362 436
#     4  10  23  42  66 100 141 185 235 298 361 442
#
# _framework density 24.518274999999999
#
# number of rings (size 3 to 8) (size 9 to 14) (size 15 to 20)
#    0.000    1.200    4.000    1.200    2.800    3.200 
#    0.000    0.000    0.000    0.000    0.000    0.000 
#    0.000    0.000    0.000    0.000    0.000    0.000 
#
# Total GULP energy -247806.933532 kJ/mol
# GULP energy per Si atom -12390.346677 kJ/mol
# Density = 2.446247 g / cm^3
# Si number density = 24.518275 Si / 1000 Ang^3
#
#
#
# Elastic Constant Matrix: (Units=GPa)
#
#
# Indices 1 2 3 4 5 6 
#
# 1 74.6752 14.1486 -4.7028 0.0039 -0.5970 -0.0028
# 2 14.1486 75.9819 11.4185 -0.0164 2.5795 0.0073
# 3 -4.7028 11.4185 97.9051 -0.0026 -5.0086 0.0014
# 4 0.0039 -0.0164 -0.0026 33.0533 0.0046 9.7340
# 5 -0.5970 2.5795 -5.0086 0.0046 32.1458 -0.0015
# 6 -0.0028 0.0073 0.0014 9.7340 -0.0015 33.5068
#
#
#
# Elastic Compliance Matrix: (Units=1/GPa)
#
#
# Indices 1 2 3 4 5 6 
#
# 1 0.013988 -0.002781 0.001029 -0.000004 0.000643 0.000003
# 2 -0.002781 0.014005 -0.001842 0.000009 -0.001462 -0.000006
# 3 0.001029 -0.001842 0.010571 -0.000001 0.001814 0.000000
# 4 -0.000004 0.000009 -0.000001 0.033085 -0.000006 -0.009611
# 5 0.000643 -0.001462 0.001814 -0.000006 0.031520 0.000003
# 6 0.000003 -0.000006 0.000000 -0.009611 0.000003 0.032637
#
#
# Mechanical properties :
#
#
# Convention : Reuss Voigt Hill
#
# Bulk Modulus (GPa) = 31.87062 32.25452 32.06257
# Shear Modulus (GPa) = 32.58324 34.92103 33.75214
#
# Velocity S-wave (km/s) = 3.64941 3.77807 3.71430
# Velocity P-wave (km/s) = 5.54838 5.67588 5.61249
#
# Compressibility (1/GPa) = 0.03137686
#
# Stress axis : x y z
#
# Youngs Moduli (GPa) = 71.48855 71.40122 94.59823
#
# Poissons Ratio (x) = 0.19859 -0.09736
# Poissons Ratio (y) = 0.19883 0.17423
# Poissons Ratio (z) = -0.07358 0.13151
#
# Static dielectric constant tensor:
#      x y z
#    x 4.259280 -0.000030 -0.150900 
#    y -0.000030 4.450530 0.000030 
#    z -0.150900 0.000030 4.413320 
# 
# 
# High freq. dielectric constant tensor:
#      x y z
#    x 1.967460 0.000000 -0.003280 
#    y 0.000000 1.969190 0.000000 
#    z -0.003280 0.000000 1.971370 
# 
# From -- ./inp_files/283078.got.cif
#   From: 2010.06.25/outbox.cif.g09.slc.cpg/sg15_142_cif.got.tgz:283078.got - 2010.06.28 07:06:18.
