data_PCOD8148260
_publ_section_title
;
Structure prediction by ZEFSAII (Michael W. Deem and Ramdas Pophale) SiO2 
 PCOD8148260
Probable space group: C 2/C
;
_chemical_formula_sum "Si O2"
_cell_formula_units_Z 64
_cell_length_a 30.976044
_cell_length_b 14.939286
_cell_length_c 9.107189
_cell_angle_alpha 90.000000
_cell_angle_beta 45.784962
_cell_angle_gamma 90.000000
_cell_volume 3020.607346
_symmetry_space_group_name_H-M "C 2/C"
_symmetry_group_IT_number 15
_symmetry_cell_setting 'monoclinic'
loop_
_space_group_symop_operation_xyz
x,y,z
-x,y,1/2-z
-x,-y,-z
x,-y,1/2+z
1/2+x,1/2+y,z
1/2-x,1/2+y,1/2-z
1/2-x,1/2-y,-z
1/2+x,1/2-y,1/2+z
loop_
_atom_site_type_symbol
_atom_site_label
_atom_site_fract_x
_atom_site_fract_y
_atom_site_fract_z
Si Si1 0.862453 0.122029 0.415233
Si Si2 0.108195 0.358101 0.516265
Si Si3 0.467059 0.096673 0.053822
Si Si4 0.919677 0.307031 0.241016
Si Si5 0.834587 0.005256 0.733731
Si Si6 0.235434 0.091736 0.348148
Si Si7 0.259907 0.778096 0.307926
Si Si8 0.134272 0.558733 0.429262
O O1 0.908453 0.204296 0.308684
O O2 0.878347 0.057548 0.515697
O O3 0.792514 0.150950 0.604699
O O4 0.869934 0.072120 0.240326
O O5 0.054609 0.340369 0.758982
O O6 0.082396 0.322294 0.426604
O O7 0.174590 0.318502 0.381467
O O8 0.109674 0.464145 0.536285
O O9 0.405402 0.090213 0.111777
O O10 0.515680 0.158739 0.853617
O O11 0.500000 0.000000 0.000000
O O12 0.868177 0.369637 0.432433
O O13 0.782289 0.958643 0.760745
O O14 0.812178 0.076204 0.908719
O O15 0.244489 0.195787 0.293372
O O16 0.295780 0.050441 0.276029
O O17 0.250000 0.750000 0.500000
#
# Coordination Sequence:
#
# PCOD8148260 Si02
#       8
#     8   8   8   8   8   8   8   8
#     4  11  23  43  67  95 135 170 223 282 341 396
#     4  12  23  39  66  89 135 183 216 259 328 398
#     4  12  26  42  61  96 135 178 228 262 309 399
#     4  12  24  42  64  93 132 179 221 273 321 393
#     4  10  23  40  64  94 132 175 220 277 339 398
#     4  11  23  38  61  96 136 174 218 269 334 403
#     4  12  22  40  62  98 138 172 218 272 334 412
#     4  12  24  38  63  94 135 180 217 262 322 390
#
# _framework density 21.187792000000002
#
# number of rings (size 3 to 8) (size 9 to 14) (size 15 to 20)
#    0.000    0.500    6.250    2.250    5.250    1.500 
#    0.000    0.000    0.000    0.000    0.000   29.750 
#    0.000    0.000    0.000    0.000    0.000    0.000 
#
# Total GULP energy -396573.216098 kJ/mol
# GULP energy per Si atom -12392.913003 kJ/mol
# Density = 2.113957 g / cm^3
# Si number density = 21.187792 Si / 1000 Ang^3
#
#
#
# Elastic Constant Matrix: (Units=GPa)
#
#
# Indices 1 2 3 4 5 6 
#
# 1 57.4259 22.0931 24.6400 0.0000 6.6876 0.0000
# 2 22.0931 114.2915 39.7274 0.0000 2.5539 0.0000
# 3 24.6400 39.7274 90.9574 0.0000 5.0889 0.0000
# 4 0.0000 0.0000 0.0000 184.2992 0.0000 -96.9990
# 5 6.6876 2.5539 5.0889 0.0000 28.8880 0.0000
# 6 0.0000 0.0000 0.0000 -96.9990 0.0000 95.3071
#
#
#
# Elastic Compliance Matrix: (Units=1/GPa)
#
#
# Indices 1 2 3 4 5 6 
#
# 1 0.020638 -0.002399 -0.004330 0.000000 -0.003803 0.000000
# 2 -0.002399 0.010595 -0.003996 0.000000 0.000323 0.000000
# 3 -0.004330 -0.003996 0.013974 0.000000 -0.001106 0.000000
# 4 0.000000 0.000000 0.000000 0.011685 0.000000 0.011893
# 5 -0.003803 0.000323 -0.001106 0.000000 0.035663 0.000000
# 6 0.000000 0.000000 0.000000 0.011893 0.000000 0.022596
#
#
# Mechanical properties :
#
#
# Convention : Reuss Voigt Hill
#
# Bulk Modulus (GPa) = 42.09291 48.39951 45.24621
# Shear Modulus (GPa) = 34.59729 73.44649 54.02189
#
# Velocity S-wave (km/s) = 4.04528 5.89405 5.05490
# Velocity P-wave (km/s) = 6.45978 8.31940 7.44786
#
# Compressibility (1/GPa) = 0.02375697
#
# Stress axis : x y z
#
# Youngs Moduli (GPa) = 48.45537 94.38397 71.56054
#
# Poissons Ratio (x) = 0.22645 0.30985
# Poissons Ratio (y) = 0.11626 0.28593
# Poissons Ratio (z) = 0.20981 0.37713
#
# Static dielectric constant tensor:
#      x y z
#    x 3.800220 0.000000 0.064380 
#    y 0.000000 4.080520 0.000000 
#    z 0.064380 0.000000 3.969630 
# 
# 
# High freq. dielectric constant tensor:
#      x y z
#    x 1.820680 0.000000 0.016300 
#    y 0.000000 1.825690 0.000000 
#    z 0.016300 0.000000 1.829220 
# 
# From -- ./inp_files/70124.got.cif
#   From: 2010.06.25/outbox.cif.g09.slc.cpg/sg15_36_cif.got.tgz:70124.got - 2010.06.28 07:06:18.
