data_PCOD8148389
_publ_section_title
;
Structure prediction by ZEFSAII (Michael W. Deem and Ramdas Pophale) SiO2 
 PCOD8148389
Probable space group: C 2/C
;
_chemical_formula_sum "Si O2"
_cell_formula_units_Z 64
_cell_length_a 23.335171
_cell_length_b 14.421345
_cell_length_c 17.752291
_cell_angle_alpha 90.000000
_cell_angle_beta 29.718747
_cell_angle_gamma 90.000000
_cell_volume 2961.608355
_symmetry_space_group_name_H-M "C 2/C"
_symmetry_group_IT_number 15
_symmetry_cell_setting 'monoclinic'
loop_
_space_group_symop_operation_xyz
x,y,z
-x,y,1/2-z
-x,-y,-z
x,-y,1/2+z
1/2+x,1/2+y,z
1/2-x,1/2+y,1/2-z
1/2-x,1/2-y,-z
1/2+x,1/2-y,1/2+z
loop_
_atom_site_type_symbol
_atom_site_label
_atom_site_fract_x
_atom_site_fract_y
_atom_site_fract_z
Si Si1 0.970143 0.386710 0.372521
Si Si2 0.787048 0.003945 0.136545
Si Si3 0.781934 0.130595 0.289278
Si Si4 0.312171 0.851395 0.859756
Si Si5 0.720490 0.348814 0.127255
Si Si6 0.959755 0.996802 0.131057
Si Si7 0.372231 0.167893 0.679635
Si Si8 0.547850 0.092621 0.061665
O O1 0.839330 0.350393 0.530834
O O2 0.983626 0.485563 0.396719
O O3 0.000000 0.387438 0.250000
O O4 0.061077 0.324722 0.316301
O O5 0.768330 0.057427 0.236657
O O6 0.715174 0.058082 0.156486
O O7 0.739009 0.899525 0.193670
O O8 0.921554 0.997312 0.956690
O O9 0.830595 0.228907 0.205454
O O10 0.871342 0.082385 0.246897
O O11 0.284432 0.758871 0.843633
O O12 0.449712 0.852306 0.721142
O O13 0.235085 0.855771 0.021530
O O14 0.601262 0.398658 0.283972
O O15 0.825267 0.396124 0.050268
O O16 0.000000 0.000000 0.000000
O O17 0.458967 0.129713 0.516261
#
# Coordination Sequence:
#
# PCOD8148389 Si02
#       8
#     8   8   8   8   8   8   8   8
#     4  12  25  46  71  98 138 180 226 285 340 398
#     4  11  23  44  63 101 134 172 222 281 331 401
#     4  11  25  44  70  99 134 179 228 279 336 403
#     4  11  25  38  66  97 139 172 219 278 343 406
#     4  11  24  42  62 100 133 181 219 270 347 412
#     4  10  23  41  63  89 133 178 223 272 333 399
#     4  12  26  42  73 103 129 175 234 278 335 402
#     4  12  22  44  69  97 132 174 226 284 337 395
#
# _framework density 21.60988
#
# number of rings (size 3 to 8) (size 9 to 14) (size 15 to 20)
#    0.000    0.750    3.750    3.750    7.000    1.000 
#    0.000    0.000    0.000    0.000    0.000    0.000 
#    0.000    0.000    0.000    0.000    0.000    0.000 
#
# Total GULP energy -396790.272611 kJ/mol
# GULP energy per Si atom -12399.696019 kJ/mol
# Density = 2.156069 g / cm^3
# Si number density = 21.609880 Si / 1000 Ang^3
#
#
#
# Elastic Constant Matrix: (Units=GPa)
#
#
# Indices 1 2 3 4 5 6 
#
# 1 77.0667 28.8380 41.4643 0.0000 -8.2258 0.0000
# 2 28.8380 97.5777 28.7316 0.0000 1.5398 0.0000
# 3 41.4643 28.7316 125.4202 0.0000 -17.7460 0.0000
# 4 0.0000 0.0000 0.0000 33.0477 0.0000 0.5209
# 5 -8.2258 1.5398 -17.7460 0.0000 37.7390 0.0000
# 6 0.0000 0.0000 0.0000 0.5209 0.0000 17.4459
#
#
#
# Elastic Compliance Matrix: (Units=1/GPa)
#
#
# Indices 1 2 3 4 5 6 
#
# 1 0.016982 -0.003716 -0.004518 0.000000 0.001728 0.000000
# 2 -0.003716 0.011911 -0.001804 0.000000 -0.002144 0.000000
# 3 -0.004518 -0.001804 0.010446 0.000000 0.004001 0.000000
# 4 0.000000 0.000000 0.000000 0.030274 0.000000 -0.000904
# 5 0.001728 -0.002144 0.004001 0.000000 0.028843 0.000000
# 6 0.000000 0.000000 0.000000 -0.000904 0.000000 0.057347
#
#
# Mechanical properties :
#
#
# Convention : Reuss Voigt Hill
#
# Bulk Modulus (GPa) = 51.91073 55.34806 53.62940
# Shear Modulus (GPa) = 27.42738 31.04858 29.23798
#
# Velocity S-wave (km/s) = 3.56646 3.79460 3.68229
# Velocity P-wave (km/s) = 6.40573 6.69825 6.55362
#
# Compressibility (1/GPa) = 0.01926384
#
# Stress axis : x y z
#
# Youngs Moduli (GPa) = 58.88705 83.95422 95.72768
#
# Poissons Ratio (x) = 0.31194 0.43254
# Poissons Ratio (y) = 0.21880 0.17266
# Poissons Ratio (z) = 0.26608 0.15142
#
# Static dielectric constant tensor:
#      x y z
#    x 3.927590 0.000000 -0.352710 
#    y 0.000000 3.863960 0.000000 
#    z -0.352710 0.000000 4.320860 
# 
# 
# High freq. dielectric constant tensor:
#      x y z
#    x 1.837030 0.000000 -0.018510 
#    y 0.000000 1.849300 0.000000 
#    z -0.018510 0.000000 1.858640 
# 
# From -- ./inp_files/219705.got.cif
#   From: 2010.06.25/outbox.cif.g09.slc.cpg/sg15_110_cif.got.tgz:219705.got - 2010.06.28 07:06:18.
