data_PCOD8148238
_publ_section_title
;
Structure prediction by ZEFSAII (Michael W. Deem and Ramdas Pophale) SiO2 
 PCOD8148238
Probable space group: C 2/C
;
_chemical_formula_sum "Si O2"
_cell_formula_units_Z 40
_cell_length_a 22.478732
_cell_length_b 15.779059
_cell_length_c 8.481869
_cell_angle_alpha 90.000000
_cell_angle_beta 140.962853
_cell_angle_gamma 90.000000
_cell_volume 1894.801644
_symmetry_space_group_name_H-M "C 2/C"
_symmetry_group_IT_number 15
_symmetry_cell_setting 'monoclinic'
loop_
_space_group_symop_operation_xyz
x,y,z
-x,y,1/2-z
-x,-y,-z
x,-y,1/2+z
1/2+x,1/2+y,z
1/2-x,1/2+y,1/2-z
1/2-x,1/2-y,-z
1/2+x,1/2-y,1/2+z
loop_
_atom_site_type_symbol
_atom_site_label
_atom_site_fract_x
_atom_site_fract_y
_atom_site_fract_z
Si Si1 0.912243 0.777371 0.180244
Si Si2 0.483639 0.593171 0.400566
Si Si3 0.578754 0.893219 0.640781
Si Si4 0.380218 0.934778 0.124725
Si Si5 0.704261 0.665044 0.341339
O O1 0.878730 0.693497 0.203257
O O2 0.000000 0.753283 0.250000
O O3 0.937738 0.847660 0.360660
O O4 0.828371 0.815832 0.903651
O O5 0.500000 0.592409 0.250000
O O6 0.500000 0.500000 0.500000
O O7 0.380052 0.629927 0.224161
O O8 0.465989 0.882898 0.382420
O O9 0.627409 0.916038 0.576098
O O10 0.601463 0.965574 0.815188
O O11 0.282896 0.907960 0.004920
O O12 0.750000 0.750000 0.500000
#
# Coordination Sequence:
#
# PCOD8148238 Si02
#       5
#     8   8   8   8   8
#     4  10  23  42  68  96 135 180 223 278 346 410
#     4  11  25  48  75  99 138 188 229 283 355 425
#     4  10  23  40  67  93 138 179 223 268 358 400
#     4  10  23  40  62  99 132 176 222 282 331 415
#     4  11  25  44  68 102 137 175 237 288 339 407
#
# _framework density 21.110388
#
# number of rings (size 3 to 8) (size 9 to 14) (size 15 to 20)
#    0.000    1.600    0.000    4.200   14.000    4.000 
#    0.000    0.000    0.000    0.000    0.000    0.000 
#    0.000    0.000    0.000    0.000    0.000    0.000 
#
# Total GULP energy -248085.887895 kJ/mol
# GULP energy per Si atom -12404.294395 kJ/mol
# Density = 2.106234 g / cm^3
# Si number density = 21.110388 Si / 1000 Ang^3
#
#
#
# Elastic Constant Matrix: (Units=GPa)
#
#
# Indices 1 2 3 4 5 6 
#
# 1 119.7650 64.1893 71.7244 0.0000 -16.5027 0.0000
# 2 64.1893 141.9324 54.7670 0.0000 -13.3962 0.0000
# 3 71.7244 54.7670 112.9313 0.0000 -8.5834 0.0000
# 4 0.0000 0.0000 0.0000 45.6087 0.0000 -5.7965
# 5 -16.5027 -13.3962 -8.5834 0.0000 43.4338 0.0000
# 6 0.0000 0.0000 0.0000 -5.7965 0.0000 35.0449
#
#
#
# Elastic Compliance Matrix: (Units=1/GPa)
#
#
# Indices 1 2 3 4 5 6 
#
# 1 0.015404 -0.003671 -0.007761 0.000000 0.003187 0.000000
# 2 -0.003671 0.009695 -0.002283 0.000000 0.001144 0.000000
# 3 -0.007761 -0.002283 0.014836 0.000000 -0.000721 0.000000
# 4 0.000000 0.000000 0.000000 0.022396 0.000000 0.003704
# 5 0.003187 0.001144 -0.000721 0.000000 0.024445 0.000000
# 6 0.000000 0.000000 0.000000 0.003704 0.000000 0.029148
#
#
# Mechanical properties :
#
#
# Convention : Reuss Voigt Hill
#
# Bulk Modulus (GPa) = 79.96608 83.99891 81.98250
# Shear Modulus (GPa) = 33.89308 37.08067 35.48688
#
# Velocity S-wave (km/s) = 4.01124 4.19562 4.10447
# Velocity P-wave (km/s) = 7.70815 7.95913 7.83464
#
# Compressibility (1/GPa) = 0.01250530
#
# Stress axis : x y z
#
# Youngs Moduli (GPa) = 64.91739 103.14783 67.40193
#
# Poissons Ratio (x) = 0.37867 0.52310
# Poissons Ratio (y) = 0.23832 0.15388
# Poissons Ratio (z) = 0.50382 0.23549
#
# Static dielectric constant tensor:
#      x y z
#    x 3.332230 0.000000 0.025430 
#    y 0.000000 3.822000 0.000000 
#    z 0.025430 0.000000 2.726280 
# 
# 
# High freq. dielectric constant tensor:
#      x y z
#    x 1.822910 0.000000 -0.010520 
#    y 0.000000 1.836690 0.000000 
#    z -0.010520 0.000000 1.834860 
# 
# From -- ./inp_files/61754.got.cif
#   From: 2010.06.25/outbox.cif.g09.slc.cpg/sg15_31_cif.got.tgz:61754.got - 2010.06.28 07:06:18.
