data_PCOD8148806
_publ_section_title
;
Structure prediction by ZEFSAII (Michael W. Deem and Ramdas Pophale) SiO2 
 PCOD8148806
Probable space group: C 2/C
;
_chemical_formula_sum "Si O2"
_cell_formula_units_Z 44
_cell_length_a 19.119826
_cell_length_b 13.459086
_cell_length_c 10.401160
_cell_angle_alpha 90.000000
_cell_angle_beta 49.371846
_cell_angle_gamma 90.000000
_cell_volume 2031.399163
_symmetry_space_group_name_H-M "C 2/C"
_symmetry_group_IT_number 15
_symmetry_cell_setting 'monoclinic'
loop_
_space_group_symop_operation_xyz
x,y,z
-x,y,1/2-z
-x,-y,-z
x,-y,1/2+z
1/2+x,1/2+y,z
1/2-x,1/2+y,1/2-z
1/2-x,1/2-y,-z
1/2+x,1/2-y,1/2+z
loop_
_atom_site_type_symbol
_atom_site_label
_atom_site_fract_x
_atom_site_fract_y
_atom_site_fract_z
Si Si1 0.926693 0.700025 0.040918
Si Si2 0.442075 0.890435 0.934722
Si Si3 0.855349 0.781093 0.382200
Si Si4 0.168403 0.000947 0.030673
Si Si5 0.215671 0.460391 0.860831
Si Si6 0.000000 0.152424 0.250000
O O1 0.894931 0.767489 0.194626
O O2 0.836370 0.646443 0.087298
O O3 0.995365 0.615766 0.012767
O O4 0.988635 0.771902 0.880632
O O5 0.500000 0.942241 0.750000
O O6 0.408635 0.782139 0.925896
O O7 0.355568 0.953014 0.077846
O O8 0.750000 0.750000 0.500000
O O9 0.874796 0.895481 0.385396
O O10 0.246127 0.031773 0.040443
O O11 0.208073 0.984304 0.839220
O O12 0.090868 0.084796 0.138895
#
# Coordination Sequence:
#
# PCOD8148806 Si02
#       6
#     8   8   8   8   8   4
#     4  11  26  44  69 103 147 184 231 292 365 416
#     4  10  23  42  73 105 136 184 238 294 346 425
#     4  11  21  46  70 100 133 193 243 278 340 443
#     4  12  28  46  74 103 144 187 242 289 359 426
#     4  12  25  46  76 104 140 190 238 294 349 434
#     4  12  32  44  66 112 150 184 222 316 364 408
#
# _framework density 21.659948
#
# number of rings (size 3 to 8) (size 9 to 14) (size 15 to 20)
#    0.000    0.727    3.636    2.727   10.182    2.182 
#    0.000    0.000    0.000    0.000    0.000    0.000 
#    0.000    0.000    0.000    0.000    0.000    0.000 
#
# Total GULP energy -272669.713800 kJ/mol
# GULP energy per Si atom -12394.077900 kJ/mol
# Density = 2.161065 g / cm^3
# Si number density = 21.659948 Si / 1000 Ang^3
#
#
#
# Elastic Constant Matrix: (Units=GPa)
#
#
# Indices 1 2 3 4 5 6 
#
# 1 47.1998 -8.0505 21.3010 0.0000 -9.9259 0.0000
# 2 -8.0505 94.4511 40.0041 0.0000 -7.9500 0.0000
# 3 21.3010 40.0041 76.4900 0.0000 -9.3269 0.0000
# 4 0.0000 0.0000 0.0000 39.5440 0.0000 -33.8077
# 5 -9.9259 -7.9500 -9.3269 0.0000 31.3176 0.0000
# 6 0.0000 0.0000 0.0000 -33.8077 0.0000 71.0648
#
#
#
# Elastic Compliance Matrix: (Units=1/GPa)
#
#
# Indices 1 2 3 4 5 6 
#
# 1 0.029360 0.007995 -0.011389 0.000000 0.007943 0.000000
# 2 0.007995 0.015835 -0.010075 0.000000 0.003553 0.000000
# 3 -0.011389 -0.010075 0.021545 0.000000 0.000249 0.000000
# 4 0.000000 0.000000 0.000000 0.042625 0.000000 0.020278
# 5 0.007943 0.003553 0.000249 0.000000 0.035425 0.000000
# 6 0.000000 0.000000 0.000000 0.020278 0.000000 0.023718
#
#
# Mechanical properties :
#
#
# Convention : Reuss Voigt Hill
#
# Bulk Modulus (GPa) = 25.12427 36.07222 30.59825
# Shear Modulus (GPa) = 23.95630 39.37770 31.66700
#
# Velocity S-wave (km/s) = 3.32929 4.26842 3.82777
# Velocity P-wave (km/s) = 5.13844 6.40177 5.80457
#
# Compressibility (1/GPa) = 0.03980215
#
# Stress axis : x y z
#
# Youngs Moduli (GPa) = 34.05957 63.15074 46.41510
#
# Poissons Ratio (x) = -0.50488 0.52862
# Poissons Ratio (y) = -0.27230 0.46763
# Poissons Ratio (z) = 0.38790 0.63623
#
# Static dielectric constant tensor:
#      x y z
#    x 3.015410 0.000000 -1.148110 
#    y 0.000000 3.373260 0.000000 
#    z -1.148110 0.000000 2.614900 
# 
# 
# High freq. dielectric constant tensor:
#      x y z
#    x 1.856630 0.000000 -0.007210 
#    y 0.000000 1.857500 0.000000 
#    z -0.007210 0.000000 1.865570 
# 
# From -- ./inp_files/47385.got.cif
#   From: 2010.06.25/outbox.cif.g09.slc.cpg/sg15_24_cif.got.tgz:47385.got - 2010.06.28 07:06:18.
