data_PCOD8148796
_publ_section_title
;
Structure prediction by ZEFSAII (Michael W. Deem and Ramdas Pophale) SiO2 
 PCOD8148796
Probable space group: C 2/C
;
_chemical_formula_sum "Si O2"
_cell_formula_units_Z 64
_cell_length_a 25.812587
_cell_length_b 9.126629
_cell_length_c 19.461050
_cell_angle_alpha 90.000000
_cell_angle_beta 145.786557
_cell_angle_gamma 90.000000
_cell_volume 2577.857094
_symmetry_space_group_name_H-M "C 2/C"
_symmetry_group_IT_number 15
_symmetry_cell_setting 'monoclinic'
loop_
_space_group_symop_operation_xyz
x,y,z
-x,y,1/2-z
-x,-y,-z
x,-y,1/2+z
1/2+x,1/2+y,z
1/2-x,1/2+y,1/2-z
1/2-x,1/2-y,-z
1/2+x,1/2-y,1/2+z
loop_
_atom_site_type_symbol
_atom_site_label
_atom_site_fract_x
_atom_site_fract_y
_atom_site_fract_z
Si Si1 0.792654 0.104766 0.579483
Si Si2 0.137544 0.951165 0.962310
Si Si3 0.006179 0.590252 0.335974
Si Si4 0.829637 0.380939 0.987215
Si Si5 0.793095 0.759740 0.763694
Si Si6 0.953796 0.873253 0.028492
Si Si7 0.144477 0.189518 0.700543
Si Si8 0.159861 0.503278 0.265221
O O1 0.750000 0.250000 0.500000
O O2 0.828116 0.146229 0.692859
O O3 0.876850 0.039793 0.625304
O O4 0.718948 0.972641 0.505351
O O5 0.060290 0.990324 0.934714
O O6 0.138980 0.777760 0.950588
O O7 0.235879 0.012748 0.094722
O O8 0.907894 0.518033 0.244596
O O9 0.000000 0.636624 0.250000
O O10 0.080757 0.468612 0.437306
O O11 0.028970 0.730488 0.406587
O O12 0.761422 0.366853 0.847371
O O13 0.721586 0.653991 0.727759
O O14 0.858346 0.649740 0.793071
O O15 0.859756 0.859965 0.882282
O O16 0.044706 0.889721 0.078255
O O17 0.137901 0.365828 0.687946
#
# Coordination Sequence:
#
# PCOD8148796 Si02
#       8
#     8   8   8   8   8   8   8   8
#     4  12  23  44  79 103 143 196 253 300 376 446
#     4  11  23  47  67 107 152 186 244 306 387 446
#     4  11  25  45  74 112 144 190 265 308 378 451
#     4  11  27  44  73 107 149 200 233 319 378 448
#     4  11  25  47  71 105 158 192 263 293 393 447
#     4  11  26  44  79 108 148 204 245 322 362 452
#     4  11  25  42  74 110 138 201 253 311 367 441
#     4  10  23  42  72 103 142 196 239 318 361 452
#
# _framework density 24.826823000000001
#
# number of rings (size 3 to 8) (size 9 to 14) (size 15 to 20)
#    0.000    1.000    2.500    2.625   10.500    2.000 
#    6.750    3.125    0.000    0.000    0.000    0.000 
#    0.000    0.000    0.000    0.000    0.000    0.000 
#
# Total GULP energy -396752.705673 kJ/mol
# GULP energy per Si atom -12398.522052 kJ/mol
# Density = 2.477032 g / cm^3
# Si number density = 24.826823 Si / 1000 Ang^3
#
#
#
# Elastic Constant Matrix: (Units=GPa)
#
#
# Indices 1 2 3 4 5 6 
#
# 1 92.7127 0.8073 8.7713 0.0000 11.9946 0.0000
# 2 0.8073 105.5633 11.4854 0.0000 3.2018 0.0000
# 3 8.7713 11.4854 76.3991 0.0000 2.9834 0.0000
# 4 0.0000 0.0000 0.0000 27.0109 0.0000 9.1546
# 5 11.9946 3.2018 2.9834 0.0000 44.8543 0.0000
# 6 0.0000 0.0000 0.0000 9.1546 0.0000 29.1245
#
#
#
# Elastic Compliance Matrix: (Units=1/GPa)
#
#
# Indices 1 2 3 4 5 6 
#
# 1 0.011280 0.000134 -0.001200 0.000000 -0.002946 0.000000
# 2 0.000134 0.009648 -0.001441 0.000000 -0.000629 0.000000
# 3 -0.001200 -0.001441 0.013462 0.000000 -0.000472 0.000000
# 4 0.000000 0.000000 0.000000 0.041436 0.000000 -0.013025
# 5 -0.002946 -0.000629 -0.000472 0.000000 0.023158 0.000000
# 6 0.000000 0.000000 0.000000 -0.013025 0.000000 0.038429
#
#
# Mechanical properties :
#
#
# Convention : Reuss Voigt Hill
#
# Bulk Modulus (GPa) = 34.04347 35.20035 34.62191
# Shear Modulus (GPa) = 32.84717 37.10535 34.97626
#
# Velocity S-wave (km/s) = 3.64132 3.87016 3.75748
# Velocity P-wave (km/s) = 5.60546 5.84636 5.72718
#
# Compressibility (1/GPa) = 0.02937420
#
# Stress axis : x y z
#
# Youngs Moduli (GPa) = 88.65633 103.65018 74.28311
#
# Poissons Ratio (x) = -0.01385 0.08914
# Poissons Ratio (y) = -0.01185 0.10706
# Poissons Ratio (z) = 0.10639 0.14938
#
# Static dielectric constant tensor:
#      x y z
#    x 5.211630 0.000000 0.141300 
#    y 0.000000 4.638240 0.000000 
#    z 0.141300 0.000000 4.481320 
# 
# 
# High freq. dielectric constant tensor:
#      x y z
#    x 2.002410 0.000000 0.001220 
#    y 0.000000 1.998720 0.000000 
#    z 0.001220 0.000000 1.975450 
# 
# From -- ./inp_files/284451.got.cif
#   From: 2010.06.25/outbox.cif.g09.slc.cpg/sg15_143_cif.got.tgz:284451.got - 2010.06.28 07:06:18.
