data_PCOD8148348
_publ_section_title
;
Structure prediction by ZEFSAII (Michael W. Deem and Ramdas Pophale) SiO2 
 PCOD8148348
Probable space group: C 2/C
;
_chemical_formula_sum "Si O2"
_cell_formula_units_Z 44
_cell_length_a 15.112355
_cell_length_b 28.924176
_cell_length_c 8.914437
_cell_angle_alpha 90.000000
_cell_angle_beta 33.355996
_cell_angle_gamma 90.000000
_cell_volume 2142.510314
_symmetry_space_group_name_H-M "C 2/C"
_symmetry_group_IT_number 15
_symmetry_cell_setting 'monoclinic'
loop_
_space_group_symop_operation_xyz
x,y,z
-x,y,1/2-z
-x,-y,-z
x,-y,1/2+z
1/2+x,1/2+y,z
1/2-x,1/2+y,1/2-z
1/2-x,1/2-y,-z
1/2+x,1/2-y,1/2+z
loop_
_atom_site_type_symbol
_atom_site_label
_atom_site_fract_x
_atom_site_fract_y
_atom_site_fract_z
Si Si1 0.500000 0.759676 0.250000
Si Si2 0.171627 0.983243 0.473679
Si Si3 0.000000 0.210255 0.750000
Si Si4 0.667059 0.783173 0.303686
Si Si5 0.183796 0.549893 0.024234
Si Si6 0.500000 0.395923 0.750000
Si Si7 0.825884 0.145461 0.764102
O O1 0.548767 0.790450 0.327313
O O2 0.349395 0.726791 0.495464
O O3 0.214171 0.979169 0.240078
O O4 0.155375 0.930047 0.560324
O O5 0.310239 0.016172 0.341574
O O6 0.000000 0.008513 0.750000
O O7 0.886681 0.179278 0.807044
O O8 0.110074 0.241146 0.487399
O O9 0.676591 0.830440 0.386345
O O10 0.264558 0.599701 0.934370
O O11 0.000000 0.558693 0.250000
O O12 0.531362 0.365324 0.557644
#
# Coordination Sequence:
#
# PCOD8148348 Si02
#       7
#     4   8   4   8   8   4   8
#     4  10  23  40  72  80 121 171 214 248 328 363
#     4   9  20  40  65  88 121 164 202 243 315 379
#     4  12  26  37  66  92 129 171 212 261 318 364
#     4  11  23  44  61  95 119 174 209 267 305 379
#     4  11  23  38  65  94 127 161 200 266 309 370
#     4   8  21  39  64  88 120 168 204 259 290 395
#     4  11  24  39  63  93 133 158 217 258 311 369
#
# _framework density 20.536656000000001
#
# number of rings (size 3 to 8) (size 9 to 14) (size 15 to 20)
#    0.545    1.091    1.818    2.182    5.091    0.000 
#    0.000    0.000   16.000    0.000    0.000    0.000 
#    0.000    0.000    0.000    0.000    0.000    0.000 
#
# Total GULP energy -272609.957573 kJ/mol
# GULP energy per Si atom -12391.361708 kJ/mol
# Density = 2.048991 g / cm^3
# Si number density = 20.536656 Si / 1000 Ang^3
#
#
#
# Elastic Constant Matrix: (Units=GPa)
#
#
# Indices 1 2 3 4 5 6 
#
# 1 122.2592 58.9194 16.7747 0.0000 11.0371 0.0000
# 2 58.9194 111.2281 21.1036 0.0000 14.7753 0.0000
# 3 16.7747 21.1036 66.4023 0.0000 -2.6702 0.0000
# 4 0.0000 0.0000 0.0000 27.4325 0.0000 -12.9972
# 5 11.0371 14.7753 -2.6702 0.0000 24.7043 0.0000
# 6 0.0000 0.0000 0.0000 -12.9972 0.0000 32.8301
#
#
#
# Elastic Compliance Matrix: (Units=1/GPa)
#
#
# Indices 1 2 3 4 5 6 
#
# 1 0.011120 -0.005425 -0.001159 0.000000 -0.001849 0.000000
# 2 -0.005425 0.013218 -0.003064 0.000000 -0.005813 0.000000
# 3 -0.001159 -0.003064 0.016493 0.000000 0.004133 0.000000
# 4 0.000000 0.000000 0.000000 0.044869 0.000000 0.017763
# 5 -0.001849 -0.005813 0.004133 0.000000 0.045228 0.000000
# 6 0.000000 0.000000 0.000000 0.017763 0.000000 0.037492
#
#
# Mechanical properties :
#
#
# Convention : Reuss Voigt Hill
#
# Bulk Modulus (GPa) = 46.43918 54.83167 50.63542
# Shear Modulus (GPa) = 25.65504 30.53283 28.09393
#
# Velocity S-wave (km/s) = 3.53828 3.86002 3.70265
# Velocity P-wave (km/s) = 6.27332 6.82816 6.55661
#
# Compressibility (1/GPa) = 0.02153354
#
# Stress axis : x y z
#
# Youngs Moduli (GPa) = 89.93135 75.65660 60.63310
#
# Poissons Ratio (x) = 0.41041 0.07029
# Poissons Ratio (y) = 0.48785 0.18579
# Poissons Ratio (z) = 0.10426 0.23182
#
# Static dielectric constant tensor:
#      x y z
#    x 3.699840 0.000000 0.126550 
#    y 0.000000 3.712330 0.000000 
#    z 0.126550 0.000000 3.776120 
# 
# 
# High freq. dielectric constant tensor:
#      x y z
#    x 1.784840 0.000000 0.010690 
#    y 0.000000 1.800440 0.000000 
#    z 0.010690 0.000000 1.809870 
# 
# From -- ./inp_files/44201.got.cif
#   From: 2010.06.25/outbox.cif.g09.slc.cpg/sg15_23_cif.got.tgz:44201.got - 2010.06.28 07:06:18.
