data_PCOD8148156
_publ_section_title
;
Structure prediction by ZEFSAII (Michael W. Deem and Ramdas Pophale) SiO2 
 PCOD8148156
Probable space group: C 2/C
;
_chemical_formula_sum "Si O2"
_cell_formula_units_Z 56
_cell_length_a 21.654257
_cell_length_b 14.531483
_cell_length_c 10.637223
_cell_angle_alpha 90.000000
_cell_angle_beta 130.593165
_cell_angle_gamma 90.000000
_cell_volume 2541.691737
_symmetry_space_group_name_H-M "C 2/C"
_symmetry_group_IT_number 15
_symmetry_cell_setting 'monoclinic'
loop_
_space_group_symop_operation_xyz
x,y,z
-x,y,1/2-z
-x,-y,-z
x,-y,1/2+z
1/2+x,1/2+y,z
1/2-x,1/2+y,1/2-z
1/2-x,1/2-y,-z
1/2+x,1/2-y,1/2+z
loop_
_atom_site_type_symbol
_atom_site_label
_atom_site_fract_x
_atom_site_fract_y
_atom_site_fract_z
Si Si1 0.568670 0.951065 0.243280
Si Si2 0.485414 0.340428 0.413635
Si Si3 0.672142 0.837582 0.547712
Si Si4 0.920093 0.166799 0.094569
Si Si5 0.042266 0.634783 0.094089
Si Si6 0.125481 0.981506 0.350539
Si Si7 0.335062 0.579815 0.334850
O O1 0.500000 0.923798 0.250000
O O2 0.652840 0.907799 0.406933
O O3 0.576311 0.061922 0.241360
O O4 0.542113 0.905714 0.075189
O O5 0.432547 0.362178 0.467335
O O6 0.478409 0.232552 0.368522
O O7 0.442125 0.400967 0.248348
O O8 0.578175 0.370134 0.555997
O O9 0.658327 0.731620 0.486975
O O10 0.612553 0.854822 0.585033
O O11 0.765066 0.846705 0.712620
O O12 0.000000 0.223098 0.250000
O O13 0.917078 0.078385 0.178908
O O14 0.182015 0.959309 0.546715
O O15 0.171372 0.997153 0.277563
#
# Coordination Sequence:
#
# PCOD8148156 Si02
#       7
#     8   8   8   8   8   8   8
#     4   9  18  38  64  93 123 171 222 267 317 394
#     4  11  22  41  67  94 126 174 222 269 321 397
#     4  10  23  39  63  94 131 168 215 270 335 387
#     4  11  20  42  68  93 127 175 219 268 322 395
#     4   9  20  40  66  92 128 172 219 270 327 387
#     4  12  25  43  68  94 133 174 222 269 329 394
#     4  12  26  41  64 101 134 169 216 275 332 395
#
# _framework density 22.032568000000001
#
# number of rings (size 3 to 8) (size 9 to 14) (size 15 to 20)
#    0.000    1.429    2.857    3.857    2.000    1.714 
#    0.000    4.286    0.000    0.000    0.000    0.000 
#    0.000    0.000    0.000    0.000    0.000    0.000 
#
# Total GULP energy -347052.718348 kJ/mol
# GULP energy per Si atom -12394.739941 kJ/mol
# Density = 2.198242 g / cm^3
# Si number density = 22.032568 Si / 1000 Ang^3
#
#
#
# Elastic Constant Matrix: (Units=GPa)
#
#
# Indices 1 2 3 4 5 6 
#
# 1 35.4481 28.7276 40.1017 0.0000 -2.9877 0.0000
# 2 28.7276 158.8917 70.0415 0.0000 0.9934 0.0000
# 3 40.1017 70.0415 133.2395 0.0000 -2.0213 0.0000
# 4 0.0000 0.0000 0.0000 36.0259 0.0000 -5.6821
# 5 -2.9877 0.9934 -2.0213 0.0000 31.8063 0.0000
# 6 0.0000 0.0000 0.0000 -5.6821 0.0000 25.3158
#
#
#
# Elastic Compliance Matrix: (Units=1/GPa)
#
#
# Indices 1 2 3 4 5 6 
#
# 1 0.044050 -0.002818 -0.011724 0.000000 0.003481 0.000000
# 2 -0.002818 0.008381 -0.003569 0.000000 -0.000753 0.000000
# 3 -0.011724 -0.003569 0.012907 0.000000 -0.000170 0.000000
# 4 0.000000 0.000000 0.000000 0.028777 0.000000 0.006459
# 5 0.003481 -0.000753 -0.000170 0.000000 0.031780 0.000000
# 6 0.000000 0.000000 0.000000 0.006459 0.000000 0.040951
#
#
# Mechanical properties :
#
#
# Convention : Reuss Voigt Hill
#
# Bulk Modulus (GPa) = 34.34411 67.25788 50.80100
# Shear Modulus (GPa) = 23.49915 31.21018 27.35466
#
# Velocity S-wave (km/s) = 3.26937 3.76779 3.52739
# Velocity P-wave (km/s) = 5.46566 7.03713 6.30058
#
# Compressibility (1/GPa) = 0.02911707
#
# Stress axis : x y z
#
# Youngs Moduli (GPa) = 22.70129 119.31625 77.47458
#
# Poissons Ratio (x) = 0.33624 0.90830
# Poissons Ratio (y) = 0.06397 0.27651
# Poissons Ratio (z) = 0.26615 0.42585
#
# Static dielectric constant tensor:
#      x y z
#    x 3.729430 0.000000 -0.311240 
#    y 0.000000 4.072050 0.000000 
#    z -0.311240 0.000000 4.110300 
# 
# 
# High freq. dielectric constant tensor:
#      x y z
#    x 1.841050 0.000000 -0.021530 
#    y 0.000000 1.869560 0.000000 
#    z -0.021530 0.000000 1.865460 
# 
# From -- ./inp_files/123346.got.cif
#   From: 2010.06.25/outbox.cif.g09.slc.cpg/sg15_62_cif.got.tgz:123346.got - 2010.06.28 07:06:18.
