data_PCOD8148770
_publ_section_title
;
Structure prediction by ZEFSAII (Michael W. Deem and Ramdas Pophale) SiO2 
 PCOD8148770
Probable space group: C 2/C
;
_chemical_formula_sum "Si O2"
_cell_formula_units_Z 56
_cell_length_a 16.883590
_cell_length_b 9.497651
_cell_length_c 16.130676
_cell_angle_alpha 90.000000
_cell_angle_beta 69.030835
_cell_angle_gamma 90.000000
_cell_volume 2415.321552
_symmetry_space_group_name_H-M "C 2/C"
_symmetry_group_IT_number 15
_symmetry_cell_setting 'monoclinic'
loop_
_space_group_symop_operation_xyz
x,y,z
-x,y,1/2-z
-x,-y,-z
x,-y,1/2+z
1/2+x,1/2+y,z
1/2-x,1/2+y,1/2-z
1/2-x,1/2-y,-z
1/2+x,1/2-y,1/2+z
loop_
_atom_site_type_symbol
_atom_site_label
_atom_site_fract_x
_atom_site_fract_y
_atom_site_fract_z
Si Si1 0.598758 0.391386 0.503032
Si Si2 0.069426 0.051085 0.354248
Si Si3 0.762152 0.931692 0.927168
Si Si4 0.338471 0.343241 0.294038
Si Si5 0.081746 0.588446 0.446323
Si Si6 0.186094 0.278499 0.232472
Si Si7 0.593055 0.049414 0.247716
O O1 0.604221 0.514333 0.432911
O O2 0.532296 0.427812 0.601748
O O3 0.692864 0.370352 0.506851
O O4 0.565257 0.252215 0.469675
O O5 0.087127 0.926700 0.282176
O O6 0.113401 0.196058 0.310171
O O7 0.661566 0.961473 0.973722
O O8 0.768962 0.821078 0.849996
O O9 0.812135 0.075460 0.887325
O O10 0.256475 0.337827 0.267115
O O11 0.369649 0.189058 0.309397
O O12 0.100864 0.566230 0.343097
O O13 0.000000 0.500000 0.500000
O O14 0.146082 0.412577 0.200541
O O15 0.500000 0.023137 0.250000
#
# Coordination Sequence:
#
# PCOD8148770 Si02
#       7
#     8   8   8   8   8   8   8
#     4  11  24  43  72  99 138 184 228 280 348 421
#     4  10  23  42  70  94 135 182 225 276 345 404
#     4  11  25  43  74 100 131 185 239 276 343 415
#     4  11  22  45  68  95 140 173 230 285 335 397
#     4  12  25  46  65 101 146 177 222 294 349 412
#     4  11  22  44  70  99 134 184 229 285 333 406
#     4  12  26  42  70 106 136 177 228 285 348 400
#
# _framework density 23.185317000000001
#
# number of rings (size 3 to 8) (size 9 to 14) (size 15 to 20)
#    0.000    0.857    4.286    2.143    6.000    1.143 
#    2.571    0.714    0.000    0.000    0.000    0.000 
#    0.000    0.000    0.000    0.000    0.000    0.000 
#
# Total GULP energy -347346.147768 kJ/mol
# GULP energy per Si atom -12405.219563 kJ/mol
# Density = 2.313255 g / cm^3
# Si number density = 23.185317 Si / 1000 Ang^3
#
#
#
# Elastic Constant Matrix: (Units=GPa)
#
#
# Indices 1 2 3 4 5 6 
#
# 1 134.6752 15.1946 7.6452 0.0000 -6.1584 0.0000
# 2 15.1946 114.0398 12.7530 0.0000 -17.5887 0.0000
# 3 7.6452 12.7530 41.1081 0.0000 -13.8194 0.0000
# 4 0.0000 0.0000 0.0000 16.6709 0.0000 -3.8568
# 5 -6.1584 -17.5887 -13.8194 0.0000 36.8745 0.0000
# 6 0.0000 0.0000 0.0000 -3.8568 0.0000 37.7724
#
#
#
# Elastic Compliance Matrix: (Units=1/GPa)
#
#
# Indices 1 2 3 4 5 6 
#
# 1 0.007597 -0.000824 -0.000987 0.000000 0.000506 0.000000
# 2 -0.000824 0.009650 -0.001532 0.000000 0.003891 0.000000
# 3 -0.000987 -0.001532 0.028242 0.000000 0.009688 0.000000
# 4 0.000000 0.000000 0.000000 0.061436 0.000000 0.006273
# 5 0.000506 0.003891 0.009688 0.000000 0.032690 0.000000
# 6 0.000000 0.000000 0.000000 0.006273 0.000000 0.027115
#
#
# Mechanical properties :
#
#
# Convention : Reuss Voigt Hill
#
# Bulk Modulus (GPa) = 25.77163 40.11207 32.94185
# Shear Modulus (GPa) = 26.83094 35.21227 31.02160
#
# Velocity S-wave (km/s) = 3.40551 3.90132 3.66182
# Velocity P-wave (km/s) = 5.15781 6.13449 5.66722
#
# Compressibility (1/GPa) = 0.03880235
#
# Stress axis : x y z
#
# Youngs Moduli (GPa) = 131.62399 103.62542 35.40819
#
# Poissons Ratio (x) = 0.08537 0.03496
# Poissons Ratio (y) = 0.10844 0.05426
# Poissons Ratio (z) = 0.12995 0.15880
#
# Static dielectric constant tensor:
#      x y z
#    x 4.248180 0.000000 -0.140400 
#    y 0.000000 4.457420 0.000000 
#    z -0.140400 0.000000 4.076340 
# 
# 
# High freq. dielectric constant tensor:
#      x y z
#    x 1.926190 0.000000 -0.009610 
#    y 0.000000 1.927640 0.000000 
#    z -0.009610 0.000000 1.900870 
# 
# From -- ./inp_files/209524.got.cif
#   From: 2010.06.25/outbox.cif.g09.slc.cpg/sg15_105_cif.got.tgz:209524.got - 2010.06.28 07:06:18.
