data_PCOD8148192
_publ_section_title
;
Structure prediction by ZEFSAII (Michael W. Deem and Ramdas Pophale) SiO2 
 PCOD8148192
Probable space group: C 2/C
;
_chemical_formula_sum "Si O2"
_cell_formula_units_Z 48
_cell_length_a 16.005226
_cell_length_b 13.118552
_cell_length_c 13.426099
_cell_angle_alpha 90.000000
_cell_angle_beta 46.625659
_cell_angle_gamma 90.000000
_cell_volume 2049.092909
_symmetry_space_group_name_H-M "C 2/C"
_symmetry_group_IT_number 15
_symmetry_cell_setting 'monoclinic'
loop_
_space_group_symop_operation_xyz
x,y,z
-x,y,1/2-z
-x,-y,-z
x,-y,1/2+z
1/2+x,1/2+y,z
1/2-x,1/2+y,1/2-z
1/2-x,1/2-y,-z
1/2+x,1/2-y,1/2+z
loop_
_atom_site_type_symbol
_atom_site_label
_atom_site_fract_x
_atom_site_fract_y
_atom_site_fract_z
Si Si1 0.953086 0.828737 0.094254
Si Si2 0.236719 0.945658 0.343359
Si Si3 0.173851 0.365880 0.817878
Si Si4 0.500000 0.444101 0.250000
Si Si5 0.500000 0.219083 0.750000
Si Si6 0.053265 0.648235 0.913395
Si Si7 0.187400 0.113167 0.094174
O O1 0.896129 0.919668 0.074846
O O2 0.846576 0.749847 0.204365
O O3 0.012423 0.871914 0.144027
O O4 0.052248 0.768428 0.950317
O O5 0.319611 0.899585 0.188166
O O6 0.264879 0.905557 0.431409
O O7 0.256201 0.067908 0.320335
O O8 0.236061 0.363732 0.873299
O O9 0.043672 0.411993 0.942308
O O10 0.613154 0.511457 0.171798
O O11 0.516098 0.144918 0.829286
O O12 0.389684 0.288799 0.863507
#
# Coordination Sequence:
#
# PCOD8148192 Si02
#       7
#     8   8   8   4   4   8   8
#     4  10  24  44  68  96 137 177 226 274 342 391
#     4  12  22  44  67  98 132 177 226 276 335 406
#     4  10  23  44  64 100 129 181 217 276 334 401
#     4  11  24  46  63 104 138 178 225 276 331 408
#     4  11  20  38  63 102 126 162 217 282 329 388
#     4  10  23  39  67  94 136 168 223 278 334 395
#     4  11  23  38  72  97 133 172 224 277 339 387
#
# _framework density 23.424999
#
# number of rings (size 3 to 8) (size 9 to 14) (size 15 to 20)
#    1.000    0.333    3.333    2.500    0.000    5.333 
#    3.000    2.500    0.000    0.000    0.000    0.000 
#    0.000    0.000    0.000    0.000    0.000    0.000 
#
# Total GULP energy -297421.482472 kJ/mol
# GULP energy per Si atom -12392.561770 kJ/mol
# Density = 2.337168 g / cm^3
# Si number density = 23.424999 Si / 1000 Ang^3
#
#
#
# Elastic Constant Matrix: (Units=GPa)
#
#
# Indices 1 2 3 4 5 6 
#
# 1 56.1155 -5.1194 -16.7368 0.0000 5.9164 0.0000
# 2 -5.1194 46.2578 -10.4063 0.0000 -3.1673 0.0000
# 3 -16.7368 -10.4063 54.0866 0.0000 -3.6153 0.0000
# 4 0.0000 0.0000 0.0000 25.8193 0.0000 5.8564
# 5 5.9164 -3.1673 -3.6153 0.0000 31.8920 0.0000
# 6 0.0000 0.0000 0.0000 5.8564 0.0000 30.5350
#
#
#
# Elastic Compliance Matrix: (Units=1/GPa)
#
#
# Indices 1 2 3 4 5 6 
#
# 1 0.020477 0.003626 0.006856 0.000000 -0.002661 0.000000
# 2 0.003626 0.023482 0.005795 0.000000 0.002316 0.000000
# 3 0.006856 0.005795 0.021844 0.000000 0.001780 0.000000
# 4 0.000000 0.000000 0.000000 0.040492 0.000000 -0.007766
# 5 -0.002661 0.002316 0.001780 0.000000 0.032281 0.000000
# 6 0.000000 0.000000 0.000000 -0.007766 0.000000 0.034239
#
#
# Mechanical properties :
#
#
# Convention : Reuss Voigt Hill
#
# Bulk Modulus (GPa) = 10.16700 10.21499 10.19099
# Shear Modulus (GPa) = 28.89403 30.23073 29.56238
#
# Velocity S-wave (km/s) = 3.51589 3.59630 3.55632
# Velocity P-wave (km/s) = 4.56417 4.64916 4.60686
#
# Compressibility (1/GPa) = 0.09835747
#
# Stress axis : x y z
#
# Youngs Moduli (GPa) = 48.83595 42.58664 45.77832
#
# Poissons Ratio (x) = -0.15443 -0.31387
# Poissons Ratio (y) = -0.17710 -0.26528
# Poissons Ratio (z) = -0.33483 -0.24678
#
# Static dielectric constant tensor:
#      x y z
#    x 3.871540 0.000000 -0.166120 
#    y 0.000000 4.171860 0.000000 
#    z -0.166120 0.000000 4.344130 
# 
# 
# High freq. dielectric constant tensor:
#      x y z
#    x 1.904290 0.000000 -0.013190 
#    y 0.000000 1.926910 0.000000 
#    z -0.013190 0.000000 1.926270 
# 
# From -- ./inp_files/153844.got.cif
#   From: 2010.06.25/outbox.cif.g09.slc.cpg/sg15_77_cif.got.tgz:153844.got - 2010.06.28 07:06:18.
