data_PCOD8148845
_publ_section_title
;
Structure prediction by ZEFSAII (Michael W. Deem and Ramdas Pophale) SiO2 
 PCOD8148845
Probable space group: C 2/C
;
_chemical_formula_sum "Si O2"
_cell_formula_units_Z 48
_cell_length_a 29.508679
_cell_length_b 8.616614
_cell_length_c 9.944548
_cell_angle_alpha 90.000000
_cell_angle_beta 111.682914
_cell_angle_gamma 90.000000
_cell_volume 2349.636366
_symmetry_space_group_name_H-M "C 2/C"
_symmetry_group_IT_number 15
_symmetry_cell_setting 'monoclinic'
loop_
_space_group_symop_operation_xyz
x,y,z
-x,y,1/2-z
-x,-y,-z
x,-y,1/2+z
1/2+x,1/2+y,z
1/2-x,1/2+y,1/2-z
1/2-x,1/2-y,-z
1/2+x,1/2-y,1/2+z
loop_
_atom_site_type_symbol
_atom_site_label
_atom_site_fract_x
_atom_site_fract_y
_atom_site_fract_z
Si Si1 0.466005 0.508659 0.589559
Si Si2 0.808336 0.921140 0.857570
Si Si3 0.108339 0.752991 0.399460
Si Si4 0.619269 0.672665 0.612473
Si Si5 0.716764 0.890353 0.293560
Si Si6 0.339419 0.042904 0.498600
O O1 0.500000 0.465720 0.750000
O O2 0.500000 0.500000 0.500000
O O3 0.438750 0.675186 0.576649
O O4 0.424969 0.378048 0.531496
O O5 0.782067 0.796187 0.729332
O O6 0.844970 0.029274 0.812243
O O7 0.769088 0.034532 0.886919
O O8 0.840516 0.836580 0.007295
O O9 0.099007 0.763471 0.230259
O O10 0.113578 0.571706 0.444152
O O11 0.647468 0.797660 0.556596
O O12 0.679197 0.929244 0.370688
O O13 0.702267 0.965165 0.136142
#
# Coordination Sequence:
#
# PCOD8148845 Si02
#       6
#     8   8   8   8   8   8
#     4  11  23  43  72  99 126 164 208 261 324 396
#     4  10  25  38  64  94 129 174 223 267 319 374
#     4  10  23  43  64  94 133 166 212 269 326 376
#     4  11  23  42  66  93 133 166 215 267 327 383
#     4  11  24  39  63  94 132 173 226 263 313 380
#     4  11  24  42  64  94 131 177 213 265 323 373
#
# _framework density 20.428694
#
# number of rings (size 3 to 8) (size 9 to 14) (size 15 to 20)
#    0.000    1.333    3.333    1.000    7.000    4.000 
#    0.000    1.667    0.000    0.000    0.000    0.000 
#    0.000    0.000    0.000    0.000    0.000    0.000 
#
# Total GULP energy -297544.231936 kJ/mol
# GULP energy per Si atom -12397.676331 kJ/mol
# Density = 2.038220 g / cm^3
# Si number density = 20.428694 Si / 1000 Ang^3
#
#
#
# Elastic Constant Matrix: (Units=GPa)
#
#
# Indices 1 2 3 4 5 6 
#
# 1 108.1101 46.4312 35.8591 0.0000 -3.6907 0.0000
# 2 46.4312 116.5320 39.1431 0.0000 6.0652 0.0000
# 3 35.8591 39.1431 85.8727 0.0000 -8.6869 0.0000
# 4 0.0000 0.0000 0.0000 25.6994 0.0000 -0.1473
# 5 -3.6907 6.0652 -8.6869 0.0000 33.2532 0.0000
# 6 0.0000 0.0000 0.0000 -0.1473 0.0000 31.5099
#
#
#
# Elastic Compliance Matrix: (Units=1/GPa)
#
#
# Indices 1 2 3 4 5 6 
#
# 1 0.011954 -0.003765 -0.003155 0.000000 0.001189 0.000000
# 2 -0.003765 0.011648 -0.004103 0.000000 -0.003614 0.000000
# 3 -0.003155 -0.004103 0.015277 0.000000 0.004389 0.000000
# 4 0.000000 0.000000 0.000000 0.038912 0.000000 0.000182
# 5 0.001189 -0.003614 0.004389 0.000000 0.032010 0.000000
# 6 0.000000 0.000000 0.000000 0.000182 0.000000 0.031737
#
#
# Mechanical properties :
#
#
# Convention : Reuss Voigt Hill
#
# Bulk Modulus (GPa) = 59.40897 61.48685 60.44791
# Shear Modulus (GPa) = 29.55169 30.69790 30.12480
#
# Velocity S-wave (km/s) = 3.80752 3.88065 3.84426
# Velocity P-wave (km/s) = 6.96232 7.08822 7.02555
#
# Compressibility (1/GPa) = 0.01683248
#
# Stress axis : x y z
#
# Youngs Moduli (GPa) = 83.65393 85.85399 65.45830
#
# Poissons Ratio (x) = 0.32324 0.20654
# Poissons Ratio (y) = 0.31496 0.26856
# Poissons Ratio (z) = 0.26396 0.35224
#
# Static dielectric constant tensor:
#      x y z
#    x 3.615950 0.000000 0.154290 
#    y 0.000000 3.985010 0.000000 
#    z 0.154290 0.000000 3.706840 
# 
# 
# High freq. dielectric constant tensor:
#      x y z
#    x 1.786180 0.000000 0.000460 
#    y 0.000000 1.804230 0.000000 
#    z 0.000460 0.000000 1.803120 
# 
# From -- ./inp_files/116797.got.cif
#   From: 2010.06.25/outbox.cif.g09.slc.cpg/sg15_59_cif.got.tgz:116797.got - 2010.06.28 07:06:18.
