data_PCOD8148074
_publ_section_title
;
Structure prediction by ZEFSAII (Michael W. Deem and Ramdas Pophale) SiO2 
 PCOD8148074
Probable space group: C 2/C
;
_chemical_formula_sum "Si O2"
_cell_formula_units_Z 52
_cell_length_a 8.444951
_cell_length_b 20.185509
_cell_length_c 14.315335
_cell_angle_alpha 90.000000
_cell_angle_beta 90.958604
_cell_angle_gamma 90.000000
_cell_volume 2439.931131
_symmetry_space_group_name_H-M "C 2/C"
_symmetry_group_IT_number 15
_symmetry_cell_setting 'monoclinic'
loop_
_space_group_symop_operation_xyz
x,y,z
-x,y,1/2-z
-x,-y,-z
x,-y,1/2+z
1/2+x,1/2+y,z
1/2-x,1/2+y,1/2-z
1/2-x,1/2-y,-z
1/2+x,1/2-y,1/2+z
loop_
_atom_site_type_symbol
_atom_site_label
_atom_site_fract_x
_atom_site_fract_y
_atom_site_fract_z
Si Si1 0.705618 0.938920 0.655583
Si Si2 0.263208 0.155539 0.495532
Si Si3 0.689539 0.722497 0.857665
Si Si4 0.000000 0.455909 0.250000
Si Si5 0.986488 0.241996 0.463690
Si Si6 0.204200 0.117213 0.693664
Si Si7 0.000000 0.002743 0.750000
Si Si8 0.500000 0.830425 0.750000
O O1 0.716791 0.918809 0.546059
O O2 0.636665 0.874290 0.705011
O O3 0.589449 0.000726 0.672025
O O4 0.881625 0.955827 0.692049
O O5 0.131868 0.194880 0.431995
O O6 0.433813 0.190938 0.494979
O O7 0.187962 0.158582 0.598876
O O8 0.664468 0.661729 0.784714
O O9 0.592906 0.786206 0.824683
O O10 0.875798 0.739826 0.873503
O O11 0.619397 0.704180 0.958903
O O12 0.883364 0.407874 0.194686
O O13 0.095932 0.052000 0.683125
#
# Coordination Sequence:
#
# PCOD8148074 Si02
#       8
#     8   8   8   4   8   8   4   4
#     4  10  23  40  63  86 128 160 210 262 301 366
#     4  11  22  40  59  97 130 158 202 266 306 379
#     4  11  22  40  64  91 123 168 197 261 310 379
#     4   9  22  44  60  90 116 175 214 246 306 371
#     4  10  23  38  58  97 131 154 210 246 322 380
#     4  11  22  40  67  88 126 164 213 252 315 364
#     4  10  23  42  62  90 115 174 220 250 302 370
#     4  11  21  40  62  88 121 169 198 252 322 373
#
# _framework density 21.312076999999999
#
# number of rings (size 3 to 8) (size 9 to 14) (size 15 to 20)
#    0.000    1.538    1.538    3.231    4.308    1.231 
#    0.000    0.000    0.000    0.000    0.000    0.000 
#    0.000    0.000    0.000    0.000    0.000    0.000 
#
# Total GULP energy -322281.929003 kJ/mol
# GULP energy per Si atom -12395.458808 kJ/mol
# Density = 2.126357 g / cm^3
# Si number density = 21.312077 Si / 1000 Ang^3
#
#
#
# Elastic Constant Matrix: (Units=GPa)
#
#
# Indices 1 2 3 4 5 6 
#
# 1 135.8679 43.5217 27.4396 0.0000 24.8675 0.0000
# 2 43.5217 94.5391 34.2870 0.0000 11.5083 0.0000
# 3 27.4396 34.2870 83.7262 0.0000 -2.3294 0.0000
# 4 0.0000 0.0000 0.0000 26.0286 0.0000 0.9921
# 5 24.8675 11.5083 -2.3294 0.0000 29.3601 0.0000
# 6 0.0000 0.0000 0.0000 0.9921 0.0000 26.1005
#
#
#
# Elastic Compliance Matrix: (Units=1/GPa)
#
#
# Indices 1 2 3 4 5 6 
#
# 1 0.010166 -0.002890 -0.002361 0.000000 -0.007664 0.000000
# 2 -0.002890 0.014120 -0.004932 0.000000 -0.003478 0.000000
# 3 -0.002361 -0.004932 0.014879 0.000000 0.005114 0.000000
# 4 0.000000 0.000000 0.000000 0.038475 0.000000 -0.001462
# 5 -0.007664 -0.003478 0.005114 0.000000 0.042320 0.000000
# 6 0.000000 0.000000 0.000000 -0.001462 0.000000 0.038369
#
#
# Mechanical properties :
#
#
# Convention : Reuss Voigt Hill
#
# Bulk Modulus (GPa) = 53.19618 58.29220 55.74419
# Shear Modulus (GPa) = 27.03241 30.22350 28.62796
#
# Velocity S-wave (km/s) = 3.56534 3.76990 3.66905
# Velocity P-wave (km/s) = 6.47793 6.80887 6.64546
#
# Compressibility (1/GPa) = 0.01879834
#
# Stress axis : x y z
#
# Youngs Moduli (GPa) = 98.37069 70.81983 67.20673
#
# Poissons Ratio (x) = 0.20470 0.15868
# Poissons Ratio (y) = 0.28434 0.33146
# Poissons Ratio (z) = 0.23227 0.34928
#
# Static dielectric constant tensor:
#      x y z
#    x 4.140320 0.000000 0.041740 
#    y 0.000000 3.774250 0.000000 
#    z 0.041740 0.000000 3.640380 
# 
# 
# High freq. dielectric constant tensor:
#      x y z
#    x 1.862420 0.000000 -0.001660 
#    y 0.000000 1.830100 0.000000 
#    z -0.001660 0.000000 1.812350 
# 
# From -- ./inp_files/136021.got.cif
#   From: 2010.06.25/outbox.cif.g09.slc.cpg/sg15_69_cif.got.tgz:136021.got - 2010.06.28 07:06:18.
