data_PCOD8148052
_publ_section_title
;
Structure prediction by ZEFSAII (Michael W. Deem and Ramdas Pophale) SiO2 
 PCOD8148052
Probable space group: C 2/C
;
_chemical_formula_sum "Si O2"
_cell_formula_units_Z 60
_cell_length_a 25.608956
_cell_length_b 8.681363
_cell_length_c 13.926492
_cell_angle_alpha 90.000000
_cell_angle_beta 69.295955
_cell_angle_gamma 90.000000
_cell_volume 2896.194638
_symmetry_space_group_name_H-M "C 2/C"
_symmetry_group_IT_number 15
_symmetry_cell_setting 'monoclinic'
loop_
_space_group_symop_operation_xyz
x,y,z
-x,y,1/2-z
-x,-y,-z
x,-y,1/2+z
1/2+x,1/2+y,z
1/2-x,1/2+y,1/2-z
1/2-x,1/2-y,-z
1/2+x,1/2-y,1/2+z
loop_
_atom_site_type_symbol
_atom_site_label
_atom_site_fract_x
_atom_site_fract_y
_atom_site_fract_z
Si Si1 0.500000 0.926515 0.250000
Si Si2 0.448659 0.425719 0.215426
Si Si3 0.042909 0.163643 0.457142
Si Si4 0.891612 0.619762 0.265606
Si Si5 0.125247 0.573529 0.897680
Si Si6 0.313956 0.760155 0.984512
Si Si7 0.891142 0.991640 0.932250
Si Si8 0.560683 0.804280 0.033389
O O1 0.518043 0.816179 0.151196
O O2 0.445897 0.027531 0.262686
O O3 0.500000 0.376708 0.250000
O O4 0.466043 0.525909 0.112542
O O5 0.413453 0.276977 0.203150
O O6 0.406337 0.524146 0.310352
O O7 0.087587 0.284595 0.387271
O O8 0.982723 0.242683 0.519479
O O9 0.062349 0.099244 0.546901
O O10 0.856668 0.524306 0.207613
O O11 0.850178 0.653444 0.380094
O O12 0.178079 0.640163 0.922645
O O13 0.087349 0.466693 0.991037
O O14 0.332842 0.581880 0.985227
O O15 0.250000 0.750000 0.000000
O O16 0.890125 0.820531 0.978580
#
# Coordination Sequence:
#
# PCOD8148052 Si02
#       8
#     4   8   8   8   8   8   8   8
#     4  12  22  34  62  98 142 166 200 260 340 408
#     4  11  21  34  54  86 132 166 201 241 307 392
#     4  11  22  35  54  89 136 170 199 250 313 404
#     4  11  23  39  64  97 127 170 214 264 333 405
#     4  11  24  38  64  94 125 171 221 270 334 389
#     4  10  24  50  68  87 126 174 228 288 327 371
#     4  10  23  37  60  89 120 171 212 248 324 386
#     4  12  21  35  58  95 137 167 205 254 325 408
#
# _framework density 20.716840000000001
#
# number of rings (size 3 to 8) (size 9 to 14) (size 15 to 20)
#    0.000    1.067    4.667    2.400    1.867    0.000 
#    0.000    7.333    0.000    0.000    0.000    0.000 
#    0.000    0.000    0.000    0.000    0.000    0.000 
#
# Total GULP energy -371887.783161 kJ/mol
# GULP energy per Si atom -12396.259439 kJ/mol
# Density = 2.066969 g / cm^3
# Si number density = 20.716840 Si / 1000 Ang^3
#
#
#
# Elastic Constant Matrix: (Units=GPa)
#
#
# Indices 1 2 3 4 5 6 
#
# 1 137.3718 45.4510 24.6744 0.0000 0.1304 0.0000
# 2 45.4510 84.6218 12.6403 0.0000 -2.6662 0.0000
# 3 24.6744 12.6403 58.3483 0.0000 4.1078 0.0000
# 4 0.0000 0.0000 0.0000 27.7382 0.0000 2.9874
# 5 0.1304 -2.6662 4.1078 0.0000 17.7290 0.0000
# 6 0.0000 0.0000 0.0000 2.9874 0.0000 24.9841
#
#
#
# Elastic Compliance Matrix: (Units=1/GPa)
#
#
# Indices 1 2 3 4 5 6 
#
# 1 0.009320 -0.004568 -0.002947 0.000000 -0.000073 0.000000
# 2 -0.004568 0.014561 -0.001402 0.000000 0.002548 0.000000
# 3 -0.002947 -0.001402 0.019012 0.000000 -0.004594 0.000000
# 4 0.000000 0.000000 0.000000 0.036522 0.000000 -0.004367
# 5 -0.000073 0.002548 -0.004594 0.000000 0.057853 0.000000
# 6 0.000000 0.000000 0.000000 -0.004367 0.000000 0.040548
#
#
# Mechanical properties :
#
#
# Convention : Reuss Voigt Hill
#
# Bulk Modulus (GPa) = 39.90564 49.54148 44.72356
# Shear Modulus (GPa) = 24.50967 27.26201 25.88584
#
# Velocity S-wave (km/s) = 3.44332 3.63152 3.53867
# Velocity P-wave (km/s) = 5.92561 6.44588 6.19122
#
# Compressibility (1/GPa) = 0.02505911
#
# Stress axis : x y z
#
# Youngs Moduli (GPa) = 107.29306 68.67864 52.59921
#
# Poissons Ratio (x) = 0.31373 0.15499
# Poissons Ratio (y) = 0.49013 0.07374
# Poissons Ratio (z) = 0.31615 0.09628
#
# Static dielectric constant tensor:
#      x y z
#    x 3.474770 0.000000 0.304940 
#    y 0.000000 3.989190 0.000000 
#    z 0.304940 0.000000 3.774820 
# 
# 
# High freq. dielectric constant tensor:
#      x y z
#    x 1.766720 0.000000 0.030220 
#    y 0.000000 1.828570 0.000000 
#    z 0.030220 0.000000 1.812220 
# 
# From -- ./inp_files/172344.got.cif
#   From: 2010.06.25/outbox.cif.g09.slc.cpg/sg15_87_cif.got.tgz:172344.got - 2010.06.28 07:06:18.
