data_PCOD8148045
_publ_section_title
;
Structure prediction by ZEFSAII (Michael W. Deem and Ramdas Pophale) SiO2 
 PCOD8148045
Probable space group: C 2/C
;
_chemical_formula_sum "Si O2"
_cell_formula_units_Z 64
_cell_length_a 12.874260
_cell_length_b 25.697986
_cell_length_c 10.929951
_cell_angle_alpha 90.000000
_cell_angle_beta 71.996736
_cell_angle_gamma 90.000000
_cell_volume 3439.045049
_symmetry_space_group_name_H-M "C 2/C"
_symmetry_group_IT_number 15
_symmetry_cell_setting 'monoclinic'
loop_
_space_group_symop_operation_xyz
x,y,z
-x,y,1/2-z
-x,-y,-z
x,-y,1/2+z
1/2+x,1/2+y,z
1/2-x,1/2+y,1/2-z
1/2-x,1/2-y,-z
1/2+x,1/2-y,1/2+z
loop_
_atom_site_type_symbol
_atom_site_label
_atom_site_fract_x
_atom_site_fract_y
_atom_site_fract_z
Si Si1 0.353178 0.785622 0.974777
Si Si2 0.804202 0.348550 0.626281
Si Si3 0.069501 0.505434 0.101310
Si Si4 0.375183 0.889886 0.832069
Si Si5 0.081003 0.754995 0.370822
Si Si6 0.284478 0.191289 0.755003
Si Si7 0.116296 0.605179 0.641969
Si Si8 0.610064 0.718761 0.136465
O O1 0.367859 0.797438 0.113759
O O2 0.250000 0.750000 0.000000
O O3 0.330634 0.841223 0.923813
O O4 0.454849 0.753824 0.876507
O O5 0.804346 0.393520 0.731323
O O6 0.860229 0.299740 0.672067
O O7 0.882945 0.364430 0.486295
O O8 0.682350 0.333648 0.627876
O O9 0.140907 0.558557 0.076084
O O10 0.144885 0.454588 0.096609
O O11 0.000000 0.511342 0.250000
O O12 0.000000 0.500000 0.000000
O O13 0.500000 0.880990 0.750000
O O14 0.156289 0.797004 0.268974
O O15 0.077609 0.775309 0.509275
O O16 0.296232 0.131700 0.798072
O O17 0.320626 0.230126 0.851431
O O18 0.000000 0.609751 0.750000
O O19 0.500000 0.711178 0.250000
#
# Coordination Sequence:
#
# PCOD8148045 Si02
#       8
#     8   8   8   8   8   8   8   8
#     4  12  25  36  55  81 114 158 193 223 289 353
#     4  11  20  36  55  81 109 152 182 231 288 335
#     4  10  23  37  56  83 114 156 195 236 294 347
#     4  11  23  38  55  77 117 156 187 230 285 344
#     4  11  20  35  53  79 115 143 189 231 283 342
#     4  11  21  33  54  81 109 150 183 233 286 332
#     4  11  20  32  56  82 113 142 187 231 286 339
#     4  11  19  32  53  81 111 143 190 233 281 336
#
# _framework density 18.609818000000001
#
# number of rings (size 3 to 8) (size 9 to 14) (size 15 to 20)
#    0.000    1.000    5.000    4.875    3.500    0.000 
#    0.000    0.000    0.000    0.000    0.000    3.500 
#    0.000    0.000    0.000    0.000    0.000    0.000 
#
# Total GULP energy -396487.870681 kJ/mol
# GULP energy per Si atom -12390.245959 kJ/mol
# Density = 1.856746 g / cm^3
# Si number density = 18.609818 Si / 1000 Ang^3
#
#
#
# Elastic Constant Matrix: (Units=GPa)
#
#
# Indices 1 2 3 4 5 6 
#
# 1 71.1067 48.8548 14.9829 0.0000 -11.1888 0.0000
# 2 48.8548 131.5934 32.6274 0.0000 -1.4074 0.0000
# 3 14.9829 32.6274 72.6637 0.0000 -1.7760 0.0000
# 4 0.0000 0.0000 0.0000 23.8409 0.0000 4.8190
# 5 -11.1888 -1.4074 -1.7760 0.0000 30.1021 0.0000
# 6 0.0000 0.0000 0.0000 4.8190 0.0000 25.7345
#
#
#
# Elastic Compliance Matrix: (Units=1/GPa)
#
#
# Indices 1 2 3 4 5 6 
#
# 1 0.020366 -0.007299 -0.000746 0.000000 0.007185 0.000000
# 2 -0.007299 0.011168 -0.003568 0.000000 -0.002401 0.000000
# 3 -0.000746 -0.003568 0.015530 0.000000 0.000472 0.000000
# 4 0.000000 0.000000 0.000000 0.043595 0.000000 -0.008164
# 5 0.007185 -0.002401 0.000472 0.000000 0.035806 0.000000
# 6 0.000000 0.000000 0.000000 -0.008164 0.000000 0.040387
#
#
# Mechanical properties :
#
#
# Convention : Reuss Voigt Hill
#
# Bulk Modulus (GPa) = 41.95284 52.03267 46.99275
# Shear Modulus (GPa) = 25.24933 27.86210 26.55572
#
# Velocity S-wave (km/s) = 3.68744 3.87353 3.78163
# Velocity P-wave (km/s) = 6.38137 6.93009 6.66138
#
# Compressibility (1/GPa) = 0.02383629
#
# Stress axis : x y z
#
# Youngs Moduli (GPa) = 49.10110 89.54093 64.39271
#
# Poissons Ratio (x) = 0.65357 0.04806
# Poissons Ratio (y) = 0.35840 0.22977
# Poissons Ratio (z) = 0.03665 0.31951
#
# Static dielectric constant tensor:
#      x y z
#    x 3.391060 0.000000 0.074820 
#    y 0.000000 3.906320 0.000000 
#    z 0.074820 0.000000 3.973630 
# 
# 
# High freq. dielectric constant tensor:
#      x y z
#    x 1.688360 0.000000 0.017170 
#    y 0.000000 1.701400 0.000000 
#    z 0.017170 0.000000 1.748230 
# 
# From -- ./inp_files/91254.got.cif
#   From: 2010.06.25/outbox.cif.g09.slc.cpg/sg15_46_cif.got.tgz:91254.got - 2010.06.28 07:06:18.
