data_PCOD8148710
_publ_section_title
;
Structure prediction by ZEFSAII (Michael W. Deem and Ramdas Pophale) SiO2 
 PCOD8148710
Probable space group: C 2/C
;
_chemical_formula_sum "Si O2"
_cell_formula_units_Z 36
_cell_length_a 12.579531
_cell_length_b 4.963619
_cell_length_c 27.512987
_cell_angle_alpha 90.000000
_cell_angle_beta 127.876216
_cell_angle_gamma 90.000000
_cell_volume 1356.014080
_symmetry_space_group_name_H-M "C 2/C"
_symmetry_group_IT_number 15
_symmetry_cell_setting 'monoclinic'
loop_
_space_group_symop_operation_xyz
x,y,z
-x,y,1/2-z
-x,-y,-z
x,-y,1/2+z
1/2+x,1/2+y,z
1/2-x,1/2+y,1/2-z
1/2-x,1/2-y,-z
1/2+x,1/2-y,1/2+z
loop_
_atom_site_type_symbol
_atom_site_label
_atom_site_fract_x
_atom_site_fract_y
_atom_site_fract_z
Si Si1 0.000000 0.316347 0.250000
Si Si2 0.176345 0.708702 0.541096
Si Si3 0.063310 0.798541 0.959365
Si Si4 0.044596 0.553815 0.366126
Si Si5 0.758826 0.390867 0.783924
O O1 0.010841 0.496592 0.300752
O O2 0.136043 0.136284 0.287380
O O3 0.150512 0.403412 0.517685
O O4 0.332670 0.738769 0.597959
O O5 0.090335 0.792678 0.564570
O O6 0.130774 0.905530 0.483598
O O7 0.074033 0.714007 0.906092
O O8 0.905451 0.687123 0.348589
O O9 0.767362 0.701294 0.770016
#
# Coordination Sequence:
#
# PCOD8148710 Si02
#       5
#     4   8   8   8   8
#     4  10  26  46  68 102 140 180 226 278 336 404
#     4  10  23  43  68  99 133 174 225 279 335 396
#     4  10  23  42  68 101 134 174 223 277 338 397
#     4  11  24  44  72 100 137 181 225 277 337 404
#     4  10  25  45  66  96 134 179 228 274 329 395
#
# _framework density 26.548393999999998
#
# number of rings (size 3 to 8) (size 9 to 14) (size 15 to 20)
#    0.000    1.778    0.000    1.333    0.000   24.889 
#    0.000    0.000    0.000    0.000    0.000    0.000 
#    0.000    0.000    0.000    0.000    0.000    0.000 
#
# Total GULP energy -223214.995871 kJ/mol
# GULP energy per Si atom -12400.833104 kJ/mol
# Density = 2.648797 g / cm^3
# Si number density = 26.548394 Si / 1000 Ang^3
#
#
#
# Elastic Constant Matrix: (Units=GPa)
#
#
# Indices 1 2 3 4 5 6 
#
# 1 147.6817 17.0692 74.2904 0.0000 45.7095 0.0003
# 2 17.0692 81.3897 8.7972 0.0003 8.0313 0.0002
# 3 74.2904 8.7972 113.3240 -0.0001 24.3069 0.0001
# 4 0.0000 0.0003 -0.0001 21.3646 0.0000 4.9568
# 5 45.7095 8.0313 24.3069 0.0000 73.7752 0.0000
# 6 0.0003 0.0002 0.0001 4.9568 0.0000 35.8477
#
#
#
# Elastic Compliance Matrix: (Units=1/GPa)
#
#
# Indices 1 2 3 4 5 6 
#
# 1 0.011748 -0.001265 -0.006533 0.000000 -0.004989 0.000000
# 2 -0.001265 0.012612 -0.000025 0.000000 -0.000581 0.000000
# 3 -0.006533 -0.000025 0.013171 0.000000 -0.000289 0.000000
# 4 0.000000 0.000000 0.000000 0.048358 0.000000 -0.006687
# 5 -0.004989 -0.000581 -0.000289 0.000000 0.016804 0.000000
# 6 0.000000 0.000000 0.000000 -0.006687 0.000000 0.028820
#
#
# Mechanical properties :
#
#
# Convention : Reuss Voigt Hill
#
# Bulk Modulus (GPa) = 45.69581 60.30099 52.99840
# Shear Modulus (GPa) = 32.37179 42.34674 37.35927
#
# Velocity S-wave (km/s) = 3.49571 3.99817 3.75535
# Velocity P-wave (km/s) = 5.79163 6.63904 6.22976
#
# Compressibility (1/GPa) = 0.02188385
#
# Stress axis : x y z
#
# Youngs Moduli (GPa) = 85.11944 79.28986 75.92348
#
# Poissons Ratio (x) = 0.10033 0.49604
# Poissons Ratio (y) = 0.10771 0.00189
# Poissons Ratio (z) = 0.55612 0.00198
#
# Static dielectric constant tensor:
#      x y z
#    x 5.634970 0.000000 0.567890 
#    y 0.000000 4.438380 0.000000 
#    z 0.567890 0.000000 4.685550 
# 
# 
# High freq. dielectric constant tensor:
#      x y z
#    x 2.097420 0.000000 0.025590 
#    y 0.000000 2.049230 0.000000 
#    z 0.025590 0.000000 2.053500 
# 
# From -- ./inp_files/312481.got.cif
#   From: 2010.06.25/outbox.cif.g09.slc.cpg/sg15_157_cif.got.tgz:312481.got - 2010.06.28 07:06:18.
