data_PCOD8148173
_publ_section_title
;
Structure prediction by ZEFSAII (Michael W. Deem and Ramdas Pophale) SiO2 
 PCOD8148173
Probable space group: C 2/C
;
_chemical_formula_sum "Si O2"
_cell_formula_units_Z 56
_cell_length_a 19.443686
_cell_length_b 15.746537
_cell_length_c 9.692070
_cell_angle_alpha 90.000000
_cell_angle_beta 115.572984
_cell_angle_gamma 90.000000
_cell_volume 2676.727420
_symmetry_space_group_name_H-M "C 2/C"
_symmetry_group_IT_number 15
_symmetry_cell_setting 'monoclinic'
loop_
_space_group_symop_operation_xyz
x,y,z
-x,y,1/2-z
-x,-y,-z
x,-y,1/2+z
1/2+x,1/2+y,z
1/2-x,1/2+y,1/2-z
1/2-x,1/2-y,-z
1/2+x,1/2-y,1/2+z
loop_
_atom_site_type_symbol
_atom_site_label
_atom_site_fract_x
_atom_site_fract_y
_atom_site_fract_z
Si Si1 0.317999 0.697898 0.126340
Si Si2 0.796090 0.098633 0.378963
Si Si3 0.552234 0.003955 0.676326
Si Si4 0.363451 0.843663 0.647319
Si Si5 0.655620 0.149966 0.683545
Si Si6 0.910712 0.840941 0.197630
Si Si7 0.323021 0.402303 0.370296
O O1 0.289612 0.630473 0.216107
O O2 0.371184 0.768299 0.248242
O O3 0.250000 0.750000 0.000000
O O4 0.357769 0.644055 0.037471
O O5 0.723671 0.133223 0.399432
O O6 0.870154 0.135936 0.518822
O O7 0.799949 0.997660 0.387501
O O8 0.500000 0.042834 0.750000
O O9 0.580388 0.910060 0.733942
O O10 0.500000 0.000000 0.500000
O O11 0.625290 0.063914 0.725063
O O12 0.379125 0.841240 0.497925
O O13 0.386892 0.752723 0.728229
O O14 0.747185 0.146842 0.754887
O O15 0.884768 0.902441 0.300604
O O16 0.000000 0.850843 0.250000
#
# Coordination Sequence:
#
# PCOD8148173 Si02
#       7
#     8   8   8   8   8   8   8
#     4  10  23  39  65 105 137 170 233 299 345 405
#     4  12  23  44  76  99 135 185 242 297 349 425
#     4  12  26  40  66 105 146 182 226 289 359 432
#     4  12  23  44  72 100 139 187 236 277 354 444
#     4  11  22  43  67  99 139 184 235 282 350 427
#     4  12  27  45  71 102 141 191 237 293 357 420
#     4  11  24  44  71 105 134 180 246 296 349 410
#
# _framework density 20.921068999999999
#
# number of rings (size 3 to 8) (size 9 to 14) (size 15 to 20)
#    0.000    0.571    5.714    3.429    0.000    4.000 
#    0.000    0.714    0.000    0.000    0.000    0.000 
#    0.000    0.000    0.000    0.000    0.000    0.000 
#
# Total GULP energy -347238.477745 kJ/mol
# GULP energy per Si atom -12401.374205 kJ/mol
# Density = 2.087345 g / cm^3
# Si number density = 20.921069 Si / 1000 Ang^3
#
#
#
# Elastic Constant Matrix: (Units=GPa)
#
#
# Indices 1 2 3 4 5 6 
#
# 1 115.7582 18.7593 40.4921 0.0000 0.2932 0.0000
# 2 18.7593 91.5504 38.5867 0.0000 -0.4950 0.0000
# 3 40.4921 38.5867 140.5655 0.0000 -8.0433 0.0000
# 4 0.0000 0.0000 0.0000 30.7903 0.0000 -11.9397
# 5 0.2932 -0.4950 -8.0433 0.0000 33.4550 0.0000
# 6 0.0000 0.0000 0.0000 -11.9397 0.0000 26.1503
#
#
#
# Elastic Compliance Matrix: (Units=1/GPa)
#
#
# Indices 1 2 3 4 5 6 
#
# 1 0.009691 -0.000900 -0.002586 0.000000 -0.000720 0.000000
# 2 -0.000900 0.012449 -0.003191 0.000000 -0.000575 0.000000
# 3 -0.002586 -0.003191 0.008855 0.000000 0.002104 0.000000
# 4 0.000000 0.000000 0.000000 0.039465 0.000000 0.018019
# 5 -0.000720 -0.000575 0.002104 0.000000 0.030395 0.000000
# 6 0.000000 0.000000 0.000000 0.018019 0.000000 0.046468
#
#
# Mechanical properties :
#
#
# Convention : Reuss Voigt Hill
#
# Bulk Modulus (GPa) = 56.68273 60.39448 58.53860
# Shear Modulus (GPa) = 30.01974 34.74817 32.38396
#
# Velocity S-wave (km/s) = 3.79212 4.07986 3.93862
# Velocity P-wave (km/s) = 6.80632 7.15011 6.98033
#
# Compressibility (1/GPa) = 0.01764206
#
# Stress axis : x y z
#
# Youngs Moduli (GPa) = 103.19025 80.32631 112.92501
#
# Poissons Ratio (x) = 0.07227 0.29200
# Poissons Ratio (y) = 0.09284 0.36036
# Poissons Ratio (z) = 0.26683 0.25633
#
# Static dielectric constant tensor:
#      x y z
#    x 3.614410 0.000000 -0.184690 
#    y 0.000000 4.468310 0.000000 
#    z -0.184690 0.000000 4.049770 
# 
# 
# High freq. dielectric constant tensor:
#      x y z
#    x 1.794990 0.000000 -0.013190 
#    y 0.000000 1.834860 0.000000 
#    z -0.013190 0.000000 1.832610 
# 
# From -- ./inp_files/49180.got.cif
#   From: 2010.06.25/outbox.cif.g09.slc.cpg/sg15_25_cif.got.tgz:49180.got - 2010.06.28 07:06:18.
