data_PCOD8148486
_publ_section_title
;
Structure prediction by ZEFSAII (Michael W. Deem and Ramdas Pophale) SiO2 
 PCOD8148486
Probable space group: C 2/C
;
_chemical_formula_sum "Si O2"
_cell_formula_units_Z 56
_cell_length_a 17.831571
_cell_length_b 7.792205
_cell_length_c 20.533855
_cell_angle_alpha 90.000000
_cell_angle_beta 64.264644
_cell_angle_gamma 90.000000
_cell_volume 2570.119424
_symmetry_space_group_name_H-M "C 2/C"
_symmetry_group_IT_number 15
_symmetry_cell_setting 'monoclinic'
loop_
_space_group_symop_operation_xyz
x,y,z
-x,y,1/2-z
-x,-y,-z
x,-y,1/2+z
1/2+x,1/2+y,z
1/2-x,1/2+y,1/2-z
1/2-x,1/2-y,-z
1/2+x,1/2-y,1/2+z
loop_
_atom_site_type_symbol
_atom_site_label
_atom_site_fract_x
_atom_site_fract_y
_atom_site_fract_z
Si Si1 0.403060 0.396402 0.158482
Si Si2 0.255164 0.828865 0.568947
Si Si3 0.075126 0.578549 0.431917
Si Si4 0.787727 0.627287 0.794017
Si Si5 0.093474 0.328487 0.723479
Si Si6 0.642587 0.738078 0.355819
Si Si7 0.773977 0.211021 0.917470
O O1 0.450447 0.246380 0.100613
O O2 0.307109 0.428783 0.175887
O O3 0.410407 0.346859 0.231739
O O4 0.430695 0.590403 0.126028
O O5 0.250000 0.750000 0.500000
O O6 0.352140 0.857032 0.548290
O O7 0.203654 0.709340 0.637716
O O8 0.210389 0.009915 0.592364
O O9 0.102504 0.426288 0.373968
O O10 0.000000 0.500000 0.500000
O O11 0.851649 0.470701 0.760656
O O12 0.803626 0.765707 0.731143
O O13 0.137047 0.291139 0.637245
O O14 0.000000 0.398549 0.750000
O O15 0.702257 0.714474 0.396617
O O16 0.750000 0.250000 0.000000
#
# Coordination Sequence:
#
# PCOD8148486 Si02
#       7
#     8   8   8   8   8   8   8
#     4  11  21  41  73  93 129 185 232 269 337 421
#     4  10  23  41  67  94 130 185 227 278 346 421
#     4  10  24  42  64  99 137 171 225 288 344 401
#     4  11  20  42  70  95 131 180 236 273 331 428
#     4  12  25  42  69 107 144 173 226 310 358 389
#     4  11  22  41  72  97 124 187 239 268 328 429
#     4  11  23  41  66  99 139 179 230 289 350 419
#
# _framework density 21.788871
#
# number of rings (size 3 to 8) (size 9 to 14) (size 15 to 20)
#    0.000    1.143    4.286    1.714    4.000    4.000 
#    2.571    1.429    0.000    0.000    0.000    0.000 
#    0.000    0.000    0.000    0.000    0.000    0.000 
#
# Total GULP energy -346956.319166 kJ/mol
# GULP energy per Si atom -12391.297113 kJ/mol
# Density = 2.173928 g / cm^3
# Si number density = 21.788871 Si / 1000 Ang^3
#
#
#
# Elastic Constant Matrix: (Units=GPa)
#
#
# Indices 1 2 3 4 5 6 
#
# 1 51.2986 24.9830 41.0201 0.0000 -0.0515 -0.0001
# 2 24.9830 101.9600 32.2750 0.0005 7.7432 0.0003
# 3 41.0201 32.2750 155.9909 0.0001 19.1578 -0.0001
# 4 0.0000 0.0005 0.0001 37.8743 -0.0001 5.5700
# 5 -0.0515 7.7432 19.1578 -0.0001 38.1937 0.0000
# 6 -0.0001 0.0003 -0.0001 5.5700 0.0000 29.3414
#
#
#
# Elastic Compliance Matrix: (Units=1/GPa)
#
#
# Indices 1 2 3 4 5 6 
#
# 1 0.027224 -0.004887 -0.006686 0.000000 0.004381 0.000000
# 2 -0.004887 0.011416 -0.000844 0.000000 -0.001898 0.000000
# 3 -0.006686 -0.000844 0.008870 0.000000 -0.004287 0.000000
# 4 0.000000 0.000000 0.000000 0.027161 0.000000 -0.005156
# 5 0.004381 -0.001898 -0.004287 0.000000 0.028723 0.000000
# 6 0.000000 0.000000 0.000000 -0.005156 0.000000 0.035060
#
#
# Mechanical properties :
#
#
# Convention : Reuss Voigt Hill
#
# Bulk Modulus (GPa) = 44.09755 56.20065 50.14910
# Shear Modulus (GPa) = 29.26563 35.14665 32.20614
#
# Velocity S-wave (km/s) = 3.66887 4.02064 3.84878
# Velocity P-wave (km/s) = 6.18304 6.88501 6.54345
#
# Compressibility (1/GPa) = 0.02267699
#
# Stress axis : x y z
#
# Youngs Moduli (GPa) = 36.73163 87.59264 112.74043
#
# Poissons Ratio (x) = 0.42807 0.75378
# Poissons Ratio (y) = 0.17951 0.09514
# Poissons Ratio (z) = 0.24559 0.07392
#
# Static dielectric constant tensor:
#      x y z
#    x 3.489720 0.000000 -0.103060 
#    y 0.000000 4.392940 0.000000 
#    z -0.103060 0.000000 3.841870 
# 
# 
# High freq. dielectric constant tensor:
#      x y z
#    x 1.818040 0.000000 0.013990 
#    y 0.000000 1.877210 0.000000 
#    z 0.013990 0.000000 1.862970 
# 
# From -- ./inp_files/247363.got.cif
#   From: 2010.06.25/outbox.cif.g09.slc.cpg/sg15_124_cif.got.tgz:247363.got - 2010.06.28 07:06:18.
