data_PCOD8148287
_publ_section_title
;
Structure prediction by ZEFSAII (Michael W. Deem and Ramdas Pophale) SiO2 
 PCOD8148287
Probable space group: C 2/C
;
_chemical_formula_sum "Si O2"
_cell_formula_units_Z 40
_cell_length_a 11.839052
_cell_length_b 15.333259
_cell_length_c 8.664908
_cell_angle_alpha 90.000000
_cell_angle_beta 78.284081
_cell_angle_gamma 90.000000
_cell_volume 1540.181390
_symmetry_space_group_name_H-M "C 2/C"
_symmetry_group_IT_number 15
_symmetry_cell_setting 'monoclinic'
loop_
_space_group_symop_operation_xyz
x,y,z
-x,y,1/2-z
-x,-y,-z
x,-y,1/2+z
1/2+x,1/2+y,z
1/2-x,1/2+y,1/2-z
1/2-x,1/2-y,-z
1/2+x,1/2-y,1/2+z
loop_
_atom_site_type_symbol
_atom_site_label
_atom_site_fract_x
_atom_site_fract_y
_atom_site_fract_z
Si Si1 0.113220 0.194465 0.629080
Si Si2 0.672899 0.059505 0.438032
Si Si3 0.333161 0.819197 0.276855
Si Si4 0.619391 0.371330 0.782433
Si Si5 0.928616 0.384062 0.965022
O O1 0.225202 0.168782 0.691974
O O2 0.114093 0.145071 0.466084
O O3 0.116689 0.300105 0.614964
O O4 0.000000 0.163429 0.750000
O O5 0.696783 0.130304 0.561362
O O6 0.779148 0.060342 0.288535
O O7 0.556641 0.085876 0.374669
O O8 0.659570 0.965321 0.522412
O O9 0.356808 0.719280 0.314406
O O10 0.440063 0.857634 0.145136
O O11 0.500000 0.410814 0.750000
#
# Coordination Sequence:
#
# PCOD8148287 Si02
#       5
#     8   8   8   8   8
#     4  11  23  42  68  98 137 181 228 279 334 401
#     4  11  23  41  68 100 137 179 225 281 339 403
#     4  11  22  39  64  97 134 177 229 279 335 399
#     4  11  22  40  66  98 135 178 227 276 331 401
#     4  10  23  40  65  99 138 177 222 278 343 402
#
# _framework density 25.970967000000002
#
# number of rings (size 3 to 8) (size 9 to 14) (size 15 to 20)
#    0.000    1.200    0.000    8.400    0.000    6.400 
#    0.000    1.000    0.000   10.800    0.000    0.000 
#    0.000    0.000    0.000    0.000    0.000    0.000 
#
# Total GULP energy -248085.522731 kJ/mol
# GULP energy per Si atom -12404.276137 kJ/mol
# Density = 2.591186 g / cm^3
# Si number density = 25.970967 Si / 1000 Ang^3
#
#
#
# Elastic Constant Matrix: (Units=GPa)
#
#
# Indices 1 2 3 4 5 6 
#
# 1 143.1488 44.4665 53.0428 0.0000 -25.9575 0.0000
# 2 44.4665 68.9510 37.4018 0.0000 -9.4865 0.0000
# 3 53.0428 37.4018 105.3007 0.0000 -25.2501 0.0000
# 4 0.0000 0.0000 0.0000 27.3878 0.0000 -7.4546
# 5 -25.9575 -9.4865 -25.2501 0.0000 53.0810 0.0000
# 6 0.0000 0.0000 0.0000 -7.4546 0.0000 31.7543
#
#
#
# Elastic Compliance Matrix: (Units=1/GPa)
#
#
# Indices 1 2 3 4 5 6 
#
# 1 0.009897 -0.004531 -0.002720 0.000000 0.002736 0.000000
# 2 -0.004531 0.020040 -0.005089 0.000000 -0.001055 0.000000
# 3 -0.002720 -0.005089 0.013700 0.000000 0.004277 0.000000
# 4 0.000000 0.000000 0.000000 0.039005 0.000000 0.009157
# 5 0.002736 -0.001055 0.004277 0.000000 0.022023 0.000000
# 6 0.000000 0.000000 0.000000 0.009157 0.000000 0.033641
#
#
# Mechanical properties :
#
#
# Convention : Reuss Voigt Hill
#
# Bulk Modulus (GPa) = 52.74775 65.24695 58.99735
# Shear Modulus (GPa) = 29.53241 34.61058 32.07150
#
# Velocity S-wave (km/s) = 3.37580 3.65453 3.51792
# Velocity P-wave (km/s) = 5.96230 6.55630 6.26634
#
# Compressibility (1/GPa) = 0.01895816
#
# Stress axis : x y z
#
# Youngs Moduli (GPa) = 101.03864 49.89985 72.99317
#
# Poissons Ratio (x) = 0.22608 0.19855
# Poissons Ratio (y) = 0.45778 0.37144
# Poissons Ratio (z) = 0.27483 0.25393
#
# Static dielectric constant tensor:
#      x y z
#    x 4.819900 0.000000 -0.397890 
#    y 0.000000 4.536520 0.000000 
#    z -0.397890 0.000000 4.905960 
# 
# 
# High freq. dielectric constant tensor:
#      x y z
#    x 2.047630 0.000000 -0.008030 
#    y 0.000000 2.021810 0.000000 
#    z -0.008030 0.000000 2.050710 
# 
# From -- ./inp_files/29106.got.cif
#   From: 2010.06.25/outbox.cif.g09.slc.cpg/sg15_15_cif.got.tgz:29106.got - 2010.06.28 07:06:18.
