data_PCOD8148402
_publ_section_title
;
Structure prediction by ZEFSAII (Michael W. Deem and Ramdas Pophale) SiO2 
 PCOD8148402
Probable space group: C 2/C
;
_chemical_formula_sum "Si O2"
_cell_formula_units_Z 48
_cell_length_a 28.045923
_cell_length_b 9.485327
_cell_length_c 8.945864
_cell_angle_alpha 90.000000
_cell_angle_beta 126.233789
_cell_angle_gamma 90.000000
_cell_volume 1919.592071
_symmetry_space_group_name_H-M "C 2/C"
_symmetry_group_IT_number 15
_symmetry_cell_setting 'monoclinic'
loop_
_space_group_symop_operation_xyz
x,y,z
-x,y,1/2-z
-x,-y,-z
x,-y,1/2+z
1/2+x,1/2+y,z
1/2-x,1/2+y,1/2-z
1/2-x,1/2-y,-z
1/2+x,1/2-y,1/2+z
loop_
_atom_site_type_symbol
_atom_site_label
_atom_site_fract_x
_atom_site_fract_y
_atom_site_fract_z
Si Si1 0.357400 0.907938 0.730239
Si Si2 0.500000 0.313918 0.250000
Si Si3 0.000000 0.212313 0.250000
Si Si4 0.416616 0.617749 0.829229
Si Si5 0.167757 0.146092 0.303034
Si Si6 0.433612 0.154671 0.889905
Si Si7 0.791245 0.370868 0.904440
O O1 0.379641 0.756624 0.720578
O O2 0.418519 0.990017 0.886216
O O3 0.325755 0.000298 0.545541
O O4 0.308443 0.882130 0.765101
O O5 0.546912 0.416503 0.256036
O O6 0.515045 0.204063 0.407988
O O7 0.952378 0.307450 0.253655
O O8 0.040314 0.123516 0.444688
O O9 0.370601 0.492378 0.749676
O O10 0.125165 0.266035 0.159701
O O11 0.192601 0.214071 0.504066
O O12 0.220863 0.110281 0.288515
#
# Coordination Sequence:
#
# PCOD8148402 Si02
#       7
#     8   4   4   8   8   8   8
#     4  11  23  42  68  98 129 171 221 269 321 388
#     4  10  24  38  60  96 132 176 226 266 316 384
#     4  10  24  42  66  96 134 178 218 264 326 388
#     4  11  24  40  65  96 132 173 219 267 321 385
#     4  10  24  44  66  92 132 171 210 271 332 386
#     4  10  23  41  63  93 133 173 217 267 322 385
#     4  10  24  45  69  96 129 170 217 268 331 390
#
# _framework density 25.005313999999998
#
# number of rings (size 3 to 8) (size 9 to 14) (size 15 to 20)
#    0.000    1.667    0.000    3.000    0.000   18.000 
#    0.000    0.000    0.000    0.000    0.000    0.000 
#    0.000    0.000    0.000    0.000    0.000    0.000 
#
# Total GULP energy -297404.595548 kJ/mol
# GULP energy per Si atom -12391.858148 kJ/mol
# Density = 2.494840 g / cm^3
# Si number density = 25.005314 Si / 1000 Ang^3
#
#
#
# Elastic Constant Matrix: (Units=GPa)
#
#
# Indices 1 2 3 4 5 6 
#
# 1 192.8935 49.3162 45.7916 0.0000 -14.4869 0.0000
# 2 49.3162 140.7873 34.8165 0.0000 17.6812 0.0000
# 3 45.7916 34.8165 63.2404 0.0000 -0.9765 0.0000
# 4 0.0000 0.0000 0.0000 8.8764 0.0000 4.2322
# 5 -14.4869 17.6812 -0.9765 0.0000 48.5077 0.0000
# 6 0.0000 0.0000 0.0000 4.2322 0.0000 43.0769
#
#
#
# Elastic Compliance Matrix: (Units=1/GPa)
#
#
# Indices 1 2 3 4 5 6 
#
# 1 0.006741 -0.001720 -0.003895 0.000000 0.002562 0.000000
# 2 -0.001720 0.009152 -0.003854 0.000000 -0.003927 0.000000
# 3 -0.003895 -0.003854 0.020764 0.000000 0.000660 0.000000
# 4 0.000000 0.000000 0.000000 0.118195 0.000000 -0.011612
# 5 0.002562 -0.003927 0.000660 0.000000 0.022825 0.000000
# 6 0.000000 0.000000 0.000000 -0.011612 0.000000 0.024355
#
#
# Mechanical properties :
#
#
# Convention : Reuss Voigt Hill
#
# Bulk Modulus (GPa) = 56.43095 72.97444 64.70269
# Shear Modulus (GPa) = 22.03852 37.89198 29.96525
#
# Velocity S-wave (km/s) = 2.97198 3.89698 3.46548
# Velocity P-wave (km/s) = 5.86459 7.03531 6.47646
#
# Compressibility (1/GPa) = 0.01772077
#
# Stress axis : x y z
#
# Youngs Moduli (GPa) = 148.34938 109.27132 48.15918
#
# Poissons Ratio (x) = 0.18793 0.18756
# Poissons Ratio (y) = 0.25514 0.18559
# Poissons Ratio (z) = 0.57776 0.42109
#
# Static dielectric constant tensor:
#      x y z
#    x 4.959130 0.000000 0.117160 
#    y 0.000000 4.778070 0.000000 
#    z 0.117160 0.000000 4.408020 
# 
# 
# High freq. dielectric constant tensor:
#      x y z
#    x 2.022070 0.000000 0.004430 
#    y 0.000000 2.003570 0.000000 
#    z 0.004430 0.000000 1.976480 
# 
# From -- ./inp_files/65266.got.cif
#   From: 2010.06.25/outbox.cif.g09.slc.cpg/sg15_33_cif.got.tgz:65266.got - 2010.06.28 07:06:18.
