data_PCOD8148836
_publ_section_title
;
Structure prediction by ZEFSAII (Michael W. Deem and Ramdas Pophale) SiO2 
 PCOD8148836
Probable space group: C 2/C
;
_chemical_formula_sum "Si O2"
_cell_formula_units_Z 40
_cell_length_a 25.602193
_cell_length_b 5.912389
_cell_length_c 14.057498
_cell_angle_alpha 90.000000
_cell_angle_beta 118.586151
_cell_angle_gamma 90.000000
_cell_volume 1868.493148
_symmetry_space_group_name_H-M "C 2/C"
_symmetry_group_IT_number 15
_symmetry_cell_setting 'monoclinic'
loop_
_space_group_symop_operation_xyz
x,y,z
-x,y,1/2-z
-x,-y,-z
x,-y,1/2+z
1/2+x,1/2+y,z
1/2-x,1/2+y,1/2-z
1/2-x,1/2-y,-z
1/2+x,1/2-y,1/2+z
loop_
_atom_site_type_symbol
_atom_site_label
_atom_site_fract_x
_atom_site_fract_y
_atom_site_fract_z
Si Si1 0.319515 0.714790 0.552757
Si Si2 0.991981 0.141577 0.589313
Si Si3 0.094369 0.169819 0.376872
Si Si4 0.402180 0.955344 0.763710
Si Si5 0.612166 0.046116 0.538319
O O1 0.250000 0.750000 0.500000
O O2 0.345198 0.465859 0.599495
O O3 0.347249 0.890438 0.650387
O O4 0.339955 0.780368 0.463680
O O5 0.052952 0.242783 0.686176
O O6 0.954532 0.362190 0.530425
O O7 0.000000 0.000000 0.500000
O O8 0.959071 0.999515 0.642529
O O9 0.070596 0.324189 0.267504
O O10 0.113215 0.306415 0.487136
O O11 0.373529 0.022309 0.838651
#
# Coordination Sequence:
#
# PCOD8148836 Si02
#       5
#     8   8   8   8   8
#     4  10  25  47  66  97 130 176 231 282 337 399
#     4  11  23  41  66  98 143 176 219 276 337 415
#     4  10  24  43  67  94 144 172 225 281 331 411
#     4  11  24  41  67 102 133 180 224 269 352 398
#     4  10  23  43  63  99 133 174 225 272 342 405
#
# _framework density 21.407626
#
# number of rings (size 3 to 8) (size 9 to 14) (size 15 to 20)
#    0.000    1.600    2.000    0.600    2.800   12.000 
#    7.200    0.000    0.000    0.000    0.000    0.000 
#    0.000    0.000    0.000    0.000    0.000    0.000 
#
# Total GULP energy -247975.181150 kJ/mol
# GULP energy per Si atom -12398.759058 kJ/mol
# Density = 2.135890 g / cm^3
# Si number density = 21.407626 Si / 1000 Ang^3
#
#
#
# Elastic Constant Matrix: (Units=GPa)
#
#
# Indices 1 2 3 4 5 6 
#
# 1 128.1294 43.8849 66.5225 0.0000 6.4951 0.0000
# 2 43.8849 107.5875 45.5251 0.0000 -4.7077 0.0000
# 3 66.5225 45.5251 121.3244 0.0000 -24.6578 0.0000
# 4 0.0000 0.0000 0.0000 33.8157 0.0000 -5.9794
# 5 6.4951 -4.7077 -24.6578 0.0000 41.5200 0.0000
# 6 0.0000 0.0000 0.0000 -5.9794 0.0000 31.1917
#
#
#
# Elastic Compliance Matrix: (Units=1/GPa)
#
#
# Indices 1 2 3 4 5 6 
#
# 1 0.012873 -0.002352 -0.007551 0.000000 -0.006765 0.000000
# 2 -0.002352 0.011548 -0.003074 0.000000 -0.000148 0.000000
# 3 -0.007551 -0.003074 0.015586 0.000000 0.010089 0.000000
# 4 0.000000 0.000000 0.000000 0.030610 0.000000 0.005868
# 5 -0.006765 -0.000148 0.010089 0.000000 0.031118 0.000000
# 6 0.000000 0.000000 0.000000 0.005868 0.000000 0.033185
#
#
# Mechanical properties :
#
#
# Convention : Reuss Voigt Hill
#
# Bulk Modulus (GPa) = 71.14999 74.32293 72.73646
# Shear Modulus (GPa) = 30.20082 34.71272 32.45677
#
# Velocity S-wave (km/s) = 3.76007 4.03117 3.89798
# Velocity P-wave (km/s) = 7.22211 7.51402 7.36951
#
# Compressibility (1/GPa) = 0.01405482
#
# Stress axis : x y z
#
# Youngs Moduli (GPa) = 77.68008 86.59259 64.15856
#
# Poissons Ratio (x) = 0.20366 0.48445
# Poissons Ratio (y) = 0.18270 0.19722
# Poissons Ratio (z) = 0.58655 0.26617
#
# Static dielectric constant tensor:
#      x y z
#    x 3.777480 0.000000 -0.375420 
#    y 0.000000 4.271300 0.000000 
#    z -0.375420 0.000000 3.876520 
# 
# 
# High freq. dielectric constant tensor:
#      x y z
#    x 1.820830 0.000000 -0.023210 
#    y 0.000000 1.858470 0.000000 
#    z -0.023210 0.000000 1.839420 
# 
# From -- ./inp_files/170754.got.cif
#   From: 2010.06.25/outbox.cif.g09.slc.cpg/sg15_86_cif.got.tgz:170754.got - 2010.06.28 07:06:18.
