data_PCOD8148263
_publ_section_title
;
Structure prediction by ZEFSAII (Michael W. Deem and Ramdas Pophale) SiO2 
 PCOD8148263
Probable space group: C 2/C
;
_chemical_formula_sum "Si O2"
_cell_formula_units_Z 60
_cell_length_a 25.232478
_cell_length_b 13.819943
_cell_length_c 15.349756
_cell_angle_alpha 90.000000
_cell_angle_beta 147.680053
_cell_angle_gamma 90.000000
_cell_volume 2861.768047
_symmetry_space_group_name_H-M "C 2/C"
_symmetry_group_IT_number 15
_symmetry_cell_setting 'monoclinic'
loop_
_space_group_symop_operation_xyz
x,y,z
-x,y,1/2-z
-x,-y,-z
x,-y,1/2+z
1/2+x,1/2+y,z
1/2-x,1/2+y,1/2-z
1/2-x,1/2-y,-z
1/2+x,1/2-y,1/2+z
loop_
_atom_site_type_symbol
_atom_site_label
_atom_site_fract_x
_atom_site_fract_y
_atom_site_fract_z
Si Si1 0.301922 0.933203 0.989976
Si Si2 0.320966 0.143219 0.778377
Si Si3 0.500000 0.366906 0.750000
Si Si4 0.814194 0.978953 0.512729
Si Si5 0.209070 0.803855 0.526863
Si Si6 0.603479 0.121798 0.433752
Si Si7 0.048788 0.697587 0.697924
Si Si8 0.682129 0.189513 0.146525
O O1 0.399119 0.875956 0.161348
O O2 0.320316 0.048118 0.005715
O O3 0.209845 0.925547 0.928694
O O4 0.269421 0.889645 0.851376
O O5 0.280240 0.043424 0.680303
O O6 0.388398 0.202284 0.803635
O O7 0.225043 0.206790 0.673995
O O8 0.391918 0.110258 0.955648
O O9 0.410071 0.436181 0.597731
O O10 0.544269 0.303873 0.732995
O O11 0.834077 0.091898 0.557253
O O12 0.250000 0.750000 0.500000
O O13 0.123234 0.734600 0.443164
O O14 0.290743 0.822863 0.714861
O O15 0.500000 0.091365 0.250000
O O16 0.935107 0.670848 0.521695
#
# Coordination Sequence:
#
# PCOD8148263 Si02
#       8
#     8   8   4   8   8   8   8   8
#     4  11  21  40  67  98 128 163 214 279 326 386
#     4  10  23  40  64  97 130 168 215 270 320 391
#     4  12  22  40  68  96 132 162 206 274 328 396
#     4  11  23  41  66  95 130 171 218 260 334 379
#     4  11  25  44  62  88 131 182 215 262 307 390
#     4  11  24  41  64  91 132 173 221 264 317 375
#     4  11  21  38  68 101 126 162 212 272 341 376
#     4  11  21  40  65  92 134 164 212 269 327 378
#
# _framework density 20.966059999999999
#
# number of rings (size 3 to 8) (size 9 to 14) (size 15 to 20)
#    0.000    1.067    4.000    2.400    2.800    2.133 
#    0.000    3.333    0.000    4.000    0.000    0.000 
#    0.000    0.000    0.000    0.000    0.000    0.000 
#
# Total GULP energy -371813.044976 kJ/mol
# GULP energy per Si atom -12393.768166 kJ/mol
# Density = 2.091834 g / cm^3
# Si number density = 20.966060 Si / 1000 Ang^3
#
#
#
# Elastic Constant Matrix: (Units=GPa)
#
#
# Indices 1 2 3 4 5 6 
#
# 1 114.0903 40.4539 53.1844 0.0000 -13.4803 0.0000
# 2 40.4539 124.3948 35.3931 0.0000 -0.0082 0.0000
# 3 53.1844 35.3931 86.5978 0.0000 -17.9313 0.0000
# 4 0.0000 0.0000 0.0000 19.3912 0.0000 -1.6673
# 5 -13.4803 -0.0082 -17.9313 0.0000 32.1157 0.0000
# 6 0.0000 0.0000 0.0000 -1.6673 0.0000 26.3225
#
#
#
# Elastic Compliance Matrix: (Units=1/GPa)
#
#
# Indices 1 2 3 4 5 6 
#
# 1 0.012862 -0.002304 -0.006603 0.000000 0.001711 0.000000
# 2 -0.002304 0.009668 -0.003094 0.000000 -0.002692 0.000000
# 3 -0.006603 -0.003094 0.018424 0.000000 0.007514 0.000000
# 4 0.000000 0.000000 0.000000 0.051852 0.000000 0.003284
# 5 0.001711 -0.002692 0.007514 0.000000 0.036050 0.000000
# 6 0.000000 0.000000 0.000000 0.003284 0.000000 0.038198
#
#
# Mechanical properties :
#
#
# Convention : Reuss Voigt Hill
#
# Bulk Modulus (GPa) = 58.99185 64.79397 61.89291
# Shear Modulus (GPa) = 25.41831 28.63597 27.02714
#
# Velocity S-wave (km/s) = 3.48567 3.69972 3.59429
# Velocity P-wave (km/s) = 6.66316 7.01583 6.84177
#
# Compressibility (1/GPa) = 0.01695149
#
# Stress axis : x y z
#
# Youngs Moduli (GPa) = 77.74587 103.43076 54.27829
#
# Poissons Ratio (x) = 0.23830 0.35843
# Poissons Ratio (y) = 0.17912 0.16793
# Poissons Ratio (z) = 0.51339 0.32001
#
# Static dielectric constant tensor:
#      x y z
#    x 3.885510 0.000000 -0.167020 
#    y 0.000000 3.901620 0.000000 
#    z -0.167020 0.000000 3.774310 
# 
# 
# High freq. dielectric constant tensor:
#      x y z
#    x 1.826100 0.000000 -0.010260 
#    y 0.000000 1.826470 0.000000 
#    z -0.010260 0.000000 1.805380 
# 
# From -- ./inp_files/178556.got.cif
#   From: 2010.06.25/outbox.cif.g09.slc.cpg/sg15_90_cif.got.tgz:178556.got - 2010.06.28 07:06:18.
