data_PCOD8148012
_publ_section_title
;
Structure prediction by ZEFSAII (Michael W. Deem and Ramdas Pophale) SiO2 
 PCOD8148012
Probable space group: C 2/C
;
_chemical_formula_sum "Si O2"
_cell_formula_units_Z 44
_cell_length_a 14.897598
_cell_length_b 17.919539
_cell_length_c 7.894145
_cell_angle_alpha 90.000000
_cell_angle_beta 59.828559
_cell_angle_gamma 90.000000
_cell_volume 1821.905944
_symmetry_space_group_name_H-M "C 2/C"
_symmetry_group_IT_number 15
_symmetry_cell_setting 'monoclinic'
loop_
_space_group_symop_operation_xyz
x,y,z
-x,y,1/2-z
-x,-y,-z
x,-y,1/2+z
1/2+x,1/2+y,z
1/2-x,1/2+y,1/2-z
1/2-x,1/2-y,-z
1/2+x,1/2-y,1/2+z
loop_
_atom_site_type_symbol
_atom_site_label
_atom_site_fract_x
_atom_site_fract_y
_atom_site_fract_z
Si Si1 0.429981 0.442878 0.970023
Si Si2 0.156394 0.387799 0.948632
Si Si3 0.192134 0.847483 0.179059
Si Si4 0.329932 0.286412 0.669446
Si Si5 0.500000 0.222679 0.750000
Si Si6 0.283350 0.978488 0.916451
O O1 0.500000 0.411885 0.750000
O O2 0.500000 0.500000 0.000000
O O3 0.403378 0.370086 0.108903
O O4 0.330137 0.492371 0.022776
O O5 0.268006 0.346760 0.840463
O O6 0.066792 0.327880 0.058498
O O7 0.149459 0.449070 0.102108
O O8 0.147670 0.433214 0.782697
O O9 0.259902 0.786883 0.213918
O O10 0.147037 0.818801 0.040832
O O11 0.265077 0.920709 0.088671
O O12 0.431644 0.270629 0.683829
#
# Coordination Sequence:
#
# PCOD8148012 Si02
#       6
#     8   8   8   8   4   8
#     4  12  22  39  68 118 147 189 255 308 390 450
#     4  11  25  48  74 107 149 200 250 321 377 452
#     4  10  22  48  75 103 156 202 246 319 385 448
#     4  10  25  51  74 106 154 208 253 312 386 465
#     4  12  26  48  78 114 148 208 260 308 390 456
#     4  11  22  46  73 101 151 195 250 322 376 441
#
# _framework density 24.150532999999999
#
# number of rings (size 3 to 8) (size 9 to 14) (size 15 to 20)
#    0.000    1.091    3.636    1.636    0.000    0.727 
#   22.909    6.364    0.000    0.000    0.000    0.000 
#    0.000    0.000    0.000    0.000    0.000    0.000 
#
# Total GULP energy -272717.219165 kJ/mol
# GULP energy per Si atom -12396.237235 kJ/mol
# Density = 2.409557 g / cm^3
# Si number density = 24.150533 Si / 1000 Ang^3
#
#
#
# Elastic Constant Matrix: (Units=GPa)
#
#
# Indices 1 2 3 4 5 6 
#
# 1 98.6568 48.3774 42.6139 0.0000 14.0114 0.0000
# 2 48.3774 138.8906 50.8881 0.0000 5.7238 0.0000
# 3 42.6139 50.8881 156.8230 0.0000 -2.6674 0.0000
# 4 0.0000 0.0000 0.0000 44.7033 0.0000 1.8031
# 5 14.0114 5.7238 -2.6674 0.0000 18.9969 0.0000
# 6 0.0000 0.0000 0.0000 1.8031 0.0000 22.9424
#
#
#
# Elastic Compliance Matrix: (Units=1/GPa)
#
#
# Indices 1 2 3 4 5 6 
#
# 1 0.014618 -0.003582 -0.002982 0.000000 -0.010121 0.000000
# 2 -0.003582 0.009205 -0.002021 0.000000 -0.000415 0.000000
# 3 -0.002982 -0.002021 0.007909 0.000000 0.003919 0.000000
# 4 0.000000 0.000000 0.000000 0.022441 0.000000 -0.001764
# 5 -0.010121 -0.000415 0.003919 0.000000 0.060781 0.000000
# 6 0.000000 0.000000 0.000000 -0.001764 0.000000 0.043726
#
#
# Mechanical properties :
#
#
# Convention : Reuss Voigt Hill
#
# Bulk Modulus (GPa) = 68.66721 75.34771 72.00746
# Shear Modulus (GPa) = 27.66960 34.16124 30.91542
#
# Velocity S-wave (km/s) = 3.38851 3.76508 3.58175
# Velocity P-wave (km/s) = 6.61846 7.08294 6.85464
#
# Compressibility (1/GPa) = 0.01456299
#
# Stress axis : x y z
#
# Youngs Moduli (GPa) = 68.40834 108.63613 126.43353
#
# Poissons Ratio (x) = 0.38913 0.37703
# Poissons Ratio (y) = 0.24504 0.25548
# Poissons Ratio (z) = 0.20400 0.21952
#
# Static dielectric constant tensor:
#      x y z
#    x 3.944140 0.000000 0.189900 
#    y 0.000000 4.767590 0.000000 
#    z 0.189900 0.000000 4.596570 
# 
# 
# High freq. dielectric constant tensor:
#      x y z
#    x 1.930290 0.000000 0.012490 
#    y 0.000000 1.990570 0.000000 
#    z 0.012490 0.000000 1.970050 
# 
# From -- ./inp_files/48886.got.cif
#   From: 2010.06.25/outbox.cif.g09.slc.cpg/sg15_25_cif.got.tgz:48886.got - 2010.06.28 07:06:18.
