data_PCOD8148916
_publ_section_title
;
Structure prediction by ZEFSAII (Michael W. Deem and Ramdas Pophale) SiO2 
 PCOD8148916
Probable space group: C 2/C
;
_chemical_formula_sum "Si O2"
_cell_formula_units_Z 48
_cell_length_a 14.199920
_cell_length_b 13.194359
_cell_length_c 24.572809
_cell_angle_alpha 90.000000
_cell_angle_beta 150.792584
_cell_angle_gamma 90.000000
_cell_volume 2246.593365
_symmetry_space_group_name_H-M "C 2/C"
_symmetry_group_IT_number 15
_symmetry_cell_setting 'monoclinic'
loop_
_space_group_symop_operation_xyz
x,y,z
-x,y,1/2-z
-x,-y,-z
x,-y,1/2+z
1/2+x,1/2+y,z
1/2-x,1/2+y,1/2-z
1/2-x,1/2-y,-z
1/2+x,1/2-y,1/2+z
loop_
_atom_site_type_symbol
_atom_site_label
_atom_site_fract_x
_atom_site_fract_y
_atom_site_fract_z
Si Si1 0.870456 0.081194 0.903185
Si Si2 0.492858 0.100378 0.960688
Si Si3 0.216512 0.107609 0.008383
Si Si4 0.689300 0.697655 0.880142
Si Si5 0.817731 0.749634 0.623774
Si Si6 0.007252 0.425578 0.348919
O O1 0.834630 0.179455 0.921415
O O2 0.660285 0.042109 0.778101
O O3 0.991743 0.111358 0.910965
O O4 0.000000 0.000000 0.000000
O O5 0.364249 0.184945 0.925852
O O6 0.411563 0.069655 0.860415
O O7 0.703776 0.147161 0.052824
O O8 0.500000 0.000000 0.000000
O O9 0.325908 0.192189 0.099790
O O10 0.317465 0.002027 0.073469
O O11 0.226465 0.120267 0.948496
O O12 0.500000 0.672336 0.750000
O O13 0.000000 0.786325 0.750000
O O14 0.906010 0.687368 0.617237
#
# Coordination Sequence:
#
# PCOD8148916 Si02
#       6
#     8   8   8   8   8   8
#     4  11  22  40  69  98 129 166 217 271 331 379
#     4  12  24  45  64  93 133 175 216 262 331 393
#     4  11  23  43  66 102 128 171 224 265 327 389
#     4  11  25  42  67  94 138 174 213 270 326 389
#     4  10  23  43  67  94 131 173 220 272 327 390
#     4  11  24  42  68  99 130 170 220 272 322 394
#
# _framework density 21.365684000000002
#
# number of rings (size 3 to 8) (size 9 to 14) (size 15 to 20)
#    0.000    1.000    5.000    1.500    2.333    0.667 
#    3.000    1.667    0.000    0.000    0.000    0.000 
#    0.000    0.000    0.000    0.000    0.000    0.000 
#
# Total GULP energy -297506.250544 kJ/mol
# GULP energy per Si atom -12396.093773 kJ/mol
# Density = 2.131705 g / cm^3
# Si number density = 21.365684 Si / 1000 Ang^3
#
#
#
# Elastic Constant Matrix: (Units=GPa)
#
#
# Indices 1 2 3 4 5 6 
#
# 1 114.5621 14.0585 31.9341 0.0000 -1.9690 0.0000
# 2 14.0585 81.6512 46.3289 0.0002 -7.7633 0.0000
# 3 31.9341 46.3289 116.0938 0.0009 -2.4293 0.0003
# 4 0.0000 0.0002 0.0009 27.9511 0.0001 8.7270
# 5 -1.9690 -7.7633 -2.4293 0.0001 31.5899 0.0000
# 6 0.0000 0.0000 0.0003 8.7270 0.0000 26.7441
#
#
#
# Elastic Compliance Matrix: (Units=1/GPa)
#
#
# Indices 1 2 3 4 5 6 
#
# 1 0.009460 -0.000159 -0.002531 0.000000 0.000356 0.000000
# 2 -0.000159 0.016210 -0.006352 0.000000 0.003485 0.000000
# 3 -0.002531 -0.006352 0.011828 0.000000 -0.000809 0.000000
# 4 0.000000 0.000000 0.000000 0.039835 0.000000 -0.012999
# 5 0.000356 0.003485 -0.000809 0.000000 0.032472 0.000000
# 6 0.000000 0.000000 0.000000 -0.012999 0.000000 0.041633
#
#
# Mechanical properties :
#
#
# Convention : Reuss Voigt Hill
#
# Bulk Modulus (GPa) = 51.51031 55.21668 53.36349
# Shear Modulus (GPa) = 28.40987 31.92274 30.16630
#
# Velocity S-wave (km/s) = 3.65046 3.86957 3.76161
# Velocity P-wave (km/s) = 6.47526 6.77233 6.62546
#
# Compressibility (1/GPa) = 0.01941359
#
# Stress axis : x y z
#
# Youngs Moduli (GPa) = 105.70700 61.68936 84.54425
#
# Poissons Ratio (x) = 0.00979 0.21402
# Poissons Ratio (y) = 0.01677 0.53706
# Poissons Ratio (z) = 0.26759 0.39187
#
# Static dielectric constant tensor:
#      x y z
#    x 4.147320 0.000000 0.070340 
#    y 0.000000 3.629210 0.000000 
#    z 0.070340 0.000000 3.776100 
# 
# 
# High freq. dielectric constant tensor:
#      x y z
#    x 1.857110 0.000000 0.000480 
#    y 0.000000 1.826880 0.000000 
#    z 0.000480 0.000000 1.836870 
# 
# From -- ./inp_files/96868.got.cif
#   From: 2010.06.25/outbox.cif.g09.slc.cpg/sg15_49_cif.got.tgz:96868.got - 2010.06.28 07:06:18.
