data_PCOD8148980
_publ_section_title
;
Structure prediction by ZEFSAII (Michael W. Deem and Ramdas Pophale) SiO2 
 PCOD8148980
Probable space group: C 2/C
;
_chemical_formula_sum "Si O2"
_cell_formula_units_Z 52
_cell_length_a 29.613575
_cell_length_b 9.005445
_cell_length_c 10.484031
_cell_angle_alpha 90.000000
_cell_angle_beta 69.448835
_cell_angle_gamma 90.000000
_cell_volume 2617.982510
_symmetry_space_group_name_H-M "C 2/C"
_symmetry_group_IT_number 15
_symmetry_cell_setting 'monoclinic'
loop_
_space_group_symop_operation_xyz
x,y,z
-x,y,1/2-z
-x,-y,-z
x,-y,1/2+z
1/2+x,1/2+y,z
1/2-x,1/2+y,1/2-z
1/2-x,1/2-y,-z
1/2+x,1/2-y,1/2+z
loop_
_atom_site_type_symbol
_atom_site_label
_atom_site_fract_x
_atom_site_fract_y
_atom_site_fract_z
Si Si1 0.206106 0.617663 0.404451
Si Si2 0.286956 0.139597 0.807547
Si Si3 0.100277 0.294476 0.025983
Si Si4 0.000000 0.197078 0.750000
Si Si5 0.611198 0.271793 0.796881
Si Si6 0.954599 0.572228 0.481272
Si Si7 0.052350 0.051063 0.903368
O O1 0.240767 0.756054 0.346363
O O2 0.207859 0.569781 0.553745
O O3 0.220012 0.484694 0.294644
O O4 0.153138 0.673111 0.418069
O O5 0.332915 0.242297 0.727708
O O6 0.103426 0.207700 0.154783
O O7 0.073136 0.450491 0.075531
O O8 0.069773 0.196453 0.959203
O O9 0.028329 0.292493 0.619853
O O10 0.042895 0.097176 0.766455
O O11 0.592825 0.424427 0.878859
O O12 0.581084 0.131138 0.874606
O O13 0.000000 0.500000 0.500000
O O14 0.000000 0.000000 0.000000
#
# Coordination Sequence:
#
# PCOD8148980 Si02
#       7
#     8   8   8   4   8   8   8
#     4  10  23  43  69  97 133 165 215 268 324 386
#     4  10  23  45  68 100 130 167 213 269 325 386
#     4  11  24  42  65  90 127 171 212 266 319 378
#     4  12  24  38  62  92 130 164 222 258 318 378
#     4  11  24  42  63  90 129 168 211 262 319 381
#     4  12  22  40  62  91 121 168 214 261 307 374
#     4  12  24  41  60  92 128 171 211 261 317 381
#
# _framework density 19.862622999999999
#
# number of rings (size 3 to 8) (size 9 to 14) (size 15 to 20)
#    0.000    0.923    4.615    1.846    2.154    1.846 
#    0.000    0.000    0.000    0.000    0.000    0.000 
#    0.000    0.000    0.000    0.000    0.000    0.000 
#
# Total GULP energy -322393.899560 kJ/mol
# GULP energy per Si atom -12399.765368 kJ/mol
# Density = 1.981741 g / cm^3
# Si number density = 19.862623 Si / 1000 Ang^3
#
#
#
# Elastic Constant Matrix: (Units=GPa)
#
#
# Indices 1 2 3 4 5 6 
#
# 1 101.5844 37.0740 30.1834 0.0000 -8.0592 0.0000
# 2 37.0740 94.7557 35.4369 0.0000 1.7464 0.0000
# 3 30.1834 35.4369 88.0949 0.0000 -3.8027 0.0000
# 4 0.0000 0.0000 0.0000 41.9191 0.0000 -3.0211
# 5 -8.0592 1.7464 -3.8027 0.0000 36.1915 0.0000
# 6 0.0000 0.0000 0.0000 -3.0211 0.0000 28.3860
#
#
#
# Elastic Compliance Matrix: (Units=1/GPa)
#
#
# Indices 1 2 3 4 5 6 
#
# 1 0.012219 -0.003892 -0.002507 0.000000 0.002645 0.000000
# 2 -0.003892 0.013708 -0.004266 0.000000 -0.001976 0.000000
# 3 -0.002507 -0.004266 0.013974 0.000000 0.001116 0.000000
# 4 0.000000 0.000000 0.000000 0.024040 0.000000 0.002559
# 5 0.002645 -0.001976 0.001116 0.000000 0.028433 0.000000
# 6 0.000000 0.000000 0.000000 0.002559 0.000000 0.035501
#
#
# Mechanical properties :
#
#
# Convention : Reuss Voigt Hill
#
# Bulk Modulus (GPa) = 53.84438 54.42484 54.13461
# Shear Modulus (GPa) = 32.17596 33.41536 32.79566
#
# Velocity S-wave (km/s) = 4.02920 4.10606 4.06781
# Velocity P-wave (km/s) = 6.98664 7.06681 7.02684
#
# Compressibility (1/GPa) = 0.01857204
#
# Stress axis : x y z
#
# Youngs Moduli (GPa) = 81.83842 72.94955 71.55910
#
# Poissons Ratio (x) = 0.28393 0.17938
# Poissons Ratio (y) = 0.31853 0.30527
# Poissons Ratio (z) = 0.20515 0.31120
#
# Static dielectric constant tensor:
#      x y z
#    x 3.784320 0.000000 -0.021270 
#    y 0.000000 3.553020 0.000000 
#    z -0.021270 0.000000 3.765490 
# 
# 
# High freq. dielectric constant tensor:
#      x y z
#    x 1.782550 0.000000 -0.004690 
#    y 0.000000 1.777550 0.000000 
#    z -0.004690 0.000000 1.781660 
# 
# From -- ./inp_files/121423.got.cif
#   From: 2010.06.25/outbox.cif.g09.slc.cpg/sg15_61_cif.got.tgz:121423.got - 2010.06.28 07:06:18.
