data_PCOD8148820
_publ_section_title
;
Structure prediction by ZEFSAII (Michael W. Deem and Ramdas Pophale) SiO2 
 PCOD8148820
Probable space group: C 2/C
;
_chemical_formula_sum "Si O2"
_cell_formula_units_Z 40
_cell_length_a 9.028933
_cell_length_b 13.088672
_cell_length_c 17.357015
_cell_angle_alpha 90.000000
_cell_angle_beta 103.191151
_cell_angle_gamma 90.000000
_cell_volume 1997.072974
_symmetry_space_group_name_H-M "C 2/C"
_symmetry_group_IT_number 15
_symmetry_cell_setting 'monoclinic'
loop_
_space_group_symop_operation_xyz
x,y,z
-x,y,1/2-z
-x,-y,-z
x,-y,1/2+z
1/2+x,1/2+y,z
1/2-x,1/2+y,1/2-z
1/2-x,1/2-y,-z
1/2+x,1/2-y,1/2+z
loop_
_atom_site_type_symbol
_atom_site_label
_atom_site_fract_x
_atom_site_fract_y
_atom_site_fract_z
Si Si1 0.208491 0.157000 0.329869
Si Si2 0.876018 0.079975 0.334747
Si Si3 0.850019 0.151979 0.500998
Si Si4 0.330030 0.036639 0.478965
Si Si5 0.822897 0.866726 0.395227
O O1 0.238319 0.117882 0.246207
O O2 0.324500 0.105935 0.402649
O O3 0.238332 0.278566 0.336747
O O4 0.041136 0.123378 0.335159
O O5 0.826771 0.126401 0.409318
O O6 0.866007 0.956947 0.340568
O O7 0.750000 0.250000 0.500000
O O8 0.023835 0.172829 0.544765
O O9 0.787738 0.057276 0.543781
O O10 0.293227 0.099767 0.551732
O O11 0.500000 0.000000 0.500000
#
# Coordination Sequence:
#
# PCOD8148820 Si02
#       5
#     8   8   8   8   8
#     4  11  22  41  68  91 130 170 209 271 339 370
#     4  10  23  43  61  97 128 164 218 267 327 385
#     4  11  22  40  66  94 127 170 218 263 320 395
#     4  11  22  39  65  97 126 168 217 263 318 398
#     4  11  22  44  64  91 130 167 214 269 318 394
#
# _framework density 20.029312999999998
#
# number of rings (size 3 to 8) (size 9 to 14) (size 15 to 20)
#    0.000    1.200    4.000    3.000    2.800    1.600 
#    3.600    7.000    0.000    0.000    0.000    0.000 
#    0.000    0.000    0.000    0.000    0.000    0.000 
#
# Total GULP energy -247992.021505 kJ/mol
# GULP energy per Si atom -12399.601075 kJ/mol
# Density = 1.998373 g / cm^3
# Si number density = 20.029313 Si / 1000 Ang^3
#
#
#
# Elastic Constant Matrix: (Units=GPa)
#
#
# Indices 1 2 3 4 5 6 
#
# 1 103.9149 45.5675 36.3077 0.0000 2.8324 0.0000
# 2 45.5675 162.4550 75.2229 0.0000 0.8057 0.0000
# 3 36.3077 75.2229 117.4671 0.0000 6.5822 0.0000
# 4 0.0000 0.0000 0.0000 34.1191 0.0000 6.6224
# 5 2.8324 0.8057 6.5822 0.0000 18.5065 0.0000
# 6 0.0000 0.0000 0.0000 6.6224 0.0000 36.0780
#
#
#
# Elastic Compliance Matrix: (Units=1/GPa)
#
#
# Indices 1 2 3 4 5 6 
#
# 1 0.011336 -0.002241 -0.002017 0.000000 -0.000920 0.000000
# 2 -0.002241 0.009243 -0.005329 0.000000 0.001836 0.000000
# 3 -0.002017 -0.005329 0.012773 0.000000 -0.004002 0.000000
# 4 0.000000 0.000000 0.000000 0.030392 0.000000 -0.005579
# 5 -0.000920 0.001836 -0.004002 0.000000 0.055519 0.000000
# 6 0.000000 0.000000 0.000000 -0.005579 0.000000 0.028742
#
#
# Mechanical properties :
#
#
# Convention : Reuss Voigt Hill
#
# Bulk Modulus (GPa) = 70.53425 77.55926 74.04675
# Shear Modulus (GPa) = 29.08593 32.85665 30.97129
#
# Velocity S-wave (km/s) = 3.81487 4.05461 3.93657
# Velocity P-wave (km/s) = 7.39569 7.79274 7.59681
#
# Compressibility (1/GPa) = 0.01417751
#
# Stress axis : x y z
#
# Youngs Moduli (GPa) = 88.21591 108.19568 78.28886
#
# Poissons Ratio (x) = 0.24247 0.15792
# Poissons Ratio (y) = 0.19770 0.41719
# Poissons Ratio (z) = 0.17794 0.57656
#
# Static dielectric constant tensor:
#      x y z
#    x 3.403780 0.000000 -0.009300 
#    y 0.000000 3.822990 0.000000 
#    z -0.009300 0.000000 4.153810 
# 
# 
# High freq. dielectric constant tensor:
#      x y z
#    x 1.775960 0.000000 0.000890 
#    y 0.000000 1.794070 0.000000 
#    z 0.000890 0.000000 1.782240 
# 
# From -- ./inp_files/187774.got.cif
#   From: 2010.06.25/outbox.cif.g09.slc.cpg/sg15_94_cif.got.tgz:187774.got - 2010.06.28 07:06:18.
