data_PCOD8148696
_publ_section_title
;
Structure prediction by ZEFSAII (Michael W. Deem and Ramdas Pophale) SiO2 
 PCOD8148696
Probable space group: C 2/C
;
_chemical_formula_sum "Si O2"
_cell_formula_units_Z 44
_cell_length_a 19.615688
_cell_length_b 12.435673
_cell_length_c 8.928326
_cell_angle_alpha 90.000000
_cell_angle_beta 68.510988
_cell_angle_gamma 90.000000
_cell_volume 2026.532527
_symmetry_space_group_name_H-M "C 2/C"
_symmetry_group_IT_number 15
_symmetry_cell_setting 'monoclinic'
loop_
_space_group_symop_operation_xyz
x,y,z
-x,y,1/2-z
-x,-y,-z
x,-y,1/2+z
1/2+x,1/2+y,z
1/2-x,1/2+y,1/2-z
1/2-x,1/2-y,-z
1/2+x,1/2-y,1/2+z
loop_
_atom_site_type_symbol
_atom_site_label
_atom_site_fract_x
_atom_site_fract_y
_atom_site_fract_z
Si Si1 0.319157 0.254503 0.246571
Si Si2 0.500000 0.516372 0.250000
Si Si3 0.091106 0.412214 0.012212
Si Si4 0.840766 0.190110 0.071937
Si Si5 0.081201 0.380177 0.352038
Si Si6 0.896698 0.949889 0.079458
O O1 0.374973 0.170256 0.132228
O O2 0.237391 0.211656 0.287517
O O3 0.338114 0.273609 0.403352
O O4 0.329475 0.368001 0.151965
O O5 0.449629 0.443026 0.182027
O O6 0.445826 0.587559 0.396895
O O7 0.113833 0.531642 0.940413
O O8 0.119167 0.397521 0.159225
O O9 0.004987 0.394102 0.082688
O O10 0.901397 0.260860 0.106271
O O11 0.863568 0.067066 0.075103
#
# Coordination Sequence:
#
# PCOD8148696 Si02
#       6
#     8   4   8   8   8   8
#     4  11  26  44  65  94 136 177 216 270 329 396
#     4  10  24  42  72  98 134 166 222 282 334 394
#     4  10  23  42  67  96 128 170 219 267 320 384
#     4  11  26  44  65  94 136 177 216 270 329 396
#     4  10  23  42  67  96 128 170 219 267 320 384
#     4  11  24  44  68 102 131 176 218 280 333 394
#
# _framework density 21.711963000000001
#
# number of rings (size 3 to 8) (size 9 to 14) (size 15 to 20)
#    0.000    1.455    1.818    1.091   10.182    2.909 
#    0.000    0.000    0.000    0.000    0.000    0.000 
#    0.000    0.000    0.000    0.000    0.000    0.000 
#
# Total GULP energy -272800.659461 kJ/mol
# GULP energy per Si atom -12400.029975 kJ/mol
# Density = 2.166255 g / cm^3
# Si number density = 21.711963 Si / 1000 Ang^3
#
#
#
# Elastic Constant Matrix: (Units=GPa)
#
#
# Indices 1 2 3 4 5 6 
#
# 1 57.9618 29.1538 38.1645 0.0000 -0.0254 0.0000
# 2 29.1538 118.1354 49.1738 0.0000 -9.9886 0.0000
# 3 38.1645 49.1738 136.2126 0.0000 -15.5000 0.0000
# 4 0.0000 0.0000 0.0000 30.4934 0.0000 -1.2048
# 5 -0.0254 -9.9886 -15.5000 0.0000 23.3017 0.0000
# 6 0.0000 0.0000 0.0000 -1.2048 0.0000 19.6753
#
#
#
# Elastic Compliance Matrix: (Units=1/GPa)
#
#
# Indices 1 2 3 4 5 6 
#
# 1 0.022859 -0.003735 -0.005664 0.000000 -0.005344 0.000000
# 2 -0.003735 0.010662 -0.002470 0.000000 0.002923 0.000000
# 3 -0.005664 -0.002470 0.010493 0.000000 0.005915 0.000000
# 4 0.000000 0.000000 0.000000 0.032873 0.000000 0.002013
# 5 -0.005344 0.002923 0.005915 0.000000 0.048097 0.000000
# 6 0.000000 0.000000 0.000000 0.002013 0.000000 0.050948
#
#
# Mechanical properties :
#
#
# Convention : Reuss Voigt Hill
#
# Bulk Modulus (GPa) = 49.32141 60.58822 54.95482
# Shear Modulus (GPa) = 24.22126 27.74860 25.98493
#
# Velocity S-wave (km/s) = 3.34364 3.57884 3.46324
# Velocity P-wave (km/s) = 6.13776 6.71144 6.43100
#
# Compressibility (1/GPa) = 0.02027517
#
# Stress axis : x y z
#
# Youngs Moduli (GPa) = 43.74684 93.79196 95.29960
#
# Poissons Ratio (x) = 0.35034 0.53981
# Poissons Ratio (y) = 0.16340 0.23537
# Poissons Ratio (z) = 0.24780 0.23165
#
# Static dielectric constant tensor:
#      x y z
#    x 3.777580 0.000000 -0.075300 
#    y 0.000000 3.844840 0.000000 
#    z -0.075300 0.000000 4.458490 
# 
# 
# High freq. dielectric constant tensor:
#      x y z
#    x 1.838210 0.000000 -0.003850 
#    y 0.000000 1.850320 0.000000 
#    z -0.003850 0.000000 1.879230 
# 
# From -- ./inp_files/54334.got.cif
#   From: 2010.06.25/outbox.cif.g09.slc.cpg/sg15_28_cif.got.tgz:54334.got - 2010.06.28 07:06:18.
