data_PCOD8148479
_publ_section_title
;
Structure prediction by ZEFSAII (Michael W. Deem and Ramdas Pophale) SiO2 
 PCOD8148479
Probable space group: C 2/C
;
_chemical_formula_sum "Si O2"
_cell_formula_units_Z 44
_cell_length_a 11.261521
_cell_length_b 21.364547
_cell_length_c 8.746184
_cell_angle_alpha 90.000000
_cell_angle_beta 78.472891
_cell_angle_gamma 90.000000
_cell_volume 2061.864872
_symmetry_space_group_name_H-M "C 2/C"
_symmetry_group_IT_number 15
_symmetry_cell_setting 'monoclinic'
loop_
_space_group_symop_operation_xyz
x,y,z
-x,y,1/2-z
-x,-y,-z
x,-y,1/2+z
1/2+x,1/2+y,z
1/2-x,1/2+y,1/2-z
1/2-x,1/2-y,-z
1/2+x,1/2-y,1/2+z
loop_
_atom_site_type_symbol
_atom_site_label
_atom_site_fract_x
_atom_site_fract_y
_atom_site_fract_z
Si Si1 0.277622 0.489606 0.197743
Si Si2 0.040181 0.843453 0.577944
Si Si3 0.566458 0.946174 0.890816
Si Si4 0.000000 0.274853 0.250000
Si Si5 0.424065 0.551461 0.931067
Si Si6 0.685776 0.866099 0.081962
O O1 0.203964 0.530195 0.336740
O O2 0.399637 0.460692 0.253820
O O3 0.198782 0.430182 0.171444
O O4 0.297333 0.537273 0.050576
O O5 0.185538 0.843681 0.518311
O O6 0.000000 0.877185 0.750000
O O7 0.995599 0.771023 0.600983
O O8 0.974199 0.878797 0.454221
O O9 0.500000 0.931479 0.750000
O O10 0.584549 0.880849 0.977358
O O11 0.500000 0.000000 0.000000
O O12 0.123930 0.314991 0.209358
O O13 0.500000 0.500000 0.000000
#
# Coordination Sequence:
#
# PCOD8148479 Si02
#       6
#     8   8   8   4   8   8
#     4  12  23  36  65 100 135 166 208 275 345 391
#     4  10  23  41  67  90 127 175 224 269 327 386
#     4  12  22  38  62  98 136 170 214 266 338 405
#     4  10  26  44  68  88 128 192 230 262 320 392
#     4  12  21  38  62 101 132 161 208 273 343 399
#     4  12  22  43  68  93 135 176 223 271 326 402
#
# _framework density 21.339903
#
# number of rings (size 3 to 8) (size 9 to 14) (size 15 to 20)
#    0.545    0.000    5.455    4.364    0.000    0.000 
#    0.000    0.909    8.000    0.000    0.000    0.000 
#    0.000    0.000    0.000    0.000    0.000    0.000 
#
# Total GULP energy -272567.783051 kJ/mol
# GULP energy per Si atom -12389.444684 kJ/mol
# Density = 2.129133 g / cm^3
# Si number density = 21.339903 Si / 1000 Ang^3
#
#
#
# Elastic Constant Matrix: (Units=GPa)
#
#
# Indices 1 2 3 4 5 6 
#
# 1 101.1026 45.9868 42.0576 0.0000 -1.1444 0.0000
# 2 45.9868 123.5660 40.3201 0.0000 -5.2349 0.0000
# 3 42.0576 40.3201 104.8456 0.0000 5.2609 0.0000
# 4 0.0000 0.0000 0.0000 36.1464 0.0000 -7.3326
# 5 -1.1444 -5.2349 5.2609 0.0000 47.2375 0.0000
# 6 0.0000 0.0000 0.0000 -7.3326 0.0000 35.3763
#
#
#
# Elastic Compliance Matrix: (Units=1/GPa)
#
#
# Indices 1 2 3 4 5 6 
#
# 1 0.013163 -0.003608 -0.003910 0.000000 0.000355 0.000000
# 2 -0.003608 0.010340 -0.002597 0.000000 0.001348 0.000000
# 3 -0.003910 -0.002597 0.012192 0.000000 -0.001740 0.000000
# 4 0.000000 0.000000 0.000000 0.028880 0.000000 0.005986
# 5 0.000355 0.001348 -0.001740 0.000000 0.021521 0.000000
# 6 0.000000 0.000000 0.000000 0.005986 0.000000 0.029508
#
#
# Mechanical properties :
#
#
# Convention : Reuss Voigt Hill
#
# Bulk Modulus (GPa) = 64.66160 65.13814 64.89987
# Shear Modulus (GPa) = 35.46373 37.16202 36.31287
#
# Velocity S-wave (km/s) = 4.08100 4.17758 4.12957
# Velocity P-wave (km/s) = 7.25070 7.33893 7.29495
#
# Compressibility (1/GPa) = 0.01546513
#
# Stress axis : x y z
#
# Youngs Moduli (GPa) = 75.97281 96.71246 82.01799
#
# Poissons Ratio (x) = 0.34890 0.32073
# Poissons Ratio (y) = 0.27408 0.21299
# Poissons Ratio (z) = 0.29709 0.25115
#
# Static dielectric constant tensor:
#      x y z
#    x 3.948080 0.000000 -0.282030 
#    y 0.000000 2.945180 0.000000 
#    z -0.282030 0.000000 4.170690 
# 
# 
# High freq. dielectric constant tensor:
#      x y z
#    x 1.852620 0.000000 -0.028570 
#    y 0.000000 1.811700 0.000000 
#    z -0.028570 0.000000 1.846130 
# 
# From -- ./inp_files/31394.got.cif
#   From: 2010.06.25/outbox.cif.g09.slc.cpg/sg15_16_cif.got.tgz:31394.got - 2010.06.28 07:06:18.
