data_PCOD8148946
_publ_section_title
;
Structure prediction by ZEFSAII (Michael W. Deem and Ramdas Pophale) SiO2 
 PCOD8148946
Probable space group: C 2/C
;
_chemical_formula_sum "Si O2"
_cell_formula_units_Z 64
_cell_length_a 14.428928
_cell_length_b 24.356641
_cell_length_c 17.153307
_cell_angle_alpha 90.000000
_cell_angle_beta 31.279064
_cell_angle_gamma 90.000000
_cell_volume 3129.966868
_symmetry_space_group_name_H-M "C 2/C"
_symmetry_group_IT_number 15
_symmetry_cell_setting 'monoclinic'
loop_
_space_group_symop_operation_xyz
x,y,z
-x,y,1/2-z
-x,-y,-z
x,-y,1/2+z
1/2+x,1/2+y,z
1/2-x,1/2+y,1/2-z
1/2-x,1/2-y,-z
1/2+x,1/2-y,1/2+z
loop_
_atom_site_type_symbol
_atom_site_label
_atom_site_fract_x
_atom_site_fract_y
_atom_site_fract_z
Si Si1 0.069504 0.746389 0.465074
Si Si2 0.046804 0.200824 0.303028
Si Si3 0.134652 0.641307 0.918357
Si Si4 0.175312 0.479394 0.072611
Si Si5 0.873994 0.450422 0.565489
Si Si6 0.473504 0.361908 0.079822
Si Si7 0.485377 0.582413 0.111940
Si Si8 0.826097 0.905026 0.422520
O O1 0.253606 0.715983 0.314157
O O2 0.032117 0.798099 0.437161
O O3 0.081027 0.765881 0.546569
O O4 0.907236 0.704924 0.565882
O O5 0.000000 0.220323 0.250000
O O6 0.014740 0.135840 0.332928
O O7 0.280813 0.620221 0.751176
O O8 0.205824 0.634141 0.954995
O O9 0.955999 0.606745 0.034286
O O10 0.000000 0.472298 0.250000
O O11 0.149872 0.447723 0.009905
O O12 0.337769 0.452751 0.002614
O O13 0.210563 0.542963 0.030725
O O14 0.682432 0.456304 0.745615
O O15 0.000000 0.500000 0.500000
O O16 0.623115 0.369866 0.038229
O O17 0.524470 0.400441 0.971051
O O18 0.000000 0.925640 0.250000
#
# Coordination Sequence:
#
# PCOD8148946 Si02
#       8
#     8   8   8   8   8   8   8   8
#     4  11  22  41  66  93 134 167 220 274 330 391
#     4  11  22  41  63  97 127 174 212 268 330 401
#     4  11  22  43  66  95 131 174 224 276 327 396
#     4  12  26  44  65 101 135 174 225 270 327 402
#     4  12  24  41  68  97 132 177 217 274 330 392
#     4  10  24  43  65  98 129 174 223 277 330 390
#     4  11  25  43  68  95 137 174 219 272 335 396
#     4  10  23  43  68  91 130 176 226 276 330 389
#
# _framework density 20.447500000000002
#
# number of rings (size 3 to 8) (size 9 to 14) (size 15 to 20)
#    0.000    1.000    3.750    3.000    3.500    1.000 
#    0.000    0.000    0.000    0.000    0.000    0.000 
#    0.000    0.000    0.000    0.000    0.000    0.000 
#
# Total GULP energy -396979.779976 kJ/mol
# GULP energy per Si atom -12405.618124 kJ/mol
# Density = 2.040096 g / cm^3
# Si number density = 20.447500 Si / 1000 Ang^3
#
#
#
# Elastic Constant Matrix: (Units=GPa)
#
#
# Indices 1 2 3 4 5 6 
#
# 1 141.2498 48.3344 51.4028 0.0140 9.9007 -0.0104
# 2 48.3344 87.9718 36.3813 -0.0062 -1.5276 0.0117
# 3 51.4028 36.3813 127.0526 0.0050 -0.8231 0.0056
# 4 0.0140 -0.0062 0.0050 30.2375 -0.0020 -4.4270
# 5 9.9007 -1.5276 -0.8231 -0.0020 32.2359 0.0064
# 6 -0.0104 0.0117 0.0056 -4.4270 0.0064 24.0993
#
#
#
# Elastic Compliance Matrix: (Units=1/GPa)
#
#
# Indices 1 2 3 4 5 6 
#
# 1 0.009778 -0.004293 -0.002748 -0.000004 -0.003277 0.000007
# 2 -0.004293 0.014788 -0.002485 0.000004 0.001956 -0.000008
# 3 -0.002748 -0.002485 0.009700 -0.000001 0.000974 -0.000003
# 4 -0.000004 0.000004 -0.000001 0.033986 0.000002 0.006243
# 5 -0.003277 0.001956 0.000974 0.000002 0.032145 -0.000011
# 6 0.000007 -0.000008 -0.000003 0.006243 -0.000011 0.042642
#
#
# Mechanical properties :
#
#
# Convention : Reuss Voigt Hill
#
# Bulk Modulus (GPa) = 65.72662 69.83458 67.78060
# Shear Modulus (GPa) = 29.91100 31.99159 30.95130
#
# Velocity S-wave (km/s) = 3.82883 3.95976 3.89485
# Velocity P-wave (km/s) = 7.19448 7.42519 7.31074
#
# Compressibility (1/GPa) = 0.01521453
#
# Stress axis : x y z
#
# Youngs Moduli (GPa) = 102.26582 67.62438 103.08826
#
# Poissons Ratio (x) = 0.29031 0.28330
# Poissons Ratio (y) = 0.43903 0.25616
# Poissons Ratio (z) = 0.28104 0.16804
#
# Static dielectric constant tensor:
#      x y z
#    x 3.742310 -0.000030 0.044710 
#    y -0.000030 3.648340 0.000090 
#    z 0.044710 0.000090 3.811260 
# 
# 
# High freq. dielectric constant tensor:
#      x y z
#    x 1.805670 0.000000 0.001960 
#    y 0.000000 1.798690 0.000010 
#    z 0.001960 0.000010 1.808930 
# 
# From -- ./inp_files/207309.got.cif
#   From: 2010.06.25/outbox.cif.g09.slc.cpg/sg15_104_cif.got.tgz:207309.got - 2010.06.28 07:06:18.
