data_PCOD8148776
_publ_section_title
;
Structure prediction by ZEFSAII (Michael W. Deem and Ramdas Pophale) SiO2 
 PCOD8148776
Probable space group: C 2/C
;
_chemical_formula_sum "Si O2"
_cell_formula_units_Z 44
_cell_length_a 14.511263
_cell_length_b 10.491153
_cell_length_c 12.682812
_cell_angle_alpha 90.000000
_cell_angle_beta 104.163825
_cell_angle_gamma 90.000000
_cell_volume 1872.132628
_symmetry_space_group_name_H-M "C 2/C"
_symmetry_group_IT_number 15
_symmetry_cell_setting 'monoclinic'
loop_
_space_group_symop_operation_xyz
x,y,z
-x,y,1/2-z
-x,-y,-z
x,-y,1/2+z
1/2+x,1/2+y,z
1/2-x,1/2+y,1/2-z
1/2-x,1/2-y,-z
1/2+x,1/2-y,1/2+z
loop_
_atom_site_type_symbol
_atom_site_label
_atom_site_fract_x
_atom_site_fract_y
_atom_site_fract_z
Si Si1 0.399225 0.039828 0.424829
Si Si2 0.367424 0.834495 0.702050
Si Si3 0.794638 0.578879 0.594416
Si Si4 0.168451 0.279793 0.190199
Si Si5 0.410682 0.474600 0.901015
Si Si6 0.000000 0.131249 0.750000
O O1 0.346556 0.912159 0.372670
O O2 0.500000 0.000000 0.500000
O O3 0.410541 0.136348 0.330430
O O4 0.327038 0.115248 0.484988
O O5 0.262477 0.783492 0.674890
O O6 0.431411 0.726183 0.663558
O O7 0.368303 0.963098 0.635620
O O8 0.821783 0.694097 0.681302
O O9 0.685552 0.531269 0.573721
O O10 0.090099 0.173959 0.135444
O O11 0.427916 0.550433 0.798705
O O12 0.500000 0.500000 0.000000
#
# Coordination Sequence:
#
# PCOD8148776 Si02
#       6
#     8   8   8   8   8   4
#     4  11  25  42  72 101 132 183 242 282 343 415
#     4  10  23  42  70  98 136 185 221 290 352 408
#     4  10  23  46  70  99 136 184 233 284 350 413
#     4  10  24  46  65 101 140 182 229 286 350 411
#     4  11  27  41  72 107 138 187 229 287 355 405
#     4  12  24  46  68 100 146 174 234 288 350 414
#
# _framework density 23.502607999999999
#
# number of rings (size 3 to 8) (size 9 to 14) (size 15 to 20)
#    0.000    1.455    1.818    1.091    7.636    5.818 
#    0.000    0.000    0.000    0.000    0.000    0.000 
#    0.000    0.000    0.000    0.000    0.000    0.000 
#
# Total GULP energy -272619.960147 kJ/mol
# GULP energy per Si atom -12391.816370 kJ/mol
# Density = 2.344912 g / cm^3
# Si number density = 23.502608 Si / 1000 Ang^3
#
#
#
# Elastic Constant Matrix: (Units=GPa)
#
#
# Indices 1 2 3 4 5 6 
#
# 1 84.3182 10.2780 23.1636 0.0000 5.3847 0.0000
# 2 10.2780 85.9641 13.4770 0.0000 6.1823 0.0000
# 3 23.1636 13.4770 68.7670 0.0000 14.5054 0.0000
# 4 0.0000 0.0000 0.0000 24.3882 0.0000 5.7970
# 5 5.3847 6.1823 14.5054 0.0000 39.5634 0.0000
# 6 0.0000 0.0000 0.0000 5.7970 0.0000 38.8821
#
#
#
# Elastic Compliance Matrix: (Units=1/GPa)
#
#
# Indices 1 2 3 4 5 6 
#
# 1 0.013137 -0.000901 -0.004228 0.000000 -0.000097 0.000000
# 2 -0.000901 0.012107 -0.001838 0.000000 -0.001095 0.000000
# 3 -0.004228 -0.001838 0.017498 0.000000 -0.005553 0.000000
# 4 0.000000 0.000000 0.000000 0.042510 0.000000 -0.006338
# 5 -0.000097 -0.001095 -0.005553 0.000000 0.027496 0.000000
# 6 0.000000 0.000000 0.000000 -0.006338 0.000000 0.026664
#
#
# Mechanical properties :
#
#
# Convention : Reuss Voigt Hill
#
# Bulk Modulus (GPa) = 34.71300 36.98738 35.85019
# Shear Modulus (GPa) = 30.68434 33.37544 32.02989
#
# Velocity S-wave (km/s) = 3.61719 3.77247 3.69565
# Velocity P-wave (km/s) = 5.67867 5.89467 5.78768
#
# Compressibility (1/GPa) = 0.02880765
#
# Stress axis : x y z
#
# Youngs Moduli (GPa) = 76.11849 82.59374 57.15064
#
# Poissons Ratio (x) = 0.07441 0.24164
# Poissons Ratio (y) = 0.06857 0.10506
# Poissons Ratio (z) = 0.32185 0.15183
#
# Static dielectric constant tensor:
#      x y z
#    x 4.351830 0.000000 -0.009580 
#    y 0.000000 5.530110 0.000000 
#    z -0.009580 0.000000 4.357100 
# 
# 
# High freq. dielectric constant tensor:
#      x y z
#    x 1.943160 0.000000 0.005250 
#    y 0.000000 1.941480 0.000000 
#    z 0.005250 0.000000 1.920030 
# 
# From -- ./inp_files/94982.got.cif
#   From: 2010.06.25/outbox.cif.g09.slc.cpg/sg15_48_cif.got.tgz:94982.got - 2010.06.28 07:06:18.
