data_PCOD8148021
_publ_section_title
;
Structure prediction by ZEFSAII (Michael W. Deem and Ramdas Pophale) SiO2 
 PCOD8148021
Probable space group: C 2/C
;
_chemical_formula_sum "Si O2"
_cell_formula_units_Z 20
_cell_length_a 4.910469
_cell_length_b 15.651080
_cell_length_c 8.861835
_cell_angle_alpha 90.000000
_cell_angle_beta 98.332881
_cell_angle_gamma 90.000000
_cell_volume 673.878545
_symmetry_space_group_name_H-M "C 2/C"
_symmetry_group_IT_number 15
_symmetry_cell_setting 'monoclinic'
loop_
_space_group_symop_operation_xyz
x,y,z
-x,y,1/2-z
-x,-y,-z
x,-y,1/2+z
1/2+x,1/2+y,z
1/2-x,1/2+y,1/2-z
1/2-x,1/2-y,-z
1/2+x,1/2-y,1/2+z
loop_
_atom_site_type_symbol
_atom_site_label
_atom_site_fract_x
_atom_site_fract_y
_atom_site_fract_z
Si Si1 0.083674 0.860417 0.533069
Si Si2 0.500000 0.242725 0.250000
Si Si3 0.735404 0.001447 0.147688
O O1 0.231737 0.812715 0.684483
O O2 0.949813 0.799076 0.396202
O O3 0.318229 0.929161 0.486339
O O4 0.821312 0.908961 0.579493
O O5 0.500000 0.013654 0.250000
O O6 0.000000 0.960390 0.250000
#
# Coordination Sequence:
#
# PCOD8148021 Si02
#       3
#     8   4   8
#     4  10  24  50  89 122 173 217 287 343 428 498
#     4  10  22  54  86 126 170 224 272 360 420 502
#     4  11  26  53  87 123 165 225 283 348 414 512
#
# _framework density 29.678940000000001
#
# number of rings (size 3 to 8) (size 9 to 14) (size 15 to 20)
#    0.000    1.600    2.000    0.000    2.800    6.400 
#    0.000   14.000    0.000    0.000    0.000    0.000 
#    0.000    0.000    0.000    0.000    0.000    0.000 
#
# Total GULP energy -123908.404449 kJ/mol
# GULP energy per Si atom -12390.840445 kJ/mol
# Density = 2.961139 g / cm^3
# Si number density = 29.678940 Si / 1000 Ang^3
#
#
#
# Elastic Constant Matrix: (Units=GPa)
#
#
# Indices 1 2 3 4 5 6 
#
# 1 213.1823 88.4603 113.7814 0.0000 -44.2677 0.0000
# 2 88.4603 194.3696 106.6025 0.0000 -1.4739 0.0000
# 3 113.7814 106.6025 231.9381 0.0000 37.9975 0.0000
# 4 0.0000 0.0000 0.0000 62.6881 0.0000 -27.3662
# 5 -44.2677 -1.4739 37.9975 0.0000 67.3453 0.0000
# 6 0.0000 0.0000 0.0000 -27.3662 0.0000 67.2462
#
#
#
# Elastic Compliance Matrix: (Units=1/GPa)
#
#
# Indices 1 2 3 4 5 6 
#
# 1 0.011035 -0.001319 -0.006601 0.000000 0.010949 0.000000
# 2 -0.001319 0.007326 -0.002870 0.000000 0.000913 0.000000
# 3 -0.006601 -0.002870 0.010566 0.000000 -0.010363 0.000000
# 4 0.000000 0.000000 0.000000 0.019398 0.000000 0.007894
# 5 0.010949 0.000913 -0.010363 0.000000 0.027913 0.000000
# 6 0.000000 0.000000 0.000000 0.007894 0.000000 0.018083
#
#
# Mechanical properties :
#
#
# Convention : Reuss Voigt Hill
#
# Bulk Modulus (GPa) = 136.08374 139.68648 137.88511
# Shear Modulus (GPa) = 42.24800 61.49899 51.87349
#
# Velocity S-wave (km/s) = 3.77702 4.55702 4.18523
# Velocity P-wave (km/s) = 8.06057 8.65197 8.36150
#
# Compressibility (1/GPa) = 0.00734842
#
# Stress axis : x y z
#
# Youngs Moduli (GPa) = 90.62426 136.50411 94.64022
#
# Poissons Ratio (x) = 0.18002 0.62470
# Poissons Ratio (y) = 0.11951 0.27158
# Poissons Ratio (z) = 0.59819 0.39171
#
# Static dielectric constant tensor:
#      x y z
#    x 5.075830 0.000000 0.657980 
#    y 0.000000 6.046250 0.000000 
#    z 0.657980 0.000000 6.837000 
# 
# 
# High freq. dielectric constant tensor:
#      x y z
#    x 2.203310 0.000000 0.014980 
#    y 0.000000 2.224520 0.000000 
#    z 0.014980 0.000000 2.267630 
# 
# From -- ./inp_files/19021.got.cif
#   From: 2010.06.25/outbox.cif.g09.slc.cpg/sg15_10_cif.got.tgz:19021.got - 2010.06.28 07:06:18.
