data_PCOD8148948
_publ_section_title
;
Structure prediction by ZEFSAII (Michael W. Deem and Ramdas Pophale) SiO2 
 PCOD8148948
Probable space group: C 2/C
;
_chemical_formula_sum "Si O2"
_cell_formula_units_Z 64
_cell_length_a 8.594661
_cell_length_b 24.346587
_cell_length_c 14.440499
_cell_angle_alpha 90.000000
_cell_angle_beta 86.483008
_cell_angle_gamma 90.000000
_cell_volume 3015.993082
_symmetry_space_group_name_H-M "C 2/C"
_symmetry_group_IT_number 15
_symmetry_cell_setting 'monoclinic'
loop_
_space_group_symop_operation_xyz
x,y,z
-x,y,1/2-z
-x,-y,-z
x,-y,1/2+z
1/2+x,1/2+y,z
1/2-x,1/2+y,1/2-z
1/2-x,1/2-y,-z
1/2+x,1/2-y,1/2+z
loop_
_atom_site_type_symbol
_atom_site_label
_atom_site_fract_x
_atom_site_fract_y
_atom_site_fract_z
Si Si1 0.107358 0.846719 0.661883
Si Si2 0.567574 0.324114 0.350312
Si Si3 0.494870 0.591062 0.998481
Si Si4 0.499796 0.009835 0.145035
Si Si5 0.099319 0.720012 0.661059
Si Si6 0.076122 0.729015 0.022808
Si Si7 0.747509 0.498498 0.007584
Si Si8 0.036376 0.634714 0.348226
O O1 0.007479 0.859646 0.573148
O O2 0.146248 0.783006 0.675500
O O3 0.277700 0.873401 0.645564
O O4 0.000000 0.869365 0.750000
O O5 0.500000 0.320193 0.250000
O O6 0.518623 0.382341 0.396417
O O7 0.753404 0.319990 0.345948
O O8 0.510302 0.273923 0.413905
O O9 0.620996 0.545763 0.020469
O O10 0.327868 0.561358 0.007417
O O11 0.500000 0.986603 0.250000
O O12 0.639728 0.983402 0.080548
O O13 0.535747 0.074455 0.142758
O O14 0.337320 0.994613 0.102076
O O15 0.000000 0.697571 0.750000
O O16 0.002695 0.716701 0.571441
O O17 0.058706 0.671014 0.075041
O O18 0.250000 0.750000 0.000000
O O19 0.000000 0.661356 0.250000
#
# Coordination Sequence:
#
# PCOD8148948 Si02
#       8
#     8   8   8   8   8   8   8   8
#     4  11  23  39  67  97 129 169 218 269 323 381
#     4  12  25  43  63  95 135 175 217 259 324 401
#     4  11  24  43  66  94 127 170 220 270 328 384
#     4  10  23  43  68  94 128 165 217 272 335 384
#     4  11  24  43  64  95 135 173 216 265 316 387
#     4  12  25  39  65  95 134 173 211 262 322 391
#     4  10  24  44  67  94 126 165 221 279 327 389
#     4  11  24  39  65  98 129 167 215 268 320 389
#
# _framework density 21.220208
#
# number of rings (size 3 to 8) (size 9 to 14) (size 15 to 20)
#    0.000    1.000    3.750    2.250    8.750    1.000 
#    0.000    3.125    0.000    0.000    0.000    0.000 
#    0.000    0.000    0.000    0.000    0.000    0.000 
#
# Total GULP energy -396820.838301 kJ/mol
# GULP energy per Si atom -12400.651197 kJ/mol
# Density = 2.117191 g / cm^3
# Si number density = 21.220208 Si / 1000 Ang^3
#
#
#
# Elastic Constant Matrix: (Units=GPa)
#
#
# Indices 1 2 3 4 5 6 
#
# 1 110.9717 16.3583 59.1179 0.0000 9.2104 0.0000
# 2 16.3583 37.6898 14.3444 0.0000 1.5871 0.0000
# 3 59.1179 14.3444 168.9251 0.0000 18.2284 0.0000
# 4 0.0000 0.0000 0.0000 -39.6047 0.0000 66.6628
# 5 9.2104 1.5871 18.2284 0.0000 38.6572 0.0000
# 6 0.0000 0.0000 0.0000 66.6628 0.0000 -44.1260
#
#
#
# Elastic Compliance Matrix: (Units=1/GPa)
#
#
# Indices 1 2 3 4 5 6 
#
# 1 0.011555 -0.003591 -0.003643 0.000000 -0.000888 0.000000
# 2 -0.003591 0.028535 -0.001193 0.000000 0.000247 0.000000
# 3 -0.003643 -0.001193 0.007583 0.000000 -0.002659 0.000000
# 4 0.000000 0.000000 0.000000 0.016365 0.000000 0.024723
# 5 -0.000888 0.000247 -0.002659 0.000000 0.027323 0.000000
# 6 0.000000 0.000000 0.000000 0.024723 0.000000 0.014688
#
#
# Mechanical properties :
#
#
# Convention : Reuss Voigt Hill
#
# Bulk Modulus (GPa) = 32.44831 55.24752 43.84792
# Shear Modulus (GPa) = 37.54401 6.16971 21.85686
#
# Velocity S-wave (km/s) = 4.21082 1.70698 3.21285
# Velocity P-wave (km/s) = 6.24225 5.47512 5.87123
#
# Compressibility (1/GPa) = 0.03081825
#
# Stress axis : x y z
#
# Youngs Moduli (GPa) = 86.54118 35.04512 131.87500
#
# Poissons Ratio (x) = 0.12586 0.48044
# Poissons Ratio (y) = 0.31079 0.15730
# Poissons Ratio (z) = 0.31528 0.04180
#
# Static dielectric constant tensor:
#      x y z
#    x -21.932610 0.000000 17.492400 
#    y 0.000000 3.790460 0.000000 
#    z 17.492400 0.000000 -7.851680 
# 
# 
# High freq. dielectric constant tensor:
#      x y z
#    x 1.841200 0.000000 0.000540 
#    y 0.000000 1.820710 0.000000 
#    z 0.000540 0.000000 1.843940 
# 
# From -- ./inp_files/137870.got.cif
#   From: 2010.06.25/outbox.cif.g09.slc.cpg/sg15_69_cif.got.tgz:137870.got - 2010.06.28 07:06:18.
