data_PCOD8148900
_publ_section_title
;
Structure prediction by ZEFSAII (Michael W. Deem and Ramdas Pophale) SiO2 
 PCOD8148900
Probable space group: C 2/C
;
_chemical_formula_sum "Si O2"
_cell_formula_units_Z 56
_cell_length_a 13.888218
_cell_length_b 12.582002
_cell_length_c 28.523097
_cell_angle_alpha 90.000000
_cell_angle_beta 30.180490
_cell_angle_gamma 90.000000
_cell_volume 2505.670570
_symmetry_space_group_name_H-M "C 2/C"
_symmetry_group_IT_number 15
_symmetry_cell_setting 'monoclinic'
loop_
_space_group_symop_operation_xyz
x,y,z
-x,y,1/2-z
-x,-y,-z
x,-y,1/2+z
1/2+x,1/2+y,z
1/2-x,1/2+y,1/2-z
1/2-x,1/2-y,-z
1/2+x,1/2-y,1/2+z
loop_
_atom_site_type_symbol
_atom_site_label
_atom_site_fract_x
_atom_site_fract_y
_atom_site_fract_z
Si Si1 0.797633 0.954698 0.955992
Si Si2 0.585329 0.464653 0.915242
Si Si3 0.805715 0.880573 0.853288
Si Si4 0.473461 0.651846 0.675484
Si Si5 0.784938 0.764544 0.596404
Si Si6 0.890485 0.805583 0.112175
Si Si7 0.376905 0.070208 0.618331
O O1 0.824935 0.872246 0.901382
O O2 0.921071 0.920675 0.949098
O O3 0.863046 0.070897 0.910965
O O4 0.572944 0.951753 0.064428
O O5 0.731510 0.367095 0.862283
O O6 0.684031 0.571344 0.853608
O O7 0.500000 0.500000 0.000000
O O8 0.765289 0.764878 0.848709
O O9 0.000000 0.925376 0.750000
O O10 0.648957 0.967005 0.903701
O O11 0.570406 0.727639 0.673600
O O12 0.409521 0.726885 0.658881
O O13 0.294927 0.588979 0.772757
O O14 0.900499 0.671698 0.574442
O O15 0.903998 0.795885 0.499810
#
# Coordination Sequence:
#
# PCOD8148900 Si02
#       7
#     8   8   8   8   8   8   8
#     4  11  22  43  73  93 140 185 222 292 347 403
#     4   9  23  44  66  97 134 184 231 273 347 427
#     4  12  22  41  68 100 137 172 232 292 341 408
#     4  11  23  43  69 105 139 178 238 286 339 420
#     4  11  20  41  70  94 136 180 221 288 342 408
#     4  10  23  43  66  98 136 177 231 279 350 416
#     4  12  23  40  71 111 132 177 240 289 345 408
#
# _framework density 22.349307
#
# number of rings (size 3 to 8) (size 9 to 14) (size 15 to 20)
#    0.000    1.143    4.286    2.143    0.000    4.000 
#    5.143    1.429   15.714    0.000    0.000    0.000 
#    0.000    0.000    0.000    0.000    0.000    0.000 
#
# Total GULP energy -347135.505495 kJ/mol
# GULP energy per Si atom -12397.696625 kJ/mol
# Density = 2.229844 g / cm^3
# Si number density = 22.349307 Si / 1000 Ang^3
#
#
#
# Elastic Constant Matrix: (Units=GPa)
#
#
# Indices 1 2 3 4 5 6 
#
# 1 169.0723 67.1478 37.9407 0.0000 5.6656 0.0004
# 2 67.1478 123.4853 23.5576 0.0006 -10.7199 -0.0004
# 3 37.9407 23.5576 89.6258 -0.0009 -5.0384 0.0042
# 4 0.0000 0.0006 -0.0009 24.1332 0.0021 -5.2311
# 5 5.6656 -10.7199 -5.0384 0.0021 27.5350 0.0008
# 6 0.0004 -0.0004 0.0042 -5.2311 0.0008 42.6691
#
#
#
# Elastic Compliance Matrix: (Units=1/GPa)
#
#
# Indices 1 2 3 4 5 6 
#
# 1 0.008378 -0.004397 -0.002611 0.000000 -0.003914 0.000000
# 2 -0.004397 0.011076 -0.000764 -0.000001 0.005077 0.000000
# 3 -0.002611 -0.000764 0.012607 0.000000 0.002546 -0.000001
# 4 0.000000 -0.000001 0.000000 0.042568 -0.000004 0.005219
# 5 -0.003914 0.005077 0.002546 -0.000004 0.039565 -0.000001
# 6 0.000000 0.000000 -0.000001 0.005219 -0.000001 0.024076
#
#
# Mechanical properties :
#
#
# Convention : Reuss Voigt Hill
#
# Bulk Modulus (GPa) = 60.54853 71.05283 65.80068
# Shear Modulus (GPa) = 31.38334 35.76996 33.57665
#
# Velocity S-wave (km/s) = 3.75136 4.00496 3.88023
# Velocity P-wave (km/s) = 6.77601 7.29707 7.04136
#
# Compressibility (1/GPa) = 0.01651568
#
# Stress axis : x y z
#
# Youngs Moduli (GPa) = 119.35844 90.28620 79.32251
#
# Poissons Ratio (x) = 0.39703 0.20710
# Poissons Ratio (y) = 0.52487 0.06062
# Poissons Ratio (z) = 0.31162 0.06900
#
# Static dielectric constant tensor:
#      x y z
#    x 4.308420 0.000010 0.124460 
#    y 0.000010 4.316560 0.000010 
#    z 0.124460 0.000010 3.744350 
# 
# 
# High freq. dielectric constant tensor:
#      x y z
#    x 1.886910 0.000000 0.010200 
#    y 0.000000 1.876400 0.000000 
#    z 0.010200 0.000000 1.863030 
# 
# From -- ./inp_files/313695.got.cif
#   From: 2010.06.25/outbox.cif.g09.slc.cpg/sg15_157_cif.got.tgz:313695.got - 2010.06.28 07:06:18.
