data_PCOD8148484
_publ_section_title
;
Structure prediction by ZEFSAII (Michael W. Deem and Ramdas Pophale) SiO2 
 PCOD8148484
Probable space group: C 2/C
;
_chemical_formula_sum "Si O2"
_cell_formula_units_Z 48
_cell_length_a 12.539361
_cell_length_b 11.623792
_cell_length_c 18.496827
_cell_angle_alpha 90.000000
_cell_angle_beta 120.487967
_cell_angle_gamma 90.000000
_cell_volume 2323.242650
_symmetry_space_group_name_H-M "C 2/C"
_symmetry_group_IT_number 15
_symmetry_cell_setting 'monoclinic'
loop_
_space_group_symop_operation_xyz
x,y,z
-x,y,1/2-z
-x,-y,-z
x,-y,1/2+z
1/2+x,1/2+y,z
1/2-x,1/2+y,1/2-z
1/2-x,1/2-y,-z
1/2+x,1/2-y,1/2+z
loop_
_atom_site_type_symbol
_atom_site_label
_atom_site_fract_x
_atom_site_fract_y
_atom_site_fract_z
Si Si1 0.873769 0.996131 0.673713
Si Si2 0.197772 0.876840 0.221319
Si Si3 0.033916 0.546585 0.683209
Si Si4 0.395630 0.776482 0.045341
Si Si5 0.007569 0.967819 0.585759
Si Si6 0.364504 0.148119 0.380334
O O1 0.770865 0.898510 0.646724
O O2 0.000000 0.942378 0.750000
O O3 0.900112 0.028968 0.598413
O O4 0.836737 0.111346 0.705300
O O5 0.344279 0.876607 0.264376
O O6 0.142132 0.761016 0.170893
O O7 0.141319 0.989517 0.160641
O O8 0.053284 0.443072 0.634177
O O9 0.000000 0.496170 0.750000
O O10 0.925033 0.627431 0.615309
O O11 0.484671 0.667563 0.089561
O O12 0.250000 0.750000 0.000000
O O13 0.432194 0.822535 0.978538
O O14 0.000000 0.000000 0.500000
#
# Coordination Sequence:
#
# PCOD8148484 Si02
#       6
#     8   8   8   8   8   8
#     4   9  21  37  63  95 124 167 220 264 312 386
#     4  10  23  41  67  93 132 174 217 268 327 386
#     4  11  27  40  65  97 132 173 221 270 325 385
#     4  12  24  42  72  93 132 168 226 272 322 380
#     4  11  22  39  66  99 125 170 217 268 321 389
#     4  11  22  43  63  93 132 172 213 273 324 390
#
# _framework density 20.660777
#
# number of rings (size 3 to 8) (size 9 to 14) (size 15 to 20)
#    0.000    1.333    3.333    1.500    7.000    2.000 
#    0.000    0.000    0.000    4.000    0.000    0.000 
#    0.000    0.000    0.000    0.000    0.000    0.000 
#
# Total GULP energy -297502.059368 kJ/mol
# GULP energy per Si atom -12395.919140 kJ/mol
# Density = 2.061375 g / cm^3
# Si number density = 20.660777 Si / 1000 Ang^3
#
#
#
# Elastic Constant Matrix: (Units=GPa)
#
#
# Indices 1 2 3 4 5 6 
#
# 1 105.3790 34.3498 56.2443 0.0000 -13.6816 0.0000
# 2 34.3498 96.5493 43.3110 0.0000 0.5983 0.0000
# 3 56.2443 43.3110 111.9662 0.0000 -29.0320 0.0000
# 4 0.0000 0.0000 0.0000 33.6902 0.0000 -0.1239
# 5 -13.6816 0.5983 -29.0320 0.0000 52.6482 0.0000
# 6 0.0000 0.0000 0.0000 -0.1239 0.0000 20.6293
#
#
#
# Elastic Compliance Matrix: (Units=1/GPa)
#
#
# Indices 1 2 3 4 5 6 
#
# 1 0.013313 -0.002145 -0.005781 0.000000 0.000296 0.000000
# 2 -0.002145 0.013384 -0.004999 0.000000 -0.003466 0.000000
# 3 -0.005781 -0.004999 0.015629 0.000000 0.007173 0.000000
# 4 0.000000 0.000000 0.000000 0.029683 0.000000 0.000178
# 5 0.000296 -0.003466 0.007173 0.000000 0.023066 0.000000
# 6 0.000000 0.000000 0.000000 0.000178 0.000000 0.048476
#
#
# Mechanical properties :
#
#
# Convention : Reuss Voigt Hill
#
# Bulk Modulus (GPa) = 60.69145 64.63386 62.66265
# Shear Modulus (GPa) = 28.58929 33.39283 30.99106
#
# Velocity S-wave (km/s) = 3.72391 4.02461 3.87718
# Velocity P-wave (km/s) = 6.92308 7.27654 7.10200
#
# Compressibility (1/GPa) = 0.01647679
#
# Stress axis : x y z
#
# Youngs Moduli (GPa) = 75.11666 74.71446 63.98531
#
# Poissons Ratio (x) = 0.16025 0.36989
# Poissons Ratio (y) = 0.16112 0.31984
# Poissons Ratio (z) = 0.43424 0.37347
#
# Static dielectric constant tensor:
#      x y z
#    x 3.905170 0.000000 -0.291350 
#    y 0.000000 3.588050 0.000000 
#    z -0.291350 0.000000 4.085080 
# 
# 
# High freq. dielectric constant tensor:
#      x y z
#    x 1.809130 0.000000 -0.016430 
#    y 0.000000 1.790500 0.000000 
#    z -0.016430 0.000000 1.822770 
# 
# From -- ./inp_files/196606.got.cif
#   From: 2010.06.25/outbox.cif.g09.slc.cpg/sg15_99_cif.got.tgz:196606.got - 2010.06.28 07:06:18.
