data_PCOD8148162
_publ_section_title
;
Structure prediction by ZEFSAII (Michael W. Deem and Ramdas Pophale) SiO2 
 PCOD8148162
Probable space group: C 2/C
;
_chemical_formula_sum "Si O2"
_cell_formula_units_Z 56
_cell_length_a 34.294418
_cell_length_b 13.411132
_cell_length_c 13.420913
_cell_angle_alpha 90.000000
_cell_angle_beta 24.338600
_cell_angle_gamma 90.000000
_cell_volume 2543.919395
_symmetry_space_group_name_H-M "C 2/C"
_symmetry_group_IT_number 15
_symmetry_cell_setting 'monoclinic'
loop_
_space_group_symop_operation_xyz
x,y,z
-x,y,1/2-z
-x,-y,-z
x,-y,1/2+z
1/2+x,1/2+y,z
1/2-x,1/2+y,1/2-z
1/2-x,1/2-y,-z
1/2+x,1/2-y,1/2+z
loop_
_atom_site_type_symbol
_atom_site_label
_atom_site_fract_x
_atom_site_fract_y
_atom_site_fract_z
Si Si1 0.500000 0.134379 0.750000
Si Si2 0.086172 0.501976 0.725635
Si Si3 0.685370 0.804066 0.510351
Si Si4 0.883966 0.796754 0.140099
Si Si5 0.000000 0.160311 0.750000
Si Si6 0.550044 0.494155 0.985828
Si Si7 0.242000 0.402865 0.998087
Si Si8 0.689667 0.769967 0.284041
O O1 0.560524 0.066962 0.687150
O O2 0.575361 0.202828 0.515836
O O3 0.117441 0.390693 0.623283
O O4 0.173784 0.531219 0.590854
O O5 0.000000 0.500000 0.000000
O O6 0.779191 0.832400 0.352391
O O7 0.621154 0.733320 0.730544
O O8 0.723178 0.756107 0.319975
O O9 0.950162 0.893225 0.969533
O O10 0.082801 0.233380 0.526574
O O11 0.981838 0.082041 0.703226
O O12 0.656665 0.454602 0.728486
O O13 0.500000 0.500000 0.000000
O O14 0.242067 0.300341 0.937413
O O15 0.201144 0.379563 0.205173
#
# Coordination Sequence:
#
# PCOD8148162 Si02
#       8
#     4   8   8   8   4   8   8   8
#     4  12  27  43  76 104 142 190 236 301 371 426
#     4  12  26  46  68 104 138 179 234 292 354 438
#     4  11  24  43  68  96 138 184 233 287 357 424
#     4  11  24  45  67 101 142 186 234 295 357 437
#     4  10  23  39  64 100 130 172 226 291 335 426
#     4  11  23  43  69 100 136 182 235 286 348 420
#     4  10  24  46  66  98 140 176 233 291 349 422
#     4  10  23  42  69  95 131 181 227 287 356 410
#
# _framework density 22.013276000000001
#
# number of rings (size 3 to 8) (size 9 to 14) (size 15 to 20)
#    0.000    1.143    2.857    2.143    4.000    5.714 
#    2.571    0.000    0.000    0.000    0.000    0.000 
#    0.000    0.000    0.000    0.000    0.000    0.000 
#
# Total GULP energy -346877.492620 kJ/mol
# GULP energy per Si atom -12388.481879 kJ/mol
# Density = 2.196317 g / cm^3
# Si number density = 22.013276 Si / 1000 Ang^3
#
#
#
# Elastic Constant Matrix: (Units=GPa)
#
#
# Indices 1 2 3 4 5 6 
#
# 1 131.8967 36.2738 30.3623 0.0000 13.8724 0.0000
# 2 36.2738 90.2932 23.1461 0.0000 1.8066 0.0000
# 3 30.3623 23.1461 77.3458 0.0000 12.3923 0.0000
# 4 0.0000 0.0000 0.0000 22.6771 0.0000 -2.3923
# 5 13.8724 1.8066 12.3923 0.0000 42.5643 0.0000
# 6 0.0000 0.0000 0.0000 -2.3923 0.0000 33.8586
#
#
#
# Elastic Compliance Matrix: (Units=1/GPa)
#
#
# Indices 1 2 3 4 5 6 
#
# 1 0.009189 -0.003047 -0.002346 0.000000 -0.002183 0.000000
# 2 -0.003047 0.013018 -0.002906 0.000000 0.001286 0.000000
# 3 -0.002346 -0.002906 0.015290 0.000000 -0.003564 0.000000
# 4 0.000000 0.000000 0.000000 0.044428 0.000000 0.003139
# 5 -0.002183 0.001286 -0.003564 0.000000 0.025188 0.000000
# 6 0.000000 0.000000 0.000000 0.003139 0.000000 0.029756
#
#
# Mechanical properties :
#
#
# Convention : Reuss Voigt Hill
#
# Bulk Modulus (GPa) = 47.84450 53.23337 50.53893
# Shear Modulus (GPa) = 31.16542 33.80357 32.48450
#
# Velocity S-wave (km/s) = 3.76674 3.92292 3.84562
# Velocity P-wave (km/s) = 6.37960 6.68984 6.53656
#
# Compressibility (1/GPa) = 0.02090105
#
# Stress axis : x y z
#
# Youngs Moduli (GPa) = 108.82447 76.81599 65.40050
#
# Poissons Ratio (x) = 0.23403 0.15342
# Poissons Ratio (y) = 0.33154 0.19005
# Poissons Ratio (z) = 0.25528 0.22322
#
# Static dielectric constant tensor:
#      x y z
#    x 4.657420 0.000000 0.509370 
#    y 0.000000 4.454170 0.000000 
#    z 0.509370 0.000000 3.848110 
# 
# 
# High freq. dielectric constant tensor:
#      x y z
#    x 1.874010 0.000000 0.010000 
#    y 0.000000 1.872630 0.000000 
#    z 0.010000 0.000000 1.868390 
# 
# From -- ./inp_files/127026.got.cif
#   From: 2010.06.25/outbox.cif.g09.slc.cpg/sg15_64_cif.got.tgz:127026.got - 2010.06.28 07:06:18.
