data_PCOD8148688
_publ_section_title
;
Structure prediction by ZEFSAII (Michael W. Deem and Ramdas Pophale) SiO2 
 PCOD8148688
Probable space group: C 2/C
;
_chemical_formula_sum "Si O2"
_cell_formula_units_Z 56
_cell_length_a 25.724600
_cell_length_b 6.678714
_cell_length_c 16.942197
_cell_angle_alpha 90.000000
_cell_angle_beta 64.733636
_cell_angle_gamma 90.000000
_cell_volume 2632.326262
_symmetry_space_group_name_H-M "C 2/C"
_symmetry_group_IT_number 15
_symmetry_cell_setting 'monoclinic'
loop_
_space_group_symop_operation_xyz
x,y,z
-x,y,1/2-z
-x,-y,-z
x,-y,1/2+z
1/2+x,1/2+y,z
1/2-x,1/2+y,1/2-z
1/2-x,1/2-y,-z
1/2+x,1/2-y,1/2+z
loop_
_atom_site_type_symbol
_atom_site_label
_atom_site_fract_x
_atom_site_fract_y
_atom_site_fract_z
Si Si1 0.700509 0.599076 0.720935
Si Si2 0.635213 0.941344 0.679745
Si Si3 0.677806 0.242527 0.841710
Si Si4 0.013246 0.784941 0.016442
Si Si5 0.129938 0.836916 0.033825
Si Si6 0.069187 0.510843 0.861020
Si Si7 0.194628 0.169135 0.080514
O O1 0.664060 0.798246 0.727117
O O2 0.665287 0.448002 0.801083
O O3 0.759795 0.662963 0.724162
O O4 0.716505 0.494377 0.628117
O O5 0.630675 0.830533 0.600507
O O6 0.574433 0.003201 0.761577
O O7 0.668284 0.147637 0.645857
O O8 0.632162 0.068059 0.853380
O O9 0.676656 0.290487 0.935902
O O10 0.066566 0.806917 0.040882
O O11 0.955724 0.702214 0.095034
O O12 0.024747 0.669661 0.926467
O O13 0.000000 0.000000 0.000000
O O14 0.146490 0.058878 0.056149
O O15 0.250000 0.250000 0.000000
#
# Coordination Sequence:
#
# PCOD8148688 Si02
#       7
#     8   8   8   8   8   8   8
#     4  11  24  38  63  99 132 177 219 266 327 401
#     4  11  23  44  63  93 137 175 217 270 330 406
#     4  11  22  41  63  98 133 174 223 274 329 400
#     4  10  24  44  68  98 126 169 224 285 338 389
#     4  10  25  41  63  94 131 171 224 276 328 398
#     4  10  23  42  67  93 129 171 218 279 331 394
#     4  11  23  40  64  95 136 182 212 267 338 402
#
# _framework density 21.273959000000001
#
# number of rings (size 3 to 8) (size 9 to 14) (size 15 to 20)
#    0.000    1.429    1.429    2.571    6.000    7.429 
#    0.000    0.000    0.000    0.000    0.000    0.000 
#    0.000    0.000    0.000    0.000    0.000    0.000 
#
# Total GULP energy -346955.520972 kJ/mol
# GULP energy per Si atom -12391.268606 kJ/mol
# Density = 2.122554 g / cm^3
# Si number density = 21.273959 Si / 1000 Ang^3
#
#
#
# Elastic Constant Matrix: (Units=GPa)
#
#
# Indices 1 2 3 4 5 6 
#
# 1 69.4518 38.9426 15.5124 -0.0021 -5.0719 -0.0009
# 2 38.9426 133.7523 49.1146 -0.0056 -1.5982 -0.0067
# 3 15.5124 49.1146 145.9783 0.0010 -6.7951 0.0039
# 4 -0.0021 -0.0056 0.0010 37.1696 0.0003 5.3243
# 5 -5.0719 -1.5982 -6.7951 0.0003 29.9835 0.0001
# 6 -0.0009 -0.0067 0.0039 5.3243 0.0001 34.3330
#
#
#
# Elastic Compliance Matrix: (Units=1/GPa)
#
#
# Indices 1 2 3 4 5 6 
#
# 1 0.017420 -0.005027 -0.000035 0.000000 0.002671 -0.000001
# 2 -0.005027 0.009982 -0.002869 0.000001 -0.000969 0.000002
# 3 -0.000035 -0.002869 0.007895 0.000000 0.001630 -0.000001
# 4 0.000000 0.000001 0.000000 0.027515 0.000000 -0.004267
# 5 0.002671 -0.000969 0.001630 0.000000 0.034121 0.000000
# 6 -0.000001 0.000002 -0.000001 -0.004267 0.000000 0.029788
#
#
# Mechanical properties :
#
#
# Convention : Reuss Voigt Hill
#
# Bulk Modulus (GPa) = 51.45635 61.81352 56.63494
# Shear Modulus (GPa) = 33.54261 36.67141 35.10701
#
# Velocity S-wave (km/s) = 3.97507 4.15633 4.06671
# Velocity P-wave (km/s) = 6.73114 7.22167 6.98072
#
# Compressibility (1/GPa) = 0.01943395
#
# Stress axis : x y z
#
# Youngs Moduli (GPa) = 57.40475 100.17784 126.65572
#
# Poissons Ratio (x) = 0.50360 0.00450
# Poissons Ratio (y) = 0.28857 0.36343
# Poissons Ratio (z) = 0.00204 0.28745
#
# Static dielectric constant tensor:
#      x y z
#    x 3.447720 -0.000020 -0.013270 
#    y -0.000020 4.130850 -0.000010 
#    z -0.013270 -0.000010 4.293630 
# 
# 
# High freq. dielectric constant tensor:
#      x y z
#    x 1.808680 0.000000 -0.002360 
#    y 0.000000 1.852190 0.000000 
#    z -0.002360 0.000000 1.855100 
# 
# From -- ./inp_files/223818.got.cif
#   From: 2010.06.25/outbox.cif.g09.slc.cpg/sg15_112_cif.got.tgz:223818.got - 2010.06.28 07:06:18.
