data_PCOD8148233
_publ_section_title
;
Structure prediction by ZEFSAII (Michael W. Deem and Ramdas Pophale) SiO2 
 PCOD8148233
Probable space group: C 2/C
;
_chemical_formula_sum "Si O2"
_cell_formula_units_Z 56
_cell_length_a 11.471486
_cell_length_b 10.637247
_cell_length_c 27.346096
_cell_angle_alpha 90.000000
_cell_angle_beta 52.552087
_cell_angle_gamma 90.000000
_cell_volume 2649.192869
_symmetry_space_group_name_H-M "C 2/C"
_symmetry_group_IT_number 15
_symmetry_cell_setting 'monoclinic'
loop_
_space_group_symop_operation_xyz
x,y,z
-x,y,1/2-z
-x,-y,-z
x,-y,1/2+z
1/2+x,1/2+y,z
1/2-x,1/2+y,1/2-z
1/2-x,1/2-y,-z
1/2+x,1/2-y,1/2+z
loop_
_atom_site_type_symbol
_atom_site_label
_atom_site_fract_x
_atom_site_fract_y
_atom_site_fract_z
Si Si1 0.537177 0.528566 0.185342
Si Si2 0.418615 0.156946 0.162059
Si Si3 0.000728 0.360223 0.479358
Si Si4 0.306782 0.272083 0.373704
Si Si5 0.761272 0.262445 0.609167
Si Si6 0.205092 0.166872 0.301925
Si Si7 0.984640 0.620665 0.872132
O O1 0.500000 0.574021 0.250000
O O2 0.603067 0.389289 0.171791
O O3 0.658345 0.616132 0.128744
O O4 0.388977 0.541938 0.189652
O O5 0.585496 0.203427 0.116487
O O6 0.321247 0.236582 0.148980
O O7 0.351439 0.177535 0.232528
O O8 0.429325 0.010120 0.148005
O O9 0.167723 0.313398 0.440731
O O10 0.000000 0.500000 0.500000
O O11 0.897774 0.270162 0.537522
O O12 0.944463 0.347418 0.438227
O O13 0.257804 0.171747 0.344593
O O14 0.665895 0.135901 0.621290
O O15 0.101704 0.285965 0.318051
#
# Coordination Sequence:
#
# PCOD8148233 Si02
#       7
#     8   8   8   8   8   8   8
#     4  11  20  38  66  88 121 165 216 256 314 382
#     4  12  23  40  61  93 134 164 208 260 327 389
#     4  11  20  44  69  87 122 168 222 265 312 377
#     4  11  25  40  61  95 129 169 212 263 322 381
#     4  11  22  41  66  93 119 170 211 267 317 376
#     4  10  23  40  62  92 126 169 211 261 319 383
#     4  10  24  41  64  94 127 164 216 267 314 389
#
# _framework density 21.138515000000002
#
# number of rings (size 3 to 8) (size 9 to 14) (size 15 to 20)
#    0.000    1.143    4.286    2.571    2.000    1.714 
#    2.571    0.714    0.000    0.000    0.000    0.000 
#    0.000    0.000    0.000    0.000    0.000    0.000 
#
# Total GULP energy -347108.531999 kJ/mol
# GULP energy per Si atom -12396.733286 kJ/mol
# Density = 2.109040 g / cm^3
# Si number density = 21.138515 Si / 1000 Ang^3
#
#
#
# Elastic Constant Matrix: (Units=GPa)
#
#
# Indices 1 2 3 4 5 6 
#
# 1 115.7543 23.2450 1.5330 0.0000 -14.1981 0.0000
# 2 23.2450 37.2039 14.9829 0.0000 -0.8739 0.0000
# 3 1.5330 14.9829 98.6982 0.0000 -19.3244 0.0000
# 4 0.0000 0.0000 0.0000 28.1438 0.0000 -2.0210
# 5 -14.1981 -0.8739 -19.3244 0.0000 27.2877 0.0000
# 6 0.0000 0.0000 0.0000 -2.0210 0.0000 26.3679
#
#
#
# Elastic Compliance Matrix: (Units=1/GPa)
#
#
# Indices 1 2 3 4 5 6 
#
# 1 0.011035 -0.007695 0.002406 0.000000 0.007199 0.000000
# 2 -0.007695 0.034143 -0.006540 0.000000 -0.007542 0.000000
# 3 0.002406 -0.006540 0.013109 0.000000 0.010326 0.000000
# 4 0.000000 0.000000 0.000000 0.035729 0.000000 0.002738
# 5 0.007199 -0.007542 0.010326 0.000000 0.047464 0.000000
# 6 0.000000 0.000000 0.000000 0.002738 0.000000 0.038135
#
#
# Mechanical properties :
#
#
# Convention : Reuss Voigt Hill
#
# Bulk Modulus (GPa) = 28.87643 36.79757 32.83700
# Shear Modulus (GPa) = 23.27572 30.48624 26.88098
#
# Velocity S-wave (km/s) = 3.32189 3.80177 3.56990
# Velocity P-wave (km/s) = 5.32949 6.05945 5.70615
#
# Compressibility (1/GPa) = 0.03463032
#
# Stress axis : x y z
#
# Youngs Moduli (GPa) = 90.61730 29.28821 76.28257
#
# Poissons Ratio (x) = 0.22537 -0.18356
# Poissons Ratio (y) = 0.69729 0.49891
# Poissons Ratio (z) = -0.21806 0.19155
#
# Static dielectric constant tensor:
#      x y z
#    x 4.084260 0.000000 -0.220410 
#    y 0.000000 3.670120 0.000000 
#    z -0.220410 0.000000 3.914440 
# 
# 
# High freq. dielectric constant tensor:
#      x y z
#    x 1.839880 0.000000 -0.015120 
#    y 0.000000 1.805020 0.000000 
#    z -0.015120 0.000000 1.831230 
# 
# From -- ./inp_files/292212.got.cif
#   From: 2010.06.25/outbox.cif.g09.slc.cpg/sg15_147_cif.got.tgz:292212.got - 2010.06.28 07:06:18.
