data_PCOD8148055
_publ_section_title
;
Structure prediction by ZEFSAII (Michael W. Deem and Ramdas Pophale) SiO2 
 PCOD8148055
Probable space group: C 2/C
;
_chemical_formula_sum "Si O2"
_cell_formula_units_Z 60
_cell_length_a 25.541940
_cell_length_b 24.661105
_cell_length_c 9.503369
_cell_angle_alpha 90.000000
_cell_angle_beta 31.184885
_cell_angle_gamma 90.000000
_cell_volume 3099.610874
_symmetry_space_group_name_H-M "C 2/C"
_symmetry_group_IT_number 15
_symmetry_cell_setting 'monoclinic'
loop_
_space_group_symop_operation_xyz
x,y,z
-x,y,1/2-z
-x,-y,-z
x,-y,1/2+z
1/2+x,1/2+y,z
1/2-x,1/2+y,1/2-z
1/2-x,1/2-y,-z
1/2+x,1/2-y,1/2+z
loop_
_atom_site_type_symbol
_atom_site_label
_atom_site_fract_x
_atom_site_fract_y
_atom_site_fract_z
Si Si1 0.738084 0.959849 0.314409
Si Si2 0.277574 0.401982 0.502747
Si Si3 0.803651 0.206923 0.780835
Si Si4 0.070554 0.978236 0.216790
Si Si5 0.104143 0.434863 0.086914
Si Si6 0.344214 0.848185 0.069418
Si Si7 0.465204 0.154066 0.561741
Si Si8 0.500000 0.230047 0.750000
O O1 0.748378 0.946693 0.454630
O O2 0.700486 0.908626 0.309193
O O3 0.659374 0.008776 0.487156
O O4 0.848120 0.975287 0.004075
O O5 0.314468 0.346978 0.347923
O O6 0.372185 0.422928 0.375264
O O7 0.177180 0.394581 0.829252
O O8 0.741229 0.194412 0.781888
O O9 0.911170 0.229203 0.490586
O O10 0.750000 0.250000 0.000000
O O11 0.000000 0.963034 0.250000
O O12 0.000000 0.000000 0.500000
O O13 0.076793 0.404443 0.294518
O O14 0.000000 0.447844 0.250000
O O15 0.390627 0.825699 0.108408
O O16 0.423825 0.852010 0.758192
O O17 0.468993 0.193725 0.687137
#
# Coordination Sequence:
#
# PCOD8148055 Si02
#       8
#     8   8   8   8   8   8   8   4
#     4  10  23  37  60  94 126 168 212 243 322 375
#     4  10  23  40  60  95 123 167 213 261 313 381
#     4  11  22  44  67  89 126 166 213 274 318 369
#     4  11  22  40  63  88 128 169 205 262 311 371
#     4  11  22  35  61  90 132 169 205 249 312 387
#     4  10  24  42  64  91 133 161 209 270 312 381
#     4  11  23  41  62  96 127 167 208 260 327 378
#     4  12  24  42  70  94 118 174 222 260 330 376
#
# _framework density 19.357268999999999
#
# number of rings (size 3 to 8) (size 9 to 14) (size 15 to 20)
#    0.000    1.333    3.333    2.400    5.600    3.733 
#    0.000    1.333    0.000    0.000    0.000    0.000 
#    0.000    0.000    0.000    0.000    0.000    0.000 
#
# Total GULP energy -372033.199352 kJ/mol
# GULP energy per Si atom -12401.106645 kJ/mol
# Density = 1.931321 g / cm^3
# Si number density = 19.357269 Si / 1000 Ang^3
#
#
#
# Elastic Constant Matrix: (Units=GPa)
#
#
# Indices 1 2 3 4 5 6 
#
# 1 151.1632 66.3818 61.2525 0.0000 -3.9066 0.0000
# 2 66.3818 105.9234 53.4749 0.0000 -6.0288 0.0000
# 3 61.2525 53.4749 133.2333 0.0001 -11.6423 0.0000
# 4 0.0000 0.0000 0.0001 35.0864 -0.0001 -0.7082
# 5 -3.9066 -6.0288 -11.6423 -0.0001 34.2031 0.0000
# 6 0.0000 0.0000 0.0000 -0.7082 0.0000 18.6633
#
#
#
# Elastic Compliance Matrix: (Units=1/GPa)
#
#
# Indices 1 2 3 4 5 6 
#
# 1 0.009786 -0.004853 -0.002606 0.000000 -0.000625 0.000000
# 2 -0.004853 0.014254 -0.003421 0.000000 0.000794 0.000000
# 3 -0.002606 -0.003421 0.010304 0.000000 0.002607 0.000000
# 4 0.000000 0.000000 0.000000 0.028523 0.000000 0.001082
# 5 -0.000625 0.000794 0.002607 0.000000 0.030193 0.000000
# 6 0.000000 0.000000 0.000000 0.001082 0.000000 0.053622
#
#
# Mechanical properties :
#
#
# Convention : Reuss Voigt Hill
#
# Bulk Modulus (GPa) = 79.45458 83.61537 81.53498
# Shear Modulus (GPa) = 28.96244 31.53795 30.25019
#
# Velocity S-wave (km/s) = 3.87228 4.04078 3.95743
# Velocity P-wave (km/s) = 7.81845 8.06599 7.94319
#
# Compressibility (1/GPa) = 0.01258581
#
# Stress axis : x y z
#
# Youngs Moduli (GPa) = 102.18354 70.15465 97.04612
#
# Poissons Ratio (x) = 0.34046 0.25289
# Poissons Ratio (y) = 0.49590 0.33196
# Poissons Ratio (z) = 0.26628 0.23997
#
# Static dielectric constant tensor:
#      x y z
#    x 3.677580 0.000000 -0.072760 
#    y 0.000000 3.271710 0.000000 
#    z -0.072760 0.000000 3.576820 
# 
# 
# High freq. dielectric constant tensor:
#      x y z
#    x 1.765950 0.000000 -0.003770 
#    y 0.000000 1.743540 0.000000 
#    z -0.003770 0.000000 1.767210 
# 
# From -- ./inp_files/42181.got.cif
#   From: 2010.06.25/outbox.cif.g09.slc.cpg/sg15_22_cif.got.tgz:42181.got - 2010.06.28 07:06:18.
