data_PCOD8148687
_publ_section_title
;
Structure prediction by ZEFSAII (Michael W. Deem and Ramdas Pophale) SiO2 
 PCOD8148687
Probable space group: C 2/C
;
_chemical_formula_sum "Si O2"
_cell_formula_units_Z 64
_cell_length_a 26.077985
_cell_length_b 13.000649
_cell_length_c 9.559449
_cell_angle_alpha 90.000000
_cell_angle_beta 99.373094
_cell_angle_gamma 90.000000
_cell_volume 3197.676277
_symmetry_space_group_name_H-M "C 2/C"
_symmetry_group_IT_number 15
_symmetry_cell_setting 'monoclinic'
loop_
_space_group_symop_operation_xyz
x,y,z
-x,y,1/2-z
-x,-y,-z
x,-y,1/2+z
1/2+x,1/2+y,z
1/2-x,1/2+y,1/2-z
1/2-x,1/2-y,-z
1/2+x,1/2-y,1/2+z
loop_
_atom_site_type_symbol
_atom_site_label
_atom_site_fract_x
_atom_site_fract_y
_atom_site_fract_z
Si Si1 0.345958 0.899625 0.649940
Si Si2 0.716448 0.414267 0.229367
Si Si3 0.438771 0.409904 0.876624
Si Si4 0.860172 0.258128 0.898857
Si Si5 0.441365 0.609933 0.057483
Si Si6 0.860387 0.255398 0.417686
Si Si7 0.673510 0.131767 0.852999
Si Si8 0.726401 0.396231 0.556502
O O1 0.375018 0.845558 0.792873
O O2 0.371390 0.852485 0.521849
O O3 0.284614 0.875588 0.633961
O O4 0.354959 0.021567 0.651222
O O5 0.671221 0.331673 0.192245
O O6 0.768782 0.375777 0.180184
O O7 0.726238 0.436856 0.397041
O O8 0.698985 0.519190 0.144515
O O9 0.497370 0.369447 0.916427
O O10 0.422611 0.419430 0.706140
O O11 0.404905 0.329246 0.949333
O O12 0.428739 0.518948 0.944247
O O13 0.912318 0.212542 0.991661
O O14 0.823831 0.314075 0.996054
O O15 0.860522 0.295171 0.260001
O O16 0.804648 0.209554 0.439664
#
# Coordination Sequence:
#
# PCOD8148687 Si02
#       8
#     8   8   8   8   8   8   8   8
#     4  11  24  40  58  84 126 161 204 247 287 344
#     4  11  24  38  57  89 126 160 200 247 297 357
#     4  10  23  42  67  92 124 151 189 246 306 368
#     4  12  23  39  63  88 119 159 201 249 295 359
#     4  10  23  43  64  96 122 150 191 244 308 366
#     4  12  21  40  64  85 118 164 200 246 300 353
#     4  11  24  39  59  86 120 164 206 244 293 343
#     4  11  24  38  58  88 127 160 200 247 296 357
#
# _framework density 20.014534999999999
#
# number of rings (size 3 to 8) (size 9 to 14) (size 15 to 20)
#    0.000    1.000    3.750    3.000    8.750    2.000 
#    0.000    0.000    0.000    4.500    0.000    0.000 
#    0.000    0.000    0.000    0.000    0.000    0.000 
#
# Total GULP energy -396948.988540 kJ/mol
# GULP energy per Si atom -12404.655892 kJ/mol
# Density = 1.996898 g / cm^3
# Si number density = 20.014535 Si / 1000 Ang^3
#
#
#
# Elastic Constant Matrix: (Units=GPa)
#
#
# Indices 1 2 3 4 5 6 
#
# 1 44.1948 22.5499 12.2673 0.0000 0.9263 0.0000
# 2 22.5499 81.4651 26.7630 0.0000 6.0492 0.0000
# 3 12.2673 26.7630 106.3912 0.0000 4.1419 0.0000
# 4 0.0000 0.0000 0.0000 43.1726 0.0000 -5.3396
# 5 0.9263 6.0492 4.1419 0.0000 23.0507 0.0000
# 6 0.0000 0.0000 0.0000 -5.3396 0.0000 28.3361
#
#
#
# Elastic Compliance Matrix: (Units=1/GPa)
#
#
# Indices 1 2 3 4 5 6 
#
# 1 0.026540 -0.006980 -0.001344 0.000000 0.001007 0.000000
# 2 -0.006980 0.015416 -0.002947 0.000000 -0.003235 0.000000
# 3 -0.001344 -0.002947 0.010336 0.000000 -0.001030 0.000000
# 4 0.000000 0.000000 0.000000 0.023716 0.000000 0.004469
# 5 0.001007 -0.003235 -0.001030 0.000000 0.044376 0.000000
# 6 0.000000 0.000000 0.000000 0.004469 0.000000 0.036133
#
#
# Mechanical properties :
#
#
# Convention : Reuss Voigt Hill
#
# Bulk Modulus (GPa) = 33.61275 39.46794 36.54034
# Shear Modulus (GPa) = 26.45866 30.27662 28.36764
#
# Velocity S-wave (km/s) = 3.63984 3.89360 3.76886
# Velocity P-wave (km/s) = 5.87326 6.32266 6.10210
#
# Compressibility (1/GPa) = 0.02975062
#
# Stress axis : x y z
#
# Youngs Moduli (GPa) = 37.67854 64.86909 96.75271
#
# Poissons Ratio (x) = 0.45277 0.13000
# Poissons Ratio (y) = 0.26299 0.28514
# Poissons Ratio (z) = 0.05062 0.19118
#
# Static dielectric constant tensor:
#      x y z
#    x 3.334330 0.000000 -0.027220 
#    y 0.000000 3.786670 0.000000 
#    z -0.027220 0.000000 3.841240 
# 
# 
# High freq. dielectric constant tensor:
#      x y z
#    x 1.747570 0.000000 -0.007690 
#    y 0.000000 1.788780 0.000000 
#    z -0.007690 0.000000 1.799860 
# 
# From -- ./inp_files/66233.got.cif
#   From: 2010.06.25/outbox.cif.g09.slc.cpg/sg15_34_cif.got.tgz:66233.got - 2010.06.28 07:06:18.
