data_PCOD8148344
_publ_section_title
;
Structure prediction by ZEFSAII (Michael W. Deem and Ramdas Pophale) SiO2 
 PCOD8148344
Probable space group: C 2/C
;
_chemical_formula_sum "Si O2"
_cell_formula_units_Z 48
_cell_length_a 18.583329
_cell_length_b 14.205416
_cell_length_c 18.391718
_cell_angle_alpha 90.000000
_cell_angle_beta 25.842875
_cell_angle_gamma 90.000000
_cell_volume 2116.368642
_symmetry_space_group_name_H-M "C 2/C"
_symmetry_group_IT_number 15
_symmetry_cell_setting 'monoclinic'
loop_
_space_group_symop_operation_xyz
x,y,z
-x,y,1/2-z
-x,-y,-z
x,-y,1/2+z
1/2+x,1/2+y,z
1/2-x,1/2+y,1/2-z
1/2-x,1/2-y,-z
1/2+x,1/2-y,1/2+z
loop_
_atom_site_type_symbol
_atom_site_label
_atom_site_fract_x
_atom_site_fract_y
_atom_site_fract_z
Si Si1 0.821448 0.050460 0.389148
Si Si2 0.701277 0.126198 0.349499
Si Si3 0.818369 0.879324 0.482398
Si Si4 0.500000 0.855969 0.250000
Si Si5 0.000000 0.281979 0.750000
Si Si6 0.868820 0.680875 0.719724
Si Si7 0.833352 0.004706 0.108251
O O1 0.790694 0.068393 0.332342
O O2 0.663084 0.085048 0.579969
O O3 0.000000 0.096115 0.250000
O O4 0.831702 0.937762 0.394322
O O5 0.791280 0.225893 0.256579
O O6 0.510292 0.143830 0.538270
O O7 0.705409 0.066804 0.271453
O O8 0.631008 0.849822 0.669183
O O9 0.922084 0.783230 0.383735
O O10 0.879741 0.946374 0.490455
O O11 0.555575 0.794032 0.269054
O O12 0.733109 0.599049 0.848964
O O13 0.000000 0.000000 0.000000
#
# Coordination Sequence:
#
# PCOD8148344 Si02
#       7
#     8   8   8   4   4   8   8
#     4  11  22  41  71  99 140 183 233 291 353 414
#     4  11  27  43  69 105 140 186 231 287 357 425
#     4  11  23  45  68 101 135 181 238 291 354 414
#     4  10  23  40  71 104 136 184 232 301 345 420
#     4  10  25  42  71 102 130 182 240 295 343 418
#     4  11  25  46  69 104 141 184 237 288 356 420
#     4  12  26  46  71 100 144 189 227 295 352 432
#
# _framework density 22.680358999999999
#
# number of rings (size 3 to 8) (size 9 to 14) (size 15 to 20)
#    0.000    1.000    2.500    3.000    5.833    4.000 
#    3.000    0.000    0.000    0.000    0.000    0.000 
#    0.000    0.000    0.000    0.000    0.000    0.000 
#
# Total GULP energy -297601.536632 kJ/mol
# GULP energy per Si atom -12400.064026 kJ/mol
# Density = 2.262874 g / cm^3
# Si number density = 22.680359 Si / 1000 Ang^3
#
#
#
# Elastic Constant Matrix: (Units=GPa)
#
#
# Indices 1 2 3 4 5 6 
#
# 1 78.7011 43.5320 20.7363 -0.0010 -3.7851 -0.0006
# 2 43.5320 97.0757 11.0157 -0.0031 0.6844 -0.0212
# 3 20.7363 11.0157 91.5980 -0.0029 -20.8322 -0.0201
# 4 -0.0010 -0.0031 -0.0029 30.1749 0.0036 -7.8448
# 5 -3.7851 0.6844 -20.8322 0.0036 41.4534 0.0085
# 6 -0.0006 -0.0212 -0.0201 -7.8448 0.0085 16.5555
#
#
#
# Elastic Compliance Matrix: (Units=1/GPa)
#
#
# Indices 1 2 3 4 5 6 
#
# 1 0.017726 -0.007604 -0.003050 -0.000004 0.000211 -0.000015
# 2 -0.007604 0.013736 -0.000158 0.000007 -0.001001 0.000021
# 3 -0.003050 -0.000158 0.013056 0.000004 0.006285 0.000014
# 4 -0.000004 0.000007 0.000004 0.037796 -0.000005 0.017910
# 5 0.000211 -0.001001 0.006285 -0.000005 0.027318 -0.000010
# 6 -0.000015 0.000021 0.000014 0.017910 -0.000010 0.068889
#
#
# Mechanical properties :
#
#
# Convention : Reuss Voigt Hill
#
# Bulk Modulus (GPa) = 43.68078 46.43811 45.05944
# Shear Modulus (GPa) = 24.06394 30.44280 27.25337
#
# Velocity S-wave (km/s) = 3.26084 3.66765 3.47021
# Velocity P-wave (km/s) = 5.78606 6.20121 5.99723
#
# Compressibility (1/GPa) = 0.02289336
#
# Stress axis : x y z
#
# Youngs Moduli (GPa) = 56.41284 72.79968 76.59108
#
# Poissons Ratio (x) = 0.55360 0.23364
# Poissons Ratio (y) = 0.42899 0.01210
# Poissons Ratio (z) = 0.17208 0.01150
#
# Static dielectric constant tensor:
#      x y z
#    x 4.055000 0.000000 0.009320 
#    y 0.000000 4.128810 0.000020 
#    z 0.009320 0.000020 4.484560 
# 
# 
# High freq. dielectric constant tensor:
#      x y z
#    x 1.876690 0.000000 -0.009100 
#    y 0.000000 1.895340 0.000000 
#    z -0.009100 0.000000 1.919990 
# 
# From -- ./inp_files/66525.got.cif
#   From: 2010.06.25/outbox.cif.g09.slc.cpg/sg15_34_cif.got.tgz:66525.got - 2010.06.28 07:06:18.
