data_PCOD8148023
_publ_section_title
;
Structure prediction by ZEFSAII (Michael W. Deem and Ramdas Pophale) SiO2 
 PCOD8148023
Probable space group: C 2/C
;
_chemical_formula_sum "Si O2"
_cell_formula_units_Z 60
_cell_length_a 21.284933
_cell_length_b 13.240992
_cell_length_c 25.999597
_cell_angle_alpha 90.000000
_cell_angle_beta 21.922179
_cell_angle_gamma 90.000000
_cell_volume 2735.722210
_symmetry_space_group_name_H-M "C 2/C"
_symmetry_group_IT_number 15
_symmetry_cell_setting 'monoclinic'
loop_
_space_group_symop_operation_xyz
x,y,z
-x,y,1/2-z
-x,-y,-z
x,-y,1/2+z
1/2+x,1/2+y,z
1/2-x,1/2+y,1/2-z
1/2-x,1/2-y,-z
1/2+x,1/2-y,1/2+z
loop_
_atom_site_type_symbol
_atom_site_label
_atom_site_fract_x
_atom_site_fract_y
_atom_site_fract_z
Si Si1 0.720602 0.864984 0.415157
Si Si2 0.552689 0.085758 0.300670
Si Si3 0.883002 0.260514 0.519875
Si Si4 0.362941 0.453617 0.143667
Si Si5 0.187785 0.463263 0.870371
Si Si6 0.388647 0.687507 0.067366
Si Si7 0.908920 0.366980 0.221105
Si Si8 0.000000 0.262192 0.750000
O O1 0.545854 0.890741 0.573261
O O2 0.690637 0.791655 0.389945
O O3 0.843441 0.814092 0.363549
O O4 0.780915 0.969483 0.343748
O O5 0.744861 0.100316 0.173881
O O6 0.487392 0.164904 0.308195
O O7 0.519443 0.969868 0.306217
O O8 0.821080 0.349769 0.603852
O O9 0.713754 0.190547 0.645172
O O10 0.033796 0.200458 0.434054
O O11 0.943851 0.296599 0.416556
O O12 0.315772 0.529762 0.225069
O O13 0.189925 0.412456 0.252125
O O14 0.500000 0.500000 0.000000
O O15 0.464388 0.351102 0.083771
O O16 0.000000 0.500000 0.000000
#
# Coordination Sequence:
#
# PCOD8148023 Si02
#       8
#     8   8   8   8   8   8   8   4
#     4  11  22  40  65  89 129 163 216 262 328 380
#     4  11  22  43  62  91 123 168 215 277 324 374
#     4  11  24  36  59  93 130 172 211 256 324 403
#     4  11  22  35  53  90 132 178 212 251 318 397
#     4  12  22  38  60  92 133 177 212 262 325 388
#     4  10  23  32  57  88 129 168 207 251 316 395
#     4  11  23  38  59  88 130 168 215 266 322 391
#     4  10  26  42  66  96 120 168 214 276 328 388
#
# _framework density 21.932051000000001
#
# number of rings (size 3 to 8) (size 9 to 14) (size 15 to 20)
#    0.000    1.067    5.333    0.400   11.200    0.000 
#    0.000    0.000    0.000    1.600    0.000    0.000 
#    0.000    0.000    0.000    0.000    0.000    0.000 
#
# Total GULP energy -371652.581704 kJ/mol
# GULP energy per Si atom -12388.419390 kJ/mol
# Density = 2.188213 g / cm^3
# Si number density = 21.932051 Si / 1000 Ang^3
#
#
#
# Elastic Constant Matrix: (Units=GPa)
#
#
# Indices 1 2 3 4 5 6 
#
# 1 45.1963 22.3776 25.1658 -0.0065 -0.9980 -0.0008
# 2 22.3776 112.9225 37.6928 0.0024 -0.9701 -0.0005
# 3 25.1658 37.6928 109.6276 0.0734 12.3161 -0.0009
# 4 -0.0065 0.0024 0.0734 46.5635 0.0103 4.5821
# 5 -0.9980 -0.9701 12.3161 0.0103 22.1941 -0.0054
# 6 -0.0008 -0.0005 -0.0009 4.5821 -0.0054 31.5877
#
#
#
# Elastic Compliance Matrix: (Units=1/GPa)
#
#
# Indices 1 2 3 4 5 6 
#
# 1 0.026981 -0.003492 -0.005452 0.000012 0.004086 -0.000001
# 2 -0.003492 0.010588 -0.003064 0.000003 0.002006 0.000000
# 3 -0.005452 -0.003064 0.012232 -0.000018 -0.007167 0.000002
# 4 0.000012 0.000003 -0.000018 0.021787 0.000000 -0.003160
# 5 0.004086 0.002006 -0.007167 0.000000 0.049306 0.000008
# 6 -0.000001 0.000000 0.000002 -0.003160 0.000008 0.032116
#
#
# Mechanical properties :
#
#
# Convention : Reuss Voigt Hill
#
# Bulk Modulus (GPa) = 38.78320 48.69098 43.73709
# Shear Modulus (GPa) = 26.93678 32.23641 29.58660
#
# Velocity S-wave (km/s) = 3.50836 3.83800 3.67687
# Velocity P-wave (km/s) = 5.84236 6.47220 6.16533
#
# Compressibility (1/GPa) = 0.02578436
#
# Stress axis : x y z
#
# Youngs Moduli (GPa) = 37.06374 94.45016 81.75225
#
# Poissons Ratio (x) = 0.32979 0.44572
# Poissons Ratio (y) = 0.12942 0.25050
# Poissons Ratio (z) = 0.20208 0.28941
#
# Static dielectric constant tensor:
#      x y z
#    x 3.626150 -0.000080 -0.055300 
#    y -0.000080 4.721640 0.000070 
#    z -0.055300 0.000070 4.015420 
# 
# 
# High freq. dielectric constant tensor:
#      x y z
#    x 1.799720 0.000000 0.004180 
#    y 0.000000 1.894870 0.000010 
#    z 0.004180 0.000010 1.868490 
# 
# From -- ./inp_files/302355.got.cif
#   From: 2010.06.25/outbox.cif.g09.slc.cpg/sg15_152_cif.got.tgz:302355.got - 2010.06.28 07:06:18.
