data_PCOD8148098
_publ_section_title
;
Structure prediction by ZEFSAII (Michael W. Deem and Ramdas Pophale) SiO2 
 PCOD8148098
Probable space group: C 2/C
;
_chemical_formula_sum "Si O2"
_cell_formula_units_Z 56
_cell_length_a 17.060633
_cell_length_b 18.142689
_cell_length_c 9.567737
_cell_angle_alpha 90.000000
_cell_angle_beta 122.803778
_cell_angle_gamma 90.000000
_cell_volume 2489.199472
_symmetry_space_group_name_H-M "C 2/C"
_symmetry_group_IT_number 15
_symmetry_cell_setting 'monoclinic'
loop_
_space_group_symop_operation_xyz
x,y,z
-x,y,1/2-z
-x,-y,-z
x,-y,1/2+z
1/2+x,1/2+y,z
1/2-x,1/2+y,1/2-z
1/2-x,1/2-y,-z
1/2+x,1/2-y,1/2+z
loop_
_atom_site_type_symbol
_atom_site_label
_atom_site_fract_x
_atom_site_fract_y
_atom_site_fract_z
Si Si1 0.500000 0.506100 0.250000
Si Si2 0.384208 0.536643 0.385166
Si Si3 0.000000 0.235636 0.750000
Si Si4 0.855266 0.725728 0.321229
Si Si5 0.116651 0.554019 0.718975
Si Si6 0.313863 0.341317 0.979074
Si Si7 0.903787 0.421086 0.989786
Si Si8 0.791396 0.118407 0.765842
O O1 0.425182 0.553823 0.268688
O O2 0.542876 0.454655 0.414269
O O3 0.308729 0.599639 0.345639
O O4 0.346804 0.454038 0.365345
O O5 0.051731 0.284585 0.682998
O O6 0.081311 0.189249 0.904761
O O7 0.861460 0.661491 0.441684
O O8 0.847054 0.808725 0.376046
O O9 0.762743 0.720193 0.134804
O O10 0.136302 0.474023 0.669812
O O11 0.188473 0.615145 0.732019
O O12 0.014950 0.584208 0.583345
O O13 0.128539 0.543483 0.895932
O O14 0.283541 0.381884 0.091308
#
# Coordination Sequence:
#
# PCOD8148098 Si02
#       8
#     4   8   4   8   8   8   8   8
#     4  10  23  38  64  96 126 175 216 276 331 386
#     4  11  22  41  66  95 133 170 228 275 325 403
#     4  10  23  42  68  96 138 179 224 274 327 414
#     4  11  26  41  68 102 138 175 225 274 348 394
#     4  10  24  44  72  95 138 173 232 275 339 395
#     4  11  24  43  66 103 131 180 228 273 327 407
#     4  10  24  45  69 103 128 183 224 284 331 409
#     4  11  24  40  66  99 135 175 216 284 332 401
#
# _framework density 22.497194
#
# number of rings (size 3 to 8) (size 9 to 14) (size 15 to 20)
#    0.000    1.429    1.429    3.000   14.000    2.857 
#    0.000    1.429    0.000    0.000    0.000    0.000 
#    0.000    0.000    0.000    0.000    0.000    0.000 
#
# Total GULP energy -347040.209389 kJ/mol
# GULP energy per Si atom -12394.293192 kJ/mol
# Density = 2.244599 g / cm^3
# Si number density = 22.497194 Si / 1000 Ang^3
#
#
#
# Elastic Constant Matrix: (Units=GPa)
#
#
# Indices 1 2 3 4 5 6 
#
# 1 140.2660 35.0368 46.5902 0.0000 -8.8207 0.0000
# 2 35.0368 108.8237 40.8944 0.0000 -4.9759 0.0000
# 3 46.5902 40.8944 90.3405 0.0000 -16.0785 0.0000
# 4 0.0000 0.0000 0.0000 24.8890 0.0000 1.7431
# 5 -8.8207 -4.9759 -16.0785 0.0000 41.0210 0.0000
# 6 0.0000 0.0000 0.0000 1.7431 0.0000 29.5824
#
#
#
# Elastic Compliance Matrix: (Units=1/GPa)
#
#
# Indices 1 2 3 4 5 6 
#
# 1 0.008767 -0.001359 -0.003870 0.000000 0.000203 0.000000
# 2 -0.001359 0.011300 -0.004539 0.000000 -0.000701 0.000000
# 3 -0.003870 -0.004539 0.015989 0.000000 0.004884 0.000000
# 4 0.000000 0.000000 0.000000 0.040345 0.000000 -0.002377
# 5 0.000203 -0.000701 0.004884 0.000000 0.026251 0.000000
# 6 0.000000 0.000000 0.000000 -0.002377 0.000000 0.033944
#
#
# Mechanical properties :
#
#
# Convention : Reuss Voigt Hill
#
# Bulk Modulus (GPa) = 60.53181 64.94147 62.73664
# Shear Modulus (GPa) = 30.93309 33.55906 32.24608
#
# Velocity S-wave (km/s) = 3.71209 3.86644 3.79005
# Velocity P-wave (km/s) = 6.73332 6.99011 6.86292
#
# Compressibility (1/GPa) = 0.01652024
#
# Stress axis : x y z
#
# Youngs Moduli (GPa) = 114.06431 88.49199 62.54293
#
# Poissons Ratio (x) = 0.12027 0.24203
# Poissons Ratio (y) = 0.15502 0.28389
# Poissons Ratio (z) = 0.44141 0.40168
#
# Static dielectric constant tensor:
#      x y z
#    x 4.392110 0.000000 0.001080 
#    y 0.000000 3.857150 0.000000 
#    z 0.001080 0.000000 3.888510 
# 
# 
# High freq. dielectric constant tensor:
#      x y z
#    x 1.903900 0.000000 0.006900 
#    y 0.000000 1.876270 0.000000 
#    z 0.006900 0.000000 1.872500 
# 
# From -- ./inp_files/50376.got.cif
#   From: 2010.06.25/outbox.cif.g09.slc.cpg/sg15_26_cif.got.tgz:50376.got - 2010.06.28 07:06:18.
