data_PCOD8148076
_publ_section_title
;
Structure prediction by ZEFSAII (Michael W. Deem and Ramdas Pophale) SiO2 
 PCOD8148076
Probable space group: C 2/C
;
_chemical_formula_sum "Si O2"
_cell_formula_units_Z 36
_cell_length_a 7.890299
_cell_length_b 35.311481
_cell_length_c 7.618999
_cell_angle_alpha 90.000000
_cell_angle_beta 57.206457
_cell_angle_gamma 90.000000
_cell_volume 1784.477100
_symmetry_space_group_name_H-M "C 2/C"
_symmetry_group_IT_number 15
_symmetry_cell_setting 'monoclinic'
loop_
_space_group_symop_operation_xyz
x,y,z
-x,y,1/2-z
-x,-y,-z
x,-y,1/2+z
1/2+x,1/2+y,z
1/2-x,1/2+y,1/2-z
1/2-x,1/2-y,-z
1/2+x,1/2-y,1/2+z
loop_
_atom_site_type_symbol
_atom_site_label
_atom_site_fract_x
_atom_site_fract_y
_atom_site_fract_z
Si Si1 0.837730 0.875395 0.487017
Si Si2 0.000000 0.017360 0.250000
Si Si3 0.500000 0.650919 0.250000
Si Si4 0.000000 0.682668 0.250000
Si Si5 0.265300 0.042106 0.403676
Si Si6 0.837696 0.290961 0.487485
O O1 0.666913 0.843815 0.567270
O O2 0.749273 0.917025 0.494289
O O3 0.000000 0.864631 0.250000
O O4 0.921736 0.875651 0.638104
O O5 0.128803 0.044225 0.305204
O O6 0.828748 0.991162 0.429551
O O7 0.330674 0.677067 0.432245
O O8 0.078091 0.709738 0.361006
O O9 0.500000 0.031984 0.250000
O O10 0.750000 0.250000 0.500000
O O11 0.000000 0.301629 0.250000
#
# Coordination Sequence:
#
# PCOD8148076 Si02
#       6
#     8   4   4   4   8   8
#     4  11  21  40  63  87 118 160 200 249 305 357
#     4  10  23  38  60  89 124 160 200 254 306 357
#     4  10  23  40  60  86 120 154 200 252 296 362
#     4  10  24  40  62  87 120 158 200 248 300 363
#     4  11  21  39  62  88 122 159 204 252 304 364
#     4  11  22  41  60  89 120 154 198 247 302 362
#
# _framework density 20.173978999999999
#
# number of rings (size 3 to 8) (size 9 to 14) (size 15 to 20)
#    0.000    1.333    3.333    2.667    0.000    0.889 
#    2.000    0.000    0.000    0.000    0.000    0.000 
#    0.000    0.000    0.000    0.000    0.000    0.000 
#
# Total GULP energy -223202.247401 kJ/mol
# GULP energy per Si atom -12400.124856 kJ/mol
# Density = 2.012806 g / cm^3
# Si number density = 20.173979 Si / 1000 Ang^3
#
#
#
# Elastic Constant Matrix: (Units=GPa)
#
#
# Indices 1 2 3 4 5 6 
#
# 1 71.1784 37.8643 33.5043 0.0000 -15.9641 0.0000
# 2 37.8643 92.0843 40.8991 0.0000 -3.4786 0.0000
# 3 33.5043 40.8991 139.8729 0.0000 -33.7756 0.0000
# 4 0.0000 0.0000 0.0000 10.5164 0.0000 23.5518
# 5 -15.9641 -3.4786 -33.7756 0.0000 35.3257 0.0000
# 6 0.0000 0.0000 0.0000 23.5518 0.0000 33.9755
#
#
#
# Elastic Compliance Matrix: (Units=1/GPa)
#
#
# Indices 1 2 3 4 5 6 
#
# 1 0.020209 -0.007691 -0.000740 0.000000 0.007667 0.000000
# 2 -0.007691 0.015647 -0.004161 0.000000 -0.005913 0.000000
# 3 -0.000740 -0.004161 0.010874 0.000000 0.009653 0.000000
# 4 0.000000 0.000000 0.000000 -0.172128 0.000000 0.119319
# 5 0.007667 -0.005913 0.009653 0.000000 0.040420 0.000000
# 6 0.000000 0.000000 0.000000 0.119319 0.000000 -0.053279
#
#
# Mechanical properties :
#
#
# Convention : Reuss Voigt Hill
#
# Bulk Modulus (GPa) = 46.41386 58.63010 52.52198
# Shear Modulus (GPa) = -47.21821 28.68804 -9.26509
#
# Velocity S-wave (km/s) = -4.84317 3.77507 -2.14536
# Velocity P-wave (km/s) = 2.86677 6.93736 4.46702
#
# Compressibility (1/GPa) = 0.02154529
#
# Stress axis : x y z
#
# Youngs Moduli (GPa) = 49.48337 63.91085 91.96128
#
# Poissons Ratio (x) = 0.49155 0.06808
# Poissons Ratio (y) = 0.38059 0.38262
# Poissons Ratio (z) = 0.03663 0.26591
#
# Static dielectric constant tensor:
#      x y z
#    x 3.747650 0.000000 -0.039000 
#    y 0.000000 3.454800 0.000000 
#    z -0.039000 0.000000 3.608090 
# 
# 
# High freq. dielectric constant tensor:
#      x y z
#    x 1.793150 0.000000 -0.007340 
#    y 0.000000 1.790700 0.000000 
#    z -0.007340 0.000000 1.798170 
# 
# From -- ./inp_files/25324.got.cif
#   From: 2010.06.25/outbox.cif.g09.slc.cpg/sg15_13_cif.got.tgz:25324.got - 2010.06.28 07:06:18.
