data_PCOD8148027
_publ_section_title
;
Structure prediction by ZEFSAII (Michael W. Deem and Ramdas Pophale) SiO2 
 PCOD8148027
Probable space group: C 2/C
;
_chemical_formula_sum "Si O2"
_cell_formula_units_Z 52
_cell_length_a 7.983911
_cell_length_b 16.238892
_cell_length_c 18.341613
_cell_angle_alpha 90.000000
_cell_angle_beta 94.395592
_cell_angle_gamma 90.000000
_cell_volume 2370.993223
_symmetry_space_group_name_H-M "C 2/C"
_symmetry_group_IT_number 15
_symmetry_cell_setting 'monoclinic'
loop_
_space_group_symop_operation_xyz
x,y,z
-x,y,1/2-z
-x,-y,-z
x,-y,1/2+z
1/2+x,1/2+y,z
1/2-x,1/2+y,1/2-z
1/2-x,1/2-y,-z
1/2+x,1/2-y,1/2+z
loop_
_atom_site_type_symbol
_atom_site_label
_atom_site_fract_x
_atom_site_fract_y
_atom_site_fract_z
Si Si1 0.777361 0.492585 0.861170
Si Si2 0.000000 0.024689 0.250000
Si Si3 0.500000 0.190088 0.750000
Si Si4 0.500000 0.099071 0.250000
Si Si5 0.866762 0.926167 0.501112
Si Si6 0.923427 0.774846 0.968777
Si Si7 0.947302 0.385368 0.097000
Si Si8 0.193195 0.830472 0.685075
O O1 0.612116 0.527966 0.811733
O O2 0.714821 0.427143 0.920184
O O3 0.878453 0.564191 0.906376
O O4 0.900852 0.454317 0.805780
O O5 0.872191 0.084008 0.286272
O O6 0.573843 0.134446 0.817752
O O7 0.649287 0.248414 0.728105
O O8 0.607892 0.160780 0.303543
O O9 0.958734 0.839533 0.484004
O O10 0.715614 0.935654 0.436722
O O11 0.000000 0.000000 0.500000
O O12 0.034000 0.695463 0.952329
O O13 0.873241 0.827012 0.897596
O O14 0.750000 0.750000 0.000000
#
# Coordination Sequence:
#
# PCOD8148027 Si02
#       8
#     8   4   4   4   8   8   8   8
#     4  11  23  41  67 102 134 177 232 282 337 406
#     4   9  18  40  66  92 131 172 228 278 333 390
#     4   9  21  42  64  88 136 166 224 276 346 404
#     4  10  23  34  70  98 127 176 226 282 331 400
#     4  12  27  44  69  97 140 187 230 283 338 410
#     4  11  24  43  66  97 138 178 226 278 346 411
#     4  11  25  43  67 101 136 178 220 289 343 400
#     4   9  19  38  63  94 127 175 220 279 334 404
#
# _framework density 21.931739
#
# number of rings (size 3 to 8) (size 9 to 14) (size 15 to 20)
#    0.000    1.538    1.538    2.308    6.462    2.462 
#    0.000    3.077    0.000    0.000    0.000    0.000 
#    0.000    0.000    0.000    0.000    0.000    0.000 
#
# Total GULP energy -322204.099207 kJ/mol
# GULP energy per Si atom -12392.465354 kJ/mol
# Density = 2.188182 g / cm^3
# Si number density = 21.931739 Si / 1000 Ang^3
#
#
#
# Elastic Constant Matrix: (Units=GPa)
#
#
# Indices 1 2 3 4 5 6 
#
# 1 157.5519 53.6940 37.9417 0.0000 31.0451 0.0000
# 2 53.6940 87.8741 21.1950 0.0000 10.2989 0.0000
# 3 37.9417 21.1950 89.2780 0.0000 -5.0108 0.0000
# 4 0.0000 0.0000 0.0000 22.8493 0.0000 8.2818
# 5 31.0451 10.2989 -5.0108 0.0000 42.1853 0.0000
# 6 0.0000 0.0000 0.0000 8.2818 0.0000 42.9719
#
#
#
# Elastic Compliance Matrix: (Units=1/GPa)
#
#
# Indices 1 2 3 4 5 6 
#
# 1 0.010074 -0.004499 -0.003591 0.000000 -0.006742 0.000000
# 2 -0.004499 0.014557 -0.001568 0.000000 -0.000429 0.000000
# 3 -0.003591 -0.001568 0.013358 0.000000 0.004613 0.000000
# 4 0.000000 0.000000 0.000000 0.047052 0.000000 -0.009068
# 5 -0.006742 -0.000429 0.004613 0.000000 0.029319 0.000000
# 6 0.000000 0.000000 0.000000 -0.009068 0.000000 0.025019
#
#
# Mechanical properties :
#
#
# Convention : Reuss Voigt Hill
#
# Bulk Modulus (GPa) = 53.55465 62.26281 57.90873
# Shear Modulus (GPa) = 30.31762 36.39284 33.35523
#
# Velocity S-wave (km/s) = 3.72205 4.07795 3.90406
# Velocity P-wave (km/s) = 6.55312 7.11505 6.83986
#
# Compressibility (1/GPa) = 0.01867252
#
# Stress axis : x y z
#
# Youngs Moduli (GPa) = 99.26832 68.69319 74.85901
#
# Poissons Ratio (x) = 0.30905 0.26885
# Poissons Ratio (y) = 0.44661 0.11739
# Poissons Ratio (z) = 0.35652 0.10772
#
# Static dielectric constant tensor:
#      x y z
#    x 4.355200 0.000000 0.164110 
#    y 0.000000 3.663190 0.000000 
#    z 0.164110 0.000000 3.759530 
# 
# 
# High freq. dielectric constant tensor:
#      x y z
#    x 1.877770 0.000000 0.007030 
#    y 0.000000 1.846060 0.000000 
#    z 0.007030 0.000000 1.863280 
# 
# From -- ./inp_files/231195.got.cif
#   From: 2010.06.25/outbox.cif.g09.slc.cpg/sg15_116_cif.got.tgz:231195.got - 2010.06.28 07:06:18.
