data_PCOD8148841
_publ_section_title
;
Structure prediction by ZEFSAII (Michael W. Deem and Ramdas Pophale) SiO2 
 PCOD8148841
Probable space group: C 2/C
;
_chemical_formula_sum "Si O2"
_cell_formula_units_Z 48
_cell_length_a 8.710779
_cell_length_b 15.193497
_cell_length_c 26.936858
_cell_angle_alpha 90.000000
_cell_angle_beta 35.519398
_cell_angle_gamma 90.000000
_cell_volume 2071.198744
_symmetry_space_group_name_H-M "C 2/C"
_symmetry_group_IT_number 15
_symmetry_cell_setting 'monoclinic'
loop_
_space_group_symop_operation_xyz
x,y,z
-x,y,1/2-z
-x,-y,-z
x,-y,1/2+z
1/2+x,1/2+y,z
1/2-x,1/2+y,1/2-z
1/2-x,1/2-y,-z
1/2+x,1/2-y,1/2+z
loop_
_atom_site_type_symbol
_atom_site_label
_atom_site_fract_x
_atom_site_fract_y
_atom_site_fract_z
Si Si1 0.234550 0.866240 0.897524
Si Si2 0.668808 0.455567 0.156340
Si Si3 0.981272 0.712209 0.594130
Si Si4 0.668099 0.692220 0.912535
Si Si5 0.299900 0.137313 0.155801
Si Si6 0.796349 0.025717 0.660274
O O1 0.233303 0.789445 0.856090
O O2 0.534423 0.872959 0.837199
O O3 0.113535 0.955652 0.905627
O O4 0.060777 0.838673 0.990524
O O5 0.500000 0.434535 0.250000
O O6 0.875151 0.375579 0.094354
O O7 0.835239 0.544909 0.118183
O O8 0.479794 0.473741 0.159884
O O9 0.250000 0.750000 0.500000
O O10 0.046620 0.694346 0.634624
O O11 0.594409 0.786529 0.908413
O O12 0.697743 0.624549 0.860404
O O13 0.000000 0.156644 0.250000
O O14 0.500000 0.995666 0.750000
#
# Coordination Sequence:
#
# PCOD8148841 Si02
#       6
#     8   8   8   8   8   8
#     4  11  24  43  66  99 137 178 221 273 336 401
#     4  11  24  43  68  99 132 173 222 277 333 393
#     4  10  23  43  64  92 128 171 218 266 324 391
#     4  11  23  43  66  98 136 176 223 275 333 401
#     4  11  23  42  67  99 134 176 225 279 332 397
#     4  12  24  42  69 101 134 178 225 278 336 397
#
# _framework density 23.174986000000001
#
# number of rings (size 3 to 8) (size 9 to 14) (size 15 to 20)
#    0.000    1.000    0.000    7.500    0.000    4.667 
#    0.000    7.500    0.000    0.000    0.000    0.000 
#    0.000    0.000    0.000    0.000    0.000    0.000 
#
# Total GULP energy -297604.530532 kJ/mol
# GULP energy per Si atom -12400.188772 kJ/mol
# Density = 2.312224 g / cm^3
# Si number density = 23.174986 Si / 1000 Ang^3
#
#
#
# Elastic Constant Matrix: (Units=GPa)
#
#
# Indices 1 2 3 4 5 6 
#
# 1 216.2011 75.8881 30.7348 0.0132 -12.0399 -0.0015
# 2 75.8881 192.4376 36.2439 -0.0012 -4.9394 -0.0006
# 3 30.7348 36.2439 67.2450 0.0269 0.0184 -0.0833
# 4 0.0132 -0.0012 0.0269 25.5389 -0.0116 -0.4068
# 5 -12.0399 -4.9394 0.0184 -0.0116 26.8221 0.0252
# 6 -0.0015 -0.0006 -0.0833 -0.4068 0.0252 49.8058
#
#
#
# Elastic Compliance Matrix: (Units=1/GPa)
#
#
# Indices 1 2 3 4 5 6 
#
# 1 0.005625 -0.001867 -0.001565 0.000000 0.002182 -0.000004
# 2 -0.001867 0.006434 -0.002615 0.000004 0.000348 -0.000004
# 3 -0.001565 -0.002615 0.016996 -0.000017 -0.001196 0.000029
# 4 0.000000 0.000004 -0.000017 0.039161 0.000017 0.000320
# 5 0.002182 0.000348 -0.001196 0.000017 0.038327 -0.000021
# 6 -0.000004 -0.000004 0.000029 0.000320 -0.000021 0.020081
#
#
# Mechanical properties :
#
#
# Convention : Reuss Voigt Hill
#
# Bulk Modulus (GPa) = 58.95855 84.62415 71.79135
# Shear Modulus (GPa) = 34.63292 42.63448 38.63370
#
# Velocity S-wave (km/s) = 3.86995 4.29380 4.08737
# Velocity P-wave (km/s) = 6.74274 7.82156 7.30210
#
# Compressibility (1/GPa) = 0.01696107
#
# Stress axis : x y z
#
# Youngs Moduli (GPa) = 177.78486 155.41777 58.83793
#
# Poissons Ratio (x) = 0.29022 0.09208
# Poissons Ratio (y) = 0.33199 0.15384
# Poissons Ratio (z) = 0.27823 0.40635
#
# Static dielectric constant tensor:
#      x y z
#    x 4.874250 0.000050 -0.023930 
#    y 0.000050 4.550340 -0.000120 
#    z -0.023930 -0.000120 3.752080 
# 
# 
# High freq. dielectric constant tensor:
#      x y z
#    x 1.943350 0.000000 -0.002000 
#    y 0.000000 1.935910 0.000000 
#    z -0.002000 0.000000 1.887900 
# 
# From -- ./inp_files/288992.got.cif
#   From: 2010.06.25/outbox.cif.g09.slc.cpg/sg15_145_cif.got.tgz:288992.got - 2010.06.28 07:06:18.
