data_PCOD8148834
_publ_section_title
;
Structure prediction by ZEFSAII (Michael W. Deem and Ramdas Pophale) SiO2 
 PCOD8148834
Probable space group: C 2/C
;
_chemical_formula_sum "Si O2"
_cell_formula_units_Z 36
_cell_length_a 18.380173
_cell_length_b 9.545676
_cell_length_c 22.024240
_cell_angle_alpha 90.000000
_cell_angle_beta 155.165399
_cell_angle_gamma 90.000000
_cell_volume 1622.955929
_symmetry_space_group_name_H-M "C 2/C"
_symmetry_group_IT_number 15
_symmetry_cell_setting 'monoclinic'
loop_
_space_group_symop_operation_xyz
x,y,z
-x,y,1/2-z
-x,-y,-z
x,-y,1/2+z
1/2+x,1/2+y,z
1/2-x,1/2+y,1/2-z
1/2-x,1/2-y,-z
1/2+x,1/2-y,1/2+z
loop_
_atom_site_type_symbol
_atom_site_label
_atom_site_fract_x
_atom_site_fract_y
_atom_site_fract_z
Si Si1 0.000000 0.592177 0.750000
Si Si2 0.358477 0.459717 0.227107
Si Si3 0.778722 0.730163 0.683880
Si Si4 0.227919 0.912566 0.476164
Si Si5 0.426052 0.144325 0.916620
O O1 0.861398 0.687024 0.681611
O O2 0.896156 0.494271 0.625521
O O3 0.318928 0.608251 0.227687
O O4 0.561668 0.442009 0.391909
O O5 0.306065 0.462161 0.117389
O O6 0.249560 0.332648 0.176703
O O7 0.566476 0.728122 0.525209
O O8 0.861795 0.630720 0.798169
O O9 0.250000 0.750000 0.500000
O O10 0.500000 0.000000 0.000000
#
# Coordination Sequence:
#
# PCOD8148834 Si02
#       5
#     4   8   8   8   8
#     4  12  22  40  72 100 126 166 242 278 334 404
#     4  10  23  44  64  93 138 174 221 273 336 398
#     4  11  23  42  70 100 129 176 223 285 334 390
#     4  11  24  42  65  96 132 180 217 278 337 396
#     4  10  23  43  63  98 138 170 215 272 341 398
#
# _framework density 22.181747999999999
#
# number of rings (size 3 to 8) (size 9 to 14) (size 15 to 20)
#    0.000    1.333    0.000    6.667    3.111    2.667 
#    8.000    5.556    0.000    0.000    0.000    0.000 
#    0.000    0.000    0.000    0.000    0.000    0.000 
#
# Total GULP energy -223028.356730 kJ/mol
# GULP energy per Si atom -12390.464263 kJ/mol
# Density = 2.213126 g / cm^3
# Si number density = 22.181748 Si / 1000 Ang^3
#
#
#
# Elastic Constant Matrix: (Units=GPa)
#
#
# Indices 1 2 3 4 5 6 
#
# 1 131.3576 29.2656 42.1986 -0.0006 22.8297 -0.0001
# 2 29.2656 74.6114 23.3017 0.0039 6.2930 0.0024
# 3 42.1986 23.3017 98.2350 0.0077 11.1778 0.0055
# 4 -0.0006 0.0039 0.0077 24.2422 0.0006 -2.6693
# 5 22.8297 6.2930 11.1778 0.0006 44.4954 0.0003
# 6 -0.0001 0.0024 0.0055 -2.6693 0.0003 32.5634
#
#
#
# Elastic Compliance Matrix: (Units=1/GPa)
#
#
# Indices 1 2 3 4 5 6 
#
# 1 0.009888 -0.002550 -0.003198 0.000002 -0.003909 0.000001
# 2 -0.002550 0.015197 -0.002485 -0.000002 -0.000217 -0.000001
# 3 -0.003198 -0.002485 0.012267 -0.000004 -0.001089 -0.000002
# 4 0.000002 -0.000002 -0.000004 0.041626 0.000000 0.003412
# 5 -0.003909 -0.000217 -0.001089 0.000000 0.024784 0.000000
# 6 0.000001 -0.000001 -0.000002 0.003412 0.000000 0.030989
#
#
# Mechanical properties :
#
#
# Convention : Reuss Voigt Hill
#
# Bulk Modulus (GPa) = 47.87755 54.85953 51.36854
# Shear Modulus (GPa) = 31.60994 34.22274 32.91634
#
# Velocity S-wave (km/s) = 3.77907 3.93215 3.85637
# Velocity P-wave (km/s) = 6.37753 6.73805 6.56027
#
# Compressibility (1/GPa) = 0.02088662
#
# Stress axis : x y z
#
# Youngs Moduli (GPa) = 101.13693 65.80123 81.52164
#
# Poissons Ratio (x) = 0.16779 0.26068
# Poissons Ratio (y) = 0.25789 0.20257
# Poissons Ratio (z) = 0.32341 0.16350
#
# Static dielectric constant tensor:
#      x y z
#    x 3.948230 -0.000090 0.411010 
#    y -0.000090 4.606540 -0.000020 
#    z 0.411010 -0.000020 4.564620 
# 
# 
# High freq. dielectric constant tensor:
#      x y z
#    x 1.884970 0.000000 0.020270 
#    y 0.000000 1.848060 0.000000 
#    z 0.020270 0.000000 1.888880 
# 
# From -- ./inp_files/247911.got.cif
#   From: 2010.06.25/outbox.cif.g09.slc.cpg/sg15_124_cif.got.tgz:247911.got - 2010.06.28 07:06:18.
