data_PCOD8148583
_publ_section_title
;
Structure prediction by ZEFSAII (Michael W. Deem and Ramdas Pophale) SiO2 
 PCOD8148583
Probable space group: C 2/C
;
_chemical_formula_sum "Si O2"
_cell_formula_units_Z 48
_cell_length_a 9.395938
_cell_length_b 19.889956
_cell_length_c 27.375885
_cell_angle_alpha 90.000000
_cell_angle_beta 151.914452
_cell_angle_gamma 90.000000
_cell_volume 2408.622697
_symmetry_space_group_name_H-M "C 2/C"
_symmetry_group_IT_number 15
_symmetry_cell_setting 'monoclinic'
loop_
_space_group_symop_operation_xyz
x,y,z
-x,y,1/2-z
-x,-y,-z
x,-y,1/2+z
1/2+x,1/2+y,z
1/2-x,1/2+y,1/2-z
1/2-x,1/2-y,-z
1/2+x,1/2-y,1/2+z
loop_
_atom_site_type_symbol
_atom_site_label
_atom_site_fract_x
_atom_site_fract_y
_atom_site_fract_z
Si Si1 0.325657 0.598652 0.469867
Si Si2 0.350063 0.933546 0.978549
Si Si3 0.138842 0.228530 0.537496
Si Si4 0.300510 0.488801 0.870570
Si Si5 0.158355 0.319497 0.127628
Si Si6 0.208167 0.339639 0.629596
O O1 0.518070 0.654004 0.501331
O O2 0.545589 0.560356 0.573432
O O3 0.203137 0.547538 0.391574
O O4 0.067634 0.634841 0.422023
O O5 0.255593 0.883440 0.907616
O O6 0.037066 0.946379 0.911050
O O7 0.566427 0.896082 0.083953
O O8 0.500000 0.000000 0.000000
O O9 0.461545 0.218865 0.609113
O O10 0.177491 0.261893 0.602915
O O11 0.888103 0.273589 0.434026
O O12 0.000000 0.503016 0.750000
O O13 0.500000 0.321012 0.250000
O O14 0.500000 0.348607 0.750000
#
# Coordination Sequence:
#
# PCOD8148583 Si02
#       6
#     8   8   8   8   8   8
#     4  11  23  43  62  93 132 158 213 267 307 380
#     4  11  22  44  63  93 130 162 217 260 306 385
#     4  10  23  42  63  94 129 158 218 258 307 384
#     4  11  24  42  66  92 125 173 208 259 320 373
#     4  10  23  42  67  92 123 173 209 257 315 373
#     4  11  24  40  64  96 125 167 206 262 321 367
#
# _framework density 19.928401999999998
#
# number of rings (size 3 to 8) (size 9 to 14) (size 15 to 20)
#    0.000    1.333    3.333    1.500    2.333    3.333 
#    0.000    0.000    0.000    0.000    0.000    0.000 
#    0.000    0.000    0.000    0.000    0.000    0.000 
#
# Total GULP energy -297518.572892 kJ/mol
# GULP energy per Si atom -12396.607204 kJ/mol
# Density = 1.988304 g / cm^3
# Si number density = 19.928402 Si / 1000 Ang^3
#
#
#
# Elastic Constant Matrix: (Units=GPa)
#
#
# Indices 1 2 3 4 5 6 
#
# 1 104.0580 44.5434 58.6361 -0.0891 4.2596 -0.0731
# 2 44.5434 136.0569 71.9356 -0.0883 4.0249 -0.0745
# 3 58.6361 71.9356 189.9621 -0.6367 2.2873 -0.5144
# 4 -0.0891 -0.0883 -0.6367 251.9543 -0.1608 180.7161
# 5 4.2596 4.0249 2.2873 -0.1608 22.3060 -0.1310
# 6 -0.0731 -0.0745 -0.5144 180.7161 -0.1310 189.1945
#
#
#
# Elastic Compliance Matrix: (Units=1/GPa)
#
#
# Indices 1 2 3 4 5 6 
#
# 1 0.012347 -0.002488 -0.002850 -0.000003 -0.001617 -0.000002
# 2 -0.002488 0.009729 -0.002905 -0.000004 -0.000983 -0.000002
# 3 -0.002850 -0.002905 0.007240 0.000012 0.000326 0.000006
# 4 -0.000003 -0.000004 0.000012 0.012605 0.000020 -0.012040
# 5 -0.001617 -0.000983 0.000326 0.000020 0.045284 0.000012
# 6 -0.000002 -0.000002 0.000006 -0.012040 0.000012 0.016786
#
#
# Mechanical properties :
#
#
# Convention : Reuss Voigt Hill
#
# Bulk Modulus (GPa) = 77.93033 86.70080 82.31556
# Shear Modulus (GPa) = 40.07986 109.68842 74.88414
#
# Velocity S-wave (km/s) = 4.48950 7.42703 6.13662
# Velocity P-wave (km/s) = 8.12799 10.82350 9.57111
#
# Compressibility (1/GPa) = 0.01283197
#
# Stress axis : x y z
#
# Youngs Moduli (GPa) = 80.99230 102.78475 138.12467
#
# Poissons Ratio (x) = 0.25570 0.39360
# Poissons Ratio (y) = 0.20149 0.40119
# Poissons Ratio (z) = 0.23080 0.29854
#
# Static dielectric constant tensor:
#      x y z
#    x 3.933100 -0.000050 -0.204510 
#    y -0.000050 3.996680 -0.000020 
#    z -0.204510 -0.000020 3.495500 
# 
# 
# High freq. dielectric constant tensor:
#      x y z
#    x 1.791160 0.000000 -0.003580 
#    y 0.000000 1.790910 0.000000 
#    z -0.003580 0.000000 1.769760 
# 
# From -- ./inp_files/290149.got.cif
#   From: 2010.06.25/outbox.cif.g09.slc.cpg/sg15_146_cif.got.tgz:290149.got - 2010.06.28 07:06:18.
