data_PCOD8148797
_publ_section_title
;
Structure prediction by ZEFSAII (Michael W. Deem and Ramdas Pophale) SiO2 
 PCOD8148797
Probable space group: C 2/C
;
_chemical_formula_sum "Si O2"
_cell_formula_units_Z 64
_cell_length_a 16.243851
_cell_length_b 15.738519
_cell_length_c 13.530680
_cell_angle_alpha 90.000000
_cell_angle_beta 52.417988
_cell_angle_gamma 90.000000
_cell_volume 2741.330695
_symmetry_space_group_name_H-M "C 2/C"
_symmetry_group_IT_number 15
_symmetry_cell_setting 'monoclinic'
loop_
_space_group_symop_operation_xyz
x,y,z
-x,y,1/2-z
-x,-y,-z
x,-y,1/2+z
1/2+x,1/2+y,z
1/2-x,1/2+y,1/2-z
1/2-x,1/2-y,-z
1/2+x,1/2-y,1/2+z
loop_
_atom_site_type_symbol
_atom_site_label
_atom_site_fract_x
_atom_site_fract_y
_atom_site_fract_z
Si Si1 0.131358 0.242836 0.112752
Si Si2 0.009676 0.375215 0.066240
Si Si3 0.120220 0.770922 0.853699
Si Si4 0.639801 0.459234 0.307544
Si Si5 0.121265 0.827538 0.162213
Si Si6 0.471632 0.591266 0.421553
Si Si7 0.861057 0.527087 0.187571
Si Si8 0.724443 0.840950 0.616678
O O1 0.068273 0.320305 0.108249
O O2 0.124632 0.249842 0.234512
O O3 0.084562 0.149717 0.119712
O O4 0.250000 0.250000 0.000000
O O5 0.932962 0.312848 0.060138
O O6 0.936908 0.450181 0.163050
O O7 0.091029 0.412469 0.930365
O O8 0.230548 0.791941 0.819901
O O9 0.046888 0.850383 0.932786
O O10 0.657162 0.370477 0.238171
O O11 0.547671 0.516328 0.323558
O O12 0.614821 0.445758 0.441491
O O13 0.750868 0.503656 0.220869
O O14 0.145278 0.727798 0.129898
O O15 0.000000 0.843642 0.250000
O O16 0.184577 0.871134 0.025063
O O17 0.841865 0.577464 0.303507
#
# Coordination Sequence:
#
# PCOD8148797 Si02
#       8
#     8   8   8   8   8   8   8   8
#     4  11  25  43  71 114 142 189 229 292 357 441
#     4  10  24  44  70 106 144 183 233 283 358 426
#     4  11  22  47  71 100 142 182 232 287 352 424
#     4  11  24  46  72 103 140 186 230 301 350 415
#     4  11  27  46  72 102 136 187 244 292 345 421
#     4  10  23  42  72 105 142 182 231 287 359 416
#     4  11  24  46  72 104 141 188 229 295 359 419
#     4  11  25  48  73 102 136 190 242 287 354 427
#
# _framework density 23.346326000000001
#
# number of rings (size 3 to 8) (size 9 to 14) (size 15 to 20)
#    0.000    1.250    1.250    3.750   10.500    1.000 
#    6.750    0.000    0.000    0.000    0.000    0.000 
#    0.000    0.000    0.000    0.000    0.000    0.000 
#
# Total GULP energy -396604.906642 kJ/mol
# GULP energy per Si atom -12393.903333 kJ/mol
# Density = 2.329319 g / cm^3
# Si number density = 23.346326 Si / 1000 Ang^3
#
#
#
# Elastic Constant Matrix: (Units=GPa)
#
#
# Indices 1 2 3 4 5 6 
#
# 1 63.8049 17.7310 40.7571 0.0000 -11.4320 0.0000
# 2 17.7310 87.5965 47.1237 0.0000 -16.4327 0.0000
# 3 40.7571 47.1237 138.5037 0.0000 -30.3451 0.0000
# 4 0.0000 0.0000 0.0000 44.5226 0.0000 -2.3569
# 5 -11.4320 -16.4327 -30.3451 0.0000 36.9903 0.0000
# 6 0.0000 0.0000 0.0000 -2.3569 0.0000 22.1012
#
#
#
# Elastic Compliance Matrix: (Units=1/GPa)
#
#
# Indices 1 2 3 4 5 6 
#
# 1 0.019438 -0.000929 -0.005094 0.000000 0.001416 0.000000
# 2 -0.000929 0.014262 -0.003967 0.000000 0.002795 0.000000
# 3 -0.005094 -0.003967 0.011384 0.000000 0.006002 0.000000
# 4 0.000000 0.000000 0.000000 0.022588 0.000000 0.002409
# 5 0.001416 0.002795 0.006002 0.000000 0.033637 0.000000
# 6 0.000000 0.000000 0.000000 0.002409 0.000000 0.045503
#
#
# Mechanical properties :
#
#
# Convention : Reuss Voigt Hill
#
# Bulk Modulus (GPa) = 39.83205 55.68098 47.75652
# Shear Modulus (GPa) = 28.54529 33.00903 30.77716
#
# Velocity S-wave (km/s) = 3.50049 3.76425 3.63476
# Velocity P-wave (km/s) = 5.78242 6.54175 6.17377
#
# Compressibility (1/GPa) = 0.02510541
#
# Stress axis : x y z
#
# Youngs Moduli (GPa) = 51.44444 70.11495 87.84502
#
# Poissons Ratio (x) = 0.06512 0.44747
# Poissons Ratio (y) = 0.04778 0.34848
# Poissons Ratio (z) = 0.26205 0.27814
#
# Static dielectric constant tensor:
#      x y z
#    x 4.103000 0.000000 -0.361180 
#    y 0.000000 4.459720 0.000000 
#    z -0.361180 0.000000 4.435540 
# 
# 
# High freq. dielectric constant tensor:
#      x y z
#    x 1.909370 0.000000 -0.021570 
#    y 0.000000 1.935850 0.000000 
#    z -0.021570 0.000000 1.934480 
# 
# From -- ./inp_files/162527.got.cif
#   From: 2010.06.25/outbox.cif.g09.slc.cpg/sg15_82_cif.got.tgz:162527.got - 2010.06.28 07:06:18.
