data_PCOD8148743
_publ_section_title
;
Structure prediction by ZEFSAII (Michael W. Deem and Ramdas Pophale) SiO2 
 PCOD8148743
Probable space group: C 2/C
;
_chemical_formula_sum "Si O2"
_cell_formula_units_Z 60
_cell_length_a 15.602130
_cell_length_b 11.482748
_cell_length_c 20.964990
_cell_angle_alpha 90.000000
_cell_angle_beta 44.827061
_cell_angle_gamma 90.000000
_cell_volume 2647.857253
_symmetry_space_group_name_H-M "C 2/C"
_symmetry_group_IT_number 15
_symmetry_cell_setting 'monoclinic'
loop_
_space_group_symop_operation_xyz
x,y,z
-x,y,1/2-z
-x,-y,-z
x,-y,1/2+z
1/2+x,1/2+y,z
1/2-x,1/2+y,1/2-z
1/2-x,1/2-y,-z
1/2+x,1/2-y,1/2+z
loop_
_atom_site_type_symbol
_atom_site_label
_atom_site_fract_x
_atom_site_fract_y
_atom_site_fract_z
Si Si1 0.086775 0.738565 0.369734
Si Si2 0.724551 0.750049 0.124104
Si Si3 0.752120 0.996405 0.066428
Si Si4 0.140647 0.544276 0.500236
Si Si5 0.500000 0.602421 0.250000
Si Si6 0.908961 0.634707 0.566833
Si Si7 0.488764 0.512103 0.624080
Si Si8 0.271523 0.637941 0.179990
O O1 0.186805 0.785154 0.365701
O O2 0.150669 0.649237 0.286737
O O3 0.981469 0.675644 0.465162
O O4 0.033461 0.850004 0.361383
O O5 0.689595 0.871713 0.111020
O O6 0.608220 0.686618 0.214297
O O7 0.784194 0.664335 0.040472
O O8 0.681060 0.034916 0.039429
O O9 0.726557 0.087232 0.136208
O O10 0.897812 0.983887 0.981881
O O11 0.172863 0.471014 0.418320
O O12 0.998178 0.581775 0.573898
O O13 0.470535 0.523364 0.326474
O O14 0.827622 0.733939 0.640730
O O15 0.370593 0.445114 0.660600
#
# Coordination Sequence:
#
# PCOD8148743 Si02
#       8
#     8   8   8   8   4   8   8   8
#     4  11  24  44  68  95 141 177 228 276 344 412
#     4  11  23  43  67 103 130 177 225 290 338 400
#     4  12  24  44  70 100 136 177 231 284 341 409
#     4  10  23  42  69  94 133 177 225 276 345 401
#     4  12  26  40  68 104 136 176 234 288 340 398
#     4  10  24  45  66  99 135 180 226 277 340 414
#     4  12  24  45  68 100 137 178 230 281 338 418
#     4  12  25  42  72 101 133 185 220 283 348 403
#
# _framework density 22.659832999999999
#
# number of rings (size 3 to 8) (size 9 to 14) (size 15 to 20)
#    0.000    0.800    5.333    2.400    3.733    1.600 
#    4.800    0.000    0.000    0.000    0.000    0.000 
#    0.000    0.000    0.000    0.000    0.000    0.000 
#
# Total GULP energy -372009.680296 kJ/mol
# GULP energy per Si atom -12400.322677 kJ/mol
# Density = 2.260826 g / cm^3
# Si number density = 22.659833 Si / 1000 Ang^3
#
#
#
# Elastic Constant Matrix: (Units=GPa)
#
#
# Indices 1 2 3 4 5 6 
#
# 1 86.8783 18.1496 7.1077 0.0000 11.4927 0.0000
# 2 18.1496 71.8002 3.7907 0.0000 -0.5775 0.0000
# 3 7.1077 3.7907 85.5522 0.0000 5.5874 0.0000
# 4 0.0000 0.0000 0.0000 33.7427 0.0000 3.2889
# 5 11.4927 -0.5775 5.5874 0.0000 24.8548 0.0000
# 6 0.0000 0.0000 0.0000 3.2889 0.0000 29.9129
#
#
#
# Elastic Compliance Matrix: (Units=1/GPa)
#
#
# Indices 1 2 3 4 5 6 
#
# 1 0.013039 -0.003315 -0.000546 0.000000 -0.005984 0.000000
# 2 -0.003315 0.014809 -0.000511 0.000000 0.001992 0.000000
# 3 -0.000546 -0.000511 0.011916 0.000000 -0.002438 0.000000
# 4 0.000000 0.000000 0.000000 0.029957 0.000000 -0.003294
# 5 -0.005984 0.001992 -0.002438 0.000000 0.043595 0.000000
# 6 0.000000 0.000000 0.000000 -0.003294 0.000000 0.033793
#
#
# Mechanical properties :
#
#
# Convention : Reuss Voigt Hill
#
# Bulk Modulus (GPa) = 32.23707 33.59186 32.91447
# Shear Modulus (GPa) = 30.08573 32.04759 31.06666
#
# Velocity S-wave (km/s) = 3.64773 3.76479 3.70672
# Velocity P-wave (km/s) = 5.65674 5.80988 5.73382
#
# Compressibility (1/GPa) = 0.03102019
#
# Stress axis : x y z
#
# Youngs Moduli (GPa) = 76.69226 67.52844 83.92096
#
# Poissons Ratio (x) = 0.22388 0.04579
# Poissons Ratio (y) = 0.25426 0.04287
# Poissons Ratio (z) = 0.04184 0.03449
#
# Static dielectric constant tensor:
#      x y z
#    x 4.099240 0.000000 0.037200 
#    y 0.000000 4.090330 0.000000 
#    z 0.037200 0.000000 3.966930 
# 
# 
# High freq. dielectric constant tensor:
#      x y z
#    x 1.896110 0.000000 0.006930 
#    y 0.000000 1.899680 0.000000 
#    z 0.006930 0.000000 1.880030 
# 
# From -- ./inp_files/248741.got.cif
#   From: 2010.06.25/outbox.cif.g09.slc.cpg/sg15_125_cif.got.tgz:248741.got - 2010.06.28 07:06:18.
