data_PCOD8148732
_publ_section_title
;
Structure prediction by ZEFSAII (Michael W. Deem and Ramdas Pophale) SiO2 
 PCOD8148732
Probable space group: C 2/C
;
_chemical_formula_sum "Si O2"
_cell_formula_units_Z 40
_cell_length_a 9.439410
_cell_length_b 17.001142
_cell_length_c 12.105016
_cell_angle_alpha 90.000000
_cell_angle_beta 72.371754
_cell_angle_gamma 90.000000
_cell_volume 1851.399403
_symmetry_space_group_name_H-M "C 2/C"
_symmetry_group_IT_number 15
_symmetry_cell_setting 'monoclinic'
loop_
_space_group_symop_operation_xyz
x,y,z
-x,y,1/2-z
-x,-y,-z
x,-y,1/2+z
1/2+x,1/2+y,z
1/2-x,1/2+y,1/2-z
1/2-x,1/2-y,-z
1/2+x,1/2-y,1/2+z
loop_
_atom_site_type_symbol
_atom_site_label
_atom_site_fract_x
_atom_site_fract_y
_atom_site_fract_z
Si Si1 0.836405 0.700182 0.833509
Si Si2 0.651913 0.846519 0.938112
Si Si3 0.169461 0.551573 0.234489
Si Si4 0.324820 0.595072 0.782945
Si Si5 0.685769 0.837314 0.527649
O O1 0.779432 0.782867 0.889885
O O2 0.720059 0.675211 0.767511
O O3 0.000000 0.712996 0.750000
O O4 0.846509 0.636082 0.931061
O O5 0.692447 0.921659 0.855864
O O6 0.488347 0.820016 0.939752
O O7 0.267270 0.473070 0.213795
O O8 0.223219 0.619547 0.136021
O O9 0.000000 0.527715 0.250000
O O10 0.500000 0.587566 0.750000
O O11 0.248125 0.601352 0.921494
O O12 0.750000 0.750000 0.500000
#
# Coordination Sequence:
#
# PCOD8148732 Si02
#       5
#     8   8   8   8   8
#     4  11  22  42  70  98 132 175 220 274 331 395
#     4  10  23  42  68  99 130 174 221 273 327 404
#     4  10  25  43  67  94 133 175 224 267 337 401
#     4  12  26  43  65  97 136 174 224 279 335 389
#     4  11  23  44  71  97 133 178 221 276 334 398
#
# _framework density 21.605278999999999
#
# number of rings (size 3 to 8) (size 9 to 14) (size 15 to 20)
#    0.000    1.200    2.000    3.000    2.800    4.800 
#    3.600    0.000    0.000    0.000    0.000    0.000 
#    0.000    0.000    0.000    0.000    0.000    0.000 
#
# Total GULP energy -247877.214319 kJ/mol
# GULP energy per Si atom -12393.860716 kJ/mol
# Density = 2.155610 g / cm^3
# Si number density = 21.605279 Si / 1000 Ang^3
#
#
#
# Elastic Constant Matrix: (Units=GPa)
#
#
# Indices 1 2 3 4 5 6 
#
# 1 118.5960 45.6196 53.8472 0.0000 -1.1960 0.0000
# 2 45.6196 75.2382 22.0030 0.0000 -10.6683 0.0000
# 3 53.8472 22.0030 110.9289 0.0000 -12.0483 0.0000
# 4 0.0000 0.0000 0.0000 34.8202 0.0000 1.9575
# 5 -1.1960 -10.6683 -12.0483 0.0000 24.8909 0.0000
# 6 0.0000 0.0000 0.0000 1.9575 0.0000 16.0222
#
#
#
# Elastic Compliance Matrix: (Units=1/GPa)
#
#
# Indices 1 2 3 4 5 6 
#
# 1 0.013916 -0.007488 -0.005853 0.000000 -0.005374 0.000000
# 2 -0.007488 0.018742 0.000792 0.000000 0.008057 0.000000
# 3 -0.005853 0.000792 0.012355 0.000000 0.006039 0.000000
# 4 0.000000 0.000000 0.000000 0.028918 0.000000 -0.003533
# 5 -0.005374 0.008057 0.006039 0.000000 0.046293 0.000000
# 6 0.000000 0.000000 0.000000 -0.003533 0.000000 0.062845
#
#
# Mechanical properties :
#
#
# Convention : Reuss Voigt Hill
#
# Bulk Modulus (GPa) = 50.21444 60.85588 55.53516
# Shear Modulus (GPa) = 23.27697 27.36622 25.32159
#
# Velocity S-wave (km/s) = 3.28590 3.56286 3.42718
# Velocity P-wave (km/s) = 6.13909 6.71964 6.43591
#
# Compressibility (1/GPa) = 0.01991459
#
# Stress axis : x y z
#
# Youngs Moduli (GPa) = 71.86082 53.35637 80.93950
#
# Poissons Ratio (x) = 0.39952 0.47378
# Poissons Ratio (y) = 0.53808 -0.06413
# Poissons Ratio (z) = 0.42064 -0.04227
#
# Static dielectric constant tensor:
#      x y z
#    x 3.837290 0.000000 0.176300 
#    y 0.000000 3.681280 0.000000 
#    z 0.176300 0.000000 4.557130 
# 
# 
# High freq. dielectric constant tensor:
#      x y z
#    x 1.848060 0.000000 0.004610 
#    y 0.000000 1.838050 0.000000 
#    z 0.004610 0.000000 1.870040 
# 
# From -- ./inp_files/76674.got.cif
#   From: 2010.06.25/outbox.cif.g09.slc.cpg/sg15_39_cif.got.tgz:76674.got - 2010.06.28 07:06:18.
