data_PCOD8148965
_publ_section_title
;
Structure prediction by ZEFSAII (Michael W. Deem and Ramdas Pophale) SiO2 
 PCOD8148965
Probable space group: C 2/C
;
_chemical_formula_sum "Si O2"
_cell_formula_units_Z 56
_cell_length_a 11.155112
_cell_length_b 19.919004
_cell_length_c 11.776460
_cell_angle_alpha 90.000000
_cell_angle_beta 89.555992
_cell_angle_gamma 90.000000
_cell_volume 2616.635774
_symmetry_space_group_name_H-M "C 2/C"
_symmetry_group_IT_number 15
_symmetry_cell_setting 'monoclinic'
loop_
_space_group_symop_operation_xyz
x,y,z
-x,y,1/2-z
-x,-y,-z
x,-y,1/2+z
1/2+x,1/2+y,z
1/2-x,1/2+y,1/2-z
1/2-x,1/2-y,-z
1/2+x,1/2-y,1/2+z
loop_
_atom_site_type_symbol
_atom_site_label
_atom_site_fract_x
_atom_site_fract_y
_atom_site_fract_z
Si Si1 0.621995 0.842144 0.786393
Si Si2 0.223649 0.056663 0.070124
Si Si3 0.640801 0.923774 0.381786
Si Si4 0.879700 0.400259 0.371838
Si Si5 0.243063 0.323131 0.554940
Si Si6 0.387303 0.234094 0.996887
Si Si7 0.498842 0.362401 0.615293
O O1 0.500000 0.880590 0.750000
O O2 0.711405 0.892773 0.845542
O O3 0.687794 0.809993 0.678755
O O4 0.577845 0.783931 0.873573
O O5 0.080528 0.072196 0.081467
O O6 0.260992 0.982114 0.104296
O O7 0.268905 0.068677 0.941899
O O8 0.500037 0.946316 0.388231
O O9 0.663520 0.893886 0.256861
O O10 0.657417 0.867339 0.476876
O O11 0.915884 0.326414 0.411873
O O12 0.250000 0.250000 0.500000
O O13 0.363880 0.367645 0.569567
O O14 0.250000 0.250000 0.000000
O O15 0.455099 0.298034 0.951403
O O16 0.500000 0.351368 0.750000
#
# Coordination Sequence:
#
# PCOD8148965 Si02
#       7
#     8   8   8   8   8   8   8
#     4  11  23  41  67  96 134 171 227 284 342 411
#     4  11  24  43  67  96 132 188 228 273 356 417
#     4  11  26  41  68 101 135 176 231 295 336 413
#     4  10  23  43  68  99 135 176 227 291 353 399
#     4  12  26  43  67 102 136 174 233 291 347 410
#     4  11  21  42  67  95 129 175 227 277 348 415
#     4  12  24  43  70  97 140 188 226 284 350 427
#
# _framework density 21.401524999999999
#
# number of rings (size 3 to 8) (size 9 to 14) (size 15 to 20)
#    0.000    0.857    4.286    3.857   10.000    0.571 
#    0.000    0.714    0.000    0.000    0.000    0.000 
#    0.000    0.000    0.000    0.000    0.000    0.000 
#
# Total GULP energy -347057.797177 kJ/mol
# GULP energy per Si atom -12394.921328 kJ/mol
# Density = 2.135281 g / cm^3
# Si number density = 21.401525 Si / 1000 Ang^3
#
#
#
# Elastic Constant Matrix: (Units=GPa)
#
#
# Indices 1 2 3 4 5 6 
#
# 1 93.5662 7.0049 17.2438 0.0000 0.0816 0.0000
# 2 7.0049 84.2222 36.4272 0.0000 -7.1010 0.0000
# 3 17.2438 36.4272 157.6208 0.0000 -16.8714 0.0000
# 4 0.0000 0.0000 0.0000 14.5762 0.0000 -3.6322
# 5 0.0816 -7.1010 -16.8714 0.0000 34.6739 0.0000
# 6 0.0000 0.0000 0.0000 -3.6322 0.0000 34.2124
#
#
#
# Elastic Compliance Matrix: (Units=1/GPa)
#
#
# Indices 1 2 3 4 5 6 
#
# 1 0.010937 -0.000465 -0.001163 0.000000 -0.000687 0.000000
# 2 -0.000465 0.013266 -0.002874 0.000000 0.001320 0.000000
# 3 -0.001163 -0.002874 0.007462 0.000000 0.003045 0.000000
# 4 0.000000 0.000000 0.000000 0.070469 0.000000 0.007481
# 5 -0.000687 0.001320 0.003045 0.000000 0.030594 0.000000
# 6 0.000000 0.000000 0.000000 0.007481 0.000000 0.030023
#
#
# Mechanical properties :
#
#
# Convention : Reuss Voigt Hill
#
# Bulk Modulus (GPa) = 44.12525 50.75123 47.43824
# Shear Modulus (GPa) = 27.88500 35.00805 31.44652
#
# Velocity S-wave (km/s) = 3.61355 4.04886 3.83738
# Velocity P-wave (km/s) = 6.17032 6.75448 6.46900
#
# Compressibility (1/GPa) = 0.02266276
#
# Stress axis : x y z
#
# Youngs Moduli (GPa) = 91.43046 75.37934 134.01944
#
# Poissons Ratio (x) = 0.03503 0.15582
# Poissons Ratio (y) = 0.04249 0.38515
# Poissons Ratio (z) = 0.10630 0.21663
#
# Static dielectric constant tensor:
#      x y z
#    x 4.287990 0.000000 -0.003190 
#    y 0.000000 3.734010 0.000000 
#    z -0.003190 0.000000 4.114600 
# 
# 
# High freq. dielectric constant tensor:
#      x y z
#    x 1.850600 0.000000 -0.005310 
#    y 0.000000 1.814720 0.000000 
#    z -0.005310 0.000000 1.859180 
# 
# From -- ./inp_files/88952.got.cif
#   From: 2010.06.25/outbox.cif.g09.slc.cpg/sg15_45_cif.got.tgz:88952.got - 2010.06.28 07:06:18.
