data_PCOD8148351
_publ_section_title
;
Structure prediction by ZEFSAII (Michael W. Deem and Ramdas Pophale) SiO2 
 PCOD8148351
Probable space group: C 2/C
;
_chemical_formula_sum "Si O2"
_cell_formula_units_Z 48
_cell_length_a 12.223832
_cell_length_b 12.081005
_cell_length_c 20.280554
_cell_angle_alpha 90.000000
_cell_angle_beta 45.592162
_cell_angle_gamma 90.000000
_cell_volume 2139.526599
_symmetry_space_group_name_H-M "C 2/C"
_symmetry_group_IT_number 15
_symmetry_cell_setting 'monoclinic'
loop_
_space_group_symop_operation_xyz
x,y,z
-x,y,1/2-z
-x,-y,-z
x,-y,1/2+z
1/2+x,1/2+y,z
1/2-x,1/2+y,1/2-z
1/2-x,1/2-y,-z
1/2+x,1/2-y,1/2+z
loop_
_atom_site_type_symbol
_atom_site_label
_atom_site_fract_x
_atom_site_fract_y
_atom_site_fract_z
Si Si1 0.610998 0.828589 0.760532
Si Si2 0.325829 0.698671 0.381210
Si Si3 0.607131 0.905821 0.069038
Si Si4 0.637391 0.149085 0.033717
Si Si5 0.285487 0.111959 0.647419
Si Si6 0.136334 0.095691 0.263572
O O1 0.500000 0.878955 0.750000
O O2 0.523084 0.810629 0.867171
O O3 0.680145 0.716490 0.704098
O O4 0.757906 0.905723 0.715496
O O5 0.343620 0.827844 0.391475
O O6 0.169313 0.648800 0.475506
O O7 0.459712 0.618947 0.356476
O O8 0.322055 0.697191 0.303575
O O9 0.422405 0.906806 0.141639
O O10 0.672565 0.030199 0.054117
O O11 0.750000 0.250000 0.000000
O O12 0.634562 0.120992 0.957727
O O13 0.164412 0.012530 0.706865
#
# Coordination Sequence:
#
# PCOD8148351 Si02
#       6
#     8   8   8   8   8   8
#     4  12  26  45  68 104 140 182 239 298 354 418
#     4  10  23  40  73 101 135 176 243 290 345 412
#     4  11  22  44  68 100 138 183 233 293 348 418
#     4  12  25  43  69 104 143 191 232 286 361 428
#     4  12  24  45  73 102 141 194 240 286 362 432
#     4  11  23  45  70 103 136 188 241 283 355 434
#
# _framework density 22.434868999999999
#
# number of rings (size 3 to 8) (size 9 to 14) (size 15 to 20)
#    0.000    0.667    6.667    1.500    4.667    0.000 
#    6.000    0.000    0.000    5.000    0.000    0.000 
#    0.000    0.000    0.000    0.000    0.000    0.000 
#
# Total GULP energy -297342.882809 kJ/mol
# GULP energy per Si atom -12389.286784 kJ/mol
# Density = 2.238381 g / cm^3
# Si number density = 22.434869 Si / 1000 Ang^3
#
#
#
# Elastic Constant Matrix: (Units=GPa)
#
#
# Indices 1 2 3 4 5 6 
#
# 1 98.8718 31.7074 -1.0617 0.0000 -5.3664 0.0000
# 2 31.7074 88.8960 28.8343 0.0000 0.0173 0.0000
# 3 -1.0617 28.8343 88.5042 0.0000 0.7208 0.0000
# 4 0.0000 0.0000 0.0000 39.9600 0.0000 -3.4537
# 5 -5.3664 0.0173 0.7208 0.0000 32.0667 0.0000
# 6 0.0000 0.0000 0.0000 -3.4537 0.0000 18.0239
#
#
#
# Elastic Compliance Matrix: (Units=1/GPa)
#
#
# Indices 1 2 3 4 5 6 
#
# 1 0.011755 -0.004734 0.001668 0.000000 0.001932 0.000000
# 2 -0.004734 0.014485 -0.004770 0.000000 -0.000693 0.000000
# 3 0.001668 -0.004770 0.012873 0.000000 -0.000008 0.000000
# 4 0.000000 0.000000 0.000000 0.025446 0.000000 0.004876
# 5 0.001932 -0.000693 -0.000008 0.000000 0.031509 0.000000
# 6 0.000000 0.000000 0.000000 0.004876 0.000000 0.056416
#
#
# Mechanical properties :
#
#
# Convention : Reuss Voigt Hill
#
# Bulk Modulus (GPa) = 42.66268 43.91469 43.28869
# Shear Modulus (GPa) = 28.41366 32.46293 30.43830
#
# Velocity S-wave (km/s) = 3.56265 3.80805 3.68739
# Velocity P-wave (km/s) = 5.99840 6.24114 6.12097
#
# Compressibility (1/GPa) = 0.02343969
#
# Stress axis : x y z
#
# Youngs Moduli (GPa) = 85.06967 69.03649 77.68124
#
# Poissons Ratio (x) = 0.32682 -0.12954
# Poissons Ratio (y) = 0.40273 0.37057
# Poissons Ratio (z) = -0.14186 0.32933
#
# Static dielectric constant tensor:
#      x y z
#    x 3.915030 0.000000 -0.133160 
#    y 0.000000 4.069390 0.000000 
#    z -0.133160 0.000000 4.361320 
# 
# 
# High freq. dielectric constant tensor:
#      x y z
#    x 1.865730 0.000000 -0.014110 
#    y 0.000000 1.879240 0.000000 
#    z -0.014110 0.000000 1.894190 
# 
# From -- ./inp_files/237442.got.cif
#   From: 2010.06.25/outbox.cif.g09.slc.cpg/sg15_119_cif.got.tgz:237442.got - 2010.06.28 07:06:18.
