data_PCOD8148646
_publ_section_title
;
Structure prediction by ZEFSAII (Michael W. Deem and Ramdas Pophale) SiO2 
 PCOD8148646
Probable space group: C 2/C
;
_chemical_formula_sum "Si O2"
_cell_formula_units_Z 56
_cell_length_a 8.706982
_cell_length_b 17.114649
_cell_length_c 26.773211
_cell_angle_alpha 90.000000
_cell_angle_beta 142.066235
_cell_angle_gamma 90.000000
_cell_volume 2452.645148
_symmetry_space_group_name_H-M "C 2/C"
_symmetry_group_IT_number 15
_symmetry_cell_setting 'monoclinic'
loop_
_space_group_symop_operation_xyz
x,y,z
-x,y,1/2-z
-x,-y,-z
x,-y,1/2+z
1/2+x,1/2+y,z
1/2-x,1/2+y,1/2-z
1/2-x,1/2-y,-z
1/2+x,1/2-y,1/2+z
loop_
_atom_site_type_symbol
_atom_site_label
_atom_site_fract_x
_atom_site_fract_y
_atom_site_fract_z
Si Si1 0.822173 0.902478 0.658492
Si Si2 0.811666 0.761187 0.595122
Si Si3 0.910435 0.109664 0.925668
Si Si4 0.876065 0.363595 0.608663
Si Si5 0.855647 0.712189 0.907987
Si Si6 0.935135 0.939155 0.145417
Si Si7 0.965419 0.488533 0.298649
O O1 0.944290 0.833075 0.657562
O O2 0.557282 0.865016 0.607246
O O3 0.000000 0.923557 0.750000
O O4 0.780181 0.979920 0.613526
O O5 0.702418 0.697448 0.606206
O O6 0.583379 0.796048 0.504684
O O7 0.032890 0.727669 0.617931
O O8 0.681260 0.055456 0.884666
O O9 0.026663 0.081213 0.903156
O O10 0.108388 0.104946 0.021325
O O11 0.839611 0.278832 0.624147
O O12 0.005540 0.419923 0.682524
O O13 0.709130 0.631241 0.865731
O O14 0.193775 0.954209 0.241988
O O15 0.000000 0.471975 0.250000
#
# Coordination Sequence:
#
# PCOD8148646 Si02
#       7
#     8   8   8   8   8   8   8
#     4  12  26  43  66  99 143 180 226 279 342 412
#     4  10  24  45  68 107 136 176 231 281 342 411
#     4  10  23  43  71  97 134 177 229 284 338 401
#     4  11  23  43  70  99 133 180 228 281 340 405
#     4  10  24  44  73 102 137 175 232 287 338 406
#     4  11  24  45  67 101 138 184 226 280 343 413
#     4  10  23  42  65  99 137 175 225 276 339 404
#
# _framework density 22.832491000000001
#
# number of rings (size 3 to 8) (size 9 to 14) (size 15 to 20)
#    0.000    1.429    1.429    2.143    6.000    7.429 
#    0.000    2.143    0.000    0.000    0.000    0.000 
#    0.000    0.000    0.000    0.000    0.000    0.000 
#
# Total GULP energy -347130.831237 kJ/mol
# GULP energy per Si atom -12397.529687 kJ/mol
# Density = 2.278052 g / cm^3
# Si number density = 22.832491 Si / 1000 Ang^3
#
#
#
# Elastic Constant Matrix: (Units=GPa)
#
#
# Indices 1 2 3 4 5 6 
#
# 1 119.9291 73.5556 26.6328 0.0001 12.8987 0.0000
# 2 73.5556 175.0098 35.8900 -0.0008 1.3977 0.0002
# 3 26.6328 35.8900 45.4628 -0.0029 4.7720 0.0004
# 4 0.0001 -0.0008 -0.0029 39.2406 -0.0005 3.1026
# 5 12.8987 1.3977 4.7720 -0.0005 29.9426 0.0004
# 6 0.0000 0.0002 0.0004 3.1026 0.0004 49.2306
#
#
#
# Elastic Compliance Matrix: (Units=1/GPa)
#
#
# Indices 1 2 3 4 5 6 
#
# 1 0.012280 -0.004472 -0.003183 0.000000 -0.004574 0.000000
# 2 -0.004472 0.008455 -0.004288 0.000000 0.002215 0.000000
# 3 -0.003183 -0.004288 0.027541 0.000002 -0.002818 0.000000
# 4 0.000000 0.000000 0.000002 0.025611 0.000000 -0.001614
# 5 -0.004574 0.002215 -0.002818 0.000000 0.035713 0.000000
# 6 0.000000 0.000000 0.000000 -0.001614 0.000000 0.020414
#
#
# Mechanical properties :
#
#
# Convention : Reuss Voigt Hill
#
# Bulk Modulus (GPa) = 40.99914 68.06205 54.53059
# Shear Modulus (GPa) = 30.85830 37.30431 34.08131
#
# Velocity S-wave (km/s) = 3.68028 4.04645 3.86770
# Velocity P-wave (km/s) = 6.00456 7.19066 6.62421
#
# Compressibility (1/GPa) = 0.02439076
#
# Stress axis : x y z
#
# Youngs Moduli (GPa) = 81.43470 118.27315 36.30890
#
# Poissons Ratio (x) = 0.52889 0.11559
# Poissons Ratio (y) = 0.36416 0.15568
# Poissons Ratio (z) = 0.25924 0.50711
#
# Static dielectric constant tensor:
#      x y z
#    x 4.337820 0.000000 0.309620 
#    y 0.000000 4.120440 0.000000 
#    z 0.309620 0.000000 4.019660 
# 
# 
# High freq. dielectric constant tensor:
#      x y z
#    x 1.908940 0.000000 0.010890 
#    y 0.000000 1.909350 0.000000 
#    z 0.010890 0.000000 1.890250 
# 
# From -- ./inp_files/289752.got.cif
#   From: 2010.06.25/outbox.cif.g09.slc.cpg/sg15_145_cif.got.tgz:289752.got - 2010.06.28 07:06:18.
