data_PCOD8148382
_publ_section_title
;
Structure prediction by ZEFSAII (Michael W. Deem and Ramdas Pophale) SiO2 
 PCOD8148382
Probable space group: C 2/C
;
_chemical_formula_sum "Si O2"
_cell_formula_units_Z 60
_cell_length_a 25.203999
_cell_length_b 8.267763
_cell_length_c 15.425470
_cell_angle_alpha 90.000000
_cell_angle_beta 67.443898
_cell_angle_gamma 90.000000
_cell_volume 2968.484854
_symmetry_space_group_name_H-M "C 2/C"
_symmetry_group_IT_number 15
_symmetry_cell_setting 'monoclinic'
loop_
_space_group_symop_operation_xyz
x,y,z
-x,y,1/2-z
-x,-y,-z
x,-y,1/2+z
1/2+x,1/2+y,z
1/2-x,1/2+y,1/2-z
1/2-x,1/2-y,-z
1/2+x,1/2-y,1/2+z
loop_
_atom_site_type_symbol
_atom_site_label
_atom_site_fract_x
_atom_site_fract_y
_atom_site_fract_z
Si Si1 0.785560 0.431934 0.668816
Si Si2 0.826312 0.740197 0.743058
Si Si3 0.892773 0.149272 0.048558
Si Si4 0.885126 0.776555 0.048776
Si Si5 0.995967 0.341978 0.562741
Si Si6 0.500000 0.975735 0.750000
Si Si7 0.120055 0.393230 0.130636
Si Si8 0.697172 0.855520 0.500351
O O1 0.811324 0.559027 0.720932
O O2 0.725864 0.362469 0.740395
O O3 0.827110 0.277395 0.632935
O O4 0.776071 0.512659 0.581249
O O5 0.879615 0.815848 0.657431
O O6 0.844614 0.732658 0.832191
O O7 0.885582 0.964205 0.026618
O O8 0.846637 0.242435 0.021315
O O9 0.956389 0.211346 0.991769
O O10 0.935250 0.739908 0.084869
O O11 0.893363 0.676866 0.955335
O O12 0.000000 0.500000 0.500000
O O13 0.002260 0.371970 0.660951
O O14 0.441119 0.078160 0.784196
O O15 0.160155 0.553911 0.098083
O O16 0.750000 0.750000 0.500000
#
# Coordination Sequence:
#
# PCOD8148382 Si02
#       8
#     8   8   8   8   8   4   8   8
#     4  10  23  41  62  97 130 177 216 274 340 400
#     4  11  24  41  66 100 132 172 226 272 341 406
#     4  11  24  45  63  97 134 174 214 280 344 396
#     4  11  24  43  68  93 136 175 216 281 344 396
#     4  12  22  46  71  94 134 174 227 277 337 406
#     4  12  22  44  72  98 128 180 234 270 328 420
#     4  11  24  41  69  99 125 181 225 272 337 407
#     4  10  23  41  67  92 131 175 218 275 342 402
#
# _framework density 20.212330999999999
#
# number of rings (size 3 to 8) (size 9 to 14) (size 15 to 20)
#    0.000    1.067    2.667    4.400    7.467    1.067 
#    4.800    0.000    0.000    0.000    0.000    0.000 
#    0.000    0.000    0.000    0.000    0.000    0.000 
#
# Total GULP energy -372041.071434 kJ/mol
# GULP energy per Si atom -12401.369048 kJ/mol
# Density = 2.016633 g / cm^3
# Si number density = 20.212331 Si / 1000 Ang^3
#
#
#
# Elastic Constant Matrix: (Units=GPa)
#
#
# Indices 1 2 3 4 5 6 
#
# 1 94.7755 27.1874 35.0038 0.0000 -1.2075 0.0000
# 2 27.1874 100.7742 25.6407 0.0000 -13.9835 0.0000
# 3 35.0038 25.6407 94.1973 0.0000 -4.2669 0.0000
# 4 0.0000 0.0000 0.0000 22.9635 0.0000 -7.5433
# 5 -1.2075 -13.9835 -4.2669 0.0000 28.6917 0.0000
# 6 0.0000 0.0000 0.0000 -7.5433 0.0000 33.6222
#
#
#
# Elastic Compliance Matrix: (Units=1/GPa)
#
#
# Indices 1 2 3 4 5 6 
#
# 1 0.012796 -0.002592 -0.004110 0.000000 -0.001336 0.000000
# 2 -0.002592 0.011885 -0.002028 0.000000 0.005382 0.000000
# 3 -0.004110 -0.002028 0.012729 0.000000 0.000731 0.000000
# 4 0.000000 0.000000 0.000000 0.047012 0.000000 0.010547
# 5 -0.001336 0.005382 0.000731 0.000000 0.037529 0.000000
# 6 0.000000 0.000000 0.000000 0.010547 0.000000 0.032109
#
#
# Mechanical properties :
#
#
# Convention : Reuss Voigt Hill
#
# Bulk Modulus (GPa) = 50.12662 51.71233 50.91947
# Shear Modulus (GPa) = 28.06333 30.51650 29.28991
#
# Velocity S-wave (km/s) = 3.73020 3.88982 3.81085
# Velocity P-wave (km/s) = 6.58835 6.76863 6.67910
#
# Compressibility (1/GPa) = 0.01994948
#
# Stress axis : x y z
#
# Youngs Moduli (GPa) = 78.15182 84.13793 78.56385
#
# Poissons Ratio (x) = 0.21806 0.32289
# Poissons Ratio (y) = 0.20255 0.15935
# Poissons Ratio (z) = 0.32120 0.17066
#
# Static dielectric constant tensor:
#      x y z
#    x 3.807350 0.000000 -0.106440 
#    y 0.000000 3.237620 0.000000 
#    z -0.106440 0.000000 3.875300 
# 
# 
# High freq. dielectric constant tensor:
#      x y z
#    x 1.803270 0.000000 -0.005550 
#    y 0.000000 1.784630 0.000000 
#    z -0.005550 0.000000 1.795740 
# 
# From -- ./inp_files/172332.got.cif
#   From: 2010.06.25/outbox.cif.g09.slc.cpg/sg15_87_cif.got.tgz:172332.got - 2010.06.28 07:06:18.
