data_PCOD8148191
_publ_section_title
;
Structure prediction by ZEFSAII (Michael W. Deem and Ramdas Pophale) SiO2 
 PCOD8148191
Probable space group: C 2/C
;
_chemical_formula_sum "Si O2"
_cell_formula_units_Z 44
_cell_length_a 18.640040
_cell_length_b 11.111521
_cell_length_c 14.295651
_cell_angle_alpha 90.000000
_cell_angle_beta 134.732587
_cell_angle_gamma 90.000000
_cell_volume 2103.423953
_symmetry_space_group_name_H-M "C 2/C"
_symmetry_group_IT_number 15
_symmetry_cell_setting 'monoclinic'
loop_
_space_group_symop_operation_xyz
x,y,z
-x,y,1/2-z
-x,-y,-z
x,-y,1/2+z
1/2+x,1/2+y,z
1/2-x,1/2+y,1/2-z
1/2-x,1/2-y,-z
1/2+x,1/2-y,1/2+z
loop_
_atom_site_type_symbol
_atom_site_label
_atom_site_fract_x
_atom_site_fract_y
_atom_site_fract_z
Si Si1 0.342523 0.425752 0.358762
Si Si2 0.500000 0.507606 0.250000
Si Si3 0.627090 0.106250 0.592676
Si Si4 0.543412 0.644003 0.973207
Si Si5 0.152358 0.185274 0.448372
Si Si6 0.519504 0.090676 0.873379
O O1 0.247746 0.407671 0.204198
O O2 0.387047 0.561614 0.395032
O O3 0.432664 0.333680 0.415090
O O4 0.307050 0.396735 0.430538
O O5 0.476914 0.422396 0.142546
O O6 0.597231 0.595977 0.323205
O O7 0.598167 0.228696 0.512224
O O8 0.582374 0.103621 0.657524
O O9 0.591752 0.998097 0.495437
O O10 0.250000 0.250000 0.500000
O O11 0.070875 0.280177 0.410936
O O12 0.500000 0.040496 0.750000
#
# Coordination Sequence:
#
# PCOD8148191 Si02
#       6
#     8   4   8   8   8   8
#     4  10  23  39  67  92 126 176 213 267 329 381
#     4  10  24  42  66  98 126 174 216 272 322 386
#     4  11  25  42  67  94 135 173 213 273 329 389
#     4  10  23  44  64  96 134 166 222 270 325 391
#     4  11  22  39  67  95 126 166 221 269 317 388
#     4  11  24  42  64  99 130 169 220 267 326 391
#
# _framework density 20.918274
#
# number of rings (size 3 to 8) (size 9 to 14) (size 15 to 20)
#    0.000    1.455    2.727    1.091    6.364    0.000 
#    0.000    0.909    0.000    0.000    0.000    0.000 
#    0.000    0.000    0.000    0.000    0.000    0.000 
#
# Total GULP energy -272680.358107 kJ/mol
# GULP energy per Si atom -12394.561732 kJ/mol
# Density = 2.087066 g / cm^3
# Si number density = 20.918274 Si / 1000 Ang^3
#
#
#
# Elastic Constant Matrix: (Units=GPa)
#
#
# Indices 1 2 3 4 5 6 
#
# 1 89.6410 32.0947 56.3408 0.0000 7.6925 0.0000
# 2 32.0947 102.5491 65.1178 0.0000 7.5684 0.0000
# 3 56.3408 65.1178 140.9004 0.0000 16.8441 0.0000
# 4 0.0000 0.0000 0.0000 36.0631 0.0000 -2.8458
# 5 7.6925 7.5684 16.8441 0.0000 39.6011 0.0000
# 6 0.0000 0.0000 0.0000 -2.8458 0.0000 27.9094
#
#
#
# Elastic Compliance Matrix: (Units=1/GPa)
#
#
# Indices 1 2 3 4 5 6 
#
# 1 0.015019 -0.001257 -0.005378 0.000000 -0.000390 0.000000
# 2 -0.001257 0.013907 -0.005938 0.000000 0.000112 0.000000
# 3 -0.005378 -0.005938 0.012360 0.000000 -0.003078 0.000000
# 4 0.000000 0.000000 0.000000 0.027954 0.000000 0.002850
# 5 -0.000390 0.000112 -0.003078 0.000000 0.026615 0.000000
# 6 0.000000 0.000000 0.000000 0.002850 0.000000 0.036121
#
#
# Mechanical properties :
#
#
# Convention : Reuss Voigt Hill
#
# Bulk Modulus (GPa) = 61.95667 71.13299 66.54483
# Shear Modulus (GPa) = 30.76865 32.68385 31.72625
#
# Velocity S-wave (km/s) = 3.83939 3.95708 3.89868
# Velocity P-wave (km/s) = 7.02405 7.41330 7.22130
#
# Compressibility (1/GPa) = 0.01614031
#
# Stress axis : x y z
#
# Youngs Moduli (GPa) = 66.58084 71.90559 80.90575
#
# Poissons Ratio (x) = 0.09036 0.43514
# Poissons Ratio (y) = 0.08367 0.48043
# Poissons Ratio (z) = 0.35809 0.42699
#
# Static dielectric constant tensor:
#      x y z
#    x 3.803890 0.000000 -0.016000 
#    y 0.000000 3.775100 0.000000 
#    z -0.016000 0.000000 3.932400 
# 
# 
# High freq. dielectric constant tensor:
#      x y z
#    x 1.809340 0.000000 0.004040 
#    y 0.000000 1.819230 0.000000 
#    z 0.004040 0.000000 1.830820 
# 
# From -- ./inp_files/110831.got.cif
#   From: 2010.06.25/outbox.cif.g09.slc.cpg/sg15_56_cif.got.tgz:110831.got - 2010.06.28 07:06:18.
