data_PCOD8148742
_publ_section_title
;
Structure prediction by ZEFSAII (Michael W. Deem and Ramdas Pophale) SiO2 
 PCOD8148742
Probable space group: C 2/C
;
_chemical_formula_sum "Si O2"
_cell_formula_units_Z 40
_cell_length_a 31.393570
_cell_length_b 7.548458
_cell_length_c 23.635137
_cell_angle_alpha 90.000000
_cell_angle_beta 161.071825
_cell_angle_gamma 90.000000
_cell_volume 1816.831456
_symmetry_space_group_name_H-M "C 2/C"
_symmetry_group_IT_number 15
_symmetry_cell_setting 'monoclinic'
loop_
_space_group_symop_operation_xyz
x,y,z
-x,y,1/2-z
-x,-y,-z
x,-y,1/2+z
1/2+x,1/2+y,z
1/2-x,1/2+y,1/2-z
1/2-x,1/2-y,-z
1/2+x,1/2-y,1/2+z
loop_
_atom_site_type_symbol
_atom_site_label
_atom_site_fract_x
_atom_site_fract_y
_atom_site_fract_z
Si Si1 0.984650 0.167847 0.056958
Si Si2 0.375748 0.981778 0.758225
Si Si3 0.469443 0.153311 0.148911
Si Si4 0.172353 0.117178 0.746497
Si Si5 0.420564 0.557990 0.098001
O O1 0.030460 0.366050 0.098435
O O2 0.105379 0.033747 0.200102
O O3 0.936767 0.173000 0.061660
O O4 0.864830 0.101269 0.866671
O O5 0.418163 0.930088 0.748396
O O6 0.382952 0.808403 0.805704
O O7 0.229150 0.054920 0.570679
O O8 0.500000 0.083218 0.250000
O O9 0.478961 0.364755 0.158348
O O10 0.326991 0.092355 0.948179
O O11 0.500000 0.645620 0.250000
#
# Coordination Sequence:
#
# PCOD8148742 Si02
#       5
#     8   8   8   8   8
#     4  11  24  42  66  95 130 170 219 272 325 379
#     4  11  24  43  67  96 129 176 218 265 327 386
#     4  10  23  42  69  94 133 177 215 267 326 384
#     4  10  24  44  64  94 131 171 217 272 323 383
#     4  10  24  43  67  98 132 172 219 271 319 391
#
# _framework density 22.016352999999999
#
# number of rings (size 3 to 8) (size 9 to 14) (size 15 to 20)
#    0.000    1.600    2.000    0.600    5.600    8.800 
#    0.000    0.000    0.000    0.000    0.000    0.000 
#    0.000    0.000    0.000    0.000    0.000    0.000 
#
# Total GULP energy -248062.276212 kJ/mol
# GULP energy per Si atom -12403.113811 kJ/mol
# Density = 2.196624 g / cm^3
# Si number density = 22.016353 Si / 1000 Ang^3
#
#
#
# Elastic Constant Matrix: (Units=GPa)
#
#
# Indices 1 2 3 4 5 6 
#
# 1 149.8277 25.9123 65.6720 0.0000 -0.8806 0.0000
# 2 25.9123 68.3122 30.5758 0.0000 15.6699 -0.0001
# 3 65.6720 30.5758 87.0178 0.0000 -15.0926 0.0001
# 4 0.0000 0.0000 0.0000 23.1343 0.0000 -0.0653
# 5 -0.8806 15.6699 -15.0926 0.0000 32.3735 0.0000
# 6 0.0000 -0.0001 0.0001 -0.0653 0.0000 17.7003
#
#
#
# Elastic Compliance Matrix: (Units=1/GPa)
#
#
# Indices 1 2 3 4 5 6 
#
# 1 0.010410 0.001112 -0.009020 0.000000 -0.004460 0.000000
# 2 0.001112 0.023491 -0.012033 0.000000 -0.016950 0.000000
# 3 -0.009020 -0.012033 0.025562 0.000000 0.017496 0.000000
# 4 0.000000 0.000000 0.000000 0.043226 0.000000 0.000159
# 5 -0.004460 -0.016950 0.017496 0.000000 0.047129 0.000000
# 6 0.000000 0.000000 0.000000 0.000159 0.000000 0.056497
#
#
# Mechanical properties :
#
#
# Convention : Reuss Voigt Hill
#
# Bulk Modulus (GPa) = 51.07348 61.05308 56.06328
# Shear Modulus (GPa) = 19.78433 26.84147 23.31290
#
# Velocity S-wave (km/s) = 3.00095 3.49544 3.25759
# Velocity P-wave (km/s) = 5.93767 6.63941 6.29832
#
# Compressibility (1/GPa) = 0.01957963
#
# Stress axis : x y z
#
# Youngs Moduli (GPa) = 96.06503 42.56965 39.11996
#
# Poissons Ratio (x) = -0.04734 0.35288
# Poissons Ratio (y) = -0.10683 0.47074
# Poissons Ratio (z) = 0.86655 0.51225
#
# Static dielectric constant tensor:
#      x y z
#    x 3.917320 0.000000 -0.040660 
#    y 0.000000 3.996080 0.000000 
#    z -0.040660 0.000000 3.849810 
# 
# 
# High freq. dielectric constant tensor:
#      x y z
#    x 1.869200 0.000000 -0.001940 
#    y 0.000000 1.868800 0.000000 
#    z -0.001940 0.000000 1.865030 
# 
# From -- ./inp_files/102814.got.cif
#   From: 2010.06.25/outbox.cif.g09.slc.cpg/sg15_52_cif.got.tgz:102814.got - 2010.06.28 07:06:18.
