data_PCOD8148582
_publ_section_title
;
Structure prediction by ZEFSAII (Michael W. Deem and Ramdas Pophale) SiO2 
 PCOD8148582
Probable space group: C 2/C
;
_chemical_formula_sum "Si O2"
_cell_formula_units_Z 40
_cell_length_a 14.194649
_cell_length_b 8.263073
_cell_length_c 28.650444
_cell_angle_alpha 90.000000
_cell_angle_beta 32.966726
_cell_angle_gamma 90.000000
_cell_volume 1828.595928
_symmetry_space_group_name_H-M "C 2/C"
_symmetry_group_IT_number 15
_symmetry_cell_setting 'monoclinic'
loop_
_space_group_symop_operation_xyz
x,y,z
-x,y,1/2-z
-x,-y,-z
x,-y,1/2+z
1/2+x,1/2+y,z
1/2-x,1/2+y,1/2-z
1/2-x,1/2-y,-z
1/2+x,1/2-y,1/2+z
loop_
_atom_site_type_symbol
_atom_site_label
_atom_site_fract_x
_atom_site_fract_y
_atom_site_fract_z
Si Si1 0.591290 0.374636 0.496315
Si Si2 0.985086 0.164865 0.703223
Si Si3 0.412854 0.839990 0.144319
Si Si4 0.651816 0.894791 0.564318
Si Si5 0.585192 0.689191 0.163884
O O1 0.500000 0.500000 0.500000
O O2 0.449898 0.279368 0.585680
O O3 0.705361 0.471104 0.485561
O O4 0.716904 0.252525 0.415885
O O5 0.790425 0.131354 0.767457
O O6 0.000000 0.214499 0.750000
O O7 0.062253 0.322700 0.647115
O O8 0.093417 0.001410 0.648291
O O9 0.478843 0.779004 0.167352
O O10 0.503998 0.013837 0.095456
O O11 0.750000 0.750000 0.500000
O O12 0.500000 0.718897 0.250000
#
# Coordination Sequence:
#
# PCOD8148582 Si02
#       5
#     8   8   8   8   8
#     4  11  24  41  64  91 125 167 210 258 312 376
#     4  11  23  40  62  92 125 164 210 259 312 374
#     4  11  23  42  64  91 127 168 209 260 316 375
#     4  11  23  39  63  90 122 164 207 258 314 370
#     4  10  23  42  63  92 126 165 212 261 314 377
#
# _framework density 21.874704999999999
#
# number of rings (size 3 to 8) (size 9 to 14) (size 15 to 20)
#    0.000    1.200    0.000    7.200    0.000   12.800 
#    0.000    7.000    0.000    0.000    0.000    0.000 
#    0.000    0.000    0.000    0.000    0.000    0.000 
#
# Total GULP energy -247980.942242 kJ/mol
# GULP energy per Si atom -12399.047112 kJ/mol
# Density = 2.182492 g / cm^3
# Si number density = 21.874705 Si / 1000 Ang^3
#
#
#
# Elastic Constant Matrix: (Units=GPa)
#
#
# Indices 1 2 3 4 5 6 
#
# 1 82.6179 21.3100 19.6135 0.0003 5.1042 0.0001
# 2 21.3100 124.5740 40.4517 0.0008 5.5835 0.0002
# 3 19.6135 40.4517 76.6365 0.0009 2.5367 0.0006
# 4 0.0003 0.0008 0.0009 46.6362 0.0001 -0.0195
# 5 5.1042 5.5835 2.5367 0.0001 30.0755 0.0002
# 6 0.0001 0.0002 0.0006 -0.0195 0.0002 42.0563
#
#
#
# Elastic Compliance Matrix: (Units=1/GPa)
#
#
# Indices 1 2 3 4 5 6 
#
# 1 0.013176 -0.001326 -0.002614 0.000000 -0.001770 0.000000
# 2 -0.001326 0.009878 -0.004835 0.000000 -0.001201 0.000000
# 3 -0.002614 -0.004835 0.016271 0.000000 -0.000031 0.000000
# 4 0.000000 0.000000 0.000000 0.021443 0.000000 0.000010
# 5 -0.001770 -0.001201 -0.000031 0.000000 0.033776 0.000000
# 6 0.000000 0.000000 0.000000 0.000010 0.000000 0.023778
#
#
# Mechanical properties :
#
#
# Convention : Reuss Voigt Hill
#
# Bulk Modulus (GPa) = 45.92318 49.61985 47.77151
# Shear Modulus (GPa) = 34.93392 37.25049 36.09221
#
# Velocity S-wave (km/s) = 4.00058 4.13110 4.06637
# Velocity P-wave (km/s) = 6.50991 6.74445 6.62821
#
# Compressibility (1/GPa) = 0.02177550
#
# Stress axis : x y z
#
# Youngs Moduli (GPa) = 75.89733 101.23525 61.46055
#
# Poissons Ratio (x) = 0.13422 0.16064
# Poissons Ratio (y) = 0.10063 0.29716
# Poissons Ratio (z) = 0.19837 0.48946
#
# Static dielectric constant tensor:
#      x y z
#    x 3.733980 0.000030 -0.216930 
#    y 0.000030 6.049120 0.000140 
#    z -0.216930 0.000140 4.298780 
# 
# 
# High freq. dielectric constant tensor:
#      x y z
#    x 1.853750 0.000000 -0.001130 
#    y 0.000000 1.879150 0.000000 
#    z -0.001130 0.000000 1.870480 
# 
# From -- ./inp_files/150558.got.cif
#   From: 2010.06.25/outbox.cif.g09.slc.cpg/sg15_76_cif.got.tgz:150558.got - 2010.06.28 07:06:18.
