data_PCOD8148072
_publ_section_title
;
Structure prediction by ZEFSAII (Michael W. Deem and Ramdas Pophale) SiO2 
 PCOD8148072
Probable space group: C 2/C
;
_chemical_formula_sum "Si O2"
_cell_formula_units_Z 48
_cell_length_a 29.108328
_cell_length_b 11.793907
_cell_length_c 9.027106
_cell_angle_alpha 90.000000
_cell_angle_beta 50.426024
_cell_angle_gamma 90.000000
_cell_volume 2388.728105
_symmetry_space_group_name_H-M "C 2/C"
_symmetry_group_IT_number 15
_symmetry_cell_setting 'monoclinic'
loop_
_space_group_symop_operation_xyz
x,y,z
-x,y,1/2-z
-x,-y,-z
x,-y,1/2+z
1/2+x,1/2+y,z
1/2-x,1/2+y,1/2-z
1/2-x,1/2-y,-z
1/2+x,1/2-y,1/2+z
loop_
_atom_site_type_symbol
_atom_site_label
_atom_site_fract_x
_atom_site_fract_y
_atom_site_fract_z
Si Si1 0.919320 0.197783 0.668988
Si Si2 0.237677 0.500863 0.274022
Si Si3 0.302684 0.158433 0.392764
Si Si4 0.500000 0.648922 0.250000
Si Si5 0.000000 0.149730 0.750000
Si Si6 0.207092 0.141437 0.089396
Si Si7 0.918703 0.061585 0.171414
O O1 0.864536 0.279390 0.765560
O O2 0.964978 0.225760 0.441337
O O3 0.952135 0.225144 0.758120
O O4 0.895351 0.067830 0.713060
O O5 0.197130 0.581460 0.255164
O O6 0.198317 0.419511 0.458613
O O7 0.280804 0.575758 0.284921
O O8 0.280365 0.427904 0.083788
O O9 0.250000 0.250000 0.500000
O O10 0.450840 0.574275 0.263732
O O11 0.032874 0.073371 0.558403
O O12 0.134997 0.154961 0.234975
O O13 0.250000 0.250000 0.000000
#
# Coordination Sequence:
#
# PCOD8148072 Si02
#       7
#     8   8   8   4   4   8   8
#     4  11  21  39  63  90 125 161 202 252 321 374
#     4  10  24  44  56  98 126 156 214 256 310 370
#     4  11  24  41  68  91 126 170 205 259 323 365
#     4  10  23  38  58  95 126 163 202 258 310 369
#     4  10  23  38  58  95 126 163 202 258 310 369
#     4  11  25  38  65  92 123 164 201 252 316 367
#     4  11  22  36  60  91 132 153 203 256 306 384
#
# _framework density 20.094374999999999
#
# number of rings (size 3 to 8) (size 9 to 14) (size 15 to 20)
#    0.000    1.333    0.000    7.000   14.000    0.000 
#    0.000    0.000    0.000    3.000    0.000    0.000 
#    0.000    0.000    0.000    0.000    0.000    0.000 
#
# Total GULP energy -297503.631211 kJ/mol
# GULP energy per Si atom -12395.984634 kJ/mol
# Density = 2.004864 g / cm^3
# Si number density = 20.094375 Si / 1000 Ang^3
#
#
#
# Elastic Constant Matrix: (Units=GPa)
#
#
# Indices 1 2 3 4 5 6 
#
# 1 136.4612 59.7675 69.9065 0.0000 1.5767 0.0000
# 2 59.7675 89.2338 42.2988 0.0000 -2.5165 0.0000
# 3 69.9065 42.2988 92.2005 0.0000 20.8557 0.0000
# 4 0.0000 0.0000 0.0000 40.1203 0.0000 7.4132
# 5 1.5767 -2.5165 20.8557 0.0000 44.3921 0.0000
# 6 0.0000 0.0000 0.0000 7.4132 0.0000 49.6560
#
#
#
# Elastic Compliance Matrix: (Units=1/GPa)
#
#
# Indices 1 2 3 4 5 6 
#
# 1 0.014265 -0.005038 -0.009316 0.000000 0.003584 0.000000
# 2 -0.005038 0.016897 -0.004687 0.000000 0.003339 0.000000
# 3 -0.009316 -0.004687 0.022428 0.000000 -0.010472 0.000000
# 4 0.000000 0.000000 0.000000 0.025632 0.000000 -0.003827
# 5 0.003584 0.003339 -0.010472 0.000000 0.027508 0.000000
# 6 0.000000 0.000000 0.000000 -0.003827 0.000000 0.020710
#
#
# Mechanical properties :
#
#
# Convention : Reuss Voigt Hill
#
# Bulk Modulus (GPa) = 64.47928 73.53786 69.00857
# Shear Modulus (GPa) = 29.29262 36.56186 32.92724
#
# Velocity S-wave (km/s) = 3.82219 4.27020 4.05239
# Velocity P-wave (km/s) = 7.18587 7.80951 7.50417
#
# Compressibility (1/GPa) = 0.01550886
#
# Stress axis : x y z
#
# Youngs Moduli (GPa) = 70.09998 59.18259 44.58699
#
# Poissons Ratio (x) = 0.29815 0.41535
# Poissons Ratio (y) = 0.35315 0.20899
# Poissons Ratio (z) = 0.65302 0.27741
#
# Static dielectric constant tensor:
#      x y z
#    x 3.872930 0.000000 0.238890 
#    y 0.000000 3.614910 0.000000 
#    z 0.238890 0.000000 3.858050 
# 
# 
# High freq. dielectric constant tensor:
#      x y z
#    x 1.800790 0.000000 0.018690 
#    y 0.000000 1.741680 0.000000 
#    z 0.018690 0.000000 1.805230 
# 
# From -- ./inp_files/31964.got.cif
#   From: 2010.06.25/outbox.cif.g09.slc.cpg/sg15_16_cif.got.tgz:31964.got - 2010.06.28 07:06:18.
