data_PCOD8148714
_publ_section_title
;
Structure prediction by ZEFSAII (Michael W. Deem and Ramdas Pophale) SiO2 
 PCOD8148714
Probable space group: C 2/C
;
_chemical_formula_sum "Si O2"
_cell_formula_units_Z 56
_cell_length_a 21.189882
_cell_length_b 18.481376
_cell_length_c 15.287512
_cell_angle_alpha 90.000000
_cell_angle_beta 24.582290
_cell_angle_gamma 90.000000
_cell_volume 2490.535292
_symmetry_space_group_name_H-M "C 2/C"
_symmetry_group_IT_number 15
_symmetry_cell_setting 'monoclinic'
loop_
_space_group_symop_operation_xyz
x,y,z
-x,y,1/2-z
-x,-y,-z
x,-y,1/2+z
1/2+x,1/2+y,z
1/2-x,1/2+y,1/2-z
1/2-x,1/2-y,-z
1/2+x,1/2-y,1/2+z
loop_
_atom_site_type_symbol
_atom_site_label
_atom_site_fract_x
_atom_site_fract_y
_atom_site_fract_z
Si Si1 0.594182 0.939187 0.930992
Si Si2 0.678696 0.822600 0.699017
Si Si3 0.365164 0.679092 0.281649
Si Si4 0.904984 0.222370 0.042951
Si Si5 0.607758 0.389797 0.195909
Si Si6 0.642336 0.476603 0.765971
Si Si7 0.932589 0.324297 0.245742
O O1 0.692588 0.898321 0.734090
O O2 0.706495 0.967906 0.865363
O O3 0.472720 0.881738 0.121278
O O4 0.500000 0.000000 0.000000
O O5 0.781976 0.765086 0.621855
O O6 0.506326 0.794926 0.913089
O O7 0.751919 0.838318 0.511699
O O8 0.415440 0.596325 0.209752
O O9 0.246377 0.679841 0.511250
O O10 0.489074 0.741598 0.150786
O O11 0.313485 0.706111 0.248884
O O12 0.013810 0.153663 0.887477
O O13 0.500000 0.408535 0.250000
O O14 0.677158 0.463006 0.148933
O O15 0.500000 0.500000 0.000000
O O16 0.000000 0.354342 0.250000
#
# Coordination Sequence:
#
# PCOD8148714 Si02
#       7
#     8   8   8   8   8   8   8
#     4  12  27  45  68 102 142 183 228 286 352 419
#     4  11  23  43  69 100 135 179 227 285 347 412
#     4  11  23  41  70  98 131 182 230 284 346 407
#     4  11  21  44  69  97 136 174 226 285 341 410
#     4  10  23  42  68 102 139 180 225 283 346 415
#     4  12  23  47  71 101 143 185 228 289 350 416
#     4  11  23  46  69  98 138 180 231 292 349 408
#
# _framework density 22.485125
#
# number of rings (size 3 to 8) (size 9 to 14) (size 15 to 20)
#    0.000    0.857    5.714    1.286    2.000    1.714 
#    5.143    1.429    0.000    0.000    0.000    0.000 
#    0.000    0.000    0.000    0.000    0.000    0.000 
#
# Total GULP energy -346934.787429 kJ/mol
# GULP energy per Si atom -12390.528122 kJ/mol
# Density = 2.243395 g / cm^3
# Si number density = 22.485125 Si / 1000 Ang^3
#
#
#
# Elastic Constant Matrix: (Units=GPa)
#
#
# Indices 1 2 3 4 5 6 
#
# 1 79.5926 48.0475 29.0987 -0.0005 -0.8132 0.0009
# 2 48.0475 130.7246 35.4582 0.0013 -4.7744 -0.0006
# 3 29.0987 35.4582 91.6740 0.0022 7.3007 -0.0018
# 4 -0.0005 0.0013 0.0022 30.7148 0.0005 4.5521
# 5 -0.8132 -4.7744 7.3007 0.0005 29.5861 -0.0004
# 6 0.0009 -0.0006 -0.0018 4.5521 -0.0004 42.9263
#
#
#
# Elastic Compliance Matrix: (Units=1/GPa)
#
#
# Indices 1 2 3 4 5 6 
#
# 1 0.017016 -0.005322 -0.003378 0.000001 0.000442 -0.000001
# 2 -0.005322 0.010359 -0.002488 0.000000 0.002139 0.000000
# 3 -0.003378 -0.002488 0.013242 -0.000001 -0.003762 0.000001
# 4 0.000001 0.000000 -0.000001 0.033077 0.000000 -0.003508
# 5 0.000442 0.002139 -0.003762 0.000000 0.035085 0.000000
# 6 -0.000001 0.000000 0.000001 -0.003508 0.000000 0.023668
#
#
# Mechanical properties :
#
#
# Convention : Reuss Voigt Hill
#
# Bulk Modulus (GPa) = 54.81879 58.57779 56.69829
# Shear Modulus (GPa) = 31.07463 33.27124 32.17293
#
# Velocity S-wave (km/s) = 3.72157 3.85086 3.78677
# Velocity P-wave (km/s) = 6.54979 6.77352 6.66259
#
# Compressibility (1/GPa) = 0.01824192
#
# Stress axis : x y z
#
# Youngs Moduli (GPa) = 58.76794 96.53837 75.51587
#
# Poissons Ratio (x) = 0.51376 0.25509
# Poissons Ratio (y) = 0.31275 0.18786
# Poissons Ratio (z) = 0.19852 0.24016
#
# Static dielectric constant tensor:
#      x y z
#    x 0.873980 0.000180 -0.121790 
#    y 0.000180 4.421700 0.000010 
#    z -0.121790 0.000010 4.849630 
# 
# 
# High freq. dielectric constant tensor:
#      x y z
#    x 1.871890 0.000000 0.024520 
#    y 0.000000 1.889440 0.000000 
#    z 0.024520 0.000000 1.892320 
# 
# From -- ./inp_files/169108.got.cif
#   From: 2010.06.25/outbox.cif.g09.slc.cpg/sg15_85_cif.got.tgz:169108.got - 2010.06.28 07:06:18.
