data_PCOD8148442
_publ_section_title
;
Structure prediction by ZEFSAII (Michael W. Deem and Ramdas Pophale) SiO2 
 PCOD8148442
Probable space group: C 2/C
;
_chemical_formula_sum "Si O2"
_cell_formula_units_Z 40
_cell_length_a 9.006372
_cell_length_b 8.673661
_cell_length_c 22.874777
_cell_angle_alpha 90.000000
_cell_angle_beta 94.764970
_cell_angle_gamma 90.000000
_cell_volume 1780.760854
_symmetry_space_group_name_H-M "C 2/C"
_symmetry_group_IT_number 15
_symmetry_cell_setting 'monoclinic'
loop_
_space_group_symop_operation_xyz
x,y,z
-x,y,1/2-z
-x,-y,-z
x,-y,1/2+z
1/2+x,1/2+y,z
1/2-x,1/2+y,1/2-z
1/2-x,1/2-y,-z
1/2+x,1/2-y,1/2+z
loop_
_atom_site_type_symbol
_atom_site_label
_atom_site_fract_x
_atom_site_fract_y
_atom_site_fract_z
Si Si1 0.071673 0.074601 0.882296
Si Si2 0.246964 0.426174 0.328920
Si Si3 0.277032 0.083559 0.473562
Si Si4 0.838799 0.107302 0.223358
Si Si5 0.577659 0.914549 0.917695
O O1 0.126694 0.246621 0.897592
O O2 0.894347 0.053899 0.873058
O O3 0.124518 0.965574 0.937103
O O4 0.145539 0.028846 0.823249
O O5 0.245850 0.250770 0.307578
O O6 0.243172 0.541140 0.273803
O O7 0.105993 0.465070 0.365576
O O8 0.250000 0.250000 0.500000
O O9 0.404190 0.086353 0.428137
O O10 0.321328 0.959719 0.523800
O O11 0.000000 0.164415 0.250000
#
# Coordination Sequence:
#
# PCOD8148442 Si02
#       5
#     8   8   8   8   8
#     4  11  23  42  65  94 128 166 211 263 318 377
#     4  11  24  43  67  95 127 167 213 263 316 381
#     4  11  25  44  64  93 132 171 213 265 320 378
#     4  10  23  41  65  95 130 166 208 264 322 379
#     4  11  24  40  66  95 127 171 214 261 319 379
#
# _framework density 22.462309999999999
#
# number of rings (size 3 to 8) (size 9 to 14) (size 15 to 20)
#    0.000    1.200    0.000    5.400    0.000   12.800 
#    0.000    0.000    0.000    0.000    0.000    0.000 
#    0.000    0.000    0.000    0.000    0.000    0.000 
#
# Total GULP energy -248130.864181 kJ/mol
# GULP energy per Si atom -12406.543209 kJ/mol
# Density = 2.241118 g / cm^3
# Si number density = 22.462310 Si / 1000 Ang^3
#
#
#
# Elastic Constant Matrix: (Units=GPa)
#
#
# Indices 1 2 3 4 5 6 
#
# 1 101.9693 59.9552 67.1267 0.0000 -12.0328 0.0000
# 2 59.9552 148.9359 75.5976 0.0000 4.3274 0.0000
# 3 67.1267 75.5976 128.0818 0.0000 -5.2858 0.0000
# 4 0.0000 0.0000 0.0000 56.4503 0.0000 0.4809
# 5 -12.0328 4.3274 -5.2858 0.0000 47.5886 0.0000
# 6 0.0000 0.0000 0.0000 0.4809 0.0000 28.4455
#
#
#
# Elastic Compliance Matrix: (Units=1/GPa)
#
#
# Indices 1 2 3 4 5 6 
#
# 1 0.016563 -0.003499 -0.006459 0.000000 0.003789 0.000000
# 2 -0.003499 0.010434 -0.004421 0.000000 -0.002325 0.000000
# 3 -0.006459 -0.004421 0.013814 0.000000 0.000303 0.000000
# 4 0.000000 0.000000 0.000000 0.017717 0.000000 -0.000300
# 5 0.003789 -0.002325 0.000303 0.000000 0.022216 0.000000
# 6 0.000000 0.000000 0.000000 -0.000300 0.000000 0.035160
#
#
# Mechanical properties :
#
#
# Convention : Reuss Voigt Hill
#
# Bulk Modulus (GPa) = 82.95857 87.14956 85.05407
# Shear Modulus (GPa) = 33.62883 38.25073 35.93978
#
# Velocity S-wave (km/s) = 3.87346 4.13108 4.00434
# Velocity P-wave (km/s) = 7.55099 7.85091 7.70241
#
# Compressibility (1/GPa) = 0.01205421
#
# Stress axis : x y z
#
# Youngs Moduli (GPa) = 60.37382 95.83724 72.38862
#
# Poissons Ratio (x) = 0.33537 0.46756
# Poissons Ratio (y) = 0.21127 0.32000
# Poissons Ratio (z) = 0.38996 0.42366
#
# Static dielectric constant tensor:
#      x y z
#    x 3.942420 0.000000 -0.029910 
#    y 0.000000 3.962300 0.000000 
#    z -0.029910 0.000000 4.297220 
# 
# 
# High freq. dielectric constant tensor:
#      x y z
#    x 1.873950 0.000000 -0.001790 
#    y 0.000000 1.889850 0.000000 
#    z -0.001790 0.000000 1.907990 
# 
# From -- ./inp_files/262441.got.cif
#   From: 2010.06.25/outbox.cif.g09.slc.cpg/sg15_132_cif.got.tgz:262441.got - 2010.06.28 07:06:18.
