data_PCOD8148827
_publ_section_title
;
Structure prediction by ZEFSAII (Michael W. Deem and Ramdas Pophale) SiO2 
 PCOD8148827
Probable space group: C 2/C
;
_chemical_formula_sum "Si O2"
_cell_formula_units_Z 40
_cell_length_a 13.631663
_cell_length_b 11.355305
_cell_length_c 11.589065
_cell_angle_alpha 90.000000
_cell_angle_beta 72.073046
_cell_angle_gamma 90.000000
_cell_volume 1706.797036
_symmetry_space_group_name_H-M "C 2/C"
_symmetry_group_IT_number 15
_symmetry_cell_setting 'monoclinic'
loop_
_space_group_symop_operation_xyz
x,y,z
-x,y,1/2-z
-x,-y,-z
x,-y,1/2+z
1/2+x,1/2+y,z
1/2-x,1/2+y,1/2-z
1/2-x,1/2-y,-z
1/2+x,1/2-y,1/2+z
loop_
_atom_site_type_symbol
_atom_site_label
_atom_site_fract_x
_atom_site_fract_y
_atom_site_fract_z
Si Si1 0.009393 0.360650 0.502670
Si Si2 0.808636 0.225470 0.635098
Si Si3 0.103688 0.197993 0.654900
Si Si4 0.120726 0.977682 0.956334
Si Si5 0.100600 0.203956 0.278042
O O1 0.893245 0.310896 0.549592
O O2 0.000000 0.500000 0.500000
O O3 0.074215 0.314382 0.590423
O O4 0.066354 0.316199 0.366989
O O5 0.816565 0.226380 0.772326
O O6 0.690507 0.263586 0.653208
O O7 0.817819 0.098292 0.573065
O O8 0.153200 0.095536 0.558339
O O9 0.000000 0.146445 0.750000
O O10 0.148548 0.900791 0.835329
O O11 0.000000 0.000000 0.000000
O O12 0.000000 0.155191 0.250000
#
# Coordination Sequence:
#
# PCOD8148827 Si02
#       5
#     8   8   8   8   8
#     4  10  23  43  63 100 137 172 227 279 336 408
#     4  11  24  44  70 101 135 186 223 276 350 399
#     4   9  19  40  71  94 131 173 228 280 331 402
#     4  11  21  42  70 101 128 174 231 282 333 407
#     4  11  27  44  64  98 141 179 226 284 335 394
#
# _framework density 23.435711000000001
#
# number of rings (size 3 to 8) (size 9 to 14) (size 15 to 20)
#    0.000    1.600    6.000    0.000    5.600    6.400 
#    3.600    0.000    0.000    0.000    0.000    0.000 
#    0.000    0.000    0.000    0.000    0.000    0.000 
#
# Total GULP energy -247989.846996 kJ/mol
# GULP energy per Si atom -12399.492350 kJ/mol
# Density = 2.338237 g / cm^3
# Si number density = 23.435711 Si / 1000 Ang^3
#
#
#
# Elastic Constant Matrix: (Units=GPa)
#
#
# Indices 1 2 3 4 5 6 
#
# 1 86.8829 27.6724 17.6639 0.0000 -19.4237 0.0000
# 2 27.6724 179.1472 53.9528 0.0000 -15.8289 0.0000
# 3 17.6639 53.9528 59.0248 0.0000 -9.0808 0.0000
# 4 0.0000 0.0000 0.0000 28.7680 0.0000 -10.2308
# 5 -19.4237 -15.8289 -9.0808 0.0000 51.9841 0.0000
# 6 0.0000 0.0000 0.0000 -10.2308 0.0000 15.5533
#
#
#
# Elastic Compliance Matrix: (Units=1/GPa)
#
#
# Indices 1 2 3 4 5 6 
#
# 1 0.013255 -0.000931 -0.002464 0.000000 0.004239 0.000000
# 2 -0.000931 0.007835 -0.006751 0.000000 0.000859 0.000000
# 3 -0.002464 -0.006751 0.024038 0.000000 0.001223 0.000000
# 4 0.000000 0.000000 0.000000 0.045375 0.000000 0.029847
# 5 0.004239 0.000859 0.001223 0.000000 0.021296 0.000000
# 6 0.000000 0.000000 0.000000 0.029847 0.000000 0.083928
#
#
# Mechanical properties :
#
#
# Convention : Reuss Voigt Hill
#
# Bulk Modulus (GPa) = 40.26258 58.18146 49.22202
# Shear Modulus (GPa) = 22.29190 34.31214 28.30202
#
# Velocity S-wave (km/s) = 3.08749 3.83050 3.47889
# Velocity P-wave (km/s) = 5.47060 6.66660 6.09799
#
# Compressibility (1/GPa) = 0.02483696
#
# Stress axis : x y z
#
# Youngs Moduli (GPa) = 75.44468 127.63600 41.60045
#
# Poissons Ratio (x) = 0.11882 0.10249
# Poissons Ratio (y) = 0.07024 0.28084
# Poissons Ratio (z) = 0.18586 0.86165
#
# Static dielectric constant tensor:
#      x y z
#    x 4.171540 0.000000 0.081190 
#    y 0.000000 4.879570 0.000000 
#    z 0.081190 0.000000 5.029420 
# 
# 
# High freq. dielectric constant tensor:
#      x y z
#    x 1.912170 0.000000 -0.001780 
#    y 0.000000 1.918130 0.000000 
#    z -0.001780 0.000000 1.944710 
# 
# From -- ./inp_files/94906.got.cif
#   From: 2010.06.25/outbox.cif.g09.slc.cpg/sg15_48_cif.got.tgz:94906.got - 2010.06.28 07:06:18.
