data_PCOD8148355
_publ_section_title
;
Structure prediction by ZEFSAII (Michael W. Deem and Ramdas Pophale) SiO2 
 PCOD8148355
Probable space group: C 2/C
;
_chemical_formula_sum "Si O2"
_cell_formula_units_Z 48
_cell_length_a 19.656056
_cell_length_b 14.206304
_cell_length_c 14.590858
_cell_angle_alpha 90.000000
_cell_angle_beta 35.325144
_cell_angle_gamma 90.000000
_cell_volume 2355.853150
_symmetry_space_group_name_H-M "C 2/C"
_symmetry_group_IT_number 15
_symmetry_cell_setting 'monoclinic'
loop_
_space_group_symop_operation_xyz
x,y,z
-x,y,1/2-z
-x,-y,-z
x,-y,1/2+z
1/2+x,1/2+y,z
1/2-x,1/2+y,1/2-z
1/2-x,1/2-y,-z
1/2+x,1/2-y,1/2+z
loop_
_atom_site_type_symbol
_atom_site_label
_atom_site_fract_x
_atom_site_fract_y
_atom_site_fract_z
Si Si1 0.626743 0.399852 0.800812
Si Si2 0.729545 0.487754 0.514184
Si Si3 0.148827 0.307607 0.332319
Si Si4 0.029129 0.408619 0.313871
Si Si5 0.100505 0.403285 0.569570
Si Si6 0.859982 0.055164 0.570531
O O1 0.678604 0.412732 0.642310
O O2 0.671567 0.302126 0.793137
O O3 0.677138 0.481300 0.810786
O O4 0.486370 0.401494 0.952813
O O5 0.843082 0.452015 0.336217
O O6 0.772149 0.583880 0.518954
O O7 0.636490 0.498512 0.532766
O O8 0.036798 0.339191 0.392147
O O9 0.113329 0.326758 0.476244
O O10 0.268945 0.358996 0.173079
O O11 0.000000 0.354143 0.250000
O O12 0.934829 0.493128 0.432217
O O13 0.000000 0.367345 0.750000
#
# Coordination Sequence:
#
# PCOD8148355 Si02
#       6
#     8   8   8   8   8   8
#     4  11  23  39  61  89 123 161 204 246 310 371
#     4   9  18  38  62  81 121 163 193 249 302 360
#     4  11  21  38  62  88 123 159 202 255 300 368
#     4   8  18  32  57  92 118 152 198 249 312 341
#     4   9  18  37  60  91 117 157 207 252 305 351
#     4  10  23  41  58  89 122 162 202 250 310 357
#
# _framework density 20.374783000000001
#
# number of rings (size 3 to 8) (size 9 to 14) (size 15 to 20)
#    0.000    2.667    1.667    1.000    0.000    6.667 
#    9.000    4.167    0.000    0.000    0.000    0.000 
#    0.000    0.000    0.000    0.000    0.000    0.000 
#
# Total GULP energy -297403.882554 kJ/mol
# GULP energy per Si atom -12391.828440 kJ/mol
# Density = 2.032841 g / cm^3
# Si number density = 20.374783 Si / 1000 Ang^3
#
#
#
# Elastic Constant Matrix: (Units=GPa)
#
#
# Indices 1 2 3 4 5 6 
#
# 1 115.5130 42.6580 22.5557 0.0000 14.1287 0.0000
# 2 42.6580 65.6225 17.6124 0.0000 -1.9595 0.0000
# 3 22.5557 17.6124 53.3528 0.0000 9.9018 0.0000
# 4 0.0000 0.0000 0.0000 19.6862 0.0000 -0.8066
# 5 14.1287 -1.9595 9.9018 0.0000 31.0776 0.0000
# 6 0.0000 0.0000 0.0000 -0.8066 0.0000 15.3081
#
#
#
# Elastic Compliance Matrix: (Units=1/GPa)
#
#
# Indices 1 2 3 4 5 6 
#
# 1 0.012601 -0.007917 -0.001656 0.000000 -0.005701 0.000000
# 2 -0.007917 0.021960 -0.005130 0.000000 0.006619 0.000000
# 3 -0.001656 -0.005130 0.022381 0.000000 -0.006701 0.000000
# 4 0.000000 0.000000 0.000000 0.050907 0.000000 0.002682
# 5 -0.005701 0.006619 -0.006701 0.000000 0.037322 0.000000
# 6 0.000000 0.000000 0.000000 0.002682 0.000000 0.065466
#
#
# Mechanical properties :
#
#
# Convention : Reuss Voigt Hill
#
# Bulk Modulus (GPa) = 36.31788 44.46005 40.38896
# Shear Modulus (GPa) = 20.06240 23.32518 21.69379
#
# Velocity S-wave (km/s) = 3.14135 3.38717 3.26657
# Velocity P-wave (km/s) = 5.56965 6.09637 5.83895
#
# Compressibility (1/GPa) = 0.02753465
#
# Stress axis : x y z
#
# Youngs Moduli (GPa) = 79.35592 45.53738 44.68162
#
# Poissons Ratio (x) = 0.36054 0.07399
# Poissons Ratio (y) = 0.62829 0.22924
# Poissons Ratio (z) = 0.13140 0.23363
#
# Static dielectric constant tensor:
#      x y z
#    x 4.517540 0.000000 -0.003880 
#    y 0.000000 3.256140 0.000000 
#    z -0.003880 0.000000 3.535240 
# 
# 
# High freq. dielectric constant tensor:
#      x y z
#    x 1.817480 0.000000 0.003240 
#    y 0.000000 1.747280 0.000000 
#    z 0.003240 0.000000 1.795010 
# 
# From -- ./inp_files/219245.got.cif
#   From: 2010.06.25/outbox.cif.g09.slc.cpg/sg15_110_cif.got.tgz:219245.got - 2010.06.28 07:06:18.
