data_PCOD8148202
_publ_section_title
;
Structure prediction by ZEFSAII (Michael W. Deem and Ramdas Pophale) SiO2 
 PCOD8148202
Probable space group: C 2/C
;
_chemical_formula_sum "Si O2"
_cell_formula_units_Z 52
_cell_length_a 15.126814
_cell_length_b 16.001093
_cell_length_c 11.786242
_cell_angle_alpha 90.000000
_cell_angle_beta 59.390460
_cell_angle_gamma 90.000000
_cell_volume 2455.289494
_symmetry_space_group_name_H-M "C 2/C"
_symmetry_group_IT_number 15
_symmetry_cell_setting 'monoclinic'
loop_
_space_group_symop_operation_xyz
x,y,z
-x,y,1/2-z
-x,-y,-z
x,-y,1/2+z
1/2+x,1/2+y,z
1/2-x,1/2+y,1/2-z
1/2-x,1/2-y,-z
1/2+x,1/2-y,1/2+z
loop_
_atom_site_type_symbol
_atom_site_label
_atom_site_fract_x
_atom_site_fract_y
_atom_site_fract_z
Si Si1 0.138341 0.664809 0.831109
Si Si2 0.000000 0.583645 0.750000
Si Si3 0.000000 0.687986 0.250000
Si Si4 0.850250 0.943268 0.434405
Si Si5 0.872187 0.177229 0.707535
Si Si6 0.052559 0.160237 0.437092
Si Si7 0.000000 0.923287 0.750000
Si Si8 0.121356 0.448941 0.544764
O O1 0.088461 0.643462 0.742223
O O2 0.256851 0.692638 0.739335
O O3 0.080044 0.741828 0.928536
O O4 0.127663 0.578382 0.909237
O O5 0.046643 0.527111 0.617610
O O6 0.068753 0.739881 0.292686
O O7 0.084259 0.633140 0.132625
O O8 0.873521 0.885550 0.311561
O O9 0.868820 0.892964 0.538263
O O10 0.733579 0.974342 0.515701
O O11 0.922285 0.023310 0.376971
O O12 0.937771 0.141890 0.559194
O O13 0.061936 0.133286 0.299603
#
# Coordination Sequence:
#
# PCOD8148202 Si02
#       8
#     8   4   4   8   8   8   4   8
#     4  11  24  43  64  94 125 167 212 256 314 376
#     4  11  25  44  61  91 130 170 206 257 313 378
#     4  11  17  40  67 103 118 160 212 265 315 362
#     4  11  22  41  65  97 125 166 211 262 315 368
#     4  11  21  39  70  96 124 164 209 265 317 360
#     4  12  23  43  63  92 133 164 211 263 306 378
#     4  12  26  38  62  92 134 172 206 252 320 376
#     4  10  23  39  70  91 126 161 213 262 314 368
#
# _framework density 21.178764999999999
#
# number of rings (size 3 to 8) (size 9 to 14) (size 15 to 20)
#    0.000    0.923    4.615    2.308    2.154    3.692 
#    2.769    1.538    0.000    0.000    0.000    0.000 
#    0.000    0.000    0.000    0.000    0.000    0.000 
#
# Total GULP energy -322414.787468 kJ/mol
# GULP energy per Si atom -12400.568749 kJ/mol
# Density = 2.113056 g / cm^3
# Si number density = 21.178765 Si / 1000 Ang^3
#
#
#
# Elastic Constant Matrix: (Units=GPa)
#
#
# Indices 1 2 3 4 5 6 
#
# 1 150.9295 43.1940 38.4559 0.0000 0.1720 0.0000
# 2 43.1940 63.5423 15.8779 0.0000 5.1537 0.0000
# 3 38.4559 15.8779 56.4216 0.0000 6.4003 0.0000
# 4 0.0000 0.0000 0.0000 15.0185 0.0000 8.0171
# 5 0.1720 5.1537 6.4003 0.0000 40.2566 0.0000
# 6 0.0000 0.0000 0.0000 8.0171 0.0000 23.1993
#
#
#
# Elastic Compliance Matrix: (Units=1/GPa)
#
#
# Indices 1 2 3 4 5 6 
#
# 1 0.009429 -0.005249 -0.005113 0.000000 0.001445 0.000000
# 2 -0.005249 0.019932 -0.001777 0.000000 -0.002247 0.000000
# 3 -0.005113 -0.001777 0.022079 0.000000 -0.003261 0.000000
# 4 0.000000 0.000000 0.000000 0.081646 0.000000 -0.028215
# 5 0.001445 -0.002247 -0.003261 0.000000 0.025641 0.000000
# 6 0.000000 0.000000 0.000000 -0.028215 0.000000 0.052855
#
#
# Mechanical properties :
#
#
# Convention : Reuss Voigt Hill
#
# Bulk Modulus (GPa) = 36.81665 51.77211 44.29438
# Shear Modulus (GPa) = 20.41540 27.25258 23.83399
#
# Velocity S-wave (km/s) = 3.10813 3.59107 3.35830
# Velocity P-wave (km/s) = 5.50474 6.45699 5.99979
#
# Compressibility (1/GPa) = 0.02716163
#
# Stress axis : x y z
#
# Youngs Moduli (GPa) = 106.05574 50.17105 45.29233
#
# Poissons Ratio (x) = 0.26335 0.23160
# Poissons Ratio (y) = 0.55668 0.08047
# Poissons Ratio (z) = 0.54230 0.08914
#
# Static dielectric constant tensor:
#      x y z
#    x 3.947130 0.000000 -0.140100 
#    y 0.000000 3.694430 0.000000 
#    z -0.140100 0.000000 3.733810 
# 
# 
# High freq. dielectric constant tensor:
#      x y z
#    x 1.836910 0.000000 -0.004690 
#    y 0.000000 1.824540 0.000000 
#    z -0.004690 0.000000 1.825130 
# 
# From -- ./inp_files/96995.got.cif
#   From: 2010.06.25/outbox.cif.g09.slc.cpg/sg15_49_cif.got.tgz:96995.got - 2010.06.28 07:06:18.
