data_PCOD8148616
_publ_section_title
;
Structure prediction by ZEFSAII (Michael W. Deem and Ramdas Pophale) SiO2 
 PCOD8148616
Probable space group: C 2/C
;
_chemical_formula_sum "Si O2"
_cell_formula_units_Z 32
_cell_length_a 23.416081
_cell_length_b 6.715988
_cell_length_c 15.973248
_cell_angle_alpha 90.000000
_cell_angle_beta 147.005701
_cell_angle_gamma 90.000000
_cell_volume 1367.916453
_symmetry_space_group_name_H-M "C 2/C"
_symmetry_group_IT_number 15
_symmetry_cell_setting 'monoclinic'
loop_
_space_group_symop_operation_xyz
x,y,z
-x,y,1/2-z
-x,-y,-z
x,-y,1/2+z
1/2+x,1/2+y,z
1/2-x,1/2+y,1/2-z
1/2-x,1/2-y,-z
1/2+x,1/2-y,1/2+z
loop_
_atom_site_type_symbol
_atom_site_label
_atom_site_fract_x
_atom_site_fract_y
_atom_site_fract_z
Si Si1 0.075156 0.618692 0.411380
Si Si2 0.534231 0.257422 0.697254
Si Si3 0.857422 0.001386 0.915152
Si Si4 0.741306 0.658054 0.368436
O O1 0.998608 0.468696 0.368958
O O2 0.161786 0.470523 0.474742
O O3 0.000000 0.723795 0.250000
O O4 0.134044 0.778073 0.539138
O O5 0.500000 0.307890 0.750000
O O6 0.472982 0.401555 0.557315
O O7 0.658438 0.294682 0.839919
O O8 0.779837 0.134372 0.876163
O O9 0.812472 0.983004 0.767179
#
# Coordination Sequence:
#
# PCOD8148616 Si02
#       4
#     8   8   8   8
#     4  10  23  42  65 100 132 168 218 265 328 385
#     4  10  24  43  66  98 132 170 217 271 323 385
#     4  11  22  42  68 100 128 174 217 267 328 381
#     4  11  23  43  70  94 134 171 218 269 322 387
#
# _framework density 23.393242000000001
#
# number of rings (size 3 to 8) (size 9 to 14) (size 15 to 20)
#    0.000    1.500    2.500    1.500    0.000   13.000 
#    0.000    7.500    0.000    0.000    0.000    0.000 
#    0.000    0.000    0.000    0.000    0.000    0.000 
#
# Total GULP energy -198332.860614 kJ/mol
# GULP energy per Si atom -12395.803788 kJ/mol
# Density = 2.334000 g / cm^3
# Si number density = 23.393242 Si / 1000 Ang^3
#
#
#
# Elastic Constant Matrix: (Units=GPa)
#
#
# Indices 1 2 3 4 5 6 
#
# 1 79.9514 -2.0789 21.2216 0.0000 23.0687 0.0000
# 2 -2.0789 75.7804 11.6962 -0.0001 0.2648 0.0000
# 3 21.2216 11.6962 101.7683 0.0000 16.0629 0.0000
# 4 0.0000 -0.0001 0.0000 51.7691 0.0000 2.1071
# 5 23.0687 0.2648 16.0629 0.0000 42.6993 0.0000
# 6 0.0000 0.0000 0.0000 2.1071 0.0000 16.3025
#
#
#
# Elastic Compliance Matrix: (Units=1/GPa)
#
#
# Indices 1 2 3 4 5 6 
#
# 1 0.015231 0.000766 -0.002089 0.000000 -0.007448 0.000000
# 2 0.000766 0.013484 -0.001734 0.000000 0.000155 0.000000
# 3 -0.002089 -0.001734 0.010930 0.000000 -0.002973 0.000000
# 4 0.000000 0.000000 0.000000 0.019419 0.000000 -0.002510
# 5 -0.007448 0.000155 -0.002973 0.000000 0.028561 0.000000
# 6 0.000000 0.000000 0.000000 -0.002510 0.000000 0.061665
#
#
# Mechanical properties :
#
#
# Convention : Reuss Voigt Hill
#
# Bulk Modulus (GPa) = 29.82176 35.46422 32.64299
# Shear Modulus (GPa) = 30.01573 37.26491 33.64032
#
# Velocity S-wave (km/s) = 3.58592 3.99554 3.79626
# Velocity P-wave (km/s) = 5.46999 6.03976 5.76192
#
# Compressibility (1/GPa) = 0.03353257
#
# Stress axis : x y z
#
# Youngs Moduli (GPa) = 65.65642 74.16127 91.48910
#
# Poissons Ratio (x) = -0.05682 0.19108
# Poissons Ratio (y) = -0.05031 0.15864
# Poissons Ratio (z) = 0.13713 0.12859
#
# Static dielectric constant tensor:
#      x y z
#    x 3.658400 0.000000 0.242490 
#    y 0.000000 4.212310 0.000000 
#    z 0.242490 0.000000 4.673490 
# 
# 
# High freq. dielectric constant tensor:
#      x y z
#    x 1.880950 0.000000 0.010810 
#    y 0.000000 1.930590 0.000000 
#    z 0.010810 0.000000 1.963610 
# 
# From -- ./inp_files/221566.got.cif
#   From: 2010.06.25/outbox.cif.g09.slc.cpg/sg15_111_cif.got.tgz:221566.got - 2010.06.28 07:06:18.
