data_PCOD8148325
_publ_section_title
;
Structure prediction by ZEFSAII (Michael W. Deem and Ramdas Pophale) SiO2 
 PCOD8148325
Probable space group: C 2/C
;
_chemical_formula_sum "Si O2"
_cell_formula_units_Z 48
_cell_length_a 15.342119
_cell_length_b 9.237197
_cell_length_c 20.241911
_cell_angle_alpha 90.000000
_cell_angle_beta 133.472174
_cell_angle_gamma 90.000000
_cell_volume 2081.801546
_symmetry_space_group_name_H-M "C 2/C"
_symmetry_group_IT_number 15
_symmetry_cell_setting 'monoclinic'
loop_
_space_group_symop_operation_xyz
x,y,z
-x,y,1/2-z
-x,-y,-z
x,-y,1/2+z
1/2+x,1/2+y,z
1/2-x,1/2+y,1/2-z
1/2-x,1/2-y,-z
1/2+x,1/2-y,1/2+z
loop_
_atom_site_type_symbol
_atom_site_label
_atom_site_fract_x
_atom_site_fract_y
_atom_site_fract_z
Si Si1 0.323236 0.609592 0.188125
Si Si2 0.071429 0.170216 0.388643
Si Si3 0.935937 0.082687 0.526405
Si Si4 0.014117 0.427639 0.079721
Si Si5 0.732492 0.202734 0.636543
Si Si6 0.887133 0.304085 0.825725
O O1 0.436253 0.625564 0.296067
O O2 0.348046 0.700198 0.134039
O O3 0.298992 0.444922 0.148402
O O4 0.205133 0.669410 0.162068
O O5 0.081735 0.313056 0.441433
O O6 0.125167 0.036545 0.458615
O O7 0.835398 0.202833 0.454767
O O8 0.042259 0.158187 0.622624
O O9 0.000000 0.000000 0.500000
O O10 0.137679 0.338828 0.143919
O O11 0.021110 0.561682 0.133294
O O12 0.000000 0.500000 0.000000
O O13 0.828386 0.302777 0.723157
#
# Coordination Sequence:
#
# PCOD8148325 Si02
#       6
#     8   8   8   8   8   8
#     4  10  23  40  68  97 136 170 214 276 338 385
#     4  11  22  42  67  99 136 171 215 275 338 393
#     4  12  22  39  69  98 124 175 228 265 322 401
#     4  11  21  40  65  96 131 167 221 276 319 393
#     4  11  22  39  67  97 129 177 225 270 323 400
#     4  11  22  41  68  93 128 173 224 269 320 398
#
# _framework density 23.056953
#
# number of rings (size 3 to 8) (size 9 to 14) (size 15 to 20)
#    0.000    1.000    6.667    0.000    2.333    0.667 
#    0.000    7.500   11.000    2.000    0.000    0.000 
#    0.000    0.000    0.000    0.000    0.000    0.000 
#
# Total GULP energy -297331.336609 kJ/mol
# GULP energy per Si atom -12388.805692 kJ/mol
# Density = 2.300447 g / cm^3
# Si number density = 23.056953 Si / 1000 Ang^3
#
#
#
# Elastic Constant Matrix: (Units=GPa)
#
#
# Indices 1 2 3 4 5 6 
#
# 1 56.3752 36.4417 18.0011 0.0000 -11.1930 0.0000
# 2 36.4417 130.4379 42.6559 0.0000 -9.7030 0.0000
# 3 18.0011 42.6559 105.1305 0.0000 -1.7203 0.0000
# 4 0.0000 0.0000 0.0000 44.5426 0.0000 -4.4661
# 5 -11.1930 -9.7030 -1.7203 0.0000 28.8931 0.0000
# 6 0.0000 0.0000 0.0000 -4.4661 0.0000 29.0441
#
#
#
# Elastic Compliance Matrix: (Units=1/GPa)
#
#
# Indices 1 2 3 4 5 6 
#
# 1 0.023162 -0.005404 -0.001658 0.000000 0.007060 0.000000
# 2 -0.005404 0.010325 -0.003245 0.000000 0.001181 0.000000
# 3 -0.001658 -0.003245 0.011095 0.000000 -0.001071 0.000000
# 4 0.000000 0.000000 0.000000 0.022802 0.000000 0.003506
# 5 0.007060 0.001181 -0.001071 0.000000 0.037678 0.000000
# 6 0.000000 0.000000 0.000000 0.003506 0.000000 0.034970
#
#
# Mechanical properties :
#
#
# Convention : Reuss Voigt Hill
#
# Bulk Modulus (GPa) = 41.71976 54.01565 47.86771
# Shear Modulus (GPa) = 29.64992 33.48565 31.56778
#
# Velocity S-wave (km/s) = 3.58989 3.81504 3.70418
# Velocity P-wave (km/s) = 5.94278 6.54859 6.25302
#
# Compressibility (1/GPa) = 0.02396946
#
# Stress axis : x y z
#
# Youngs Moduli (GPa) = 43.17338 96.85109 90.13179
#
# Poissons Ratio (x) = 0.52336 0.14943
# Poissons Ratio (y) = 0.23330 0.29245
# Poissons Ratio (z) = 0.07158 0.31426
#
# Static dielectric constant tensor:
#      x y z
#    x 3.860030 0.000000 0.101000 
#    y 0.000000 4.473980 0.000000 
#    z 0.101000 0.000000 4.297730 
# 
# 
# High freq. dielectric constant tensor:
#      x y z
#    x 1.875280 0.000000 0.004740 
#    y 0.000000 1.923280 0.000000 
#    z 0.004740 0.000000 1.918630 
# 
# From -- ./inp_files/247651.got.cif
#   From: 2010.06.25/outbox.cif.g09.slc.cpg/sg15_124_cif.got.tgz:247651.got - 2010.06.28 07:06:18.
