data_PCOD8148236
_publ_section_title
;
Structure prediction by ZEFSAII (Michael W. Deem and Ramdas Pophale) SiO2 
 PCOD8148236
Probable space group: C 2/C
;
_chemical_formula_sum "Si O2"
_cell_formula_units_Z 40
_cell_length_a 14.696543
_cell_length_b 10.804605
_cell_length_c 23.073812
_cell_angle_alpha 90.000000
_cell_angle_beta 30.655305
_cell_angle_gamma 90.000000
_cell_volume 1868.119304
_symmetry_space_group_name_H-M "C 2/C"
_symmetry_group_IT_number 15
_symmetry_cell_setting 'monoclinic'
loop_
_space_group_symop_operation_xyz
x,y,z
-x,y,1/2-z
-x,-y,-z
x,-y,1/2+z
1/2+x,1/2+y,z
1/2-x,1/2+y,1/2-z
1/2-x,1/2-y,-z
1/2+x,1/2-y,1/2+z
loop_
_atom_site_type_symbol
_atom_site_label
_atom_site_fract_x
_atom_site_fract_y
_atom_site_fract_z
Si Si1 0.938958 0.655365 0.062744
Si Si2 0.444266 0.593653 0.195004
Si Si3 0.022594 0.373045 0.306280
Si Si4 0.321163 0.955673 0.520435
Si Si5 0.592807 0.439163 0.394975
O O1 0.759447 0.572466 0.173306
O O2 0.934408 0.649004 0.994759
O O3 0.943236 0.792447 0.085438
O O4 0.111774 0.590252 0.995541
O O5 0.456979 0.739485 0.175156
O O6 0.608037 0.558422 0.148983
O O7 0.485899 0.506468 0.117613
O O8 0.860513 0.437756 0.429890
O O9 0.000000 0.357378 0.250000
O O10 0.194833 0.459836 0.220419
O O11 0.500000 0.500000 0.500000
#
# Coordination Sequence:
#
# PCOD8148236 Si02
#       5
#     8   8   8   8   8
#     4  10  23  40  62  96 128 168 218 256 323 386
#     4  11  21  38  62  90 125 165 211 261 316 375
#     4  11  22  39  64  94 122 164 223 259 316 382
#     4  11  21  40  64  92 127 165 210 270 313 378
#     4  11  22  39  62  90 131 169 210 265 321 379
#
# _framework density 21.411909000000001
#
# number of rings (size 3 to 8) (size 9 to 14) (size 15 to 20)
#    0.000    1.200    2.000    6.000    0.000    0.800 
#    0.000    0.000    0.000    3.600    0.000    0.000 
#    0.000    0.000    0.000    0.000    0.000    0.000 
#
# Total GULP energy -247797.226564 kJ/mol
# GULP energy per Si atom -12389.861328 kJ/mol
# Density = 2.136317 g / cm^3
# Si number density = 21.411909 Si / 1000 Ang^3
#
#
#
# Elastic Constant Matrix: (Units=GPa)
#
#
# Indices 1 2 3 4 5 6 
#
# 1 89.8669 52.7069 27.0283 -0.0007 1.3154 0.0001
# 2 52.7069 88.7898 40.9081 -0.0002 -0.7838 0.0003
# 3 27.0283 40.9081 110.3528 -0.0021 -13.4019 0.0006
# 4 -0.0007 -0.0002 -0.0021 36.6601 0.0003 3.0140
# 5 1.3154 -0.7838 -13.4019 0.0003 43.1679 -0.0001
# 6 0.0001 0.0003 0.0006 3.0140 -0.0001 28.4406
#
#
#
# Elastic Compliance Matrix: (Units=1/GPa)
#
#
# Indices 1 2 3 4 5 6 
#
# 1 0.017128 -0.009880 -0.000642 0.000000 -0.000901 0.000000
# 2 -0.009880 0.019359 -0.004861 0.000000 -0.000856 0.000000
# 3 -0.000642 -0.004861 0.011444 0.000001 0.003484 0.000000
# 4 0.000000 0.000000 0.000001 0.027517 0.000000 -0.002916
# 5 -0.000901 -0.000856 0.003484 0.000000 0.024259 0.000000
# 6 0.000000 0.000000 0.000000 -0.002916 0.000000 0.035470
#
#
# Mechanical properties :
#
#
# Convention : Reuss Voigt Hill
#
# Bulk Modulus (GPa) = 58.25281 58.92178 58.58729
# Shear Modulus (GPa) = 29.12644 32.87815 31.00229
#
# Velocity S-wave (km/s) = 3.69221 3.92281 3.80926
# Velocity P-wave (km/s) = 6.74103 6.93512 6.83876
#
# Compressibility (1/GPa) = 0.01716656
#
# Stress axis : x y z
#
# Youngs Moduli (GPa) = 58.38281 51.65500 87.38088
#
# Poissons Ratio (x) = 0.51034 0.05611
# Poissons Ratio (y) = 0.57681 0.42473
# Poissons Ratio (z) = 0.03749 0.25108
#
# Static dielectric constant tensor:
#      x y z
#    x 4.030780 0.000000 0.003010 
#    y 0.000000 3.687990 0.000000 
#    z 0.003010 0.000000 4.147040 
# 
# 
# High freq. dielectric constant tensor:
#      x y z
#    x 1.842220 0.000000 0.003940 
#    y 0.000000 1.817670 0.000000 
#    z 0.003940 0.000000 1.856430 
# 
# From -- ./inp_files/273739.got.cif
#   From: 2010.06.25/outbox.cif.g09.slc.cpg/sg15_137_cif.got.tgz:273739.got - 2010.06.28 07:06:18.
