data_PCOD8148058
_publ_section_title
;
Structure prediction by ZEFSAII (Michael W. Deem and Ramdas Pophale) SiO2 
 PCOD8148058
Probable space group: C 2/C
;
_chemical_formula_sum "Si O2"
_cell_formula_units_Z 44
_cell_length_a 11.567660
_cell_length_b 20.278910
_cell_length_c 8.695045
_cell_angle_alpha 90.000000
_cell_angle_beta 95.445259
_cell_angle_gamma 90.000000
_cell_volume 2030.475193
_symmetry_space_group_name_H-M "C 2/C"
_symmetry_group_IT_number 15
_symmetry_cell_setting 'monoclinic'
loop_
_space_group_symop_operation_xyz
x,y,z
-x,y,1/2-z
-x,-y,-z
x,-y,1/2+z
1/2+x,1/2+y,z
1/2-x,1/2+y,1/2-z
1/2-x,1/2-y,-z
1/2+x,1/2-y,1/2+z
loop_
_atom_site_type_symbol
_atom_site_label
_atom_site_fract_x
_atom_site_fract_y
_atom_site_fract_z
Si Si1 0.591669 0.733261 0.518391
Si Si2 0.863630 0.460134 0.723923
Si Si3 0.812181 0.586962 0.879070
Si Si4 0.838156 0.189945 0.507637
Si Si5 0.000000 0.324961 0.250000
Si Si6 0.250744 0.835182 0.827076
O O1 0.468349 0.710185 0.567660
O O2 0.580807 0.780260 0.367873
O O3 0.658206 0.773359 0.661640
O O4 0.669995 0.671243 0.469698
O O5 0.795076 0.527316 0.757902
O O6 0.833133 0.442968 0.548073
O O7 0.825200 0.402638 0.838139
O O8 0.000000 0.473251 0.750000
O O9 0.922315 0.630990 0.850964
O O10 0.698555 0.633712 0.874061
O O11 0.750000 0.250000 0.500000
O O12 0.832172 0.163433 0.332408
#
# Coordination Sequence:
#
# PCOD8148058 Si02
#       6
#     8   8   8   8   4   8
#     4  11  21  39  64  92 128 160 208 261 315 374
#     4  11  23  39  59  89 126 163 210 261 303 372
#     4  11  24  37  63  88 125 165 209 253 317 362
#     4  11  21  40  61  93 125 166 204 262 314 373
#     4  12  20  38  62  90 122 164 200 262 318 364
#     4  10  23  37  61  93 124 166 205 256 317 370
#
# _framework density 21.669803999999999
#
# number of rings (size 3 to 8) (size 9 to 14) (size 15 to 20)
#    0.000    1.091    4.545    1.636    5.091    0.000 
#    0.000    0.909    0.000    0.000    0.000    0.000 
#    0.000    0.000    0.000    0.000    0.000    0.000 
#
# Total GULP energy -272802.356864 kJ/mol
# GULP energy per Si atom -12400.107130 kJ/mol
# Density = 2.162048 g / cm^3
# Si number density = 21.669804 Si / 1000 Ang^3
#
#
#
# Elastic Constant Matrix: (Units=GPa)
#
#
# Indices 1 2 3 4 5 6 
#
# 1 152.9659 56.9920 19.5736 0.0000 -18.4331 0.0000
# 2 56.9920 117.0544 24.2413 0.0000 -28.2157 0.0000
# 3 19.5736 24.2413 53.6740 0.0000 -12.7444 0.0000
# 4 0.0000 0.0000 0.0000 39.1744 0.0000 -19.6148
# 5 -18.4331 -28.2157 -12.7444 0.0000 29.9989 0.0000
# 6 0.0000 0.0000 0.0000 -19.6148 0.0000 41.6980
#
#
#
# Elastic Compliance Matrix: (Units=1/GPa)
#
#
# Indices 1 2 3 4 5 6 
#
# 1 0.008104 -0.003400 -0.001108 0.000000 0.001311 0.000000
# 2 -0.003400 0.012868 -0.002440 0.000000 0.008977 0.000000
# 3 -0.001108 -0.002440 0.021611 0.000000 0.006205 0.000000
# 4 0.000000 0.000000 0.000000 0.033392 0.000000 0.015707
# 5 0.001311 0.008977 0.006205 0.000000 0.045219 0.000000
# 6 0.000000 0.000000 0.000000 0.015707 0.000000 0.031371
#
#
# Mechanical properties :
#
#
# Convention : Reuss Voigt Hill
#
# Bulk Modulus (GPa) = 34.86192 58.36759 46.61475
# Shear Modulus (GPa) = 28.40537 37.03341 32.71939
#
# Velocity S-wave (km/s) = 3.62446 4.13847 3.88997
# Velocity P-wave (km/s) = 5.79986 7.05900 6.46018
#
# Compressibility (1/GPa) = 0.02868459
#
# Stress axis : x y z
#
# Youngs Moduli (GPa) = 123.39514 77.71348 46.27379
#
# Poissons Ratio (x) = 0.26425 0.05129
# Poissons Ratio (y) = 0.41958 0.11291
# Poissons Ratio (z) = 0.13678 0.18963
#
# Static dielectric constant tensor:
#      x y z
#    x 3.754400 0.000000 -0.327540 
#    y 0.000000 4.205270 0.000000 
#    z -0.327540 0.000000 3.784790 
# 
# 
# High freq. dielectric constant tensor:
#      x y z
#    x 1.843990 0.000000 -0.015770 
#    y 0.000000 1.844650 0.000000 
#    z -0.015770 0.000000 1.852820 
# 
# From -- ./inp_files/30830.got.cif
#   From: 2010.06.25/outbox.cif.g09.slc.cpg/sg15_16_cif.got.tgz:30830.got - 2010.06.28 07:06:18.
