data_PCOD8148280
_publ_section_title
;
Structure prediction by ZEFSAII (Michael W. Deem and Ramdas Pophale) SiO2 
 PCOD8148280
Probable space group: C 2/C
;
_chemical_formula_sum "Si O2"
_cell_formula_units_Z 44
_cell_length_a 14.984266
_cell_length_b 11.918370
_cell_length_c 10.016252
_cell_angle_alpha 90.000000
_cell_angle_beta 89.414499
_cell_angle_gamma 90.000000
_cell_volume 1788.689279
_symmetry_space_group_name_H-M "C 2/C"
_symmetry_group_IT_number 15
_symmetry_cell_setting 'monoclinic'
loop_
_space_group_symop_operation_xyz
x,y,z
-x,y,1/2-z
-x,-y,-z
x,-y,1/2+z
1/2+x,1/2+y,z
1/2-x,1/2+y,1/2-z
1/2-x,1/2-y,-z
1/2+x,1/2-y,1/2+z
loop_
_atom_site_type_symbol
_atom_site_label
_atom_site_fract_x
_atom_site_fract_y
_atom_site_fract_z
Si Si1 0.158399 0.949782 0.613949
Si Si2 0.882741 0.687558 0.550418
Si Si3 0.000000 0.925356 0.250000
Si Si4 0.439731 0.032628 0.126491
Si Si5 0.733650 0.607700 0.382481
Si Si6 0.923847 0.235825 0.542355
O O1 0.227030 0.949921 0.737759
O O2 0.141107 0.822197 0.564124
O O3 0.061407 0.997702 0.655292
O O4 0.200013 0.025145 0.498050
O O5 0.882880 0.580609 0.652655
O O6 0.835170 0.645272 0.412998
O O7 0.826531 0.781832 0.624442
O O8 0.978919 0.737801 0.518585
O O9 0.933248 0.849757 0.164674
O O10 0.500000 0.065379 0.250000
O O11 0.381700 0.144467 0.090862
O O12 0.500000 0.000000 0.000000
#
# Coordination Sequence:
#
# PCOD8148280 Si02
#       6
#     8   8   4   8   8   8
#     4  12  24  43  70 104 132 186 228 293 336 416
#     4  10  24  45  65  99 135 186 220 282 345 421
#     4  12  20  40  68 100 138 166 238 288 334 388
#     4  10  23  40  65  96 127 172 228 279 330 406
#     4  11  25  44  69  98 145 176 226 283 360 401
#     4  11  22  42  70  99 133 177 236 285 332 406
#
# _framework density 24.599018000000001
#
# number of rings (size 3 to 8) (size 9 to 14) (size 15 to 20)
#    0.000    1.091    4.545    1.636    5.091    2.909 
#    3.273    0.909    0.000    0.000    0.000    0.000 
#    0.000    0.000    0.000    0.000    0.000    0.000 
#
# Total GULP energy -272752.007830 kJ/mol
# GULP energy per Si atom -12397.818538 kJ/mol
# Density = 2.454303 g / cm^3
# Si number density = 24.599018 Si / 1000 Ang^3
#
#
#
# Elastic Constant Matrix: (Units=GPa)
#
#
# Indices 1 2 3 4 5 6 
#
# 1 35.9650 5.6199 4.4373 0.0000 0.7883 0.0000
# 2 5.6199 161.6921 42.6455 0.0000 1.2001 0.0000
# 3 4.4373 42.6455 133.2770 0.0000 13.7736 0.0000
# 4 0.0000 0.0000 0.0000 40.2783 0.0000 18.8091
# 5 0.7883 1.2001 13.7736 0.0000 25.5285 0.0000
# 6 0.0000 0.0000 0.0000 18.8091 0.0000 24.1830
#
#
#
# Elastic Compliance Matrix: (Units=1/GPa)
#
#
# Indices 1 2 3 4 5 6 
#
# 1 0.028018 -0.000806 -0.000624 0.000000 -0.000490 0.000000
# 2 -0.000806 0.006797 -0.002243 0.000000 0.000915 0.000000
# 3 -0.000624 -0.002243 0.008715 0.000000 -0.004577 0.000000
# 4 0.000000 0.000000 0.000000 0.038988 0.000000 -0.030324
# 5 -0.000490 0.000915 -0.004577 0.000000 0.041614 0.000000
# 6 0.000000 0.000000 0.000000 -0.030324 0.000000 0.064937
#
#
# Mechanical properties :
#
#
# Convention : Reuss Voigt Hill
#
# Bulk Modulus (GPa) = 27.63578 48.48220 38.05899
# Shear Modulus (GPa) = 23.98358 36.54672 30.26515
#
# Velocity S-wave (km/s) = 3.12586 3.85866 3.51143
# Velocity P-wave (km/s) = 4.92817 6.29318 5.65203
#
# Compressibility (1/GPa) = 0.03618498
#
# Stress axis : x y z
#
# Youngs Moduli (GPa) = 35.69079 147.11695 114.74965
#
# Poissons Ratio (x) = 0.11850 0.07165
# Poissons Ratio (y) = 0.02875 0.25736
# Poissons Ratio (z) = 0.02229 0.32995
#
# Static dielectric constant tensor:
#      x y z
#    x 4.254030 0.000000 0.225550 
#    y 0.000000 5.637450 0.000000 
#    z 0.225550 0.000000 4.355390 
# 
# 
# High freq. dielectric constant tensor:
#      x y z
#    x 1.960160 0.000000 0.008490 
#    y 0.000000 2.006210 0.000000 
#    z 0.008490 0.000000 1.973010 
# 
# From -- ./inp_files/95073.got.cif
#   From: 2010.06.25/outbox.cif.g09.slc.cpg/sg15_48_cif.got.tgz:95073.got - 2010.06.28 07:06:18.
