data_PCOD8148350
_publ_section_title
;
Structure prediction by ZEFSAII (Michael W. Deem and Ramdas Pophale) SiO2 
 PCOD8148350
Probable space group: C 2/C
;
_chemical_formula_sum "Si O2"
_cell_formula_units_Z 56
_cell_length_a 21.294101
_cell_length_b 15.284403
_cell_length_c 8.717454
_cell_angle_alpha 90.000000
_cell_angle_beta 119.871277
_cell_angle_gamma 90.000000
_cell_volume 2460.310660
_symmetry_space_group_name_H-M "C 2/C"
_symmetry_group_IT_number 15
_symmetry_cell_setting 'monoclinic'
loop_
_space_group_symop_operation_xyz
x,y,z
-x,y,1/2-z
-x,-y,-z
x,-y,1/2+z
1/2+x,1/2+y,z
1/2-x,1/2+y,1/2-z
1/2-x,1/2-y,-z
1/2+x,1/2-y,1/2+z
loop_
_atom_site_type_symbol
_atom_site_label
_atom_site_fract_x
_atom_site_fract_y
_atom_site_fract_z
Si Si1 0.294896 0.408592 0.186280
Si Si2 0.097141 0.053094 0.117088
Si Si3 0.000000 0.285287 0.750000
Si Si4 0.000000 0.027555 0.250000
Si Si5 0.722828 0.178152 0.849317
Si Si6 0.343525 0.967764 0.027442
Si Si7 0.439620 0.064071 0.365423
Si Si8 0.349054 0.704523 0.483281
O O1 0.366759 0.466388 0.268937
O O2 0.290618 0.372775 0.356365
O O3 0.226414 0.471094 0.072153
O O4 0.302938 0.328364 0.074617
O O5 0.044595 0.089086 0.187565
O O6 0.155940 0.126468 0.148374
O O7 0.052291 0.035111 0.909862
O O8 0.975282 0.342560 0.867765
O O9 0.932321 0.224382 0.624016
O O10 0.669933 0.112061 0.872194
O O11 0.685022 0.213049 0.646254
O O12 0.750000 0.250000 0.000000
O O13 0.408863 0.026586 0.169147
O O14 0.371775 0.927234 0.900953
O O15 0.500000 0.000000 0.500000
#
# Coordination Sequence:
#
# PCOD8148350 Si02
#       8
#     8   8   4   4   8   8   8   8
#     4  12  26  47  75  99 139 194 236 288 351 434
#     4  11  23  46  71 101 134 191 241 281 341 432
#     4  12  27  46  72 107 144 190 232 298 365 414
#     4  10  23  40  72  97 132 176 250 278 319 408
#     4  12  28  44  67 109 144 176 229 301 365 411
#     4  12  25  47  75 103 136 189 243 289 343 436
#     4  12  24  47  77 100 136 184 245 288 343 429
#     4  12  27  47  69 106 148 182 230 295 368 414
#
# _framework density 22.761353
#
# number of rings (size 3 to 8) (size 9 to 14) (size 15 to 20)
#    0.000    0.286    4.286    4.286    8.000    0.000 
#    2.571    0.000    0.000    0.000    0.000    0.000 
#    0.000    0.000    0.000    0.000    0.000    0.000 
#
# Total GULP energy -347158.119658 kJ/mol
# GULP energy per Si atom -12398.504274 kJ/mol
# Density = 2.270955 g / cm^3
# Si number density = 22.761353 Si / 1000 Ang^3
#
#
#
# Elastic Constant Matrix: (Units=GPa)
#
#
# Indices 1 2 3 4 5 6 
#
# 1 130.3060 42.3616 38.7885 0.0000 -26.4253 0.0000
# 2 42.3616 83.4770 31.3505 0.0000 -11.2048 0.0000
# 3 38.7885 31.3505 96.0899 0.0000 -1.7579 0.0000
# 4 0.0000 0.0000 0.0000 41.2973 0.0000 -8.0183
# 5 -26.4253 -11.2048 -1.7579 0.0000 50.6892 0.0000
# 6 0.0000 0.0000 0.0000 -8.0183 0.0000 39.4901
#
#
#
# Elastic Compliance Matrix: (Units=1/GPa)
#
#
# Indices 1 2 3 4 5 6 
#
# 1 0.010721 -0.003670 -0.003045 0.000000 0.004672 0.000000
# 2 -0.003670 0.015337 -0.003498 0.000000 0.001356 0.000000
# 3 -0.003045 -0.003498 0.012742 0.000000 -0.001919 0.000000
# 4 0.000000 0.000000 0.000000 0.025208 0.000000 0.005118
# 5 0.004672 0.001356 -0.001919 0.000000 0.022397 0.000000
# 6 0.000000 0.000000 0.000000 0.005118 0.000000 0.026362
#
#
# Mechanical properties :
#
#
# Convention : Reuss Voigt Hill
#
# Bulk Modulus (GPa) = 54.42063 59.43047 56.92555
# Shear Modulus (GPa) = 35.88892 39.45348 37.67120
#
# Velocity S-wave (km/s) = 3.97514 4.16787 4.07265
# Velocity P-wave (km/s) = 6.71045 7.02342 6.86872
#
# Compressibility (1/GPa) = 0.01837538
#
# Stress axis : x y z
#
# Youngs Moduli (GPa) = 93.27264 65.20050 78.47956
#
# Poissons Ratio (x) = 0.23928 0.23897
# Poissons Ratio (y) = 0.34230 0.27450
# Poissons Ratio (z) = 0.28402 0.22805
#
# Static dielectric constant tensor:
#      x y z
#    x 4.319780 0.000000 -0.281920 
#    y 0.000000 4.918270 0.000000 
#    z -0.281920 0.000000 3.932250 
# 
# 
# High freq. dielectric constant tensor:
#      x y z
#    x 1.920010 0.000000 -0.011590 
#    y 0.000000 1.890520 0.000000 
#    z -0.011590 0.000000 1.903660 
# 
# From -- ./inp_files/62020.got.cif
#   From: 2010.06.25/outbox.cif.g09.slc.cpg/sg15_32_cif.got.tgz:62020.got - 2010.06.28 07:06:18.
