data_PCOD8148388
_publ_section_title
;
Structure prediction by ZEFSAII (Michael W. Deem and Ramdas Pophale) SiO2 
 PCOD8148388
Probable space group: C 2/C
;
_chemical_formula_sum "Si O2"
_cell_formula_units_Z 48
_cell_length_a 14.459109
_cell_length_b 30.466241
_cell_length_c 13.689985
_cell_angle_alpha 90.000000
_cell_angle_beta 159.719440
_cell_angle_gamma 90.000000
_cell_volume 2090.324709
_symmetry_space_group_name_H-M "C 2/C"
_symmetry_group_IT_number 15
_symmetry_cell_setting 'monoclinic'
loop_
_space_group_symop_operation_xyz
x,y,z
-x,y,1/2-z
-x,-y,-z
x,-y,1/2+z
1/2+x,1/2+y,z
1/2-x,1/2+y,1/2-z
1/2-x,1/2-y,-z
1/2+x,1/2-y,1/2+z
loop_
_atom_site_type_symbol
_atom_site_label
_atom_site_fract_x
_atom_site_fract_y
_atom_site_fract_z
Si Si1 0.140448 0.046778 0.144041
Si Si2 0.221695 0.220036 0.341489
Si Si3 0.121763 0.403492 0.188981
Si Si4 0.630713 0.832678 0.697806
Si Si5 0.500000 0.152017 0.750000
Si Si6 0.500000 0.780112 0.750000
Si Si7 0.735746 0.592276 0.051374
O O1 0.400042 0.056559 0.470721
O O2 0.260967 0.053887 0.155729
O O3 0.916613 0.080665 0.956525
O O4 0.000000 0.000000 0.000000
O O5 0.233713 0.200632 0.243875
O O6 0.277338 0.182125 0.475864
O O7 0.926322 0.239625 0.061337
O O8 0.143882 0.379508 0.315003
O O9 0.057948 0.367156 0.044268
O O10 0.465317 0.807165 0.615744
O O11 0.840435 0.862281 0.967658
O O12 0.250000 0.750000 0.500000
O O13 0.000000 0.597324 0.250000
O O14 0.500000 0.577258 0.750000
#
# Coordination Sequence:
#
# PCOD8148388 Si02
#       7
#     8   8   8   8   4   4   8
#     4  11  24  45  68  99 138 165 211 273 332 386
#     4  11  24  41  64  95 131 171 219 273 333 373
#     4  10  24  43  70  96 129 179 216 264 328 392
#     4  10  23  41  63  89 130 172 218 266 313 397
#     4  10  24  44  70  97 132 172 228 271 322 398
#     4  12  26  36  56  87 124 164 212 269 322 360
#     4  11  23  41  68  97 125 176 223 257 323 396
#
# _framework density 22.96294
#
# number of rings (size 3 to 8) (size 9 to 14) (size 15 to 20)
#    0.000    1.333    0.833    4.000    1.167   12.667 
#    4.500    0.000    0.000    0.000    0.000    0.000 
#    0.000    0.000    0.000    0.000    0.000    0.000 
#
# Total GULP energy -297427.632299 kJ/mol
# GULP energy per Si atom -12392.818012 kJ/mol
# Density = 2.291068 g / cm^3
# Si number density = 22.962940 Si / 1000 Ang^3
#
#
#
# Elastic Constant Matrix: (Units=GPa)
#
#
# Indices 1 2 3 4 5 6 
#
# 1 137.6395 52.6993 24.8550 0.0013 -14.0606 0.0006
# 2 52.6993 97.1146 7.2167 -0.0003 -3.2406 0.0005
# 3 24.8550 7.2167 78.4509 0.0102 12.0697 -0.0041
# 4 0.0013 -0.0003 0.0102 27.9762 0.0010 6.5742
# 5 -14.0606 -3.2406 12.0697 0.0010 26.6409 0.0012
# 6 0.0006 0.0005 -0.0041 6.5742 0.0012 34.7851
#
#
#
# Elastic Compliance Matrix: (Units=1/GPa)
#
#
# Indices 1 2 3 4 5 6 
#
# 1 0.010695 -0.005284 -0.003947 0.000001 0.006790 -0.000001
# 2 -0.005284 0.013061 0.000706 0.000000 -0.001520 0.000000
# 3 -0.003947 0.000706 0.015306 -0.000006 -0.008932 0.000003
# 4 0.000001 0.000000 -0.000006 0.037406 0.000002 -0.007070
# 5 0.006790 -0.001520 -0.008932 0.000002 0.044982 -0.000003
# 6 -0.000001 0.000000 0.000003 -0.007070 -0.000003 0.030084
#
#
# Mechanical properties :
#
#
# Convention : Reuss Voigt Hill
#
# Bulk Modulus (GPa) = 45.42603 53.63856 49.53230
# Shear Modulus (GPa) = 28.42195 33.10937 30.76566
#
# Velocity S-wave (km/s) = 3.52196 3.80130 3.66429
# Velocity P-wave (km/s) = 6.03027 6.53269 6.28650
#
# Compressibility (1/GPa) = 0.02201381
#
# Stress axis : x y z
#
# Youngs Moduli (GPa) = 93.50406 76.56337 65.33176
#
# Poissons Ratio (x) = 0.40453 0.25786
# Poissons Ratio (y) = 0.49404 -0.04614
# Poissons Ratio (z) = 0.36905 -0.05408
#
# Static dielectric constant tensor:
#      x y z
#    x 4.407560 0.000000 -0.164260 
#    y 0.000000 4.296350 0.000000 
#    z -0.164260 0.000000 3.946390 
# 
# 
# High freq. dielectric constant tensor:
#      x y z
#    x 1.926130 0.000000 -0.003210 
#    y 0.000000 1.905920 0.000000 
#    z -0.003210 0.000000 1.897440 
# 
# From -- ./inp_files/157768.got.cif
#   From: 2010.06.25/outbox.cif.g09.slc.cpg/sg15_79_cif.got.tgz:157768.got - 2010.06.28 07:06:18.
