data_PCOD8148239
_publ_section_title
;
Structure prediction by ZEFSAII (Michael W. Deem and Ramdas Pophale) SiO2 
 PCOD8148239
Probable space group: C 2/C
;
_chemical_formula_sum "Si O2"
_cell_formula_units_Z 52
_cell_length_a 21.314531
_cell_length_b 18.684874
_cell_length_c 9.313392
_cell_angle_alpha 90.000000
_cell_angle_beta 135.234730
_cell_angle_gamma 90.000000
_cell_volume 2611.994799
_symmetry_space_group_name_H-M "C 2/C"
_symmetry_group_IT_number 15
_symmetry_cell_setting 'monoclinic'
loop_
_space_group_symop_operation_xyz
x,y,z
-x,y,1/2-z
-x,-y,-z
x,-y,1/2+z
1/2+x,1/2+y,z
1/2-x,1/2+y,1/2-z
1/2-x,1/2-y,-z
1/2+x,1/2-y,1/2+z
loop_
_atom_site_type_symbol
_atom_site_label
_atom_site_fract_x
_atom_site_fract_y
_atom_site_fract_z
Si Si1 0.026520 0.720980 0.062163
Si Si2 0.000000 0.617805 0.750000
Si Si3 0.361633 0.191449 0.990697
Si Si4 0.215779 0.730228 0.098433
Si Si5 0.754816 0.436317 0.222031
Si Si6 0.083738 0.159588 0.471224
Si Si7 0.310838 0.069031 0.487397
O O1 0.106625 0.695017 0.294631
O O2 0.046800 0.804850 0.058654
O O3 0.024545 0.667247 0.925132
O O4 0.934101 0.718664 0.995432
O O5 0.918609 0.564478 0.661169
O O6 0.274901 0.240189 0.825240
O O7 0.336062 0.109617 0.917463
O O8 0.250000 0.750000 0.000000
O O9 0.120298 0.769668 0.947961
O O10 0.210727 0.646461 0.110959
O O11 0.762395 0.514256 0.302468
O O12 0.766813 0.441794 0.071067
O O13 0.659138 0.401400 0.109227
O O14 0.000000 0.125935 0.250000
#
# Coordination Sequence:
#
# PCOD8148239 Si02
#       7
#     8   4   8   8   8   8   8
#     4  11  21  37  68 101 127 161 227 274 333 374
#     4  12  22  40  68  98 124 176 222 266 328 406
#     4  10  23  40  62  99 135 165 212 283 325 390
#     4  11  19  39  69  92 126 172 225 270 324 384
#     4  11  27  42  62  94 140 175 216 268 338 399
#     4  11  21  39  71  96 123 171 227 277 320 385
#     4  12  25  42  64  95 136 180 215 266 338 399
#
# _framework density 19.908156000000002
#
# number of rings (size 3 to 8) (size 9 to 14) (size 15 to 20)
#    0.000    0.923    6.923    0.923    2.154    5.538 
#    0.000    0.769    3.385    0.000    0.000    0.000 
#    0.000    0.000    0.000    0.000    0.000    0.000 
#
# Total GULP energy -322284.039005 kJ/mol
# GULP energy per Si atom -12395.539962 kJ/mol
# Density = 1.986284 g / cm^3
# Si number density = 19.908156 Si / 1000 Ang^3
#
#
#
# Elastic Constant Matrix: (Units=GPa)
#
#
# Indices 1 2 3 4 5 6 
#
# 1 82.3892 33.3710 40.7687 0.0000 12.7907 0.0000
# 2 33.3710 124.8311 38.7734 0.0000 9.4098 0.0000
# 3 40.7687 38.7734 109.7401 0.0000 1.3815 0.0000
# 4 0.0000 0.0000 0.0000 32.2673 0.0000 2.5467
# 5 12.7907 9.4098 1.3815 0.0000 32.8369 0.0000
# 6 0.0000 0.0000 0.0000 2.5467 0.0000 26.0252
#
#
#
# Elastic Compliance Matrix: (Units=1/GPa)
#
#
# Indices 1 2 3 4 5 6 
#
# 1 0.016555 -0.002380 -0.005240 0.000000 -0.005546 0.000000
# 2 -0.002380 0.009541 -0.002465 0.000000 -0.001703 0.000000
# 3 -0.005240 -0.002465 0.011902 0.000000 0.002247 0.000000
# 4 0.000000 0.000000 0.000000 0.031232 0.000000 -0.003056
# 5 -0.005546 -0.001703 0.002247 0.000000 0.033007 0.000000
# 6 0.000000 0.000000 0.000000 -0.003056 0.000000 0.038723
#
#
# Mechanical properties :
#
#
# Convention : Reuss Voigt Hill
#
# Bulk Modulus (GPa) = 56.09159 60.30961 58.20060
# Shear Modulus (GPa) = 29.92675 31.82902 30.87789
#
# Velocity S-wave (km/s) = 3.88137 4.00283 3.94257
# Velocity P-wave (km/s) = 6.95148 7.19188 7.07270
#
# Compressibility (1/GPa) = 0.01782798
#
# Stress axis : x y z
#
# Youngs Moduli (GPa) = 60.40361 104.80754 84.02130
#
# Poissons Ratio (x) = 0.24946 0.44023
# Poissons Ratio (y) = 0.14377 0.20715
# Poissons Ratio (z) = 0.31649 0.25840
#
# Static dielectric constant tensor:
#      x y z
#    x 4.022210 0.000000 0.213820 
#    y 0.000000 3.615990 0.000000 
#    z 0.213820 0.000000 3.637220 
# 
# 
# High freq. dielectric constant tensor:
#      x y z
#    x 1.791620 0.000000 0.006890 
#    y 0.000000 1.756660 0.000000 
#    z 0.006890 0.000000 1.779600 
# 
# From -- ./inp_files/57079.got.cif
#   From: 2010.06.25/outbox.cif.g09.slc.cpg/sg15_29_cif.got.tgz:57079.got - 2010.06.28 07:06:18.
