data_PCOD8148273
_publ_section_title
;
Structure prediction by ZEFSAII (Michael W. Deem and Ramdas Pophale) SiO2 
 PCOD8148273
Probable space group: C 2/C
;
_chemical_formula_sum "Si O2"
_cell_formula_units_Z 56
_cell_length_a 8.541939
_cell_length_b 17.552489
_cell_length_c 19.632875
_cell_angle_alpha 90.000000
_cell_angle_beta 110.638278
_cell_angle_gamma 90.000000
_cell_volume 2754.694111
_symmetry_space_group_name_H-M "C 2/C"
_symmetry_group_IT_number 15
_symmetry_cell_setting 'monoclinic'
loop_
_space_group_symop_operation_xyz
x,y,z
-x,y,1/2-z
-x,-y,-z
x,-y,1/2+z
1/2+x,1/2+y,z
1/2-x,1/2+y,1/2-z
1/2-x,1/2-y,-z
1/2+x,1/2-y,1/2+z
loop_
_atom_site_type_symbol
_atom_site_label
_atom_site_fract_x
_atom_site_fract_y
_atom_site_fract_z
Si Si1 0.095039 0.664359 0.667563
Si Si2 0.700350 0.273280 0.567318
Si Si3 0.433900 0.005323 0.383588
Si Si4 0.951673 0.880066 0.471136
Si Si5 0.750192 0.205925 0.828545
Si Si6 0.740540 0.502508 0.983534
Si Si7 0.024764 0.658106 0.175896
O O1 0.177208 0.699927 0.612339
O O2 0.047543 0.576286 0.649457
O O3 0.226118 0.669331 0.749906
O O4 0.927794 0.711644 0.660423
O O5 0.750000 0.250000 0.500000
O O6 0.524468 0.317273 0.534245
O O7 0.844144 0.329066 0.615237
O O8 0.593099 0.029702 0.452951
O O9 0.415558 0.070743 0.323792
O O10 0.272477 0.006270 0.407857
O O11 0.877496 0.845785 0.390609
O O12 0.096443 0.936463 0.470166
O O13 0.808535 0.921499 0.492069
O O14 0.830939 0.289363 0.834610
O O15 0.000000 0.678352 0.250000
#
# Coordination Sequence:
#
# PCOD8148273 Si02
#       7
#     8   8   8   8   8   8   8
#     4  11  26  46  69  98 136 178 227 272 334 405
#     4  12  24  41  70  99 130 173 227 271 331 395
#     4  11  24  43  68  96 133 178 218 270 332 398
#     4  11  22  41  69 100 135 175 221 277 338 388
#     4  11  25  44  70  96 135 176 226 276 333 397
#     4  10  23  40  65 102 138 166 219 281 325 395
#     4  12  26  44  67  97 135 173 219 275 335 397
#
# _framework density 20.328935999999999
#
# number of rings (size 3 to 8) (size 9 to 14) (size 15 to 20)
#    0.000    0.857    5.714    0.857    6.000    0.571 
#    0.000    0.000    0.000    0.000    0.000    0.000 
#    0.000    0.000    0.000    0.000    0.000    0.000 
#
# Total GULP energy -347272.606547 kJ/mol
# GULP energy per Si atom -12402.593091 kJ/mol
# Density = 2.028267 g / cm^3
# Si number density = 20.328936 Si / 1000 Ang^3
#
#
#
# Elastic Constant Matrix: (Units=GPa)
#
#
# Indices 1 2 3 4 5 6 
#
# 1 82.0759 36.7312 35.9134 0.0000 -7.6865 0.0000
# 2 36.7312 119.7150 40.3756 0.0000 -2.5769 0.0000
# 3 35.9134 40.3756 120.3245 0.0000 1.9332 0.0000
# 4 0.0000 0.0000 0.0000 32.6530 0.0000 -1.8456
# 5 -7.6865 -2.5769 1.9332 0.0000 36.7270 0.0000
# 6 0.0000 0.0000 0.0000 -1.8456 0.0000 31.3983
#
#
#
# Elastic Compliance Matrix: (Units=1/GPa)
#
#
# Indices 1 2 3 4 5 6 
#
# 1 0.015606 -0.003531 -0.003525 0.000000 0.003204 0.000000
# 2 -0.003531 0.010243 -0.002385 0.000000 0.000105 0.000000
# 3 -0.003525 -0.002385 0.010186 0.000000 -0.001441 0.000000
# 4 0.000000 0.000000 0.000000 0.030727 0.000000 0.001806
# 5 0.003204 0.000105 -0.001441 0.000000 0.027982 0.000000
# 6 0.000000 0.000000 0.000000 0.001806 0.000000 0.031955
#
#
# Mechanical properties :
#
#
# Convention : Reuss Voigt Hill
#
# Bulk Modulus (GPa) = 58.29244 60.90621 59.59932
# Shear Modulus (GPa) = 33.04720 34.09534 33.57127
#
# Velocity S-wave (km/s) = 4.03628 4.09978 4.06815
# Velocity P-wave (km/s) = 7.10344 7.24130 7.17270
#
# Compressibility (1/GPa) = 0.01715488
#
# Stress axis : x y z
#
# Youngs Moduli (GPa) = 64.07691 97.62678 98.17033
#
# Poissons Ratio (x) = 0.34468 0.34603
# Poissons Ratio (y) = 0.22623 0.23414
# Poissons Ratio (z) = 0.22586 0.23284
#
# Static dielectric constant tensor:
#      x y z
#    x 3.818670 0.000000 0.032800 
#    y 0.000000 4.365580 0.000000 
#    z 0.032800 0.000000 3.712370 
# 
# 
# High freq. dielectric constant tensor:
#      x y z
#    x 1.800630 0.000000 -0.001710 
#    y 0.000000 1.795750 0.000000 
#    z -0.001710 0.000000 1.798970 
# 
# From -- ./inp_files/191046.got.cif
#   From: 2010.06.25/outbox.cif.g09.slc.cpg/sg15_96_cif.got.tgz:191046.got - 2010.06.28 07:06:18.
