data_PCOD8148881
_publ_section_title
;
Structure prediction by ZEFSAII (Michael W. Deem and Ramdas Pophale) SiO2 
 PCOD8148881
Probable space group: C 2/C
;
_chemical_formula_sum "Si O2"
_cell_formula_units_Z 56
_cell_length_a 20.770208
_cell_length_b 11.937463
_cell_length_c 10.269993
_cell_angle_alpha 90.000000
_cell_angle_beta 89.389959
_cell_angle_gamma 90.000000
_cell_volume 2546.234597
_symmetry_space_group_name_H-M "C 2/C"
_symmetry_group_IT_number 15
_symmetry_cell_setting 'monoclinic'
loop_
_space_group_symop_operation_xyz
x,y,z
-x,y,1/2-z
-x,-y,-z
x,-y,1/2+z
1/2+x,1/2+y,z
1/2-x,1/2+y,1/2-z
1/2-x,1/2-y,-z
1/2+x,1/2-y,1/2+z
loop_
_atom_site_type_symbol
_atom_site_label
_atom_site_fract_x
_atom_site_fract_y
_atom_site_fract_z
Si Si1 0.175874 0.262684 0.842388
Si Si2 0.868454 0.431659 0.844994
Si Si3 0.500000 0.486193 0.250000
Si Si4 0.586171 0.685822 0.218697
Si Si5 0.538874 0.301132 0.432758
Si Si6 0.000000 0.479498 0.750000
Si Si7 0.305765 0.167157 0.874225
Si Si8 0.047377 0.355507 0.445324
O O1 0.180431 0.340252 0.713508
O O2 0.106251 0.204464 0.855490
O O3 0.231760 0.168763 0.827478
O O4 0.191347 0.336210 0.969547
O O5 0.932191 0.415632 0.754263
O O6 0.840329 0.555631 0.822944
O O7 0.886131 0.406513 0.995862
O O8 0.567055 0.558039 0.256065
O O9 0.500213 0.408179 0.378832
O O10 0.659675 0.718709 0.181343
O O11 0.565019 0.764997 0.336074
O O12 0.544835 0.700308 0.088583
O O13 0.490887 0.193410 0.424623
O O14 0.999754 0.553479 0.617679
#
# Coordination Sequence:
#
# PCOD8148881 Si02
#       8
#     8   8   4   8   8   4   8   8
#     4  10  23  44  61  90 125 163 212 258 298 370
#     4  12  23  36  68  97 120 164 212 251 315 375
#     4  12  23  37  66  90 124 166 209 247 314 378
#     4  11  22  40  60  91 128 161 200 258 311 361
#     4  11  21  40  62  92 125 165 201 253 313 367
#     4  12  19  37  62 100 132 158 197 263 322 362
#     4  10  23  43  66  82 127 168 205 256 313 361
#     4  12  21  38  62  99 131 152 203 267 314 365
#
# _framework density 21.993259999999999
#
# number of rings (size 3 to 8) (size 9 to 14) (size 15 to 20)
#    0.000    0.857    4.286    4.286    0.000    1.143 
#    0.000    0.714    0.000    0.000    0.000    0.000 
#    0.000    0.000    0.000    0.000    0.000    0.000 
#
# Total GULP energy -346893.315643 kJ/mol
# GULP energy per Si atom -12389.046987 kJ/mol
# Density = 2.194320 g / cm^3
# Si number density = 21.993260 Si / 1000 Ang^3
#
#
#
# Elastic Constant Matrix: (Units=GPa)
#
#
# Indices 1 2 3 4 5 6 
#
# 1 104.5480 46.2255 43.5467 0.0000 4.3511 0.0000
# 2 46.2255 74.0951 24.4431 0.0000 15.4374 0.0000
# 3 43.5467 24.4431 80.5669 0.0000 11.0207 0.0000
# 4 0.0000 0.0000 0.0000 34.6176 0.0000 4.5021
# 5 4.3511 15.4374 11.0207 0.0000 26.4536 0.0000
# 6 0.0000 0.0000 0.0000 4.5021 0.0000 25.5103
#
#
#
# Elastic Compliance Matrix: (Units=1/GPa)
#
#
# Indices 1 2 3 4 5 6 
#
# 1 0.016095 -0.008943 -0.006721 0.000000 0.005372 0.000000
# 2 -0.008943 0.021412 -0.000164 0.000000 -0.010956 0.000000
# 3 -0.006721 -0.000164 0.016893 0.000000 -0.005837 0.000000
# 4 0.000000 0.000000 0.000000 0.029566 0.000000 -0.005218
# 5 0.005372 -0.010956 -0.005837 0.000000 0.045744 0.000000
# 6 0.000000 0.000000 0.000000 -0.005218 0.000000 0.040121
#
#
# Mechanical properties :
#
#
# Convention : Reuss Voigt Hill
#
# Bulk Modulus (GPa) = 43.96686 54.18228 49.07457
# Shear Modulus (GPa) = 23.91574 26.98260 25.44917
#
# Velocity S-wave (km/s) = 3.30117 3.50645 3.40536
# Velocity P-wave (km/s) = 5.87918 6.40960 6.15011
#
# Compressibility (1/GPa) = 0.02274440
#
# Stress axis : x y z
#
# Youngs Moduli (GPa) = 62.13087 46.70233 59.19686
#
# Poissons Ratio (x) = 0.41767 0.39786
# Poissons Ratio (y) = 0.55565 0.00969
# Poissons Ratio (z) = 0.41758 0.00765
#
# Static dielectric constant tensor:
#      x y z
#    x 3.919130 0.000000 0.070660 
#    y 0.000000 3.945240 0.000000 
#    z 0.070660 0.000000 4.005730 
# 
# 
# High freq. dielectric constant tensor:
#      x y z
#    x 1.846740 0.000000 0.004830 
#    y 0.000000 1.854270 0.000000 
#    z 0.004830 0.000000 1.877430 
# 
# From -- ./inp_files/111037.got.cif
#   From: 2010.06.25/outbox.cif.g09.slc.cpg/sg15_56_cif.got.tgz:111037.got - 2010.06.28 07:06:18.
