data_PCOD8148118
_publ_section_title
;
Structure prediction by ZEFSAII (Michael W. Deem and Ramdas Pophale) SiO2 
 PCOD8148118
Probable space group: C 2/C
;
_chemical_formula_sum "Si O2"
_cell_formula_units_Z 40
_cell_length_a 11.655884
_cell_length_b 14.480525
_cell_length_c 13.151752
_cell_angle_alpha 90.000000
_cell_angle_beta 64.976359
_cell_angle_gamma 90.000000
_cell_volume 2011.431474
_symmetry_space_group_name_H-M "C 2/C"
_symmetry_group_IT_number 15
_symmetry_cell_setting 'monoclinic'
loop_
_space_group_symop_operation_xyz
x,y,z
-x,y,1/2-z
-x,-y,-z
x,-y,1/2+z
1/2+x,1/2+y,z
1/2-x,1/2+y,1/2-z
1/2-x,1/2-y,-z
1/2+x,1/2-y,1/2+z
loop_
_atom_site_type_symbol
_atom_site_label
_atom_site_fract_x
_atom_site_fract_y
_atom_site_fract_z
Si Si1 0.697423 0.326448 0.780616
Si Si2 0.146069 0.006942 0.915647
Si Si3 0.540112 0.750962 0.033756
Si Si4 0.250696 0.877830 0.536557
Si Si5 0.413004 0.321019 0.187298
O O1 0.701707 0.410036 0.857977
O O2 0.568165 0.267775 0.843643
O O3 0.697079 0.373573 0.670441
O O4 0.811198 0.256309 0.757714
O O5 0.158051 0.085592 0.823658
O O6 0.228424 0.025015 0.987743
O O7 0.000000 0.000000 0.000000
O O8 0.666498 0.690025 0.999176
O O9 0.598001 0.854503 0.022838
O O10 0.497746 0.724315 0.934684
O O11 0.500000 0.346553 0.250000
#
# Coordination Sequence:
#
# PCOD8148118 Si02
#       5
#     8   8   8   8   8
#     4  11  21  37  65  86 119 162 191 249 304 340
#     4  11  22  37  59  93 115 154 206 244 283 356
#     4   9  18  35  56  86 115 153 192 239 294 350
#     4   9  19  34  55  87 121 142 196 244 285 351
#     4  10  23  39  57  91 123 153 199 245 299 356
#
# _framework density 19.886336
#
# number of rings (size 3 to 8) (size 9 to 14) (size 15 to 20)
#    0.000    2.000    4.000    1.800    2.800    0.800 
#    0.000    2.000    0.000    4.800    0.000    0.000 
#    0.000    0.000    0.000    0.000    0.000    0.000 
#
# Total GULP energy -247804.365529 kJ/mol
# GULP energy per Si atom -12390.218276 kJ/mol
# Density = 1.984107 g / cm^3
# Si number density = 19.886336 Si / 1000 Ang^3
#
#
#
# Elastic Constant Matrix: (Units=GPa)
#
#
# Indices 1 2 3 4 5 6 
#
# 1 57.3891 29.7835 50.4751 0.0000 -1.3902 0.0000
# 2 29.7835 88.7318 48.1094 0.0000 -22.0205 0.0000
# 3 50.4751 48.1094 118.7149 0.0000 -6.5016 0.0000
# 4 0.0000 0.0000 0.0000 36.6140 0.0000 0.1630
# 5 -1.3902 -22.0205 -6.5016 0.0000 23.3026 0.0000
# 6 0.0000 0.0000 0.0000 0.1630 0.0000 27.1303
#
#
#
# Elastic Compliance Matrix: (Units=1/GPa)
#
#
# Indices 1 2 3 4 5 6 
#
# 1 0.029617 -0.005877 -0.010580 0.000000 -0.006739 0.000000
# 2 -0.005877 0.020085 -0.004692 0.000000 0.017320 0.000000
# 3 -0.010580 -0.004692 0.014772 0.000000 -0.000944 0.000000
# 4 0.000000 0.000000 0.000000 0.027313 0.000000 -0.000164
# 5 -0.006739 0.017320 -0.000944 0.000000 0.058616 0.000000
# 6 0.000000 0.000000 0.000000 -0.000164 0.000000 0.036860
#
#
# Mechanical properties :
#
#
# Convention : Reuss Voigt Hill
#
# Bulk Modulus (GPa) = 45.09505 57.95242 51.52374
# Shear Modulus (GPa) = 21.10129 26.50724 23.80427
#
# Velocity S-wave (km/s) = 3.26098 3.65490 3.46355
# Velocity P-wave (km/s) = 6.07489 6.85683 6.47767
#
# Compressibility (1/GPa) = 0.02217538
#
# Stress axis : x y z
#
# Youngs Moduli (GPa) = 33.76423 49.78845 67.69742
#
# Poissons Ratio (x) = 0.29263 0.71623
# Poissons Ratio (y) = 0.19845 0.31763
# Poissons Ratio (z) = 0.35722 0.23360
#
# Static dielectric constant tensor:
#      x y z
#    x 3.506370 0.000000 0.209930 
#    y 0.000000 3.893170 0.000000 
#    z 0.209930 0.000000 3.769700 
# 
# 
# High freq. dielectric constant tensor:
#      x y z
#    x 1.746720 0.000000 0.010410 
#    y 0.000000 1.762890 0.000000 
#    z 0.010410 0.000000 1.785770 
# 
# From -- ./inp_files/85972.got.cif
#   From: 2010.06.25/outbox.cif.g09.slc.cpg/sg15_43_cif.got.tgz:85972.got - 2010.06.28 07:06:18.
