data_PCOD8148562
_publ_section_title
;
Structure prediction by ZEFSAII (Michael W. Deem and Ramdas Pophale) SiO2 
 PCOD8148562
Probable space group: C 2/C
;
_chemical_formula_sum "Si O2"
_cell_formula_units_Z 56
_cell_length_a 21.459956
_cell_length_b 10.493505
_cell_length_c 26.512661
_cell_angle_alpha 90.000000
_cell_angle_beta 153.193645
_cell_angle_gamma 90.000000
_cell_volume 2692.505938
_symmetry_space_group_name_H-M "C 2/C"
_symmetry_group_IT_number 15
_symmetry_cell_setting 'monoclinic'
loop_
_space_group_symop_operation_xyz
x,y,z
-x,y,1/2-z
-x,-y,-z
x,-y,1/2+z
1/2+x,1/2+y,z
1/2-x,1/2+y,1/2-z
1/2-x,1/2-y,-z
1/2+x,1/2-y,1/2+z
loop_
_atom_site_type_symbol
_atom_site_label
_atom_site_fract_x
_atom_site_fract_y
_atom_site_fract_z
Si Si1 0.114349 0.904752 0.992470
Si Si2 0.888800 0.900604 0.303693
Si Si3 0.455080 0.866512 0.094022
Si Si4 0.222774 0.190875 0.672947
Si Si5 0.643875 0.035718 0.079796
Si Si6 0.317355 0.044744 0.070129
Si Si7 0.427058 0.687363 0.649921
O O1 0.138011 0.886299 0.069171
O O2 0.241099 0.988452 0.063807
O O3 0.110444 0.773604 0.958157
O O4 0.966983 0.971393 0.877509
O O5 0.848439 0.823933 0.324380
O O6 0.988581 0.814500 0.341483
O O7 0.754221 0.926245 0.172107
O O8 0.620630 0.859212 0.210587
O O9 0.411162 0.932088 0.114650
O O10 0.387715 0.953834 0.002077
O O11 0.213256 0.338296 0.652639
O O12 0.500000 0.000000 0.000000
O O13 0.406988 0.165723 0.151343
O O14 0.209576 0.102215 0.952261
O O15 0.500000 0.620085 0.750000
#
# Coordination Sequence:
#
# PCOD8148562 Si02
#       7
#     8   8   8   8   8   8   8
#     4  10  23  43  62  94 130 161 218 265 318 387
#     4  11  22  43  66  92 132 168 211 271 321 379
#     4  11  22  40  66  94 128 163 218 261 329 384
#     4  11  24  39  64  99 126 171 212 263 329 385
#     4  11  23  41  63  92 131 167 214 260 319 392
#     4  10  23  42  64  93 124 171 212 265 318 380
#     4  10  23  42  62  92 128 166 220 257 318 384
#
# _framework density 20.798469000000001
#
# number of rings (size 3 to 8) (size 9 to 14) (size 15 to 20)
#    0.000    1.429    2.857    1.714    4.000    0.000 
#    2.571    0.000    0.000    0.000    0.000    0.000 
#    0.000    0.000    0.000    0.000    0.000    0.000 
#
# Total GULP energy -347163.662247 kJ/mol
# GULP energy per Si atom -12398.702223 kJ/mol
# Density = 2.075113 g / cm^3
# Si number density = 20.798469 Si / 1000 Ang^3
#
#
#
# Elastic Constant Matrix: (Units=GPa)
#
#
# Indices 1 2 3 4 5 6 
#
# 1 81.4195 2.8682 19.2248 0.0010 10.3413 -0.0001
# 2 2.8682 36.8923 6.6966 0.0026 5.3212 0.0004
# 3 19.2248 6.6966 101.9665 0.0048 3.7317 0.0014
# 4 0.0010 0.0026 0.0048 13.9113 0.0013 10.3354
# 5 10.3413 5.3212 3.7317 0.0013 33.1193 0.0002
# 6 -0.0001 0.0004 0.0014 10.3354 0.0002 30.9570
#
#
#
# Elastic Compliance Matrix: (Units=1/GPa)
#
#
# Indices 1 2 3 4 5 6 
#
# 1 0.013337 -0.000046 -0.002369 0.000000 -0.003890 0.000000
# 2 -0.000046 0.028034 -0.001675 -0.000005 -0.004301 0.000002
# 3 -0.002369 -0.001675 0.010370 -0.000004 -0.000159 0.000001
# 4 0.000000 -0.000005 -0.000004 0.095596 -0.000002 -0.031916
# 5 -0.003890 -0.004301 -0.000159 -0.000002 0.032118 0.000001
# 6 0.000000 0.000002 0.000001 -0.031916 0.000001 0.042958
#
#
# Mechanical properties :
#
#
# Convention : Reuss Voigt Hill
#
# Bulk Modulus (GPa) = 22.95648 30.87307 26.91478
# Shear Modulus (GPa) = 20.39877 28.36342 24.38110
#
# Velocity S-wave (km/s) = 3.13514 3.69687 3.42753
# Velocity P-wave (km/s) = 4.91600 5.75314 5.35097
#
# Compressibility (1/GPa) = 0.04356068
#
# Stress axis : x y z
#
# Youngs Moduli (GPa) = 74.97827 35.67109 96.43489
#
# Poissons Ratio (x) = 0.00163 0.22848
# Poissons Ratio (y) = 0.00343 0.16154
# Poissons Ratio (z) = 0.17764 0.05975
#
# Static dielectric constant tensor:
#      x y z
#    x 3.593100 0.000000 0.024530 
#    y 0.000000 3.642430 0.000000 
#    z 0.024530 0.000000 3.997970 
# 
# 
# High freq. dielectric constant tensor:
#      x y z
#    x 1.811620 0.000000 0.001980 
#    y 0.000000 1.809070 0.000000 
#    z 0.001980 0.000000 1.833040 
# 
# From -- ./inp_files/280017.got.cif
#   From: 2010.06.25/outbox.cif.g09.slc.cpg/sg15_141_cif.got.tgz:280017.got - 2010.06.28 07:06:18.
