data_PCOD8148709
_publ_section_title
;
Structure prediction by ZEFSAII (Michael W. Deem and Ramdas Pophale) SiO2 
 PCOD8148709
Probable space group: C 2/C
;
_chemical_formula_sum "Si O2"
_cell_formula_units_Z 64
_cell_length_a 22.998207
_cell_length_b 10.738580
_cell_length_c 12.542729
_cell_angle_alpha 90.000000
_cell_angle_beta 105.940830
_cell_angle_gamma 90.000000
_cell_volume 2978.536088
_symmetry_space_group_name_H-M "C 2/C"
_symmetry_group_IT_number 15
_symmetry_cell_setting 'monoclinic'
loop_
_space_group_symop_operation_xyz
x,y,z
-x,y,1/2-z
-x,-y,-z
x,-y,1/2+z
1/2+x,1/2+y,z
1/2-x,1/2+y,1/2-z
1/2-x,1/2-y,-z
1/2+x,1/2-y,1/2+z
loop_
_atom_site_type_symbol
_atom_site_label
_atom_site_fract_x
_atom_site_fract_y
_atom_site_fract_z
Si Si1 0.115520 0.744371 0.194170
Si Si2 0.089333 0.984114 0.070647
Si Si3 0.495799 0.347836 0.621426
Si Si4 0.996962 0.636957 0.460571
Si Si5 0.801197 0.854792 0.904458
Si Si6 0.282113 0.045981 0.542414
Si Si7 0.871986 0.654234 0.068173
Si Si8 0.256653 0.224115 0.343150
O O1 0.085985 0.879583 0.160963
O O2 0.138657 0.721728 0.324263
O O3 0.172082 0.739959 0.141746
O O4 0.062358 0.646049 0.143686
O O5 0.156411 0.023884 0.076351
O O6 0.057521 0.940845 0.944088
O O7 0.058602 0.104139 0.106283
O O8 0.500000 0.335468 0.750000
O O9 0.485895 0.214919 0.562621
O O10 0.057773 0.670157 0.426805
O O11 0.000000 0.500000 0.500000
O O12 0.779149 0.821604 0.776387
O O13 0.747617 0.910352 0.949545
O O14 0.831504 0.731122 0.964862
O O15 0.251781 0.112347 0.425874
O O16 0.275720 0.147069 0.634730
O O17 0.351064 0.993183 0.558897
#
# Coordination Sequence:
#
# PCOD8148709 Si02
#       8
#     8   8   8   8   8   8   8   8
#     4  11  24  44  71  97 137 184 227 286 343 407
#     4  10  23  42  67  99 139 171 226 287 331 408
#     4  10  23  43  69 101 133 180 224 282 344 404
#     4  11  25  47  68  99 140 175 231 284 344 417
#     4  12  25  43  71 101 139 179 230 284 344 410
#     4  11  26  45  70 100 140 185 230 284 343 413
#     4  12  26  44  71 105 133 185 230 282 354 409
#     4  11  26  46  68 103 140 186 231 284 347 405
#
# _framework density 21.487065999999999
#
# number of rings (size 3 to 8) (size 9 to 14) (size 15 to 20)
#    0.000    1.000    3.750    1.500    5.250    2.000 
#    4.500    0.000    0.000    0.000    0.000    0.000 
#    0.000    0.000    0.000    0.000    0.000    0.000 
#
# Total GULP energy -396723.138257 kJ/mol
# GULP energy per Si atom -12397.598071 kJ/mol
# Density = 2.143816 g / cm^3
# Si number density = 21.487066 Si / 1000 Ang^3
#
#
#
# Elastic Constant Matrix: (Units=GPa)
#
#
# Indices 1 2 3 4 5 6 
#
# 1 84.6610 25.1747 41.5480 0.0000 1.7072 0.0000
# 2 25.1747 84.2933 39.3786 0.0000 -2.7131 0.0000
# 3 41.5480 39.3786 135.1372 0.0000 -1.7474 0.0000
# 4 0.0000 0.0000 0.0000 26.9455 0.0000 2.0074
# 5 1.7072 -2.7131 -1.7474 0.0000 26.5821 0.0000
# 6 0.0000 0.0000 0.0000 2.0074 0.0000 32.2027
#
#
#
# Elastic Compliance Matrix: (Units=1/GPa)
#
#
# Indices 1 2 3 4 5 6 
#
# 1 0.014434 -0.002634 -0.003689 0.000000 -0.001438 0.000000
# 2 -0.002634 0.014248 -0.003324 0.000000 0.001405 0.000000
# 3 -0.003689 -0.003324 0.009509 0.000000 0.000523 0.000000
# 4 0.000000 0.000000 0.000000 0.037285 0.000000 -0.002324
# 5 -0.001438 0.001405 0.000523 0.000000 0.037889 0.000000
# 6 0.000000 0.000000 0.000000 -0.002324 0.000000 0.031198
#
#
# Mechanical properties :
#
#
# Convention : Reuss Voigt Hill
#
# Bulk Modulus (GPa) = 52.91465 57.36600 55.14032
# Shear Modulus (GPa) = 29.38457 30.34541 29.86499
#
# Velocity S-wave (km/s) = 3.70205 3.76209 3.73219
# Velocity P-wave (km/s) = 6.55388 6.75477 6.65508
#
# Compressibility (1/GPa) = 0.01889836
#
# Stress axis : x y z
#
# Youngs Moduli (GPa) = 69.27889 70.18552 105.15934
#
# Poissons Ratio (x) = 0.18486 0.38793
# Poissons Ratio (y) = 0.18247 0.34953
# Poissons Ratio (z) = 0.25557 0.23329
#
# Static dielectric constant tensor:
#      x y z
#    x 7.351730 0.000000 0.432570 
#    y 0.000000 3.851500 0.000000 
#    z 0.432570 0.000000 3.800920 
# 
# 
# High freq. dielectric constant tensor:
#      x y z
#    x 1.855490 0.000000 0.004830 
#    y 0.000000 1.851540 0.000000 
#    z 0.004830 0.000000 1.839420 
# 
# From -- ./inp_files/118021.got.cif
#   From: 2010.06.25/outbox.cif.g09.slc.cpg/sg15_60_cif.got.tgz:118021.got - 2010.06.28 07:06:18.
