data_PCOD8148600
_publ_section_title
;
Structure prediction by ZEFSAII (Michael W. Deem and Ramdas Pophale) SiO2 
 PCOD8148600
Probable space group: C 2/C
;
_chemical_formula_sum "Si O2"
_cell_formula_units_Z 48
_cell_length_a 17.276422
_cell_length_b 6.437218
_cell_length_c 21.063271
_cell_angle_alpha 90.000000
_cell_angle_beta 67.932521
_cell_angle_gamma 90.000000
_cell_volume 2170.884381
_symmetry_space_group_name_H-M "C 2/C"
_symmetry_group_IT_number 15
_symmetry_cell_setting 'monoclinic'
loop_
_space_group_symop_operation_xyz
x,y,z
-x,y,1/2-z
-x,-y,-z
x,-y,1/2+z
1/2+x,1/2+y,z
1/2-x,1/2+y,1/2-z
1/2-x,1/2-y,-z
1/2+x,1/2-y,1/2+z
loop_
_atom_site_type_symbol
_atom_site_label
_atom_site_fract_x
_atom_site_fract_y
_atom_site_fract_z
Si Si1 0.194570 0.032118 0.178892
Si Si2 0.161005 0.287576 0.791385
Si Si3 0.881897 0.807472 0.505089
Si Si4 0.964715 0.974206 0.606097
Si Si5 0.241761 0.481911 0.978951
Si Si6 0.064715 0.679930 0.777135
O O1 0.266499 0.187389 0.179832
O O2 0.206017 0.984759 0.101631
O O3 0.107809 0.145280 0.220192
O O4 0.197346 0.814946 0.216276
O O5 0.127763 0.514073 0.785309
O O6 0.092704 0.147806 0.845860
O O7 0.915986 0.857122 0.564317
O O8 0.856091 0.561456 0.501265
O O9 0.789619 0.899966 0.521195
O O10 0.950321 0.904451 0.436811
O O11 0.983902 0.792948 0.650265
O O12 0.250000 0.250000 0.000000
O O13 0.000000 0.565031 0.750000
#
# Coordination Sequence:
#
# PCOD8148600 Si02
#       6
#     8   8   8   8   8   8
#     4  11  23  41  65  94 129 169 223 270 337 405
#     4  11  23  40  67  93 126 172 215 275 338 407
#     4  10  23  42  64  93 132 173 222 282 327 411
#     4  10  23  43  65  93 131 175 223 274 346 401
#     4  11  24  40  65  96 131 177 226 279 342 402
#     4  11  24  40  64  97 130 167 220 279 337 406
#
# _framework density 22.110806
#
# number of rings (size 3 to 8) (size 9 to 14) (size 15 to 20)
#    0.000    1.333    1.667    3.000    2.333    9.333 
#    0.000    4.167    0.000    0.000    0.000    0.000 
#    0.000    0.000    0.000    0.000    0.000    0.000 
#
# Total GULP energy -297424.866950 kJ/mol
# GULP energy per Si atom -12392.702790 kJ/mol
# Density = 2.206048 g / cm^3
# Si number density = 22.110806 Si / 1000 Ang^3
#
#
#
# Elastic Constant Matrix: (Units=GPa)
#
#
# Indices 1 2 3 4 5 6 
#
# 1 108.4078 27.0060 35.2799 0.0002 10.6990 -0.0003
# 2 27.0060 105.2497 36.5943 0.0006 1.1946 0.0001
# 3 35.2799 36.5943 101.3760 0.0001 4.0393 0.0000
# 4 0.0002 0.0006 0.0001 26.7892 0.0002 2.6287
# 5 10.6990 1.1946 4.0393 0.0002 27.6160 0.0004
# 6 -0.0003 0.0001 0.0000 2.6287 0.0004 31.4621
#
#
#
# Elastic Compliance Matrix: (Units=1/GPa)
#
#
# Indices 1 2 3 4 5 6 
#
# 1 0.011020 -0.001719 -0.003065 0.000000 -0.003747 0.000000
# 2 -0.001719 0.011133 -0.003448 0.000000 0.000689 0.000000
# 3 -0.003065 -0.003448 0.012193 0.000000 -0.000447 0.000000
# 4 0.000000 0.000000 0.000000 0.037637 0.000000 -0.003145
# 5 -0.003747 0.000689 -0.000447 0.000000 0.037698 0.000000
# 6 0.000000 0.000000 0.000000 -0.003145 0.000000 0.032047
#
#
# Mechanical properties :
#
#
# Convention : Reuss Voigt Hill
#
# Bulk Modulus (GPa) = 55.92264 56.97709 56.44987
# Shear Modulus (GPa) = 30.45911 31.58369 31.02140
#
# Velocity S-wave (km/s) = 3.71559 3.78355 3.74972
# Velocity P-wave (km/s) = 6.61471 6.70163 6.65831
#
# Compressibility (1/GPa) = 0.01788185
#
# Stress axis : x y z
#
# Youngs Moduli (GPa) = 90.74387 89.81990 82.01156
#
# Poissons Ratio (x) = 0.15443 0.25138
# Poissons Ratio (y) = 0.15602 0.28277
# Poissons Ratio (z) = 0.27814 0.30970
#
# Static dielectric constant tensor:
#      x y z
#    x 4.005520 0.000000 0.036810 
#    y 0.000000 4.229590 -0.000010 
#    z 0.036810 -0.000010 4.112860 
# 
# 
# High freq. dielectric constant tensor:
#      x y z
#    x 1.878330 0.000000 0.008900 
#    y 0.000000 1.873710 0.000000 
#    z 0.008900 0.000000 1.872290 
# 
# From -- ./inp_files/275840.got.cif
#   From: 2010.06.25/outbox.cif.g09.slc.cpg/sg15_138_cif.got.tgz:275840.got - 2010.06.28 07:06:18.
