data_PCOD8148880
_publ_section_title
;
Structure prediction by ZEFSAII (Michael W. Deem and Ramdas Pophale) SiO2 
 PCOD8148880
Probable space group: C 2/C
;
_chemical_formula_sum "Si O2"
_cell_formula_units_Z 44
_cell_length_a 8.015114
_cell_length_b 14.104051
_cell_length_c 22.311506
_cell_angle_alpha 90.000000
_cell_angle_beta 47.820351
_cell_angle_gamma 90.000000
_cell_volume 1869.071649
_symmetry_space_group_name_H-M "C 2/C"
_symmetry_group_IT_number 15
_symmetry_cell_setting 'monoclinic'
loop_
_space_group_symop_operation_xyz
x,y,z
-x,y,1/2-z
-x,-y,-z
x,-y,1/2+z
1/2+x,1/2+y,z
1/2-x,1/2+y,1/2-z
1/2-x,1/2-y,-z
1/2+x,1/2-y,1/2+z
loop_
_atom_site_type_symbol
_atom_site_label
_atom_site_fract_x
_atom_site_fract_y
_atom_site_fract_z
Si Si1 0.765108 0.726913 0.680747
Si Si2 0.106821 0.581418 0.600788
Si Si3 0.000000 0.501266 0.250000
Si Si4 0.211901 0.873315 0.735206
Si Si5 0.510139 0.278729 0.990289
Si Si6 0.903219 0.618663 0.449628
O O1 0.500000 0.728462 0.750000
O O2 0.868810 0.774833 0.715609
O O3 0.852712 0.788510 0.603968
O O4 0.851712 0.619210 0.655362
O O5 0.132235 0.555016 0.665063
O O6 0.267838 0.669658 0.543454
O O7 0.129646 0.495375 0.547319
O O8 0.798135 0.559932 0.268179
O O9 0.423601 0.849841 0.642852
O O10 0.000000 0.917600 0.750000
O O11 0.653792 0.337919 0.003903
O O12 0.494653 0.166627 0.013964
#
# Coordination Sequence:
#
# PCOD8148880 Si02
#       6
#     8   8   4   8   8   8
#     4  12  24  44  72 106 147 191 242 300 361 440
#     4  11  25  40  71 107 140 196 245 293 377 437
#     4  10  24  46  66 106 148 180 248 312 346 440
#     4  11  22  44  75 101 141 194 239 295 372 429
#     4  11  23  45  72  99 147 197 235 305 373 426
#     4  10  23  43  66 104 144 185 247 305 358 437
#
# _framework density 23.541098999999999
#
# number of rings (size 3 to 8) (size 9 to 14) (size 15 to 20)
#    0.000    1.091    2.727    3.273    3.818    3.636 
#    0.000    3.636    0.000    0.000    0.000    0.000 
#    0.000    0.000    0.000    0.000    0.000    0.000 
#
# Total GULP energy -272584.457860 kJ/mol
# GULP energy per Si atom -12390.202630 kJ/mol
# Density = 2.348752 g / cm^3
# Si number density = 23.541099 Si / 1000 Ang^3
#
#
#
# Elastic Constant Matrix: (Units=GPa)
#
#
# Indices 1 2 3 4 5 6 
#
# 1 115.6650 53.1116 38.1813 0.0002 -14.5516 0.0001
# 2 53.1116 120.2105 48.4692 0.0002 -7.4936 0.0001
# 3 38.1813 48.4692 124.3697 0.0013 -4.9986 -0.0001
# 4 0.0002 0.0002 0.0013 45.3496 -0.0004 3.8248
# 5 -14.5516 -7.4936 -4.9986 -0.0004 22.7679 0.0001
# 6 0.0001 0.0001 -0.0001 3.8248 0.0001 31.1098
#
#
#
# Elastic Compliance Matrix: (Units=1/GPa)
#
#
# Indices 1 2 3 4 5 6 
#
# 1 0.011883 -0.004165 -0.001791 0.000000 0.005831 0.000000
# 2 -0.004165 0.011464 -0.003172 0.000000 0.000415 0.000000
# 3 -0.001791 -0.003172 0.009825 0.000000 -0.000031 0.000000
# 4 0.000000 0.000000 0.000000 0.022282 0.000000 -0.002739
# 5 0.005831 0.000415 -0.000031 0.000000 0.047778 0.000000
# 6 0.000000 0.000000 0.000000 -0.002739 0.000000 0.032481
#
#
# Mechanical properties :
#
#
# Convention : Reuss Voigt Hill
#
# Bulk Modulus (GPa) = 67.03985 71.08548 69.06267
# Shear Modulus (GPa) = 31.45848 34.54433 33.00141
#
# Velocity S-wave (km/s) = 3.65954 3.83483 3.74821
# Velocity P-wave (km/s) = 6.81146 7.06185 6.93778
#
# Compressibility (1/GPa) = 0.01491650
#
# Stress axis : x y z
#
# Youngs Moduli (GPa) = 84.15684 87.23165 101.77751
#
# Poissons Ratio (x) = 0.36328 0.18224
# Poissons Ratio (y) = 0.35047 0.32288
# Poissons Ratio (z) = 0.15069 0.27674
#
# Static dielectric constant tensor:
#      x y z
#    x 4.316100 0.000000 0.194680 
#    y 0.000000 4.324850 0.000000 
#    z 0.194680 0.000000 4.214390 
# 
# 
# High freq. dielectric constant tensor:
#      x y z
#    x 1.930840 0.000000 0.002420 
#    y 0.000000 1.927310 0.000000 
#    z 0.002420 0.000000 1.938980 
# 
# From -- ./inp_files/288581.got.cif
#   From: 2010.06.25/outbox.cif.g09.slc.cpg/sg15_145_cif.got.tgz:288581.got - 2010.06.28 07:06:18.
