data_PCOD8148705
_publ_section_title
;
Structure prediction by ZEFSAII (Michael W. Deem and Ramdas Pophale) SiO2 
 PCOD8148705
Probable space group: C 2/C
;
_chemical_formula_sum "Si O2"
_cell_formula_units_Z 52
_cell_length_a 20.386019
_cell_length_b 9.351615
_cell_length_c 18.727979
_cell_angle_alpha 90.000000
_cell_angle_beta 137.163760
_cell_angle_gamma 90.000000
_cell_volume 2427.495072
_symmetry_space_group_name_H-M "C 2/C"
_symmetry_group_IT_number 15
_symmetry_cell_setting 'monoclinic'
loop_
_space_group_symop_operation_xyz
x,y,z
-x,y,1/2-z
-x,-y,-z
x,-y,1/2+z
1/2+x,1/2+y,z
1/2-x,1/2+y,1/2-z
1/2-x,1/2-y,-z
1/2+x,1/2-y,1/2+z
loop_
_atom_site_type_symbol
_atom_site_label
_atom_site_fract_x
_atom_site_fract_y
_atom_site_fract_z
Si Si1 0.639607 0.080669 0.238063
Si Si2 0.366191 0.892342 0.598576
Si Si3 0.500000 0.628408 0.250000
Si Si4 0.957851 0.224443 0.952893
Si Si5 0.648522 0.575175 0.929095
Si Si6 0.008506 0.361136 0.376007
Si Si7 0.357949 0.446334 0.915356
O O1 0.625660 0.111039 0.310069
O O2 0.574226 0.190084 0.141986
O O3 0.750748 0.092933 0.302753
O O4 0.597392 0.922384 0.189331
O O5 0.398050 0.733478 0.599992
O O6 0.256918 0.918523 0.485506
O O7 0.431590 0.015460 0.616723
O O8 0.407326 0.525837 0.170846
O O9 0.491654 0.723575 0.313679
O O10 0.896874 0.079082 0.901298
O O11 0.937320 0.315711 0.008200
O O12 0.072139 0.189493 0.040589
O O13 0.645517 0.504800 0.004914
#
# Coordination Sequence:
#
# PCOD8148705 Si02
#       7
#     8   8   4   8   8   8   8
#     4  11  24  42  70  93 134 180 224 281 340 407
#     4  10  23  44  68  97 135 173 234 278 337 400
#     4  12  24  38  70  98 134 174 222 278 354 390
#     4  11  25  44  64  97 137 180 223 284 338 410
#     4  10  23  42  67  99 130 182 222 281 337 406
#     4  12  24  43  67 103 133 177 224 289 334 412
#     4  10  24  44  64  97 138 173 230 282 335 411
#
# _framework density 21.421258000000002
#
# number of rings (size 3 to 8) (size 9 to 14) (size 15 to 20)
#    0.000    1.231    3.077    1.385    6.462    1.846 
#    5.538    0.000    0.000    0.000    0.000    0.000 
#    0.000    0.000    0.000    0.000    0.000    0.000 
#
# Total GULP energy -322431.574915 kJ/mol
# GULP energy per Si atom -12401.214420 kJ/mol
# Density = 2.137250 g / cm^3
# Si number density = 21.421258 Si / 1000 Ang^3
#
#
#
# Elastic Constant Matrix: (Units=GPa)
#
#
# Indices 1 2 3 4 5 6 
#
# 1 86.8191 48.1045 46.7600 0.0000 14.7423 0.0000
# 2 48.1045 134.5712 75.4237 0.0000 16.0895 0.0000
# 3 46.7600 75.4237 133.8691 0.0000 11.3544 0.0000
# 4 0.0000 0.0000 0.0000 29.6294 0.0000 -0.0803
# 5 14.7423 16.0895 11.3544 0.0000 33.7501 0.0000
# 6 0.0000 0.0000 0.0000 -0.0803 0.0000 27.6519
#
#
#
# Elastic Compliance Matrix: (Units=1/GPa)
#
#
# Indices 1 2 3 4 5 6 
#
# 1 0.015854 -0.003301 -0.003319 0.000000 -0.004235 0.000000
# 2 -0.003301 0.011897 -0.005343 0.000000 -0.002432 0.000000
# 3 -0.003319 -0.005343 0.011633 0.000000 0.000083 0.000000
# 4 0.000000 0.000000 0.000000 0.033751 0.000000 0.000098
# 5 -0.004235 -0.002432 0.000083 0.000000 0.032611 0.000000
# 6 0.000000 0.000000 0.000000 0.000098 0.000000 0.036164
#
#
# Mechanical properties :
#
#
# Convention : Reuss Voigt Hill
#
# Bulk Modulus (GPa) = 64.69561 77.31507 71.00534
# Shear Modulus (GPa) = 29.24210 30.53771 29.88991
#
# Velocity S-wave (km/s) = 3.69873 3.77978 3.73948
# Velocity P-wave (km/s) = 6.96477 7.43102 7.20167
#
# Compressibility (1/GPa) = 0.01545700
#
# Stress axis : x y z
#
# Youngs Moduli (GPa) = 63.07715 84.05804 85.96445
#
# Poissons Ratio (x) = 0.27745 0.28529
# Poissons Ratio (y) = 0.20820 0.45935
# Poissons Ratio (z) = 0.20934 0.44916
#
# Static dielectric constant tensor:
#      x y z
#    x 3.823040 0.000000 0.164000 
#    y 0.000000 3.902230 0.000000 
#    z 0.164000 0.000000 4.026520 
# 
# 
# High freq. dielectric constant tensor:
#      x y z
#    x 1.834870 0.000000 0.002650 
#    y 0.000000 1.846230 0.000000 
#    z 0.002650 0.000000 1.848450 
# 
# From -- ./inp_files/255090.got.cif
#   From: 2010.06.25/outbox.cif.g09.slc.cpg/sg15_128_cif.got.tgz:255090.got - 2010.06.28 07:06:18.
