data_PCOD8148066
_publ_section_title
;
Structure prediction by ZEFSAII (Michael W. Deem and Ramdas Pophale) SiO2 
 PCOD8148066
Probable space group: C 2/C
;
_chemical_formula_sum "Si O2"
_cell_formula_units_Z 60
_cell_length_a 24.190360
_cell_length_b 12.922057
_cell_length_c 9.234525
_cell_angle_alpha 90.000000
_cell_angle_beta 74.474416
_cell_angle_gamma 90.000000
_cell_volume 2781.283346
_symmetry_space_group_name_H-M "C 2/C"
_symmetry_group_IT_number 15
_symmetry_cell_setting 'monoclinic'
loop_
_space_group_symop_operation_xyz
x,y,z
-x,y,1/2-z
-x,-y,-z
x,-y,1/2+z
1/2+x,1/2+y,z
1/2-x,1/2+y,1/2-z
1/2-x,1/2-y,-z
1/2+x,1/2-y,1/2+z
loop_
_atom_site_type_symbol
_atom_site_label
_atom_site_fract_x
_atom_site_fract_y
_atom_site_fract_z
Si Si1 0.688806 0.253163 0.198077
Si Si2 0.814851 0.167471 0.105624
Si Si3 0.336718 0.936204 0.308344
Si Si4 0.409501 0.030822 0.482817
Si Si5 0.000000 0.666256 0.250000
Si Si6 0.292322 0.563230 0.620456
Si Si7 0.852778 0.784865 0.878468
Si Si8 0.581163 0.196695 0.434261
O O1 0.749724 0.200152 0.189348
O O2 0.687187 0.372337 0.254529
O O3 0.643126 0.184079 0.314814
O O4 0.669770 0.262604 0.044100
O O5 0.859998 0.194043 0.202275
O O6 0.824029 0.045499 0.075132
O O7 0.273521 0.967045 0.304226
O O8 0.329563 0.831968 0.407581
O O9 0.359779 0.025860 0.396845
O O10 0.381218 0.918843 0.145059
O O11 0.460355 0.097473 0.381176
O O12 0.436174 0.916829 0.496000
O O13 0.963672 0.734900 0.159084
O O14 0.306057 0.633344 0.469960
O O15 0.911448 0.780762 0.937624
#
# Coordination Sequence:
#
# PCOD8148066 Si02
#       8
#     8   8   8   8   4   8   8   8
#     4  10  23  38  55  92 126 167 216 253 304 379
#     4  11  22  35  62  88 129 167 211 255 309 383
#     4  11  23  36  60  87 134 172 211 247 309 379
#     4  11  24  38  60  90 123 175 210 252 312 377
#     4  12  24  42  64  88 124 164 220 268 316 384
#     4  11  22  37  59  92 132 176 205 249 313 375
#     4  10  23  39  57  89 126 168 211 263 299 375
#     4  10  23  41  59  82 124 165 208 262 314 361
#
# _framework density 21.572775
#
# number of rings (size 3 to 8) (size 9 to 14) (size 15 to 20)
#    0.000    1.333    2.667    2.400    9.333    0.000 
#    0.000    0.000    0.000    0.000    0.000   14.933 
#    0.000    0.000    0.000    0.000    0.000    0.000 
#
# Total GULP energy -371700.655765 kJ/mol
# GULP energy per Si atom -12390.021859 kJ/mol
# Density = 2.152367 g / cm^3
# Si number density = 21.572775 Si / 1000 Ang^3
#
#
#
# Elastic Constant Matrix: (Units=GPa)
#
#
# Indices 1 2 3 4 5 6 
#
# 1 81.0024 14.3022 45.6027 0.0000 28.9074 0.0000
# 2 14.3022 77.3589 32.4019 0.0000 0.8763 0.0000
# 3 45.6027 32.4019 129.2897 0.0000 32.8414 0.0000
# 4 0.0000 0.0000 0.0000 32.0685 0.0000 2.1928
# 5 28.9074 0.8763 32.8414 0.0000 39.2113 0.0000
# 6 0.0000 0.0000 0.0000 2.1928 0.0000 15.5922
#
#
#
# Elastic Compliance Matrix: (Units=1/GPa)
#
#
# Indices 1 2 3 4 5 6 
#
# 1 0.018359 -0.001904 -0.003266 0.000000 -0.010757 0.000000
# 2 -0.001904 0.015015 -0.004271 0.000000 0.004646 0.000000
# 3 -0.003266 -0.004271 0.011840 0.000000 -0.007414 0.000000
# 4 0.000000 0.000000 0.000000 0.031486 0.000000 -0.004428
# 5 -0.010757 0.004646 -0.007414 0.000000 0.039538 0.000000
# 6 0.000000 0.000000 0.000000 -0.004428 0.000000 0.064757
#
#
# Mechanical properties :
#
#
# Convention : Reuss Voigt Hill
#
# Bulk Modulus (GPa) = 37.97832 52.47384 45.22608
# Shear Modulus (GPa) = 23.96280 30.39734 27.18007
#
# Velocity S-wave (km/s) = 3.33647 3.75782 3.55339
# Velocity P-wave (km/s) = 5.69962 6.57306 6.15186
#
# Compressibility (1/GPa) = 0.02633081
#
# Stress axis : x y z
#
# Youngs Moduli (GPa) = 54.46928 66.59845 84.45835
#
# Poissons Ratio (x) = 0.12683 0.27583
# Poissons Ratio (y) = 0.10374 0.36076
# Poissons Ratio (z) = 0.17789 0.28447
#
# Static dielectric constant tensor:
#      x y z
#    x 3.806040 0.000000 0.409350 
#    y 0.000000 3.780960 0.000000 
#    z 0.409350 0.000000 4.164300 
# 
# 
# High freq. dielectric constant tensor:
#      x y z
#    x 1.809250 0.000000 0.028340 
#    y 0.000000 1.830110 0.000000 
#    z 0.028340 0.000000 1.865940 
# 
# From -- ./inp_files/61538.got.cif
#   From: 2010.06.25/outbox.cif.g09.slc.cpg/sg15_31_cif.got.tgz:61538.got - 2010.06.28 07:06:18.
