data_PCOD8148698
_publ_section_title
;
Structure prediction by ZEFSAII (Michael W. Deem and Ramdas Pophale) SiO2 
 PCOD8148698
Probable space group: C 2/C
;
_chemical_formula_sum "Si O2"
_cell_formula_units_Z 40
_cell_length_a 9.654436
_cell_length_b 9.600105
_cell_length_c 28.664166
_cell_angle_alpha 90.000000
_cell_angle_beta 37.367080
_cell_angle_gamma 90.000000
_cell_volume 1612.401333
_symmetry_space_group_name_H-M "C 2/C"
_symmetry_group_IT_number 15
_symmetry_cell_setting 'monoclinic'
loop_
_space_group_symop_operation_xyz
x,y,z
-x,y,1/2-z
-x,-y,-z
x,-y,1/2+z
1/2+x,1/2+y,z
1/2-x,1/2+y,1/2-z
1/2-x,1/2-y,-z
1/2+x,1/2-y,1/2+z
loop_
_atom_site_type_symbol
_atom_site_label
_atom_site_fract_x
_atom_site_fract_y
_atom_site_fract_z
Si Si1 0.303946 0.029827 0.135863
Si Si2 0.000000 0.268695 0.250000
Si Si3 0.143032 0.663758 0.470419
Si Si4 0.500000 0.680722 0.750000
Si Si5 0.371121 0.072281 0.870250
Si Si6 0.892552 0.829960 0.609027
O O1 0.223159 0.176041 0.179898
O O2 0.430078 0.057686 0.051954
O O3 0.080887 0.927789 0.187585
O O4 0.477744 0.963604 0.125749
O O5 0.963779 0.367904 0.214640
O O6 0.187203 0.814641 0.435944
O O7 0.379412 0.606783 0.429656
O O8 0.952084 0.690632 0.561469
O O9 0.722329 0.780698 0.696831
O O10 0.231677 0.939457 0.890321
#
# Coordination Sequence:
#
# PCOD8148698 Si02
#       6
#     8   4   8   4   8   8
#     4  10  23  42  67  96 138 170 228 276 330 397
#     4   9  23  38  62  98 137 169 214 284 332 383
#     4  10  24  49  63 100 136 180 221 279 327 407
#     4  11  23  40  66 102 125 181 218 272 334 401
#     4  11  22  42  68  96 131 177 225 272 333 400
#     4  11  24  43  72  95 140 175 225 274 341 391
#
# _framework density 24.807718000000001
#
# number of rings (size 3 to 8) (size 9 to 14) (size 15 to 20)
#    0.000    1.600    2.000    1.200    2.800    8.000 
#    3.600    0.000    0.000    0.000    0.000    0.000 
#    0.000    0.000    0.000    0.000    0.000    0.000 
#
# Total GULP energy -247772.601815 kJ/mol
# GULP energy per Si atom -12388.630091 kJ/mol
# Density = 2.475125 g / cm^3
# Si number density = 24.807718 Si / 1000 Ang^3
#
#
#
# Elastic Constant Matrix: (Units=GPa)
#
#
# Indices 1 2 3 4 5 6 
#
# 1 115.9561 42.2653 55.0598 0.0003 23.8963 -0.0005
# 2 42.2653 57.1533 23.8991 0.0001 10.0369 -0.0002
# 3 55.0598 23.8991 156.8007 0.0022 13.8594 -0.0002
# 4 0.0003 0.0001 0.0022 27.9246 -0.0004 8.7883
# 5 23.8963 10.0369 13.8594 -0.0004 31.6721 0.0001
# 6 -0.0005 -0.0002 -0.0002 8.7883 0.0001 42.9299
#
#
#
# Elastic Compliance Matrix: (Units=1/GPa)
#
#
# Indices 1 2 3 4 5 6 
#
# 1 0.014605 -0.008210 -0.003259 0.000000 -0.006991 0.000000
# 2 -0.008210 0.024052 -0.000683 0.000000 -0.001129 0.000000
# 3 -0.003259 -0.000683 0.007687 -0.000001 -0.000688 0.000000
# 4 0.000000 0.000000 -0.000001 0.038277 0.000001 -0.007836
# 5 -0.006991 -0.001129 -0.000688 0.000001 0.037507 0.000000
# 6 0.000000 0.000000 0.000000 -0.007836 0.000000 0.024898
#
#
# Mechanical properties :
#
#
# Convention : Reuss Voigt Hill
#
# Bulk Modulus (GPa) = 45.37362 63.59538 54.48450
# Shear Modulus (GPa) = 27.98362 34.41771 31.20067
#
# Velocity S-wave (km/s) = 3.36225 3.72879 3.55025
# Velocity P-wave (km/s) = 5.77951 6.65053 6.23026
#
# Compressibility (1/GPa) = 0.02203924
#
# Stress axis : x y z
#
# Youngs Moduli (GPa) = 68.47161 41.57673 130.09101
#
# Poissons Ratio (x) = 0.34133 0.42398
# Poissons Ratio (y) = 0.56213 0.08890
# Poissons Ratio (z) = 0.22316 0.02841
#
# Static dielectric constant tensor:
#      x y z
#    x 4.120730 0.000000 0.304710 
#    y 0.000000 4.887990 0.000000 
#    z 0.304710 0.000000 5.008560 
# 
# 
# High freq. dielectric constant tensor:
#      x y z
#    x 1.945410 0.000000 0.020230 
#    y 0.000000 2.020950 0.000000 
#    z 0.020230 0.000000 2.013880 
# 
# From -- ./inp_files/307011.got.cif
#   From: 2010.06.25/outbox.cif.g09.slc.cpg/sg15_154_cif.got.tgz:307011.got - 2010.06.28 07:06:18.
