data_PCOD8148819
_publ_section_title
;
Structure prediction by ZEFSAII (Michael W. Deem and Ramdas Pophale) SiO2 
 PCOD8148819
Probable space group: C 2/C
;
_chemical_formula_sum "Si O2"
_cell_formula_units_Z 40
_cell_length_a 26.206874
_cell_length_b 8.692796
_cell_length_c 10.487524
_cell_angle_alpha 90.000000
_cell_angle_beta 128.448569
_cell_angle_gamma 90.000000
_cell_volume 1871.120917
_symmetry_space_group_name_H-M "C 2/C"
_symmetry_group_IT_number 15
_symmetry_cell_setting 'monoclinic'
loop_
_space_group_symop_operation_xyz
x,y,z
-x,y,1/2-z
-x,-y,-z
x,-y,1/2+z
1/2+x,1/2+y,z
1/2-x,1/2+y,1/2-z
1/2-x,1/2-y,-z
1/2+x,1/2-y,1/2+z
loop_
_atom_site_type_symbol
_atom_site_label
_atom_site_fract_x
_atom_site_fract_y
_atom_site_fract_z
Si Si1 0.380114 0.446943 0.353854
Si Si2 0.069860 0.754551 0.486607
Si Si3 0.163578 0.391406 0.317878
Si Si4 0.569749 0.827879 0.705528
Si Si5 0.690483 0.415522 0.993881
O O1 0.437665 0.572158 0.468076
O O2 0.408602 0.275463 0.381500
O O3 0.332838 0.456918 0.401404
O O4 0.341969 0.481999 0.165076
O O5 0.135596 0.683848 0.646145
O O6 0.078539 0.768554 0.348946
O O7 0.008372 0.646190 0.430461
O O8 0.111596 0.517672 0.284342
O O9 0.233341 0.460625 0.390380
O O10 0.174633 0.264567 0.445352
#
# Coordination Sequence:
#
# PCOD8148819 Si02
#       5
#     8   8   8   8   8
#     4  11  22  44  65  95 125 179 209 271 319 392
#     4  10  23  43  61  95 133 162 224 267 311 396
#     4  10  24  42  63  96 130 169 212 275 315 396
#     4  11  23  39  69  92 128 173 214 265 329 376
#     4  10  24  42  67  92 134 166 219 261 333 378
#
# _framework density 21.377561
#
# number of rings (size 3 to 8) (size 9 to 14) (size 15 to 20)
#    0.000    1.600    2.000    1.200    5.600    4.000 
#    0.000    0.000    0.000    0.000    0.000    0.000 
#    0.000    0.000    0.000    0.000    0.000    0.000 
#
# Total GULP energy -247931.894864 kJ/mol
# GULP energy per Si atom -12396.594743 kJ/mol
# Density = 2.132890 g / cm^3
# Si number density = 21.377561 Si / 1000 Ang^3
#
#
#
# Elastic Constant Matrix: (Units=GPa)
#
#
# Indices 1 2 3 4 5 6 
#
# 1 114.6867 24.9718 34.8306 0.0000 -2.0194 0.0000
# 2 24.9718 72.0639 8.7878 0.0000 9.2856 0.0000
# 3 34.8306 8.7878 77.1079 0.0000 3.6132 0.0000
# 4 0.0000 0.0000 0.0000 23.2914 0.0000 6.1174
# 5 -2.0194 9.2856 3.6132 0.0000 38.6686 0.0000
# 6 0.0000 0.0000 0.0000 6.1174 0.0000 36.6230
#
#
#
# Elastic Compliance Matrix: (Units=1/GPa)
#
#
# Indices 1 2 3 4 5 6 
#
# 1 0.010906 -0.003452 -0.004619 0.000000 0.001830 0.000000
# 2 -0.003452 0.015582 -0.000033 0.000000 -0.003919 0.000000
# 3 -0.004619 -0.000033 0.015136 0.000000 -0.001648 0.000000
# 4 0.000000 0.000000 0.000000 0.044904 0.000000 -0.007501
# 5 0.001830 -0.003919 -0.001648 0.000000 0.027051 0.000000
# 6 0.000000 0.000000 0.000000 -0.007501 0.000000 0.028558
#
#
# Mechanical properties :
#
#
# Convention : Reuss Voigt Hill
#
# Bulk Modulus (GPa) = 39.34395 44.55988 41.95192
# Shear Modulus (GPa) = 29.97302 32.73448 31.35375
#
# Velocity S-wave (km/s) = 3.74850 3.91737 3.83386
# Velocity P-wave (km/s) = 6.09748 6.43044 6.26617
#
# Compressibility (1/GPa) = 0.02541687
#
# Stress axis : x y z
#
# Youngs Moduli (GPa) = 91.69330 64.17804 66.06709
#
# Poissons Ratio (x) = 0.22152 0.30514
# Poissons Ratio (y) = 0.31650 0.00218
# Poissons Ratio (z) = 0.42350 0.00212
#
# Static dielectric constant tensor:
#      x y z
#    x 3.712040 0.000000 0.119090 
#    y 0.000000 3.819630 0.000000 
#    z 0.119090 0.000000 3.945300 
# 
# 
# High freq. dielectric constant tensor:
#      x y z
#    x 1.833110 0.000000 0.002240 
#    y 0.000000 1.832760 0.000000 
#    z 0.002240 0.000000 1.849690 
# 
# From -- ./inp_files/60077.got.cif
#   From: 2010.06.25/outbox.cif.g09.slc.cpg/sg15_31_cif.got.tgz:60077.got - 2010.06.28 07:06:18.
