data_PCOD8148415
_publ_section_title
;
Structure prediction by ZEFSAII (Michael W. Deem and Ramdas Pophale) SiO2 
 PCOD8148415
Probable space group: C 2/C
;
_chemical_formula_sum "Si O2"
_cell_formula_units_Z 40
_cell_length_a 8.970811
_cell_length_b 27.736235
_cell_length_c 15.191237
_cell_angle_alpha 90.000000
_cell_angle_beta 147.187544
_cell_angle_gamma 90.000000
_cell_volume 2048.256023
_symmetry_space_group_name_H-M "C 2/C"
_symmetry_group_IT_number 15
_symmetry_cell_setting 'monoclinic'
loop_
_space_group_symop_operation_xyz
x,y,z
-x,y,1/2-z
-x,-y,-z
x,-y,1/2+z
1/2+x,1/2+y,z
1/2-x,1/2+y,1/2-z
1/2-x,1/2-y,-z
1/2+x,1/2-y,1/2+z
loop_
_atom_site_type_symbol
_atom_site_label
_atom_site_fract_x
_atom_site_fract_y
_atom_site_fract_z
Si Si1 0.817711 0.547054 0.907947
Si Si2 0.824743 0.619850 0.752211
Si Si3 0.321210 0.887677 0.573740
Si Si4 0.477014 0.223466 0.836576
Si Si5 0.984061 0.286133 0.639405
O O1 0.500000 0.532041 0.750000
O O2 0.889832 0.579631 0.858367
O O3 0.882830 0.571915 0.033070
O O4 0.000000 0.500000 0.000000
O O5 0.503040 0.618013 0.564511
O O6 0.895567 0.671377 0.837819
O O7 0.000000 0.609606 0.750000
O O8 0.500000 0.898905 0.750000
O O9 0.420891 0.839232 0.572905
O O10 0.500000 0.205471 0.750000
O O11 0.260027 0.266021 0.735820
O O12 0.750000 0.250000 0.000000
O O13 0.000000 0.290854 0.750000
O O14 0.750000 0.250000 0.500000
#
# Coordination Sequence:
#
# PCOD8148415 Si02
#       5
#     8   8   8   8   8
#     4  10  24  46  69  93 122 164 212 264 320 370
#     4  10  23  42  63  91 130 164 206 260 313 371
#     4  10  23  41  64  93 126 164 210 256 312 376
#     4  11  24  38  56  90 129 166 208 251 305 364
#     4  11  22  36  60  88 123 168 208 245 300 370
#
# _framework density 19.528808999999999
#
# number of rings (size 3 to 8) (size 9 to 14) (size 15 to 20)
#    0.000    1.600    2.000    1.200   14.000    2.400 
#    0.000    4.000    0.000    0.000    0.000    0.000 
#    0.000    0.000    0.000    0.000    0.000    0.000 
#
# Total GULP energy -247797.741750 kJ/mol
# GULP energy per Si atom -12389.887088 kJ/mol
# Density = 1.948436 g / cm^3
# Si number density = 19.528809 Si / 1000 Ang^3
#
#
#
# Elastic Constant Matrix: (Units=GPa)
#
#
# Indices 1 2 3 4 5 6 
#
# 1 109.3442 69.1583 52.8448 0.0000 13.5110 0.0000
# 2 69.1583 170.8361 86.8042 0.0000 8.0124 0.0000
# 3 52.8448 86.8042 146.4197 0.0000 11.5891 0.0000
# 4 0.0000 0.0000 0.0000 38.0152 0.0000 5.3803
# 5 13.5110 8.0124 11.5891 0.0000 34.9887 0.0000
# 6 0.0000 0.0000 0.0000 5.3803 0.0000 33.4494
#
#
#
# Elastic Compliance Matrix: (Units=1/GPa)
#
#
# Indices 1 2 3 4 5 6 
#
# 1 0.013171 -0.004141 -0.002024 0.000000 -0.003467 0.000000
# 2 -0.004141 0.009681 -0.004309 0.000000 0.000809 0.000000
# 3 -0.002024 -0.004309 0.010244 0.000000 -0.001624 0.000000
# 4 0.000000 0.000000 0.000000 0.026918 0.000000 -0.004330
# 5 -0.003467 0.000809 -0.001624 0.000000 0.030272 0.000000
# 6 0.000000 0.000000 0.000000 -0.004330 0.000000 0.030592
#
#
# Mechanical properties :
#
#
# Convention : Reuss Voigt Hill
#
# Bulk Modulus (GPa) = 82.32133 93.80165 88.06149
# Shear Modulus (GPa) = 34.27550 35.81017 35.04284
#
# Velocity S-wave (km/s) = 4.19397 4.28683 4.24065
# Velocity P-wave (km/s) = 8.10542 8.52287 8.31676
#
# Compressibility (1/GPa) = 0.01214752
#
# Stress axis : x y z
#
# Youngs Moduli (GPa) = 75.92328 103.29041 97.62226
#
# Poissons Ratio (x) = 0.42770 0.19763
# Poissons Ratio (y) = 0.31438 0.42067
# Poissons Ratio (z) = 0.15370 0.44510
#
# Static dielectric constant tensor:
#      x y z
#    x 4.165520 0.000000 0.217520 
#    y 0.000000 3.676380 0.000000 
#    z 0.217520 0.000000 3.622140 
# 
# 
# High freq. dielectric constant tensor:
#      x y z
#    x 1.765220 0.000000 0.002790 
#    y 0.000000 1.767010 0.000000 
#    z 0.002790 0.000000 1.771380 
# 
# From -- ./inp_files/25357.got.cif
#   From: 2010.06.25/outbox.cif.g09.slc.cpg/sg15_13_cif.got.tgz:25357.got - 2010.06.28 07:06:18.
