data_PCOD8148308
_publ_section_title
;
Structure prediction by ZEFSAII (Michael W. Deem and Ramdas Pophale) SiO2 
 PCOD8148308
Probable space group: C 2/C
;
_chemical_formula_sum "Si O2"
_cell_formula_units_Z 56
_cell_length_a 17.615915
_cell_length_b 16.135558
_cell_length_c 18.946787
_cell_angle_alpha 90.000000
_cell_angle_beta 149.133384
_cell_angle_gamma 90.000000
_cell_volume 2762.975373
_symmetry_space_group_name_H-M "C 2/C"
_symmetry_group_IT_number 15
_symmetry_cell_setting 'monoclinic'
loop_
_space_group_symop_operation_xyz
x,y,z
-x,y,1/2-z
-x,-y,-z
x,-y,1/2+z
1/2+x,1/2+y,z
1/2-x,1/2+y,1/2-z
1/2-x,1/2-y,-z
1/2+x,1/2-y,1/2+z
loop_
_atom_site_type_symbol
_atom_site_label
_atom_site_fract_x
_atom_site_fract_y
_atom_site_fract_z
Si Si1 0.818983 0.277793 0.796665
Si Si2 0.158762 0.857358 0.397802
Si Si3 0.263585 0.462584 0.554650
Si Si4 0.417062 0.079410 0.464262
Si Si5 0.099309 0.306632 0.218166
Si Si6 0.000000 0.424223 0.250000
Si Si7 0.500000 0.675097 0.250000
Si Si8 0.141596 0.761470 0.519092
O O1 0.756643 0.221946 0.811746
O O2 0.692386 0.285496 0.637380
O O3 0.853259 0.371145 0.847051
O O4 0.964388 0.237751 0.878638
O O5 0.199039 0.829341 0.509208
O O6 0.287980 0.827049 0.447674
O O7 0.000000 0.818116 0.250000
O O8 0.141280 0.955852 0.382142
O O9 0.218915 0.457122 0.600552
O O10 0.112050 0.474811 0.388614
O O11 0.359664 0.381022 0.615363
O O12 0.507045 0.148078 0.582132
O O13 0.500000 0.000000 0.500000
O O14 0.115468 0.372139 0.294224
O O15 0.022448 0.227869 0.195782
#
# Coordination Sequence:
#
# PCOD8148308 Si02
#       8
#     8   8   8   8   8   4   4   8
#     4  12  22  41  64  97 130 170 212 270 328 392
#     4  11  23  44  65  93 129 170 222 274 322 388
#     4  11  23  40  66  94 129 173 215 275 320 386
#     4  11  24  41  65  98 134 172 215 271 334 385
#     4  10  23  40  67  93 132 170 220 266 320 398
#     4   9  24  40  62  97 128 166 220 263 318 380
#     4  11  22  40  68  95 126 174 228 261 326 390
#     4  11  25  39  67  94 126 172 223 266 329 390
#
# _framework density 20.268004999999999
#
# number of rings (size 3 to 8) (size 9 to 14) (size 15 to 20)
#    0.000    1.143    5.000    0.857    2.000    5.143 
#    0.000    0.000    0.000    3.429    0.000    0.000 
#    0.000    0.000    0.000    0.000    0.000    0.000 
#
# Total GULP energy -347032.455717 kJ/mol
# GULP energy per Si atom -12394.016276 kJ/mol
# Density = 2.022187 g / cm^3
# Si number density = 20.268005 Si / 1000 Ang^3
#
#
#
# Elastic Constant Matrix: (Units=GPa)
#
#
# Indices 1 2 3 4 5 6 
#
# 1 118.6327 44.9303 28.7491 0.0022 9.7730 0.0007
# 2 44.9303 110.4087 23.0674 0.0106 -1.1353 0.0037
# 3 28.7491 23.0674 73.8707 0.0105 4.2072 0.0040
# 4 0.0022 0.0106 0.0105 22.4036 0.0064 2.4847
# 5 9.7730 -1.1353 4.2072 0.0064 37.9136 0.0021
# 6 0.0007 0.0037 0.0040 2.4847 0.0021 30.4427
#
#
#
# Elastic Compliance Matrix: (Units=1/GPa)
#
#
# Indices 1 2 3 4 5 6 
#
# 1 0.010779 -0.003816 -0.002857 0.000003 -0.002576 0.000001
# 2 -0.003816 0.011055 -0.002055 -0.000004 0.001543 -0.000001
# 3 -0.002857 -0.002055 0.015349 -0.000006 -0.001028 -0.000001
# 4 0.000003 -0.000004 -0.000006 0.045043 -0.000008 -0.003676
# 5 -0.002576 0.001543 -0.001028 -0.000008 0.027200 -0.000001
# 6 0.000001 -0.000001 -0.000001 -0.003676 -0.000001 0.033149
#
#
# Mechanical properties :
#
#
# Convention : Reuss Voigt Hill
#
# Bulk Modulus (GPa) = 50.68882 55.15618 52.92250
# Shear Modulus (GPa) = 30.01065 31.89634 30.95350
#
# Velocity S-wave (km/s) = 3.85215 3.97133 3.91219
# Velocity P-wave (km/s) = 6.69694 6.94990 6.82459
#
# Compressibility (1/GPa) = 0.01972822
#
# Stress axis : x y z
#
# Youngs Moduli (GPa) = 92.77148 90.45330 65.14999
#
# Poissons Ratio (x) = 0.34519 0.18611
# Poissons Ratio (y) = 0.35403 0.13388
# Poissons Ratio (z) = 0.26502 0.18588
#
# Static dielectric constant tensor:
#      x y z
#    x 3.919040 0.000000 -0.016720 
#    y 0.000000 3.550300 -0.000010 
#    z -0.016720 -0.000010 3.559270 
# 
# 
# High freq. dielectric constant tensor:
#      x y z
#    x 1.811130 0.000000 0.001250 
#    y 0.000000 1.782590 0.000000 
#    z 0.001250 0.000000 1.782610 
# 
# From -- ./inp_files/249311.got.cif
#   From: 2010.06.25/outbox.cif.g09.slc.cpg/sg15_125_cif.got.tgz:249311.got - 2010.06.28 07:06:18.
