data_PCOD8148779
_publ_section_title
;
Structure prediction by ZEFSAII (Michael W. Deem and Ramdas Pophale) SiO2 
 PCOD8148779
Probable space group: C 2/C
;
_chemical_formula_sum "Si O2"
_cell_formula_units_Z 56
_cell_length_a 9.586106
_cell_length_b 26.863978
_cell_length_c 11.542051
_cell_angle_alpha 90.000000
_cell_angle_beta 117.701331
_cell_angle_gamma 90.000000
_cell_volume 2631.640935
_symmetry_space_group_name_H-M "C 2/C"
_symmetry_group_IT_number 15
_symmetry_cell_setting 'monoclinic'
loop_
_space_group_symop_operation_xyz
x,y,z
-x,y,1/2-z
-x,-y,-z
x,-y,1/2+z
1/2+x,1/2+y,z
1/2-x,1/2+y,1/2-z
1/2-x,1/2-y,-z
1/2+x,1/2-y,1/2+z
loop_
_atom_site_type_symbol
_atom_site_label
_atom_site_fract_x
_atom_site_fract_y
_atom_site_fract_z
Si Si1 0.455279 0.161517 0.867315
Si Si2 0.314223 0.906024 0.891531
Si Si3 0.500000 0.341395 0.750000
Si Si4 0.078538 0.235044 0.470359
Si Si5 0.500000 0.052315 0.250000
Si Si6 0.023797 0.940062 0.126300
Si Si7 0.756701 0.010805 0.955007
Si Si8 0.396221 0.333154 0.310276
O O1 0.500000 0.163187 0.750000
O O2 0.472000 0.215744 0.932390
O O3 0.271742 0.147486 0.803675
O O4 0.561438 0.121832 0.976999
O O5 0.390693 0.914969 0.794098
O O6 0.259128 0.956776 0.933829
O O7 0.157283 0.874160 0.811191
O O8 0.504831 0.306286 0.640120
O O9 0.250000 0.250000 0.500000
O O10 0.112637 0.212544 0.607815
O O11 0.592605 0.015775 0.370733
O O12 0.012987 0.880900 0.102014
O O13 0.000000 0.955000 0.250000
O O14 0.192058 0.956223 0.136434
O O15 0.882678 0.966398 0.005914
O O16 0.500000 0.309909 0.250000
#
# Coordination Sequence:
#
# PCOD8148779 Si02
#       8
#     8   8   4   8   4   8   8   8
#     4  12  24  46  74 104 136 183 242 281 351 424
#     4  12  29  44  73 104 142 190 233 296 350 418
#     4  12  24  44  75 100 142 175 242 290 352 418
#     4  12  22  46  73 105 132 186 234 290 342 427
#     4  12  30  46  67 102 150 179 232 300 350 414
#     4  10  23  42  71 100 136 180 235 285 343 419
#     4  11  25  45  69  99 137 189 236 283 350 417
#     4  11  26  43  71 102 140 183 226 290 356 412
#
# _framework density 21.279499000000001
#
# number of rings (size 3 to 8) (size 9 to 14) (size 15 to 20)
#    0.000    0.571    3.571    3.000   14.000    0.571 
#    1.286    0.000    0.000    0.000    0.000    0.000 
#    0.000    0.000    0.000    0.000    0.000    0.000 
#
# Total GULP energy -347152.157282 kJ/mol
# GULP energy per Si atom -12398.291331 kJ/mol
# Density = 2.123107 g / cm^3
# Si number density = 21.279499 Si / 1000 Ang^3
#
#
#
# Elastic Constant Matrix: (Units=GPa)
#
#
# Indices 1 2 3 4 5 6 
#
# 1 120.0486 42.3836 40.2231 0.0000 -8.3489 0.0000
# 2 42.3836 118.3900 45.7712 0.0000 0.3533 0.0000
# 3 40.2231 45.7712 87.9093 0.0000 6.2048 0.0000
# 4 0.0000 0.0000 0.0000 40.0287 0.0000 -7.8856
# 5 -8.3489 0.3533 6.2048 0.0000 39.4582 0.0000
# 6 0.0000 0.0000 0.0000 -7.8856 0.0000 14.3350
#
#
#
# Elastic Compliance Matrix: (Units=1/GPa)
#
#
# Indices 1 2 3 4 5 6 
#
# 1 0.010646 -0.002326 -0.003863 0.000000 0.002881 0.000000
# 2 -0.002326 0.011108 -0.004730 0.000000 0.000152 0.000000
# 3 -0.003863 -0.004730 0.015836 0.000000 -0.003265 0.000000
# 4 0.000000 0.000000 0.000000 0.028018 0.000000 0.015413
# 5 0.002881 0.000152 -0.003265 0.000000 0.026465 0.000000
# 6 0.000000 0.000000 0.000000 0.015413 0.000000 0.078238
#
#
# Mechanical properties :
#
#
# Convention : Reuss Voigt Hill
#
# Bulk Modulus (GPa) = 63.48695 64.78929 64.13812
# Shear Modulus (GPa) = 25.32936 31.96238 28.64587
#
# Velocity S-wave (km/s) = 3.45384 3.87980 3.67300
# Velocity P-wave (km/s) = 6.76793 7.11220 6.94220
#
# Compressibility (1/GPa) = 0.01575127
#
# Stress axis : x y z
#
# Youngs Moduli (GPa) = 93.93177 90.02883 63.14726
#
# Poissons Ratio (x) = 0.20943 0.24395
# Poissons Ratio (y) = 0.21851 0.29866
# Poissons Ratio (z) = 0.36288 0.42580
#
# Static dielectric constant tensor:
#      x y z
#    x 3.865110 0.000000 0.226150 
#    y 0.000000 1.853650 0.000000 
#    z 0.226150 0.000000 3.729890 
# 
# 
# High freq. dielectric constant tensor:
#      x y z
#    x 1.842410 0.000000 0.003700 
#    y 0.000000 1.845810 0.000000 
#    z 0.003700 0.000000 1.837750 
# 
# From -- ./inp_files/82720.got.cif
#   From: 2010.06.25/outbox.cif.g09.slc.cpg/sg15_42_cif.got.tgz:82720.got - 2010.06.28 07:06:18.
