data_PCOD8148966
_publ_section_title
;
Structure prediction by ZEFSAII (Michael W. Deem and Ramdas Pophale) SiO2 
 PCOD8148966
Probable space group: C 2/C
;
_chemical_formula_sum "Si O2"
_cell_formula_units_Z 64
_cell_length_a 11.001097
_cell_length_b 11.467442
_cell_length_c 24.651666
_cell_angle_alpha 90.000000
_cell_angle_beta 67.440932
_cell_angle_gamma 90.000000
_cell_volume 2871.960363
_symmetry_space_group_name_H-M "C 2/C"
_symmetry_group_IT_number 15
_symmetry_cell_setting 'monoclinic'
loop_
_space_group_symop_operation_xyz
x,y,z
-x,y,1/2-z
-x,-y,-z
x,-y,1/2+z
1/2+x,1/2+y,z
1/2-x,1/2+y,1/2-z
1/2-x,1/2-y,-z
1/2+x,1/2-y,1/2+z
loop_
_atom_site_type_symbol
_atom_site_label
_atom_site_fract_x
_atom_site_fract_y
_atom_site_fract_z
Si Si1 0.632838 0.680150 0.993009
Si Si2 0.599062 0.870541 0.631654
Si Si3 0.703737 0.776371 0.340905
Si Si4 0.762601 0.962786 0.852338
Si Si5 0.498439 0.592439 0.117577
Si Si6 0.478825 0.889279 0.540904
Si Si7 0.185814 0.278745 0.793031
Si Si8 0.733519 0.573298 0.866290
O O1 0.517620 0.769993 0.994298
O O2 0.689768 0.606429 0.933979
O O3 0.750000 0.750000 0.000000
O O4 0.570787 0.591033 0.047147
O O5 0.722890 0.787542 0.622083
O O6 0.589865 0.886106 0.568323
O O7 0.469400 0.806816 0.676599
O O8 0.629783 0.998250 0.653394
O O9 0.555796 0.723690 0.360044
O O10 0.787327 0.760790 0.272123
O O11 0.697206 0.911370 0.356743
O O12 0.666073 0.889836 0.907756
O O13 0.763913 0.898391 0.793645
O O14 0.907372 0.959088 0.852172
O O15 0.376229 0.507493 0.141244
O O16 0.500000 0.000000 0.500000
O O17 0.244075 0.184079 0.825325
#
# Coordination Sequence:
#
# PCOD8148966 Si02
#       8
#     8   8   8   8   8   8   8   8
#     4  12  21  42  68  96 141 179 223 286 340 417
#     4  10  23  43  68  99 136 178 232 281 349 411
#     4  11  26  45  68 100 140 182 235 289 347 420
#     4  11  24  43  69  98 136 177 230 286 340 417
#     4  11  25  43  66 105 137 178 232 274 356 413
#     4  11  22  41  67  99 139 183 228 278 349 411
#     4  11  24  47  69 100 135 184 234 289 353 406
#     4  11  23  43  69 102 137 178 228 289 345 421
#
# _framework density 22.284431000000001
#
# number of rings (size 3 to 8) (size 9 to 14) (size 15 to 20)
#    0.000    1.000    3.750    3.000    3.500    3.500 
#    0.000    1.875    0.000    0.000    0.000    0.000 
#    0.000    0.000    0.000    0.000    0.000    0.000 
#
# Total GULP energy -396801.821688 kJ/mol
# GULP energy per Si atom -12400.056928 kJ/mol
# Density = 2.223371 g / cm^3
# Si number density = 22.284431 Si / 1000 Ang^3
#
#
#
# Elastic Constant Matrix: (Units=GPa)
#
#
# Indices 1 2 3 4 5 6 
#
# 1 78.0784 19.0508 12.4313 0.0000 21.8442 0.0000
# 2 19.0508 104.1310 6.9866 0.0000 13.6139 0.0000
# 3 12.4313 6.9866 63.4556 0.0000 8.4714 0.0000
# 4 0.0000 0.0000 0.0000 27.6428 0.0000 4.5346
# 5 21.8442 13.6139 8.4714 0.0000 28.7367 0.0000
# 6 0.0000 0.0000 0.0000 4.5346 0.0000 38.8372
#
#
#
# Elastic Compliance Matrix: (Units=1/GPa)
#
#
# Indices 1 2 3 4 5 6 
#
# 1 0.016622 -0.001433 -0.001564 0.000000 -0.011496 0.000000
# 2 -0.001433 0.010376 -0.000365 0.000000 -0.003719 0.000000
# 3 -0.001564 -0.000365 0.016576 0.000000 -0.003525 0.000000
# 4 0.000000 0.000000 0.000000 0.036882 0.000000 -0.004306
# 5 -0.011496 -0.003719 -0.003525 0.000000 0.046338 0.000000
# 6 0.000000 0.000000 0.000000 -0.004306 0.000000 0.026251
#
#
# Mechanical properties :
#
#
# Convention : Reuss Voigt Hill
#
# Bulk Modulus (GPa) = 27.13710 35.84471 31.49090
# Shear Modulus (GPa) = 29.06059 32.85641 30.95850
#
# Velocity S-wave (km/s) = 3.61512 3.84397 3.73130
# Velocity P-wave (km/s) = 5.44330 5.98511 5.72062
#
# Compressibility (1/GPa) = 0.03684993
#
# Stress axis : x y z
#
# Youngs Moduli (GPa) = 60.15948 96.37473 60.32747
#
# Poissons Ratio (x) = 0.13813 0.09435
# Poissons Ratio (y) = 0.08622 0.02203
# Poissons Ratio (z) = 0.09409 0.03520
#
# Static dielectric constant tensor:
#      x y z
#    x 4.088730 0.000000 -0.079280 
#    y 0.000000 7.067330 0.000000 
#    z -0.079280 0.000000 8.459030 
# 
# 
# High freq. dielectric constant tensor:
#      x y z
#    x 1.878890 0.000000 0.019080 
#    y 0.000000 1.888770 0.000000 
#    z 0.019080 0.000000 1.871910 
# 
# From -- ./inp_files/268835.got.cif
#   From: 2010.06.25/outbox.cif.g09.slc.cpg/sg15_135_cif.got.tgz:268835.got - 2010.06.28 07:06:18.
