data_PCOD8148111
_publ_section_title
;
Structure prediction by ZEFSAII (Michael W. Deem and Ramdas Pophale) SiO2 
 PCOD8148111
Probable space group: C 2/C
;
_chemical_formula_sum "Si O2"
_cell_formula_units_Z 52
_cell_length_a 16.476471
_cell_length_b 8.707715
_cell_length_c 18.219528
_cell_angle_alpha 90.000000
_cell_angle_beta 87.981654
_cell_angle_gamma 90.000000
_cell_volume 2612.377935
_symmetry_space_group_name_H-M "C 2/C"
_symmetry_group_IT_number 15
_symmetry_cell_setting 'monoclinic'
loop_
_space_group_symop_operation_xyz
x,y,z
-x,y,1/2-z
-x,-y,-z
x,-y,1/2+z
1/2+x,1/2+y,z
1/2-x,1/2+y,1/2-z
1/2-x,1/2-y,-z
1/2+x,1/2-y,1/2+z
loop_
_atom_site_type_symbol
_atom_site_label
_atom_site_fract_x
_atom_site_fract_y
_atom_site_fract_z
Si Si1 0.092870 0.528912 0.487629
Si Si2 0.500000 0.950627 0.750000
Si Si3 0.280484 0.188589 0.576066
Si Si4 0.294538 0.580749 0.338309
Si Si5 0.620982 0.779503 0.854735
Si Si6 0.698242 0.478909 0.822592
Si Si7 0.867091 0.609173 0.853805
O O1 0.133678 0.394468 0.438765
O O2 0.102080 0.683496 0.440175
O O3 0.133958 0.535104 0.565634
O O4 0.000000 0.500000 0.500000
O O5 0.551951 0.839440 0.801153
O O6 0.445299 0.061925 0.803059
O O7 0.250000 0.250000 0.500000
O O8 0.299706 0.321033 0.633138
O O9 0.212401 0.069636 0.609408
O O10 0.205348 0.647349 0.326630
O O11 0.332599 0.541926 0.258830
O O12 0.357312 0.707553 0.368326
O O13 0.631377 0.595476 0.857362
O O14 0.788135 0.548895 0.814798
#
# Coordination Sequence:
#
# PCOD8148111 Si02
#       7
#     8   4   8   8   8   8   8
#     4  11  23  41  61  92 128 170 206 261 327 381
#     4  12  22  42  66  98 124 172 212 274 332 384
#     4  11  23  39  66  94 126 164 218 262 313 384
#     4  10  23  39  66  95 123 170 218 261 316 385
#     4  10  23  38  67  91 126 165 217 256 320 388
#     4  11  22  41  65  96 127 167 215 271 313 383
#     4  11  23  39  69  90 130 167 215 262 326 381
#
# _framework density 19.905235999999999
#
# number of rings (size 3 to 8) (size 9 to 14) (size 15 to 20)
#    0.000    1.231    4.615    1.846    4.308    1.846 
#    0.000    3.077    0.000    0.000    0.000    0.000 
#    0.000    0.000    0.000    0.000    0.000    0.000 
#
# Total GULP energy -322308.956476 kJ/mol
# GULP energy per Si atom -12396.498326 kJ/mol
# Density = 1.985993 g / cm^3
# Si number density = 19.905236 Si / 1000 Ang^3
#
#
#
# Elastic Constant Matrix: (Units=GPa)
#
#
# Indices 1 2 3 4 5 6 
#
# 1 76.3900 40.5572 23.2035 0.0000 -13.3972 0.0000
# 2 40.5572 147.9781 55.5188 0.0000 -17.9820 0.0000
# 3 23.2035 55.5188 119.0965 0.0000 -13.9561 0.0000
# 4 0.0000 0.0000 0.0000 35.0972 0.0000 1.1365
# 5 -13.3972 -17.9820 -13.9561 0.0000 33.6338 0.0000
# 6 0.0000 0.0000 0.0000 1.1365 0.0000 28.7630
#
#
#
# Elastic Compliance Matrix: (Units=1/GPa)
#
#
# Indices 1 2 3 4 5 6 
#
# 1 0.015971 -0.003507 -0.000999 0.000000 0.004072 0.000000
# 2 -0.003507 0.009246 -0.003375 0.000000 0.002146 0.000000
# 3 -0.000999 -0.003375 0.010413 0.000000 0.002118 0.000000
# 4 0.000000 0.000000 0.000000 0.028529 0.000000 -0.001127
# 5 0.004072 0.002146 0.002118 0.000000 0.033380 0.000000
# 6 0.000000 0.000000 0.000000 -0.001127 0.000000 0.034811
#
#
# Mechanical properties :
#
#
# Convention : Reuss Voigt Hill
#
# Bulk Modulus (GPa) = 50.33930 64.66928 57.50429
# Shear Modulus (GPa) = 32.31308 34.44447 33.37877
#
# Velocity S-wave (km/s) = 4.03345 4.16435 4.09942
# Velocity P-wave (km/s) = 6.85828 7.46200 7.16650
#
# Compressibility (1/GPa) = 0.01986520
#
# Stress axis : x y z
#
# Youngs Moduli (GPa) = 62.61536 108.15235 96.03380
#
# Poissons Ratio (x) = 0.37934 0.09597
# Poissons Ratio (y) = 0.21962 0.32416
# Poissons Ratio (z) = 0.06258 0.36507
#
# Static dielectric constant tensor:
#      x y z
#    x 3.765630 0.000000 0.294230 
#    y 0.000000 3.929740 0.000000 
#    z 0.294230 0.000000 4.181040 
# 
# 
# High freq. dielectric constant tensor:
#      x y z
#    x 1.756420 0.000000 -0.002940 
#    y 0.000000 1.780280 0.000000 
#    z -0.002940 0.000000 1.794150 
# 
# From -- ./inp_files/209074.got.cif
#   From: 2010.06.25/outbox.cif.g09.slc.cpg/sg15_105_cif.got.tgz:209074.got - 2010.06.28 07:06:18.
