data_PCOD8148497
_publ_section_title
;
Structure prediction by ZEFSAII (Michael W. Deem and Ramdas Pophale) SiO2 
 PCOD8148497
Probable space group: C 2/C
;
_chemical_formula_sum "Si O2"
_cell_formula_units_Z 48
_cell_length_a 27.053416
_cell_length_b 16.409308
_cell_length_c 9.428797
_cell_angle_alpha 90.000000
_cell_angle_beta 143.817416
_cell_angle_gamma 90.000000
_cell_volume 2471.074537
_symmetry_space_group_name_H-M "C 2/C"
_symmetry_group_IT_number 15
_symmetry_cell_setting 'monoclinic'
loop_
_space_group_symop_operation_xyz
x,y,z
-x,y,1/2-z
-x,-y,-z
x,-y,1/2+z
1/2+x,1/2+y,z
1/2-x,1/2+y,1/2-z
1/2-x,1/2-y,-z
1/2+x,1/2-y,1/2+z
loop_
_atom_site_type_symbol
_atom_site_label
_atom_site_fract_x
_atom_site_fract_y
_atom_site_fract_z
Si Si1 0.099312 0.433121 0.644671
Si Si2 0.246203 0.329674 0.080753
Si Si3 0.184373 0.759174 0.972168
Si Si4 0.094095 0.588617 0.811514
Si Si5 0.395103 0.442322 0.389576
Si Si6 0.928392 0.906522 0.788617
O O1 0.121423 0.520816 0.761935
O O2 0.118898 0.443194 0.524338
O O3 0.004910 0.400111 0.441454
O O4 0.153830 0.366701 0.854367
O O5 0.267101 0.303431 0.288233
O O6 0.310202 0.394391 0.159225
O O7 0.250000 0.250000 0.000000
O O8 0.144437 0.671936 0.910748
O O9 0.107244 0.818053 0.755947
O O10 0.250000 0.750000 0.000000
O O11 0.404329 0.443473 0.580310
O O12 0.470879 0.397957 0.480499
O O13 0.391972 0.534760 0.326412
#
# Coordination Sequence:
#
# PCOD8148497 Si02
#       6
#     8   8   8   8   8   8
#     4  10  23  41  68  89 121 164 211 252 312 367
#     4  11  23  39  62  91 116 158 206 249 300 363
#     4  11  25  40  60  91 125 159 203 254 307 356
#     4  10  23  43  65  88 124 166 205 257 310 367
#     4   9  20  36  62  85 118 151 197 236 299 355
#     4   9  20  39  60  86 117 159 192 240 299 363
#
# _framework density 19.424748000000001
#
# number of rings (size 3 to 8) (size 9 to 14) (size 15 to 20)
#    0.000    2.000    1.667    0.000    7.000    4.000 
#    0.000    0.000    0.000    0.000    0.000    0.000 
#    0.000    0.000    0.000    0.000    0.000    0.000 
#
# Total GULP energy -297524.464268 kJ/mol
# GULP energy per Si atom -12396.852678 kJ/mol
# Density = 1.938054 g / cm^3
# Si number density = 19.424748 Si / 1000 Ang^3
#
#
#
# Elastic Constant Matrix: (Units=GPa)
#
#
# Indices 1 2 3 4 5 6 
#
# 1 114.7977 74.1613 40.1225 0.0000 -6.8951 0.0000
# 2 74.1613 139.1752 62.3375 0.0000 -1.2269 0.0000
# 3 40.1225 62.3375 96.5610 0.0000 8.8690 0.0000
# 4 0.0000 0.0000 0.0000 41.6522 0.0000 1.1955
# 5 -6.8951 -1.2269 8.8690 0.0000 16.9078 0.0000
# 6 0.0000 0.0000 0.0000 1.1955 0.0000 38.7894
#
#
#
# Elastic Compliance Matrix: (Units=1/GPa)
#
#
# Indices 1 2 3 4 5 6 
#
# 1 0.014030 -0.006390 -0.002298 0.000000 0.006464 0.000000
# 2 -0.006390 0.013335 -0.006097 0.000000 0.001560 0.000000
# 3 -0.002298 -0.006097 0.016152 0.000000 -0.009852 0.000000
# 4 0.000000 0.000000 0.000000 0.024030 0.000000 -0.000741
# 5 0.006464 0.001560 -0.009852 0.000000 0.067062 0.000000
# 6 0.000000 0.000000 0.000000 -0.000741 0.000000 0.025803
#
#
# Mechanical properties :
#
#
# Convention : Reuss Voigt Hill
#
# Bulk Modulus (GPa) = 71.69936 78.19739 74.94838
# Shear Modulus (GPa) = 25.68973 31.06403 28.37688
#
# Velocity S-wave (km/s) = 3.64060 4.00334 3.82627
# Velocity P-wave (km/s) = 7.39347 7.85576 7.62812
#
# Compressibility (1/GPa) = 0.01394713
#
# Stress axis : x y z
#
# Youngs Moduli (GPa) = 71.27335 74.99275 61.91197
#
# Poissons Ratio (x) = 0.47919 0.14230
# Poissons Ratio (y) = 0.45543 0.37746
# Poissons Ratio (z) = 0.16381 0.45721
#
# Static dielectric constant tensor:
#      x y z
#    x 3.497470 0.000000 0.041520 
#    y 0.000000 3.539470 0.000000 
#    z 0.041520 0.000000 3.647980 
# 
# 
# High freq. dielectric constant tensor:
#      x y z
#    x 1.756200 0.000000 0.003600 
#    y 0.000000 1.760160 0.000000 
#    z 0.003600 0.000000 1.764040 
# 
# From -- ./inp_files/66492.got.cif
#   From: 2010.06.25/outbox.cif.g09.slc.cpg/sg15_34_cif.got.tgz:66492.got - 2010.06.28 07:06:18.
