data_PCOD8148970
_publ_section_title
;
Structure prediction by ZEFSAII (Michael W. Deem and Ramdas Pophale) SiO2 
 PCOD8148970
Probable space group: C 2/C
;
_chemical_formula_sum "Si O2"
_cell_formula_units_Z 36
_cell_length_a 28.530403
_cell_length_b 7.919371
_cell_length_c 10.345533
_cell_angle_alpha 90.000000
_cell_angle_beta 137.216249
_cell_angle_gamma 90.000000
_cell_volume 1587.707024
_symmetry_space_group_name_H-M "C 2/C"
_symmetry_group_IT_number 15
_symmetry_cell_setting 'monoclinic'
loop_
_space_group_symop_operation_xyz
x,y,z
-x,y,1/2-z
-x,-y,-z
x,-y,1/2+z
1/2+x,1/2+y,z
1/2-x,1/2+y,1/2-z
1/2-x,1/2-y,-z
1/2+x,1/2-y,1/2+z
loop_
_atom_site_type_symbol
_atom_site_label
_atom_site_fract_x
_atom_site_fract_y
_atom_site_fract_z
Si Si1 0.397020 0.275104 0.212361
Si Si2 0.812282 0.483958 0.921652
Si Si3 0.000000 0.950677 0.250000
Si Si4 0.266883 0.557110 0.498290
Si Si5 0.928871 0.274271 0.054124
O O1 0.469918 0.333433 0.301866
O O2 0.413192 0.168901 0.375459
O O3 0.349877 0.441414 0.148441
O O4 0.356652 0.154064 0.031235
O O5 0.768546 0.508683 0.703489
O O6 0.760738 0.444718 0.937293
O O7 0.864829 0.326737 0.014772
O O8 0.938032 0.070096 0.071413
O O9 0.250000 0.750000 0.500000
O O10 0.000000 0.360443 0.250000
#
# Coordination Sequence:
#
# PCOD8148970 Si02
#       5
#     8   8   4   8   8
#     4  11  24  46  68 100 145 173 241 280 345 415
#     4  11  22  44  74  99 136 186 225 293 337 410
#     4  10  26  42  68  96 144 188 218 290 344 392
#     4  10  23  43  69 101 142 171 231 291 342 405
#     4  10  24  43  67  99 139 183 233 279 343 407
#
# _framework density 22.674208
#
# number of rings (size 3 to 8) (size 9 to 14) (size 15 to 20)
#    0.667    0.889    4.444    0.667    4.667    2.667 
#    0.000    5.556    0.000    0.000    0.000    0.000 
#    0.000    0.000    0.000    0.000    0.000    0.000 
#
# Total GULP energy -223092.608827 kJ/mol
# GULP energy per Si atom -12394.033824 kJ/mol
# Density = 2.262260 g / cm^3
# Si number density = 22.674208 Si / 1000 Ang^3
#
#
#
# Elastic Constant Matrix: (Units=GPa)
#
#
# Indices 1 2 3 4 5 6 
#
# 1 190.9141 45.4640 71.7225 0.0000 -7.8821 0.0000
# 2 45.4640 53.1250 29.4156 0.0000 -4.2448 0.0000
# 3 71.7225 29.4156 164.1040 0.0000 -20.6302 0.0000
# 4 0.0000 0.0000 0.0000 34.7502 0.0000 7.0059
# 5 -7.8821 -4.2448 -20.6302 0.0000 37.0477 0.0000
# 6 0.0000 0.0000 0.0000 7.0059 0.0000 50.1405
#
#
#
# Elastic Compliance Matrix: (Units=1/GPa)
#
#
# Indices 1 2 3 4 5 6 
#
# 1 0.007284 -0.004967 -0.002333 0.000000 -0.000319 0.000000
# 2 -0.004967 0.024289 -0.002114 0.000000 0.000549 0.000000
# 3 -0.002333 -0.002114 0.007957 0.000000 0.003692 0.000000
# 4 0.000000 0.000000 0.000000 0.029611 0.000000 -0.004137
# 5 -0.000319 0.000549 0.003692 0.000000 0.029043 0.000000
# 6 0.000000 0.000000 0.000000 -0.004137 0.000000 0.020522
#
#
# Mechanical properties :
#
#
# Convention : Reuss Voigt Hill
#
# Bulk Modulus (GPa) = 48.30722 77.92746 63.11734
# Shear Modulus (GPa) = 34.61767 41.82375 38.22071
#
# Velocity S-wave (km/s) = 3.91159 4.29948 4.11012
# Velocity P-wave (km/s) = 6.46157 7.68702 7.10078
#
# Compressibility (1/GPa) = 0.02070084
#
# Stress axis : x y z
#
# Youngs Moduli (GPa) = 137.28167 41.17121 125.68337
#
# Poissons Ratio (x) = 0.20451 0.29326
# Poissons Ratio (y) = 0.68193 0.26566
# Poissons Ratio (z) = 0.32032 0.08702
#
# Static dielectric constant tensor:
#      x y z
#    x 4.624800 0.000000 0.072700 
#    y 0.000000 3.656830 0.000000 
#    z 0.072700 0.000000 4.004290 
# 
# 
# High freq. dielectric constant tensor:
#      x y z
#    x 1.910260 0.000000 0.002080 
#    y 0.000000 1.852340 0.000000 
#    z 0.002080 0.000000 1.897570 
# 
# From -- ./inp_files/59768.got.cif
#   From: 2010.06.25/outbox.cif.g09.slc.cpg/sg15_30_cif.got.tgz:59768.got - 2010.06.28 07:06:18.
