data_PCOD8148013
_publ_section_title
;
Structure prediction by ZEFSAII (Michael W. Deem and Ramdas Pophale) SiO2 
 PCOD8148013
Probable space group: C 2/C
;
_chemical_formula_sum "Si O2"
_cell_formula_units_Z 32
_cell_length_a 10.362196
_cell_length_b 17.520560
_cell_length_c 10.451100
_cell_angle_alpha 90.000000
_cell_angle_beta 138.604379
_cell_angle_gamma 90.000000
_cell_volume 1254.672710
_symmetry_space_group_name_H-M "C 2/C"
_symmetry_group_IT_number 15
_symmetry_cell_setting 'monoclinic'
loop_
_space_group_symop_operation_xyz
x,y,z
-x,y,1/2-z
-x,-y,-z
x,-y,1/2+z
1/2+x,1/2+y,z
1/2-x,1/2+y,1/2-z
1/2-x,1/2-y,-z
1/2+x,1/2-y,1/2+z
loop_
_atom_site_type_symbol
_atom_site_label
_atom_site_fract_x
_atom_site_fract_y
_atom_site_fract_z
Si Si1 0.268010 0.561419 0.153584
Si Si2 0.225613 0.450938 0.896315
Si Si3 0.992589 0.164044 0.485244
Si Si4 0.064440 0.325259 0.157861
O O1 0.247533 0.511589 0.270063
O O2 0.435503 0.625400 0.305247
O O3 0.317528 0.508454 0.068851
O O4 0.062355 0.602978 0.979266
O O5 0.352400 0.372339 0.991583
O O6 0.000000 0.431152 0.750000
O O7 0.963162 0.255064 0.459885
O O8 0.215610 0.145029 0.679888
O O9 0.000000 0.297166 0.250000
#
# Coordination Sequence:
#
# PCOD8148013 Si02
#       4
#     8   8   8   8
#     4  10  24  45  77 110 158 197 259 316 388 459
#     4  10  22  48  75 111 159 205 250 320 392 464
#     4  10  24  42  79 113 148 198 266 321 384 450
#     4  12  23  47  78 113 147 205 266 322 375 472
#
# _framework density 25.504659
#
# number of rings (size 3 to 8) (size 9 to 14) (size 15 to 20)
#    1.500    0.000    2.500    2.250    0.000    0.000 
#    4.500   11.250    0.000    0.000    0.000    0.000 
#    0.000    0.000    0.000    0.000    0.000    0.000 
#
# Total GULP energy -198298.606640 kJ/mol
# GULP energy per Si atom -12393.662915 kJ/mol
# Density = 2.544661 g / cm^3
# Si number density = 25.504659 Si / 1000 Ang^3
#
#
#
# Elastic Constant Matrix: (Units=GPa)
#
#
# Indices 1 2 3 4 5 6 
#
# 1 100.2569 57.6083 35.0809 0.0000 -20.7173 0.0000
# 2 57.6083 102.2115 42.1673 0.0000 -12.0532 0.0000
# 3 35.0809 42.1673 130.8053 0.0000 2.5496 0.0000
# 4 0.0000 0.0000 0.0000 33.5655 0.0000 -1.7141
# 5 -20.7173 -12.0532 2.5496 0.0000 54.2973 0.0000
# 6 0.0000 0.0000 0.0000 -1.7141 0.0000 53.0411
#
#
#
# Elastic Compliance Matrix: (Units=1/GPa)
#
#
# Indices 1 2 3 4 5 6 
#
# 1 0.015988 -0.007702 -0.001892 0.000000 0.004479 0.000000
# 2 -0.007702 0.015398 -0.002910 0.000000 0.000616 0.000000
# 3 -0.001892 -0.002910 0.009126 0.000000 -0.001796 0.000000
# 4 0.000000 0.000000 0.000000 0.029842 0.000000 0.000964
# 5 0.004479 0.000616 -0.001796 0.000000 0.020347 0.000000
# 6 0.000000 0.000000 0.000000 0.000964 0.000000 0.018884
#
#
# Mechanical properties :
#
#
# Convention : Reuss Voigt Hill
#
# Bulk Modulus (GPa) = 64.50648 66.99853 65.75250
# Shear Modulus (GPa) = 35.77529 41.40858 38.59193
#
# Velocity S-wave (km/s) = 3.74932 4.03373 3.89412
# Velocity P-wave (km/s) = 6.64004 6.92970 6.78642
#
# Compressibility (1/GPa) = 0.01550232
#
# Stress axis : x y z
#
# Youngs Moduli (GPa) = 62.54763 64.94378 109.58234
#
# Poissons Ratio (x) = 0.50021 0.20735
# Poissons Ratio (y) = 0.48175 0.31890
# Poissons Ratio (z) = 0.11835 0.18899
#
# Static dielectric constant tensor:
#      x y z
#    x 4.508190 0.000000 0.031650 
#    y 0.000000 4.206350 0.000000 
#    z 0.031650 0.000000 4.854250 
# 
# 
# High freq. dielectric constant tensor:
#      x y z
#    x 2.012040 0.000000 0.020400 
#    y 0.000000 2.008180 0.000000 
#    z 0.020400 0.000000 2.035330 
# 
# From -- ./inp_files/88678.got.cif
#   From: 2010.06.25/outbox.cif.g09.slc.cpg/sg15_45_cif.got.tgz:88678.got - 2010.06.28 07:06:18.
