data_PCOD8148437
_publ_section_title
;
Structure prediction by ZEFSAII (Michael W. Deem and Ramdas Pophale) SiO2 
 PCOD8148437
Probable space group: C 2/C
;
_chemical_formula_sum "Si O2"
_cell_formula_units_Z 64
_cell_length_a 24.609644
_cell_length_b 11.676428
_cell_length_c 11.551011
_cell_angle_alpha 90.000000
_cell_angle_beta 73.328558
_cell_angle_gamma 90.000000
_cell_volume 3179.693440
_symmetry_space_group_name_H-M "C 2/C"
_symmetry_group_IT_number 15
_symmetry_cell_setting 'monoclinic'
loop_
_space_group_symop_operation_xyz
x,y,z
-x,y,1/2-z
-x,-y,-z
x,-y,1/2+z
1/2+x,1/2+y,z
1/2-x,1/2+y,1/2-z
1/2-x,1/2-y,-z
1/2+x,1/2-y,1/2+z
loop_
_atom_site_type_symbol
_atom_site_label
_atom_site_fract_x
_atom_site_fract_y
_atom_site_fract_z
Si Si1 0.938251 0.257792 0.296216
Si Si2 0.266788 0.380078 0.998307
Si Si3 0.723841 0.781427 0.392167
Si Si4 0.440211 0.986675 0.736311
Si Si5 0.169069 0.866901 0.318359
Si Si6 0.398946 0.834947 0.565143
Si Si7 0.838144 0.112725 0.241319
Si Si8 0.336854 0.984290 0.967643
O O1 0.938905 0.376136 0.222825
O O2 0.931946 0.281220 0.436711
O O3 0.888752 0.181860 0.271425
O O4 0.000000 0.197187 0.250000
O O5 0.287471 0.415821 0.859557
O O6 0.217667 0.468695 0.070772
O O7 0.250000 0.250000 0.000000
O O8 0.318154 0.388385 0.055424
O O9 0.750000 0.750000 0.500000
O O10 0.773459 0.831855 0.282293
O O11 0.689910 0.677510 0.351467
O O12 0.676218 0.876499 0.443870
O O13 0.500000 0.945328 0.750000
O O14 0.437208 0.922902 0.615031
O O15 0.388143 0.950607 0.851467
O O16 0.123892 0.763967 0.335169
O O17 0.139078 0.985537 0.300371
O O18 0.347636 0.908805 0.545562
#
# Coordination Sequence:
#
# PCOD8148437 Si02
#       8
#     8   8   8   8   8   8   8   8
#     4  10  23  44  69  94 122 166 227 274 319 384
#     4  12  20  39  62  92 123 170 208 252 326 384
#     4  12  25  38  58  97 135 168 207 264 320 390
#     4  10  23  41  65  94 129 170 210 270 322 378
#     4  12  25  39  64  91 133 169 211 262 317 400
#     4  11  22  41  65  91 126 167 216 262 327 384
#     4  12  24  42  64  92 130 174 218 265 328 383
#     4  11  22  36  63  93 127 161 214 257 317 381
#
# _framework density 20.127725999999999
#
# number of rings (size 3 to 8) (size 9 to 14) (size 15 to 20)
#    0.000    0.750    5.000    3.000    1.750    5.500 
#    0.000    1.250    0.000    0.000    0.000    0.000 
#    0.000    0.000    0.000    0.000    0.000    0.000 
#
# Total GULP energy -396651.553582 kJ/mol
# GULP energy per Si atom -12395.361049 kJ/mol
# Density = 2.008191 g / cm^3
# Si number density = 20.127726 Si / 1000 Ang^3
#
#
#
# Elastic Constant Matrix: (Units=GPa)
#
#
# Indices 1 2 3 4 5 6 
#
# 1 96.8044 31.6654 42.7898 0.0000 -5.8857 0.0000
# 2 31.6654 100.5262 42.4177 0.0000 -1.8470 0.0000
# 3 42.7898 42.4177 91.5712 0.0000 2.0733 0.0000
# 4 0.0000 0.0000 0.0000 30.5097 0.0000 7.4253
# 5 -5.8857 -1.8470 2.0733 0.0000 32.0874 0.0000
# 6 0.0000 0.0000 0.0000 7.4253 0.0000 20.7766
#
#
#
# Elastic Compliance Matrix: (Units=1/GPa)
#
#
# Indices 1 2 3 4 5 6 
#
# 1 0.013555 -0.001890 -0.005520 0.000000 0.002734 0.000000
# 2 -0.001890 0.012666 -0.005000 0.000000 0.000705 0.000000
# 3 -0.005520 -0.005000 0.015869 0.000000 -0.002326 0.000000
# 4 0.000000 0.000000 0.000000 0.035899 0.000000 -0.012830
# 5 0.002734 0.000705 -0.002326 0.000000 0.031857 0.000000
# 6 0.000000 0.000000 0.000000 -0.012830 0.000000 0.052716
#
#
# Mechanical properties :
#
#
# Convention : Reuss Voigt Hill
#
# Bulk Modulus (GPa) = 57.90810 58.07195 57.99002
# Shear Modulus (GPa) = 25.88822 28.14334 27.01578
#
# Velocity S-wave (km/s) = 3.59025 3.74336 3.66760
# Velocity P-wave (km/s) = 6.78375 6.89913 6.84168
#
# Compressibility (1/GPa) = 0.01726874
#
# Stress axis : x y z
#
# Youngs Moduli (GPa) = 73.77507 78.95351 63.01739
#
# Poissons Ratio (x) = 0.14923 0.34787
# Poissons Ratio (y) = 0.13945 0.31507
# Poissons Ratio (z) = 0.40726 0.39475
#
# Static dielectric constant tensor:
#      x y z
#    x 3.650470 0.000000 0.092020 
#    y 0.000000 3.774040 0.000000 
#    z 0.092020 0.000000 3.767940 
# 
# 
# High freq. dielectric constant tensor:
#      x y z
#    x 1.773860 0.000000 0.002110 
#    y 0.000000 1.788240 0.000000 
#    z 0.002110 0.000000 1.789640 
# 
# From -- ./inp_files/117995.got.cif
#   From: 2010.06.25/outbox.cif.g09.slc.cpg/sg15_59_cif.got.tgz:117995.got - 2010.06.28 07:06:18.
