data_PCOD8148160
_publ_section_title
;
Structure prediction by ZEFSAII (Michael W. Deem and Ramdas Pophale) SiO2 
 PCOD8148160
Probable space group: C 2/C
;
_chemical_formula_sum "Si O2"
_cell_formula_units_Z 64
_cell_length_a 15.758638
_cell_length_b 14.306526
_cell_length_c 18.855848
_cell_angle_alpha 90.000000
_cell_angle_beta 47.579183
_cell_angle_gamma 90.000000
_cell_volume 3138.188577
_symmetry_space_group_name_H-M "C 2/C"
_symmetry_group_IT_number 15
_symmetry_cell_setting 'monoclinic'
loop_
_space_group_symop_operation_xyz
x,y,z
-x,y,1/2-z
-x,-y,-z
x,-y,1/2+z
1/2+x,1/2+y,z
1/2-x,1/2+y,1/2-z
1/2-x,1/2-y,-z
1/2+x,1/2-y,1/2+z
loop_
_atom_site_type_symbol
_atom_site_label
_atom_site_fract_x
_atom_site_fract_y
_atom_site_fract_z
Si Si1 0.940826 0.060661 0.713026
Si Si2 0.294764 0.101679 0.713714
Si Si3 0.637968 0.862641 0.608830
Si Si4 0.962063 0.258613 0.060914
Si Si5 0.402059 0.087326 0.208769
Si Si6 0.386105 0.324203 0.459284
Si Si7 0.309151 0.774179 0.646515
Si Si8 0.427878 0.346516 0.726334
O O1 0.804745 0.079126 0.787073
O O2 0.000000 0.102819 0.750000
O O3 0.003076 0.109790 0.611414
O O4 0.967343 0.951877 0.693803
O O5 0.404364 0.140480 0.608618
O O6 0.244366 0.174683 0.799592
O O7 0.333672 0.007523 0.731642
O O8 0.630842 0.872737 0.696737
O O9 0.541259 0.929518 0.626685
O O10 0.609626 0.756923 0.601683
O O11 0.769421 0.884975 0.512601
O O12 0.949409 0.200446 0.139179
O O13 0.097417 0.264123 0.968296
O O14 0.889789 0.213360 0.037633
O O15 0.371603 0.172707 0.174898
O O16 0.205606 0.838227 0.676218
O O17 0.500000 0.299804 0.750000
#
# Coordination Sequence:
#
# PCOD8148160 Si02
#       8
#     8   8   8   8   8   8   8   8
#     4  11  24  39  65  95 130 171 216 272 327 390
#     4  11  24  42  65  95 131 177 223 259 336 394
#     4  10  23  39  63  97 136 166 208 270 334 390
#     4  11  24  42  71  94 130 173 217 274 328 389
#     4  11  22  43  65  93 139 175 210 274 328 394
#     4  11  23  38  67 103 131 166 214 275 338 397
#     4  11  22  44  68  96 128 174 222 272 329 380
#     4  10  24  46  62  90 130 175 223 272 314 383
#
# _framework density 20.393930000000001
#
# number of rings (size 3 to 8) (size 9 to 14) (size 15 to 20)
#    0.000    1.250    3.750    1.500    7.000    2.500 
#   13.500    0.000    0.000    0.000    0.000    0.000 
#    0.000    0.000    0.000    0.000    0.000    0.000 
#
# Total GULP energy -396681.693822 kJ/mol
# GULP energy per Si atom -12396.302932 kJ/mol
# Density = 2.034751 g / cm^3
# Si number density = 20.393930 Si / 1000 Ang^3
#
#
#
# Elastic Constant Matrix: (Units=GPa)
#
#
# Indices 1 2 3 4 5 6 
#
# 1 110.5840 27.2067 59.9031 0.0000 -3.1700 0.0000
# 2 27.2067 78.3638 46.8461 0.0000 3.8009 0.0000
# 3 59.9031 46.8461 117.1181 0.0000 -18.6712 0.0000
# 4 0.0000 0.0000 0.0000 17.7272 0.0000 -7.9210
# 5 -3.1700 3.8009 -18.6712 0.0000 40.0972 0.0000
# 6 0.0000 0.0000 0.0000 -7.9210 0.0000 28.0575
#
#
#
# Elastic Compliance Matrix: (Units=1/GPa)
#
#
# Indices 1 2 3 4 5 6 
#
# 1 0.012687 -0.000296 -0.006704 0.000000 -0.002091 0.000000
# 2 -0.000296 0.017799 -0.007822 0.000000 -0.005353 0.000000
# 3 -0.006704 -0.007822 0.016343 0.000000 0.007821 0.000000
# 4 0.000000 0.000000 0.000000 0.064554 0.000000 0.018224
# 5 -0.002091 -0.005353 0.007821 0.000000 0.028924 0.000000
# 6 0.000000 0.000000 0.000000 0.018224 0.000000 0.040786
#
#
# Mechanical properties :
#
#
# Convention : Reuss Voigt Hill
#
# Bulk Modulus (GPa) = 58.18583 63.77531 60.98057
# Shear Modulus (GPa) = 23.09847 28.65040 25.87443
#
# Velocity S-wave (km/s) = 3.36909 3.75220 3.56579
# Velocity P-wave (km/s) = 6.61266 7.07895 6.84977
#
# Compressibility (1/GPa) = 0.01718631
#
# Stress axis : x y z
#
# Youngs Moduli (GPa) = 78.81798 56.18298 61.18809
#
# Poissons Ratio (x) = 0.01660 0.41023
# Poissons Ratio (y) = 0.02329 0.47859
# Poissons Ratio (z) = 0.52843 0.43944
#
# Static dielectric constant tensor:
#      x y z
#    x 4.159600 0.000000 -0.355320 
#    y 0.000000 3.552750 0.000000 
#    z -0.355320 0.000000 3.838150 
# 
# 
# High freq. dielectric constant tensor:
#      x y z
#    x 1.814580 0.000000 -0.015080 
#    y 0.000000 1.781200 0.000000 
#    z -0.015080 0.000000 1.795280 
# 
# From -- ./inp_files/205716.got.cif
#   From: 2010.06.25/outbox.cif.g09.slc.cpg/sg15_103_cif.got.tgz:205716.got - 2010.06.28 07:06:18.
