data_PCOD8148048
_publ_section_title
;
Structure prediction by ZEFSAII (Michael W. Deem and Ramdas Pophale) SiO2 
 PCOD8148048
Probable space group: C 2/C
;
_chemical_formula_sum "Si O2"
_cell_formula_units_Z 52
_cell_length_a 29.336972
_cell_length_b 20.647164
_cell_length_c 8.564379
_cell_angle_alpha 90.000000
_cell_angle_beta 148.251687
_cell_angle_gamma 90.000000
_cell_volume 2729.689457
_symmetry_space_group_name_H-M "C 2/C"
_symmetry_group_IT_number 15
_symmetry_cell_setting 'monoclinic'
loop_
_space_group_symop_operation_xyz
x,y,z
-x,y,1/2-z
-x,-y,-z
x,-y,1/2+z
1/2+x,1/2+y,z
1/2-x,1/2+y,1/2-z
1/2-x,1/2-y,-z
1/2+x,1/2-y,1/2+z
loop_
_atom_site_type_symbol
_atom_site_label
_atom_site_fract_x
_atom_site_fract_y
_atom_site_fract_z
Si Si1 0.833955 0.006295 0.161212
Si Si2 0.278565 0.593736 0.266629
Si Si3 0.666402 0.283075 0.184281
Si Si4 0.825120 0.285674 0.115150
Si Si5 0.907077 0.087571 0.103877
Si Si6 0.560493 0.673470 0.647718
Si Si7 0.500000 0.245986 0.250000
O O1 0.906027 0.966483 0.466433
O O2 0.777377 0.051796 0.106481
O O3 0.888238 0.053446 0.210931
O O4 0.769072 0.957128 0.881445
O O5 0.363731 0.637224 0.538480
O O6 0.199631 0.643268 0.018138
O O7 0.750000 0.250000 0.500000
O O8 0.593790 0.276525 0.109937
O O9 0.646901 0.252777 0.959140
O O10 0.669759 0.360677 0.162714
O O11 0.910754 0.294591 0.472862
O O12 0.750000 0.250000 0.000000
O O13 0.001080 0.120667 0.388536
O O14 0.503314 0.710993 0.605112
#
# Coordination Sequence:
#
# PCOD8148048 Si02
#       7
#     8   8   8   8   8   8   4
#     4  10  23  37  58  80 126 168 202 245 299 364
#     4  11  22  39  57  88 119 164 206 247 304 370
#     4  12  22  39  61  83 122 163 205 255 305 357
#     4  12  23  41  64  91 126 163 207 258 313 370
#     4  11  22  37  54  88 120 165 203 245 294 372
#     4  12  23  37  58  91 126 165 201 247 304 373
#     4  12  24  38  64  92 128 166 196 258 316 366
#
# _framework density 19.049785
#
# number of rings (size 3 to 8) (size 9 to 14) (size 15 to 20)
#    0.000    0.615    6.154    2.308    0.000    3.692 
#    0.000    0.000    0.000    0.923    0.000    0.000 
#    0.000    0.000    0.000    0.000    0.000    0.000 
#
# Total GULP energy -322141.872232 kJ/mol
# GULP energy per Si atom -12390.072009 kJ/mol
# Density = 1.900643 g / cm^3
# Si number density = 19.049785 Si / 1000 Ang^3
#
#
#
# Elastic Constant Matrix: (Units=GPa)
#
#
# Indices 1 2 3 4 5 6 
#
# 1 129.3355 39.4101 29.4673 0.0000 -16.2184 0.0000
# 2 39.4101 77.6531 44.9449 0.0000 7.6649 0.0000
# 3 29.4673 44.9449 118.5515 0.0000 2.3840 0.0000
# 4 0.0000 0.0000 0.0000 68.5139 0.0000 -54.4085
# 5 -16.2184 7.6649 2.3840 0.0000 23.6665 0.0000
# 6 0.0000 0.0000 0.0000 -54.4085 0.0000 110.6237
#
#
#
# Elastic Compliance Matrix: (Units=1/GPa)
#
#
# Indices 1 2 3 4 5 6 
#
# 1 0.010937 -0.006161 -0.000575 0.000000 0.009548 0.000000
# 2 -0.006161 0.020512 -0.006039 0.000000 -0.010257 0.000000
# 3 -0.000575 -0.006039 0.010858 0.000000 0.000468 0.000000
# 4 0.000000 0.000000 0.000000 0.023950 0.000000 0.011779
# 5 0.009548 -0.010257 0.000468 0.000000 0.052072 0.000000
# 6 0.000000 0.000000 0.000000 0.011779 0.000000 0.014833
#
#
# Mechanical properties :
#
#
# Convention : Reuss Voigt Hill
#
# Bulk Modulus (GPa) = 59.67122 61.46496 60.56809
# Shear Modulus (GPa) = 30.43253 54.67533 42.55393
#
# Velocity S-wave (km/s) = 4.00124 5.36317 4.73147
# Velocity P-wave (km/s) = 7.26212 8.40755 7.85574
#
# Compressibility (1/GPa) = 0.01675850
#
# Stress axis : x y z
#
# Youngs Moduli (GPa) = 91.42950 48.75186 92.09677
#
# Poissons Ratio (x) = 0.30034 0.05296
# Poissons Ratio (y) = 0.56326 0.55617
# Poissons Ratio (z) = 0.05258 0.29441
#
# Static dielectric constant tensor:
#      x y z
#    x 3.798920 0.000000 -0.356910 
#    y 0.000000 3.605550 0.000000 
#    z -0.356910 0.000000 3.514330 
# 
# 
# High freq. dielectric constant tensor:
#      x y z
#    x 1.755300 0.000000 -0.036730 
#    y 0.000000 1.732850 0.000000 
#    z -0.036730 0.000000 1.731000 
# 
# From -- ./inp_files/50571.got.cif
#   From: 2010.06.25/outbox.cif.g09.slc.cpg/sg15_26_cif.got.tgz:50571.got - 2010.06.28 07:06:18.
