data_PCOD8148942
_publ_section_title
;
Structure prediction by ZEFSAII (Michael W. Deem and Ramdas Pophale) SiO2 
 PCOD8148942
Probable space group: C 2/C
;
_chemical_formula_sum "Si O2"
_cell_formula_units_Z 28
_cell_length_a 6.377586
_cell_length_b 12.596743
_cell_length_c 18.072840
_cell_angle_alpha 90.000000
_cell_angle_beta 57.389850
_cell_angle_gamma 90.000000
_cell_volume 1223.030126
_symmetry_space_group_name_H-M "C 2/C"
_symmetry_group_IT_number 15
_symmetry_cell_setting 'monoclinic'
loop_
_space_group_symop_operation_xyz
x,y,z
-x,y,1/2-z
-x,-y,-z
x,-y,1/2+z
1/2+x,1/2+y,z
1/2-x,1/2+y,1/2-z
1/2-x,1/2-y,-z
1/2+x,1/2-y,1/2+z
loop_
_atom_site_type_symbol
_atom_site_label
_atom_site_fract_x
_atom_site_fract_y
_atom_site_fract_z
Si Si1 0.000000 0.358029 0.750000
Si Si2 0.636332 0.927568 0.033720
Si Si3 0.610261 0.493400 0.876445
Si Si4 0.197044 0.795161 0.090893
O O1 0.754815 0.432204 0.783050
O O2 0.953957 0.288727 0.831851
O O3 0.668042 0.983313 0.106923
O O4 0.467926 0.822157 0.074975
O O5 0.500000 0.000000 0.000000
O O6 0.916822 0.908696 0.949693
O O7 0.475984 0.600367 0.876717
O O8 0.250000 0.750000 0.000000
#
# Coordination Sequence:
#
# PCOD8148942 Si02
#       4
#     4   8   8   8
#     4  12  26  42  70 108 140 182 238 286 356 418
#     4   9  19  43  71  93 135 182 229 289 346 415
#     4  10  23  43  68 100 140 180 233 295 352 411
#     4  11  25  46  69 104 140 186 241 284 354 428
#
# _framework density 22.893957
#
# number of rings (size 3 to 8) (size 9 to 14) (size 15 to 20)
#    0.000    1.714    0.000    5.143    4.000    4.571 
#    0.000    5.714    0.000    0.000    0.000    0.000 
#    0.000    0.000    0.000    0.000    0.000    0.000 
#
# Total GULP energy -173467.479176 kJ/mol
# GULP energy per Si atom -12390.534227 kJ/mol
# Density = 2.284185 g / cm^3
# Si number density = 22.893957 Si / 1000 Ang^3
#
#
#
# Elastic Constant Matrix: (Units=GPa)
#
#
# Indices 1 2 3 4 5 6 
#
# 1 128.6941 52.5302 48.8911 0.0003 -12.8251 -0.0001
# 2 52.5302 143.1653 89.5195 0.0002 -28.7686 -0.0002
# 3 48.8911 89.5195 177.0625 0.0002 -28.1943 -0.0001
# 4 0.0003 0.0002 0.0002 60.0721 -0.0003 -13.5697
# 5 -12.8251 -28.7686 -28.1943 -0.0003 30.2624 0.0002
# 6 -0.0001 -0.0002 -0.0001 -13.5697 0.0002 26.2719
#
#
#
# Elastic Compliance Matrix: (Units=1/GPa)
#
#
# Indices 1 2 3 4 5 6 
#
# 1 0.009323 -0.002595 -0.001205 0.000000 0.000362 0.000000
# 2 -0.002595 0.011866 -0.004300 0.000000 0.006175 0.000000
# 3 -0.001205 -0.004300 0.008715 0.000000 0.003521 0.000000
# 4 0.000000 0.000000 0.000000 0.018845 0.000000 0.009734
# 5 0.000362 0.006175 0.003521 0.000000 0.042349 0.000000
# 6 0.000000 0.000000 0.000000 0.009734 0.000000 0.043091
#
#
# Mechanical properties :
#
#
# Convention : Reuss Voigt Hill
#
# Bulk Modulus (GPa) = 72.96050 92.31150 82.63600
# Shear Modulus (GPa) = 32.26695 40.52003 36.39349
#
# Velocity S-wave (km/s) = 3.75828 4.21158 3.99137
# Velocity P-wave (km/s) = 7.12538 8.00367 7.57726
#
# Compressibility (1/GPa) = 0.01370605
#
# Stress axis : x y z
#
# Youngs Moduli (GPa) = 107.25817 84.27145 114.74519
#
# Poissons Ratio (x) = 0.21867 0.13825
# Poissons Ratio (y) = 0.27831 0.49337
# Poissons Ratio (z) = 0.12923 0.36234
#
# Static dielectric constant tensor:
#      x y z
#    x 4.569850 0.000000 -0.481450 
#    y 0.000000 4.404140 0.000000 
#    z -0.481450 0.000000 4.260300 
# 
# 
# High freq. dielectric constant tensor:
#      x y z
#    x 1.900950 0.000000 -0.024200 
#    y 0.000000 1.908530 0.000000 
#    z -0.024200 0.000000 1.903120 
# 
# From -- ./inp_files/183651.got.cif
#   From: 2010.06.25/outbox.cif.g09.slc.cpg/sg15_92_cif.got.tgz:183651.got - 2010.06.28 07:06:18.
