data_PCOD8148560
_publ_section_title
;
Structure prediction by ZEFSAII (Michael W. Deem and Ramdas Pophale) SiO2 
 PCOD8148560
Probable space group: C 2/C
;
_chemical_formula_sum "Si O2"
_cell_formula_units_Z 60
_cell_length_a 15.639811
_cell_length_b 16.725236
_cell_length_c 12.092836
_cell_angle_alpha 90.000000
_cell_angle_beta 73.114779
_cell_angle_gamma 90.000000
_cell_volume 3026.866522
_symmetry_space_group_name_H-M "C 2/C"
_symmetry_group_IT_number 15
_symmetry_cell_setting 'monoclinic'
loop_
_space_group_symop_operation_xyz
x,y,z
-x,y,1/2-z
-x,-y,-z
x,-y,1/2+z
1/2+x,1/2+y,z
1/2-x,1/2+y,1/2-z
1/2-x,1/2-y,-z
1/2+x,1/2-y,1/2+z
loop_
_atom_site_type_symbol
_atom_site_label
_atom_site_fract_x
_atom_site_fract_y
_atom_site_fract_z
Si Si1 0.500000 0.963285 0.250000
Si Si2 0.524259 0.842674 0.052236
Si Si3 0.662379 0.267208 0.604054
Si Si4 0.394533 0.431278 0.779116
Si Si5 0.630583 0.065201 0.338202
Si Si6 0.757588 0.946140 0.405219
Si Si7 0.783741 0.877868 0.632265
Si Si8 0.825761 0.294547 0.154624
O O1 0.540236 0.909945 0.137769
O O2 0.581235 0.016125 0.262221
O O3 0.576223 0.763286 0.069690
O O4 0.421072 0.822812 0.072587
O O5 0.561598 0.875614 0.922924
O O6 0.750000 0.250000 0.500000
O O7 0.647291 0.361184 0.628789
O O8 0.669772 0.220408 0.716584
O O9 0.500000 0.436939 0.750000
O O10 0.351401 0.514998 0.833322
O O11 0.371794 0.414213 0.658761
O O12 0.705063 0.118981 0.252121
O O13 0.675423 0.005432 0.410157
O O14 0.759596 0.929250 0.534679
O O15 0.746205 0.863687 0.342036
O O16 0.798523 0.784962 0.597393
#
# Coordination Sequence:
#
# PCOD8148560 Si02
#       8
#     4   8   8   8   8   8   8   8
#     4  12  22  38  62  90 128 154 204 254 308 368
#     4  12  21  38  62  93 121 162 210 253 314 371
#     4  11  21  39  64  91 123 162 211 264 311 370
#     4  10  23  42  64  90 121 159 214 264 308 371
#     4  11  24  38  61  93 126 160 201 261 314 373
#     4  11  22  41  62  90 125 165 207 252 325 378
#     4  10  23  42  62  87 125 164 203 257 322 365
#     4  11  22  39  60  89 124 162 205 255 310 387
#
# _framework density 19.822479000000001
#
# number of rings (size 3 to 8) (size 9 to 14) (size 15 to 20)
#    0.000    1.067    2.667    5.600    1.867    3.733 
#    0.000    2.667    0.000    0.000    0.000    0.000 
#    0.000    0.000    0.000    0.000    0.000    0.000 
#
# Total GULP energy -372122.644733 kJ/mol
# GULP energy per Si atom -12404.088158 kJ/mol
# Density = 1.977736 g / cm^3
# Si number density = 19.822479 Si / 1000 Ang^3
#
#
#
# Elastic Constant Matrix: (Units=GPa)
#
#
# Indices 1 2 3 4 5 6 
#
# 1 134.2153 68.1513 52.6700 0.0000 -9.1343 0.0000
# 2 68.1513 128.0377 53.9704 0.0000 1.0546 0.0000
# 3 52.6700 53.9704 88.3639 0.0000 -4.7015 0.0000
# 4 0.0000 0.0000 0.0000 -6.0970 0.0000 0.9427
# 5 -9.1343 1.0546 -4.7015 0.0000 26.1267 0.0000
# 6 0.0000 0.0000 0.0000 0.9427 0.0000 35.3452
#
#
#
# Elastic Compliance Matrix: (Units=1/GPa)
#
#
# Indices 1 2 3 4 5 6 
#
# 1 0.011517 -0.004503 -0.003928 0.000000 0.003502 0.000000
# 2 -0.004503 0.012345 -0.005014 0.000000 -0.002975 0.000000
# 3 -0.003928 -0.005014 0.016819 0.000000 0.001856 0.000000
# 4 0.000000 0.000000 0.000000 -0.163342 0.000000 0.004356
# 5 0.003502 -0.002975 0.001856 0.000000 0.039953 0.000000
# 6 0.000000 0.000000 0.000000 0.004356 0.000000 0.028176
#
#
# Mechanical properties :
#
#
# Convention : Reuss Voigt Hill
#
# Bulk Modulus (GPa) = 72.51281 77.80005 75.15643
# Shear Modulus (GPa) = -216.99550 22.79664 -97.09943
#
# Velocity S-wave (km/s) = -10.47411 3.39490 -7.00649
# Velocity P-wave (km/s) = 10.46974 7.39600 5.23998
#
# Compressibility (1/GPa) = 0.01379067
#
# Stress axis : x y z
#
# Youngs Moduli (GPa) = 86.82638 81.00202 59.45485
#
# Poissons Ratio (x) = 0.36479 0.23354
# Poissons Ratio (y) = 0.39102 0.29812
# Poissons Ratio (z) = 0.34106 0.40616
#
# Static dielectric constant tensor:
#      x y z
#    x 3.776220 0.000000 0.138920 
#    y 0.000000 3.780860 0.000000 
#    z 0.138920 0.000000 3.463770 
# 
# 
# High freq. dielectric constant tensor:
#      x y z
#    x 1.780660 0.000000 0.005470 
#    y 0.000000 1.779700 0.000000 
#    z 0.005470 0.000000 1.763510 
# 
# From -- ./inp_files/98736.got.cif
#   From: 2010.06.25/outbox.cif.g09.slc.cpg/sg15_50_cif.got.tgz:98736.got - 2010.06.28 07:06:18.
