data_PCOD8148514
_publ_section_title
;
Structure prediction by ZEFSAII (Michael W. Deem and Ramdas Pophale) SiO2 
 PCOD8148514
Probable space group: C 2/C
;
_chemical_formula_sum "Si O2"
_cell_formula_units_Z 44
_cell_length_a 18.542343
_cell_length_b 18.031700
_cell_length_c 5.184475
_cell_angle_alpha 90.000000
_cell_angle_beta 110.497916
_cell_angle_gamma 90.000000
_cell_volume 1623.676854
_symmetry_space_group_name_H-M "C 2/C"
_symmetry_group_IT_number 15
_symmetry_cell_setting 'monoclinic'
loop_
_space_group_symop_operation_xyz
x,y,z
-x,y,1/2-z
-x,-y,-z
x,-y,1/2+z
1/2+x,1/2+y,z
1/2-x,1/2+y,1/2-z
1/2-x,1/2-y,-z
1/2+x,1/2-y,1/2+z
loop_
_atom_site_type_symbol
_atom_site_label
_atom_site_fract_x
_atom_site_fract_y
_atom_site_fract_z
Si Si1 0.426433 0.335860 0.344620
Si Si2 0.134128 0.299497 0.474312
Si Si3 0.500000 0.449830 0.750000
Si Si4 0.708690 0.461312 0.999047
Si Si5 0.799852 0.817515 0.794906
Si Si6 0.888411 0.462499 0.197425
O O1 0.500000 0.348045 0.250000
O O2 0.428065 0.251926 0.456877
O O3 0.429372 0.392917 0.596393
O O4 0.346672 0.350973 0.094487
O O5 0.163262 0.259891 0.248716
O O6 0.209274 0.309312 0.756898
O O7 0.094590 0.376485 0.346144
O O8 0.500000 0.500000 0.500000
O O9 0.669895 0.506965 0.711652
O O10 0.697184 0.373400 0.946117
O O11 0.798603 0.480292 0.113204
O O12 0.926017 0.487939 0.515447
#
# Coordination Sequence:
#
# PCOD8148514 Si02
#       6
#     8   8   4   8   8   8
#     4  12  26  47  73 104 146 203 252 313 386 449
#     4  10  23  42  70 108 149 187 252 315 387 464
#     4  12  28  54  78 106 150 210 274 318 356 448
#     4   9  19  35  57  92 135 181 226 284 357 433
#     4  10  23  41  69 106 144 191 251 319 383 447
#     4   9  19  37  63  96 138 179 221 284 367 444
#
# _framework density 27.098990000000001
#
# number of rings (size 3 to 8) (size 9 to 14) (size 15 to 20)
#    0.000    1.818    0.909    1.636    5.091    1.455 
#    0.000    0.000    0.000    1.091    0.000    0.000 
#    0.000    0.000    0.000    0.000    0.000    0.000 
#
# Total GULP energy -272664.478203 kJ/mol
# GULP energy per Si atom -12393.839918 kJ/mol
# Density = 2.703731 g / cm^3
# Si number density = 27.098990 Si / 1000 Ang^3
#
#
#
# Elastic Constant Matrix: (Units=GPa)
#
#
# Indices 1 2 3 4 5 6 
#
# 1 61.3828 11.6599 13.5675 0.0000 -2.4174 0.0000
# 2 11.6599 175.8464 61.0158 0.0000 -15.5858 0.0000
# 3 13.5675 61.0158 165.4295 0.0000 -15.2520 0.0000
# 4 0.0000 0.0000 0.0000 37.5829 0.0000 -23.9204
# 5 -2.4174 -15.5858 -15.2520 0.0000 29.7381 0.0000
# 6 0.0000 0.0000 0.0000 -23.9204 0.0000 10.5713
#
#
#
# Elastic Compliance Matrix: (Units=1/GPa)
#
#
# Indices 1 2 3 4 5 6 
#
# 1 0.016677 -0.000695 -0.001071 0.000000 0.000442 0.000000
# 2 -0.000695 0.006703 -0.002201 0.000000 0.002328 0.000000
# 3 -0.001071 -0.002201 0.007169 0.000000 0.002436 0.000000
# 4 0.000000 0.000000 0.000000 -0.060446 0.000000 -0.136777
# 5 0.000442 0.002328 0.002436 0.000000 0.036133 0.000000
# 6 0.000000 0.000000 0.000000 -0.136777 0.000000 -0.214899
#
#
# Mechanical properties :
#
#
# Convention : Reuss Voigt Hill
#
# Bulk Modulus (GPa) = 44.21574 63.90500 54.06037
# Shear Modulus (GPa) = -25.88095 36.67281 5.39593
#
# Velocity S-wave (km/s) = -3.09374 3.68270 1.41263
# Velocity P-wave (km/s) = 1.89476 6.45882 4.75954
#
# Compressibility (1/GPa) = 0.02261638
#
# Stress axis : x y z
#
# Youngs Moduli (GPa) = 59.96171 149.19240 139.49048
#
# Poissons Ratio (x) = 0.10371 0.14934
# Poissons Ratio (y) = 0.04168 0.30696
# Poissons Ratio (z) = 0.06420 0.32831
#
# Static dielectric constant tensor:
#      x y z
#    x 4.570060 0.000000 0.159660 
#    y 0.000000 5.074280 0.000000 
#    z 0.159660 0.000000 5.189530 
# 
# 
# High freq. dielectric constant tensor:
#      x y z
#    x 2.072930 0.000000 -0.000920 
#    y 0.000000 2.100310 0.000000 
#    z -0.000920 0.000000 2.093370 
# 
# From -- ./inp_files/12979.got.cif
#   From: 2010.06.25/outbox.cif.g09.slc.cpg/sg15_7_cif.got.tgz:12979.got - 2010.06.28 07:06:18.
