data_PCOD8148182
_publ_section_title
;
Structure prediction by ZEFSAII (Michael W. Deem and Ramdas Pophale) SiO2 
 PCOD8148182
Probable space group: C 2/C
;
_chemical_formula_sum "Si O2"
_cell_formula_units_Z 44
_cell_length_a 6.850498
_cell_length_b 12.730239
_cell_length_c 23.093927
_cell_angle_alpha 90.000000
_cell_angle_beta 101.818383
_cell_angle_gamma 90.000000
_cell_volume 1971.293168
_symmetry_space_group_name_H-M "C 2/C"
_symmetry_group_IT_number 15
_symmetry_cell_setting 'monoclinic'
loop_
_space_group_symop_operation_xyz
x,y,z
-x,y,1/2-z
-x,-y,-z
x,-y,1/2+z
1/2+x,1/2+y,z
1/2-x,1/2+y,1/2-z
1/2-x,1/2-y,-z
1/2+x,1/2-y,1/2+z
loop_
_atom_site_type_symbol
_atom_site_label
_atom_site_fract_x
_atom_site_fract_y
_atom_site_fract_z
Si Si1 0.738833 0.267163 0.155580
Si Si2 0.581675 0.614779 0.196661
Si Si3 0.000000 0.701402 0.250000
Si Si4 0.132080 0.667046 0.032240
Si Si5 0.245795 0.063992 0.991654
Si Si6 0.377834 0.470085 0.402816
O O1 0.959235 0.224198 0.183220
O O2 0.594751 0.269301 0.203347
O O3 0.634101 0.198412 0.099366
O O4 0.770957 0.386335 0.135510
O O5 0.500000 0.559230 0.250000
O O6 0.820331 0.630795 0.213278
O O7 0.521571 0.540450 0.140275
O O8 0.908263 0.655657 0.992024
O O9 0.250000 0.750000 0.000000
O O10 0.215902 0.549184 0.034707
O O11 0.040168 0.100138 0.948870
O O12 0.233085 0.048142 0.060105
#
# Coordination Sequence:
#
# PCOD8148182 Si02
#       6
#     8   8   4   8   8   8
#     4  11  23  41  67  95 134 174 223 270 331 394
#     4  10  23  45  65  91 132 169 224 283 327 395
#     4  10  24  46  64  94 124 178 222 278 336 384
#     4  11  21  41  63  97 136 175 214 272 331 394
#     4  10  23  39  65  99 138 170 220 266 334 406
#     4  11  22  42  65 101 129 175 221 270 337 402
#
# _framework density 22.320373
#
# number of rings (size 3 to 8) (size 9 to 14) (size 15 to 20)
#    0.000    1.455    3.636    1.091    1.273    2.182 
#    4.909    0.000    0.000    0.000    0.000    0.000 
#    0.000    0.000    0.000    0.000    0.000    0.000 
#
# Total GULP energy -272683.194438 kJ/mol
# GULP energy per Si atom -12394.690656 kJ/mol
# Density = 2.226957 g / cm^3
# Si number density = 22.320373 Si / 1000 Ang^3
#
#
#
# Elastic Constant Matrix: (Units=GPa)
#
#
# Indices 1 2 3 4 5 6 
#
# 1 131.2393 41.0202 44.2076 0.0000 6.0400 0.0000
# 2 41.0202 72.9949 50.5215 0.0000 -5.5571 0.0000
# 3 44.2076 50.5215 148.5951 0.0000 -18.6832 0.0000
# 4 0.0000 0.0000 0.0000 26.8441 0.0000 2.0144
# 5 6.0400 -5.5571 -18.6832 0.0000 32.6162 0.0000
# 6 0.0000 0.0000 0.0000 2.0144 0.0000 38.9833
#
#
#
# Elastic Compliance Matrix: (Units=1/GPa)
#
#
# Indices 1 2 3 4 5 6 
#
# 1 0.009821 -0.004521 -0.001843 0.000000 -0.003645 0.000000
# 2 -0.004521 0.020003 -0.005304 0.000000 0.001207 0.000000
# 3 -0.001843 -0.005304 0.009710 0.000000 0.005000 0.000000
# 4 0.000000 0.000000 0.000000 0.037397 0.000000 -0.001932
# 5 -0.003645 0.001207 0.005000 0.000000 0.034404 0.000000
# 6 0.000000 0.000000 0.000000 -0.001932 0.000000 0.025752
#
#
# Mechanical properties :
#
#
# Convention : Reuss Voigt Hill
#
# Bulk Modulus (GPa) = 61.73578 69.36976 65.55277
# Shear Modulus (GPa) = 30.15252 34.16074 32.15663
#
# Velocity S-wave (km/s) = 3.67944 3.91637 3.79975
# Velocity P-wave (km/s) = 6.76536 7.18312 6.97737
#
# Compressibility (1/GPa) = 0.01619806
#
# Stress axis : x y z
#
# Youngs Moduli (GPa) = 101.81929 49.99171 102.98633
#
# Poissons Ratio (x) = 0.22602 0.18980
# Poissons Ratio (y) = 0.46033 0.54626
# Poissons Ratio (z) = 0.18765 0.26517
#
# Static dielectric constant tensor:
#      x y z
#    x 4.140060 0.000000 0.014870 
#    y 0.000000 3.706110 0.000000 
#    z 0.014870 0.000000 4.276390 
# 
# 
# High freq. dielectric constant tensor:
#      x y z
#    x 1.876350 0.000000 -0.001900 
#    y 0.000000 1.860110 0.000000 
#    z -0.001900 0.000000 1.898060 
# 
# From -- ./inp_files/230262.got.cif
#   From: 2010.06.25/outbox.cif.g09.slc.cpg/sg15_116_cif.got.tgz:230262.got - 2010.06.28 07:06:18.
