data_PCOD8148618
_publ_section_title
;
Structure prediction by ZEFSAII (Michael W. Deem and Ramdas Pophale) SiO2 
 PCOD8148618
Probable space group: C 2/C
;
_chemical_formula_sum "Si O2"
_cell_formula_units_Z 56
_cell_length_a 12.190185
_cell_length_b 20.614080
_cell_length_c 11.651583
_cell_angle_alpha 90.000000
_cell_angle_beta 67.225989
_cell_angle_gamma 90.000000
_cell_volume 2699.655815
_symmetry_space_group_name_H-M "C 2/C"
_symmetry_group_IT_number 15
_symmetry_cell_setting 'monoclinic'
loop_
_space_group_symop_operation_xyz
x,y,z
-x,y,1/2-z
-x,-y,-z
x,-y,1/2+z
1/2+x,1/2+y,z
1/2-x,1/2+y,1/2-z
1/2-x,1/2-y,-z
1/2+x,1/2-y,1/2+z
loop_
_atom_site_type_symbol
_atom_site_label
_atom_site_fract_x
_atom_site_fract_y
_atom_site_fract_z
Si Si1 0.920693 0.835255 0.891242
Si Si2 0.229866 0.573897 0.979433
Si Si3 0.429905 0.741736 0.607892
Si Si4 0.579565 0.443419 0.916575
Si Si5 0.735795 0.560034 0.150725
Si Si6 0.524795 0.116961 0.369203
Si Si7 0.671353 0.293469 0.118378
O O1 0.802503 0.872962 0.896552
O O2 0.000000 0.809291 0.750000
O O3 0.997008 0.881881 0.939745
O O4 0.883633 0.781214 0.000668
O O5 0.255577 0.500644 0.934929
O O6 0.276514 0.633914 0.883228
O O7 0.301294 0.580222 0.068261
O O8 0.088120 0.576983 0.042316
O O9 0.461680 0.816199 0.567944
O O10 0.331466 0.737053 0.750921
O O11 0.542606 0.701960 0.610807
O O12 0.627669 0.464315 0.773588
O O13 0.500000 0.500000 0.000000
O O14 0.860106 0.571557 0.165018
O O15 0.500000 0.138317 0.250000
O O16 0.750000 0.250000 0.000000
#
# Coordination Sequence:
#
# PCOD8148618 Si02
#       7
#     8   8   8   8   8   8   8
#     4  10  23  42  65 101 135 176 221 281 352 402
#     4  12  23  39  70  96 132 170 225 279 329 406
#     4  11  23  40  72  99 133 175 232 281 340 396
#     4  11  22  38  65  94 134 168 216 275 343 401
#     4  11  26  41  65  97 138 180 217 276 348 408
#     4  12  23  45  67  95 131 186 225 269 337 413
#     4  11  22  38  66 106 128 167 229 290 328 389
#
# _framework density 20.743386000000001
#
# number of rings (size 3 to 8) (size 9 to 14) (size 15 to 20)
#    0.000    0.857    7.143    0.429    2.000    0.571 
#    0.000    0.000    3.143    0.000    0.000    0.000 
#    0.000    0.000    0.000    0.000    0.000    0.000 
#
# Total GULP energy -346948.131883 kJ/mol
# GULP energy per Si atom -12391.004710 kJ/mol
# Density = 2.069617 g / cm^3
# Si number density = 20.743386 Si / 1000 Ang^3
#
#
#
# Elastic Constant Matrix: (Units=GPa)
#
#
# Indices 1 2 3 4 5 6 
#
# 1 98.2123 16.5865 24.5658 0.0000 -6.2037 0.0000
# 2 16.5865 44.6836 30.3010 0.0000 -1.5566 0.0000
# 3 24.5658 30.3010 118.3716 0.0000 -0.9636 0.0000
# 4 0.0000 0.0000 0.0000 32.1489 0.0000 1.9826
# 5 -6.2037 -1.5566 -0.9636 0.0000 29.8208 0.0000
# 6 0.0000 0.0000 0.0000 1.9826 0.0000 30.1640
#
#
#
# Elastic Compliance Matrix: (Units=1/GPa)
#
#
# Indices 1 2 3 4 5 6 
#
# 1 0.011214 -0.003052 -0.001529 0.000000 0.002124 0.000000
# 2 -0.003052 0.027953 -0.006517 0.000000 0.000614 0.000000
# 3 -0.001529 -0.006517 0.010431 0.000000 -0.000321 0.000000
# 4 0.000000 0.000000 0.000000 0.031232 0.000000 -0.002053
# 5 0.002124 0.000614 -0.000321 0.000000 0.033997 0.000000
# 6 0.000000 0.000000 0.000000 -0.002053 0.000000 0.033287
#
#
# Mechanical properties :
#
#
# Convention : Reuss Voigt Hill
#
# Bulk Modulus (GPa) = 36.49303 44.90824 40.70064
# Shear Modulus (GPa) = 27.86382 31.08102 29.47242
#
# Velocity S-wave (km/s) = 3.66903 3.87506 3.77345
# Velocity P-wave (km/s) = 5.96489 6.45894 6.21682
#
# Compressibility (1/GPa) = 0.02740249
#
# Stress axis : x y z
#
# Youngs Moduli (GPa) = 89.17425 35.77392 95.86904
#
# Poissons Ratio (x) = 0.10918 0.14656
# Poissons Ratio (y) = 0.27216 0.62480
# Poissons Ratio (z) = 0.13632 0.23315
#
# Static dielectric constant tensor:
#      x y z
#    x 4.157480 0.000000 -0.138370 
#    y 0.000000 3.640660 0.000000 
#    z -0.138370 0.000000 3.999080 
# 
# 
# High freq. dielectric constant tensor:
#      x y z
#    x 1.815360 0.000000 -0.005280 
#    y 0.000000 1.807480 0.000000 
#    z -0.005280 0.000000 1.806550 
# 
# From -- ./inp_files/89560.got.cif
#   From: 2010.06.25/outbox.cif.g09.slc.cpg/sg15_45_cif.got.tgz:89560.got - 2010.06.28 07:06:18.
