data_PCOD8148065
_publ_section_title
;
Structure prediction by ZEFSAII (Michael W. Deem and Ramdas Pophale) SiO2 
 PCOD8148065
Probable space group: C 2/C
;
_chemical_formula_sum "Si O2"
_cell_formula_units_Z 48
_cell_length_a 12.042838
_cell_length_b 12.009091
_cell_length_c 16.484241
_cell_angle_alpha 90.000000
_cell_angle_beta 105.599862
_cell_angle_gamma 90.000000
_cell_volume 2296.190008
_symmetry_space_group_name_H-M "C 2/C"
_symmetry_group_IT_number 15
_symmetry_cell_setting 'monoclinic'
loop_
_space_group_symop_operation_xyz
x,y,z
-x,y,1/2-z
-x,-y,-z
x,-y,1/2+z
1/2+x,1/2+y,z
1/2-x,1/2+y,1/2-z
1/2-x,1/2-y,-z
1/2+x,1/2-y,1/2+z
loop_
_atom_site_type_symbol
_atom_site_label
_atom_site_fract_x
_atom_site_fract_y
_atom_site_fract_z
Si Si1 0.997348 0.609680 0.054285
Si Si2 0.804383 0.319873 0.633624
Si Si3 0.115928 0.488331 0.727420
Si Si4 0.334773 0.399714 0.228003
Si Si5 0.947820 0.824609 0.967201
Si Si6 0.523420 0.519672 0.879100
O O1 0.872440 0.641265 0.066593
O O2 0.084916 0.591526 0.145793
O O3 0.028248 0.717161 0.004418
O O4 0.000000 0.500000 0.000000
O O5 0.802046 0.422170 0.695285
O O6 0.865895 0.218757 0.693606
O O7 0.677225 0.282238 0.584701
O O8 0.196637 0.590385 0.714426
O O9 0.000000 0.531826 0.750000
O O10 0.380352 0.491116 0.172155
O O11 0.406169 0.420057 0.324591
O O12 0.927719 0.904890 0.039351
O O13 0.005251 0.893485 0.905519
#
# Coordination Sequence:
#
# PCOD8148065 Si02
#       6
#     8   8   8   8   8   8
#     4  11  23  38  64  95 129 167 217 265 319 378
#     4  11  22  39  67  90 126 173 216 258 326 387
#     4  10  23  41  60  93 126 164 214 267 319 378
#     4  11  21  43  65  94 121 179 212 263 317 400
#     4  11  21  41  61 100 125 168 211 275 314 382
#     4  10  23  37  70  92 132 160 225 256 321 380
#
# _framework density 20.904192999999999
#
# number of rings (size 3 to 8) (size 9 to 14) (size 15 to 20)
#    0.000    1.333    3.333    2.500    7.000    0.000 
#    0.000    5.833    3.667    0.000    0.000    0.000 
#    0.000    0.000    0.000    0.000    0.000    0.000 
#
# Total GULP energy -297520.553799 kJ/mol
# GULP energy per Si atom -12396.689742 kJ/mol
# Density = 2.085661 g / cm^3
# Si number density = 20.904193 Si / 1000 Ang^3
#
#
#
# Elastic Constant Matrix: (Units=GPa)
#
#
# Indices 1 2 3 4 5 6 
#
# 1 102.0129 33.9093 29.2269 0.0000 -0.8973 0.0000
# 2 33.9093 109.1061 31.7440 0.0000 -15.2407 0.0000
# 3 29.2269 31.7440 88.9017 0.0000 -6.2178 0.0000
# 4 0.0000 0.0000 0.0000 38.0423 0.0000 -4.5792
# 5 -0.8973 -15.2407 -6.2178 0.0000 25.5737 0.0000
# 6 0.0000 0.0000 0.0000 -4.5792 0.0000 25.1376
#
#
#
# Elastic Compliance Matrix: (Units=1/GPa)
#
#
# Indices 1 2 3 4 5 6 
#
# 1 0.011629 -0.003075 -0.002874 0.000000 -0.002123 0.000000
# 2 -0.003075 0.011799 -0.002765 0.000000 0.006251 0.000000
# 3 -0.002874 -0.002765 0.013284 0.000000 0.001481 0.000000
# 4 0.000000 0.000000 0.000000 0.026876 0.000000 0.004896
# 5 -0.002123 0.006251 0.001481 0.000000 0.043114 0.000000
# 6 0.000000 0.000000 0.000000 0.004896 0.000000 0.040673
#
#
# Mechanical properties :
#
#
# Convention : Reuss Voigt Hill
#
# Bulk Modulus (GPa) = 51.85330 54.42012 53.13671
# Shear Modulus (GPa) = 29.20051 31.42677 30.31364
#
# Velocity S-wave (km/s) = 3.74153 3.88154 3.81218
# Velocity P-wave (km/s) = 6.59731 6.79545 6.69711
#
# Compressibility (1/GPa) = 0.01928517
#
# Stress axis : x y z
#
# Youngs Moduli (GPa) = 85.98886 84.75540 75.27851
#
# Poissons Ratio (x) = 0.26060 0.21634
# Poissons Ratio (y) = 0.26440 0.20814
# Poissons Ratio (z) = 0.24712 0.23434
#
# Static dielectric constant tensor:
#      x y z
#    x 3.563610 0.000000 -0.126220 
#    y 0.000000 3.721290 0.000000 
#    z -0.126220 0.000000 4.089320 
# 
# 
# High freq. dielectric constant tensor:
#      x y z
#    x 1.795040 0.000000 0.001360 
#    y 0.000000 1.805470 0.000000 
#    z 0.001360 0.000000 1.843050 
# 
# From -- ./inp_files/196568.got.cif
#   From: 2010.06.25/outbox.cif.g09.slc.cpg/sg15_99_cif.got.tgz:196568.got - 2010.06.28 07:06:18.
