data_PCOD8148043
_publ_section_title
;
Structure prediction by ZEFSAII (Michael W. Deem and Ramdas Pophale) SiO2 
 PCOD8148043
Probable space group: C 2/C
;
_chemical_formula_sum "Si O2"
_cell_formula_units_Z 56
_cell_length_a 8.872772
_cell_length_b 14.544954
_cell_length_c 21.975021
_cell_angle_alpha 90.000000
_cell_angle_beta 120.356049
_cell_angle_gamma 90.000000
_cell_volume 2447.159301
_symmetry_space_group_name_H-M "C 2/C"
_symmetry_group_IT_number 15
_symmetry_cell_setting 'monoclinic'
loop_
_space_group_symop_operation_xyz
x,y,z
-x,y,1/2-z
-x,-y,-z
x,-y,1/2+z
1/2+x,1/2+y,z
1/2-x,1/2+y,1/2-z
1/2-x,1/2-y,-z
1/2+x,1/2-y,1/2+z
loop_
_atom_site_type_symbol
_atom_site_label
_atom_site_fract_x
_atom_site_fract_y
_atom_site_fract_z
Si Si1 0.467126 0.861156 0.937883
Si Si2 0.906444 0.884123 0.526259
Si Si3 0.925348 0.309181 0.065595
Si Si4 0.500000 0.906696 0.250000
Si Si5 0.861304 0.812352 0.342012
Si Si6 0.647280 0.036524 0.658547
Si Si7 0.148947 0.918385 0.472907
Si Si8 0.500000 0.615135 0.750000
O O1 0.396943 0.790271 0.873130
O O2 0.422398 0.961726 0.902899
O O3 0.384980 0.834554 0.985821
O O4 0.675097 0.858628 0.993699
O O5 0.955959 0.799810 0.581897
O O6 0.763682 0.844071 0.447019
O O7 0.084817 0.913615 0.529716
O O8 0.823905 0.974804 0.541400
O O9 0.087790 0.361936 0.125355
O O10 0.657115 0.842098 0.308000
O O11 0.427071 0.974860 0.287967
O O12 0.997648 0.881048 0.399919
O O13 0.910208 0.817871 0.280734
O O14 0.855225 0.042741 0.696081
#
# Coordination Sequence:
#
# PCOD8148043 Si02
#       8
#     8   8   8   4   8   8   8   4
#     4  12  25  38  69  99 131 162 204 277 335 370
#     4  10  23  36  65  97 132 159 200 243 351 372
#     4  11  22  42  63 105 125 166 200 273 329 383
#     4  10  26  48  64  82 126 192 216 254 300 382
#     4  11  24  45  65  92 131 168 221 261 311 393
#     4  11  24  45  65  92 131 168 221 261 311 393
#     4  11  22  42  63 105 125 166 200 273 329 383
#     4  10  26  44  64  86 124 182 220 262 308 362
#
# _framework density 22.883676000000001
#
# number of rings (size 3 to 8) (size 9 to 14) (size 15 to 20)
#    0.000    1.143    2.857    2.571    8.000    1.143 
#    0.000    5.714    0.000    0.000    0.000    0.000 
#    0.000    0.000    0.000    0.000    0.000    0.000 
#
# Total GULP energy -346982.318547 kJ/mol
# GULP energy per Si atom -12392.225662 kJ/mol
# Density = 2.283159 g / cm^3
# Si number density = 22.883676 Si / 1000 Ang^3
#
#
#
# Elastic Constant Matrix: (Units=GPa)
#
#
# Indices 1 2 3 4 5 6 
#
# 1 78.7131 8.3014 12.4503 0.0000 25.0198 0.0000
# 2 8.3014 106.0955 13.1592 0.0000 18.0991 0.0000
# 3 12.4503 13.1592 76.1728 0.0000 27.5929 0.0000
# 4 0.0000 0.0000 0.0000 35.5420 0.0000 4.9723
# 5 25.0198 18.0991 27.5929 0.0000 45.2922 0.0000
# 6 0.0000 0.0000 0.0000 4.9723 0.0000 21.6513
#
#
#
# Elastic Compliance Matrix: (Units=1/GPa)
#
#
# Indices 1 2 3 4 5 6 
#
# 1 0.015448 0.000250 0.000718 0.000000 -0.009070 0.000000
# 2 0.000250 0.010127 -0.000352 0.000000 -0.003970 0.000000
# 3 0.000718 -0.000352 0.016892 0.000000 -0.010547 0.000000
# 4 0.000000 0.000000 0.000000 0.029070 0.000000 -0.006676
# 5 -0.009070 -0.003970 -0.010547 0.000000 0.035101 0.000000
# 6 0.000000 0.000000 0.000000 -0.006676 0.000000 0.047720
#
#
# Mechanical properties :
#
#
# Convention : Reuss Voigt Hill
#
# Bulk Modulus (GPa) = 22.88491 36.53367 29.70929
# Shear Modulus (GPa) = 29.81650 35.63514 32.72582
#
# Velocity S-wave (km/s) = 3.61357 3.95046 3.78576
# Velocity P-wave (km/s) = 5.23763 6.06694 5.66747
#
# Compressibility (1/GPa) = 0.04369692
#
# Stress axis : x y z
#
# Youngs Moduli (GPa) = 64.73490 98.74693 59.19955
#
# Poissons Ratio (x) = -0.02465 -0.04248
# Poissons Ratio (y) = -0.01616 0.02084
# Poissons Ratio (z) = -0.04646 0.03477
#
# Static dielectric constant tensor:
#      x y z
#    x 4.522490 0.000000 -0.083900 
#    y 0.000000 4.051800 0.000000 
#    z -0.083900 0.000000 4.029860 
# 
# 
# High freq. dielectric constant tensor:
#      x y z
#    x 1.931720 0.000000 0.005260 
#    y 0.000000 1.895190 0.000000 
#    z 0.005260 0.000000 1.887280 
# 
# From -- ./inp_files/264854.got.cif
#   From: 2010.06.25/outbox.cif.g09.slc.cpg/sg15_133_cif.got.tgz:264854.got - 2010.06.28 07:06:18.
