data_PCOD8148919
_publ_section_title
;
Structure prediction by ZEFSAII (Michael W. Deem and Ramdas Pophale) SiO2 
 PCOD8148919
Probable space group: C 2/C
;
_chemical_formula_sum "Si O2"
_cell_formula_units_Z 52
_cell_length_a 15.257107
_cell_length_b 15.928789
_cell_length_c 11.510777
_cell_angle_alpha 90.000000
_cell_angle_beta 65.890631
_cell_angle_gamma 90.000000
_cell_volume 2553.405032
_symmetry_space_group_name_H-M "C 2/C"
_symmetry_group_IT_number 15
_symmetry_cell_setting 'monoclinic'
loop_
_space_group_symop_operation_xyz
x,y,z
-x,y,1/2-z
-x,-y,-z
x,-y,1/2+z
1/2+x,1/2+y,z
1/2-x,1/2+y,1/2-z
1/2-x,1/2-y,-z
1/2+x,1/2-y,1/2+z
loop_
_atom_site_type_symbol
_atom_site_label
_atom_site_fract_x
_atom_site_fract_y
_atom_site_fract_z
Si Si1 0.393326 0.397594 0.532559
Si Si2 0.972297 0.595980 0.014450
Si Si3 0.294182 0.146412 0.261276
Si Si4 0.180888 0.782436 0.634283
Si Si5 0.418743 0.226268 0.385886
Si Si6 0.938101 0.934462 0.890222
Si Si7 0.500000 0.171175 0.750000
O O1 0.298079 0.412035 0.661982
O O2 0.383504 0.311593 0.465121
O O3 0.492226 0.391087 0.552056
O O4 0.389824 0.480367 0.457821
O O5 0.871198 0.599707 0.137523
O O6 0.045956 0.658219 0.038931
O O7 0.000000 0.500000 0.000000
O O8 0.970101 0.617819 0.879092
O O9 0.248885 0.220350 0.209636
O O10 0.333545 0.182714 0.360519
O O11 0.250000 0.750000 0.500000
O O12 0.144518 0.871656 0.606342
O O13 0.091250 0.728468 0.725078
O O14 0.500000 0.251414 0.250000
O O15 0.000000 0.964848 0.750000
#
# Coordination Sequence:
#
# PCOD8148919 Si02
#       7
#     8   8   8   8   8   8   4
#     4  11  23  42  68  97 132 175 214 276 342 390
#     4  11  26  43  68  95 133 179 222 276 335 391
#     4  11  23  42  68  96 130 174 222 272 323 408
#     4  12  23  42  69 101 132 174 228 268 336 401
#     4  10  23  43  67  95 134 174 220 269 334 403
#     4  11  23  41  66  98 137 169 218 282 332 397
#     4  12  24  44  72  94 136 176 218 284 336 388
#
# _framework density 20.364962999999999
#
# number of rings (size 3 to 8) (size 9 to 14) (size 15 to 20)
#    0.000    0.923    3.846    2.769    5.385    2.462 
#    0.000    0.000    0.000    0.000    0.000    0.000 
#    0.000    0.000    0.000    0.000    0.000    0.000 
#
# Total GULP energy -322206.197023 kJ/mol
# GULP energy per Si atom -12392.546039 kJ/mol
# Density = 2.031861 g / cm^3
# Si number density = 20.364963 Si / 1000 Ang^3
#
#
#
# Elastic Constant Matrix: (Units=GPa)
#
#
# Indices 1 2 3 4 5 6 
#
# 1 96.7587 43.8478 37.6982 0.0000 -3.9461 0.0000
# 2 43.8478 128.8526 61.1104 0.0000 -5.9962 0.0000
# 3 37.6982 61.1104 135.4346 0.0000 -7.0582 0.0000
# 4 0.0000 0.0000 0.0000 28.2265 0.0000 -19.6539
# 5 -3.9461 -5.9962 -7.0582 0.0000 44.1889 0.0000
# 6 0.0000 0.0000 0.0000 -19.6539 0.0000 -41.0411
#
#
#
# Elastic Compliance Matrix: (Units=1/GPa)
#
#
# Indices 1 2 3 4 5 6 
#
# 1 0.012639 -0.003339 -0.001993 0.000000 0.000357 0.000000
# 2 -0.003339 0.010774 -0.003904 0.000000 0.000540 0.000000
# 3 -0.001993 -0.003904 0.009744 0.000000 0.000849 0.000000
# 4 0.000000 0.000000 0.000000 0.026569 0.000000 -0.012723
# 5 0.000357 0.000540 0.000849 0.000000 0.022871 0.000000
# 6 0.000000 0.000000 0.000000 -0.012723 0.000000 -0.018273
#
#
# Mechanical properties :
#
#
# Convention : Reuss Voigt Hill
#
# Bulk Modulus (GPa) = 68.09469 71.81765 69.95617
# Shear Modulus (GPa) = 57.01910 20.83416 38.92663
#
# Velocity S-wave (km/s) = 5.29711 3.20197 4.37676
# Velocity P-wave (km/s) = 8.42154 7.00086 7.74385
#
# Compressibility (1/GPa) = 0.01468543
#
# Stress axis : x y z
#
# Youngs Moduli (GPa) = 79.11877 92.81907 102.62816
#
# Poissons Ratio (x) = 0.30995 0.20451
# Poissons Ratio (y) = 0.26420 0.40062
# Poissons Ratio (z) = 0.15766 0.36233
#
# Static dielectric constant tensor:
#      x y z
#    x 3.449700 0.000000 0.174530 
#    y 0.000000 3.537940 0.000000 
#    z 0.174530 0.000000 3.764320 
# 
# 
# High freq. dielectric constant tensor:
#      x y z
#    x 1.807460 0.000000 -0.001040 
#    y 0.000000 1.783750 0.000000 
#    z -0.001040 0.000000 1.822290 
# 
# From -- ./inp_files/96948.got.cif
#   From: 2010.06.25/outbox.cif.g09.slc.cpg/sg15_49_cif.got.tgz:96948.got - 2010.06.28 07:06:18.
