data_PCOD8148535
_publ_section_title
;
Structure prediction by ZEFSAII (Michael W. Deem and Ramdas Pophale) SiO2 
 PCOD8148535
Probable space group: C 2/C
;
_chemical_formula_sum "Si O2"
_cell_formula_units_Z 44
_cell_length_a 7.983907
_cell_length_b 15.524014
_cell_length_c 13.200478
_cell_angle_alpha 90.000000
_cell_angle_beta 95.597405
_cell_angle_gamma 90.000000
_cell_volume 1628.296185
_symmetry_space_group_name_H-M "C 2/C"
_symmetry_group_IT_number 15
_symmetry_cell_setting 'monoclinic'
loop_
_space_group_symop_operation_xyz
x,y,z
-x,y,1/2-z
-x,-y,-z
x,-y,1/2+z
1/2+x,1/2+y,z
1/2-x,1/2+y,1/2-z
1/2-x,1/2-y,-z
1/2+x,1/2-y,1/2+z
loop_
_atom_site_type_symbol
_atom_site_label
_atom_site_fract_x
_atom_site_fract_y
_atom_site_fract_z
Si Si1 0.578318 0.907095 0.032073
Si Si2 0.345271 0.497577 0.805297
Si Si3 0.589685 0.688777 0.159775
Si Si4 0.024467 0.894552 0.460122
Si Si5 0.443546 0.227472 0.138061
Si Si6 0.500000 0.088687 0.750000
O O1 0.778236 0.916499 0.033800
O O2 0.516590 0.866720 0.138811
O O3 0.506507 0.840486 0.945358
O O4 0.500000 0.000000 0.000000
O O5 0.500000 0.537090 0.750000
O O6 0.324386 0.396288 0.785988
O O7 0.403382 0.523132 0.925202
O O8 0.167541 0.532610 0.761965
O O9 0.500000 0.738112 0.250000
O O10 0.740435 0.745823 0.123408
O O11 0.471447 0.649676 0.064512
O O12 0.972822 0.820124 0.376468
O O13 0.500000 0.191761 0.250000
#
# Coordination Sequence:
#
# PCOD8148535 Si02
#       6
#     8   8   8   8   8   4
#     4  11  25  42  75 109 144 186 246 304 355 439
#     4  11  23  42  73 108 145 187 239 309 355 436
#     4  10  23  41  72 103 142 185 248 302 358 443
#     4  11  23  50  67 103 149 196 233 304 381 421
#     4  11  26  47  71 100 151 195 236 300 376 431
#     4  12  24  42  72 110 144 186 248 288 374 422
#
# _framework density 27.022110000000001
#
# number of rings (size 3 to 8) (size 9 to 14) (size 15 to 20)
#    0.000    1.091    1.818    5.455    5.091    1.455 
#    6.545    1.818    0.000    0.000    0.000    0.000 
#    0.000    0.000    0.000    0.000    0.000    0.000 
#
# Total GULP energy -272606.041917 kJ/mol
# GULP energy per Si atom -12391.183723 kJ/mol
# Density = 2.696061 g / cm^3
# Si number density = 27.022110 Si / 1000 Ang^3
#
#
#
# Elastic Constant Matrix: (Units=GPa)
#
#
# Indices 1 2 3 4 5 6 
#
# 1 97.2866 12.8009 33.3109 0.0000 -5.9721 0.0000
# 2 12.8009 40.4873 14.6624 0.0000 -13.2865 0.0000
# 3 33.3109 14.6624 186.7710 0.0000 -30.4254 0.0000
# 4 0.0000 0.0000 0.0000 39.8435 0.0000 -2.1188
# 5 -5.9721 -13.2865 -30.4254 0.0000 52.3499 0.0000
# 6 0.0000 0.0000 0.0000 -2.1188 0.0000 30.1061
#
#
#
# Elastic Compliance Matrix: (Units=1/GPa)
#
#
# Indices 1 2 3 4 5 6 
#
# 1 0.011288 -0.003083 -0.001865 0.000000 -0.000579 0.000000
# 2 -0.003083 0.027994 -0.000605 0.000000 0.006402 0.000000
# 3 -0.001865 -0.000605 0.006268 0.000000 0.003277 0.000000
# 4 0.000000 0.000000 0.000000 0.025192 0.000000 0.001773
# 5 -0.000579 0.006402 0.003277 0.000000 0.022565 0.000000
# 6 0.000000 0.000000 0.000000 0.001773 0.000000 0.033341
#
#
# Mechanical properties :
#
#
# Convention : Reuss Voigt Hill
#
# Bulk Modulus (GPa) = 29.03403 49.56593 39.29998
# Shear Modulus (GPa) = 33.50391 42.04460 37.77425
#
# Velocity S-wave (km/s) = 3.52500 3.94881 3.74291
# Velocity P-wave (km/s) = 5.22832 6.25886 5.76666
#
# Compressibility (1/GPa) = 0.03444234
#
# Stress axis : x y z
#
# Youngs Moduli (GPa) = 88.59124 35.72219 159.53735
#
# Poissons Ratio (x) = 0.11014 0.29761
# Poissons Ratio (y) = 0.27316 0.09650
# Poissons Ratio (z) = 0.16526 0.02161
#
# Static dielectric constant tensor:
#      x y z
#    x 4.613660 0.000000 -0.471770 
#    y 0.000000 4.884970 0.000000 
#    z -0.471770 0.000000 5.679190 
# 
# 
# High freq. dielectric constant tensor:
#      x y z
#    x 2.057440 0.000000 -0.013090 
#    y 0.000000 2.104480 0.000000 
#    z -0.013090 0.000000 2.115990 
# 
# From -- ./inp_files/134507.got.cif
#   From: 2010.06.25/outbox.cif.g09.slc.cpg/sg15_68_cif.got.tgz:134507.got - 2010.06.28 07:06:18.
