data_PCOD8148429
_publ_section_title
;
Structure prediction by ZEFSAII (Michael W. Deem and Ramdas Pophale) SiO2 
 PCOD8148429
Probable space group: C 2/C
;
_chemical_formula_sum "Si O2"
_cell_formula_units_Z 56
_cell_length_a 12.723268
_cell_length_b 11.598580
_cell_length_c 25.032060
_cell_angle_alpha 90.000000
_cell_angle_beta 134.178596
_cell_angle_gamma 90.000000
_cell_volume 2649.249171
_symmetry_space_group_name_H-M "C 2/C"
_symmetry_group_IT_number 15
_symmetry_cell_setting 'monoclinic'
loop_
_space_group_symop_operation_xyz
x,y,z
-x,y,1/2-z
-x,-y,-z
x,-y,1/2+z
1/2+x,1/2+y,z
1/2-x,1/2+y,1/2-z
1/2-x,1/2-y,-z
1/2+x,1/2-y,1/2+z
loop_
_atom_site_type_symbol
_atom_site_label
_atom_site_fract_x
_atom_site_fract_y
_atom_site_fract_z
Si Si1 0.394955 0.757674 0.167213
Si Si2 0.024565 0.021138 0.947391
Si Si3 0.195276 0.625041 0.963790
Si Si4 0.823976 0.396819 0.847153
Si Si5 0.630972 0.352903 0.680963
Si Si6 0.597933 0.226074 0.474136
Si Si7 0.111459 0.640597 0.598708
O O1 0.500000 0.809700 0.250000
O O2 0.345813 0.865984 0.113663
O O3 0.254980 0.692161 0.141172
O O4 0.486328 0.664201 0.165519
O O5 0.007108 0.156705 0.934138
O O6 0.897115 0.959577 0.868501
O O7 0.184232 0.973953 0.985364
O O8 0.000000 0.000000 0.000000
O O9 0.055911 0.599446 0.951443
O O10 0.250000 0.750000 0.000000
O O11 0.769304 0.383418 0.767004
O O12 0.791361 0.526300 0.856859
O O13 0.998801 0.371034 0.910216
O O14 0.663354 0.237131 0.659067
O O15 0.750000 0.250000 0.500000
O O16 0.629645 0.191454 0.546314
#
# Coordination Sequence:
#
# PCOD8148429 Si02
#       7
#     8   8   8   8   8   8   8
#     4   9  19  37  62  96 118 157 221 264 315 379
#     4  12  22  40  65  94 131 166 217 272 330 383
#     4  11  19  38  66  88 123 169 218 269 314 380
#     4  11  24  42  67  92 133 171 216 270 327 397
#     4  10  23  41  64  98 124 169 214 270 331 382
#     4  12  27  42  64  99 133 174 220 266 336 399
#     4  11  23  44  66  93 128 170 224 269 322 396
#
# _framework density 21.138064
#
# number of rings (size 3 to 8) (size 9 to 14) (size 15 to 20)
#    0.000    1.143    4.286    3.000    4.000    0.000 
#    2.571    0.714    0.000    0.000    0.000    0.000 
#    0.000    0.000    0.000    0.000    0.000    0.000 
#
# Total GULP energy -347205.886865 kJ/mol
# GULP energy per Si atom -12400.210245 kJ/mol
# Density = 2.108995 g / cm^3
# Si number density = 21.138064 Si / 1000 Ang^3
#
#
#
# Elastic Constant Matrix: (Units=GPa)
#
#
# Indices 1 2 3 4 5 6 
#
# 1 103.8858 17.4771 43.7345 0.0000 -10.7903 0.0000
# 2 17.4771 114.4147 47.2256 0.0000 -7.2810 0.0000
# 3 43.7345 47.2256 133.7897 0.0000 -18.7039 0.0000
# 4 0.0000 0.0000 0.0000 35.2478 0.0000 -1.2780
# 5 -10.7903 -7.2810 -18.7039 0.0000 28.7611 0.0000
# 6 0.0000 0.0000 0.0000 -1.2780 0.0000 20.0552
#
#
#
# Elastic Compliance Matrix: (Units=1/GPa)
#
#
# Indices 1 2 3 4 5 6 
#
# 1 0.011272 -0.000221 -0.003326 0.000000 0.002010 0.000000
# 2 -0.000221 0.010237 -0.003510 0.000000 0.000226 0.000000
# 3 -0.003326 -0.003510 0.010452 0.000000 0.004661 0.000000
# 4 0.000000 0.000000 0.000000 0.028436 0.000000 0.001812
# 5 0.002010 0.000226 0.004661 0.000000 0.038612 0.000000
# 6 0.000000 0.000000 0.000000 0.001812 0.000000 0.049978
#
#
# Mechanical properties :
#
#
# Convention : Reuss Voigt Hill
#
# Bulk Modulus (GPa) = 56.02815 63.21828 59.62322
# Shear Modulus (GPa) = 29.57725 33.05635 31.31680
#
# Velocity S-wave (km/s) = 3.74470 3.95882 3.85325
# Velocity P-wave (km/s) = 6.72759 7.13222 6.93286
#
# Compressibility (1/GPa) = 0.01784817
#
# Stress axis : x y z
#
# Youngs Moduli (GPa) = 88.71545 97.68573 95.67612
#
# Poissons Ratio (x) = 0.02161 0.31818
# Poissons Ratio (y) = 0.01963 0.33578
# Poissons Ratio (z) = 0.29503 0.34283
#
# Static dielectric constant tensor:
#      x y z
#    x 3.821210 0.000000 -0.145730 
#    y 0.000000 3.693460 0.000000 
#    z -0.145730 0.000000 4.272080 
# 
# 
# High freq. dielectric constant tensor:
#      x y z
#    x 1.821050 0.000000 -0.010530 
#    y 0.000000 1.829300 0.000000 
#    z -0.010530 0.000000 1.833660 
# 
# From -- ./inp_files/295960.got.cif
#   From: 2010.06.25/outbox.cif.g09.slc.cpg/sg15_148_cif.got.tgz:295960.got - 2010.06.28 07:06:18.
