data_PCOD8148649
_publ_section_title
;
Structure prediction by ZEFSAII (Michael W. Deem and Ramdas Pophale) SiO2 
 PCOD8148649
Probable space group: C 2/C
;
_chemical_formula_sum "Si O2"
_cell_formula_units_Z 36
_cell_length_a 7.657141
_cell_length_b 11.357995
_cell_length_c 26.155063
_cell_angle_alpha 90.000000
_cell_angle_beta 47.852338
_cell_angle_gamma 90.000000
_cell_volume 1686.503107
_symmetry_space_group_name_H-M "C 2/C"
_symmetry_group_IT_number 15
_symmetry_cell_setting 'monoclinic'
loop_
_space_group_symop_operation_xyz
x,y,z
-x,y,1/2-z
-x,-y,-z
x,-y,1/2+z
1/2+x,1/2+y,z
1/2-x,1/2+y,1/2-z
1/2-x,1/2-y,-z
1/2+x,1/2-y,1/2+z
loop_
_atom_site_type_symbol
_atom_site_label
_atom_site_fract_x
_atom_site_fract_y
_atom_site_fract_z
Si Si1 0.133245 0.943007 0.400177
Si Si2 0.723179 0.247685 0.306207
Si Si3 0.086987 0.504953 0.861509
Si Si4 0.500000 0.325851 0.250000
Si Si5 0.703333 0.616969 0.995405
O O1 0.407696 0.983000 0.348425
O O2 0.959184 0.056077 0.428870
O O3 0.095495 0.855009 0.360660
O O4 0.064726 0.881563 0.468029
O O5 0.675692 0.128652 0.346955
O O6 0.614303 0.242229 0.270749
O O7 0.000000 0.269846 0.250000
O O8 0.304204 0.591505 0.812936
O O9 0.947722 0.543279 0.940648
O O10 0.750000 0.750000 0.000000
#
# Coordination Sequence:
#
# PCOD8148649 Si02
#       5
#     8   8   8   4   8
#     4   9  22  42  65  95 135 174 213 278 330 384
#     4  12  24  44  66  97 139 171 224 279 323 400
#     4  10  23  42  66 101 127 177 225 259 343 392
#     4  12  26  40  68 100 128 182 224 268 340 390
#     4   9  20  43  69  96 135 173 219 273 332 392
#
# _framework density 21.345946000000001
#
# number of rings (size 3 to 8) (size 9 to 14) (size 15 to 20)
#    1.333    0.444    3.333    0.000    3.111    4.444 
#    0.000    2.222    0.000    0.000    0.000    0.000 
#    0.000    0.000    0.000    0.000    0.000    0.000 
#
# Total GULP energy -223082.597240 kJ/mol
# GULP energy per Si atom -12393.477624 kJ/mol
# Density = 2.129736 g / cm^3
# Si number density = 21.345946 Si / 1000 Ang^3
#
#
#
# Elastic Constant Matrix: (Units=GPa)
#
#
# Indices 1 2 3 4 5 6 
#
# 1 77.7542 31.3539 40.1534 0.0001 -11.4537 -0.0003
# 2 31.3539 145.5607 48.7052 -0.0001 -5.4222 0.0000
# 3 40.1534 48.7052 78.6272 -0.0001 -12.5480 0.0001
# 4 0.0001 -0.0001 -0.0001 39.8708 0.0000 -4.6617
# 5 -11.4537 -5.4222 -12.5480 0.0000 35.6689 0.0001
# 6 -0.0003 0.0000 0.0001 -4.6617 0.0001 25.1929
#
#
#
# Elastic Compliance Matrix: (Units=1/GPa)
#
#
# Indices 1 2 3 4 5 6 
#
# 1 0.017829 -0.001057 -0.008012 0.000000 0.002746 0.000000
# 2 -0.001057 0.008741 -0.004997 0.000000 -0.000769 0.000000
# 3 -0.008012 -0.004997 0.020526 0.000000 0.003888 0.000000
# 4 0.000000 0.000000 0.000000 0.025636 0.000000 0.004744
# 5 0.002746 -0.000769 0.003888 0.000000 0.030168 0.000000
# 6 0.000000 0.000000 0.000000 0.004744 0.000000 0.040572
#
#
# Mechanical properties :
#
#
# Convention : Reuss Voigt Hill
#
# Bulk Modulus (GPa) = 52.73379 60.26300 56.49839
# Shear Modulus (GPa) = 28.10146 32.26183 30.18164
#
# Velocity S-wave (km/s) = 3.63227 3.89186 3.76430
# Velocity P-wave (km/s) = 6.50762 6.96336 6.73934
#
# Compressibility (1/GPa) = 0.01896318
#
# Stress axis : x y z
#
# Youngs Moduli (GPa) = 56.08719 114.39985 48.71876
#
# Poissons Ratio (x) = 0.12096 0.39033
# Poissons Ratio (y) = 0.05930 0.24347
# Poissons Ratio (z) = 0.44937 0.57171
#
# Static dielectric constant tensor:
#      x y z
#    x 3.718790 0.000000 -0.217590 
#    y 0.000000 3.608570 0.000000 
#    z -0.217590 0.000000 3.769410 
# 
# 
# High freq. dielectric constant tensor:
#      x y z
#    x 1.822900 0.000000 -0.020620 
#    y 0.000000 1.834260 0.000000 
#    z -0.020620 0.000000 1.829520 
# 
# From -- ./inp_files/262970.got.cif
#   From: 2010.06.25/outbox.cif.g09.slc.cpg/sg15_132_cif.got.tgz:262970.got - 2010.06.28 07:06:18.
