data_PCOD8148122
_publ_section_title
;
Structure prediction by ZEFSAII (Michael W. Deem and Ramdas Pophale) SiO2 
 PCOD8148122
Probable space group: C 2/C
;
_chemical_formula_sum "Si O2"
_cell_formula_units_Z 32
_cell_length_a 13.017891
_cell_length_b 23.291510
_cell_length_c 5.160662
_cell_angle_alpha 90.000000
_cell_angle_beta 106.582519
_cell_angle_gamma 90.000000
_cell_volume 1499.667187
_symmetry_space_group_name_H-M "C 2/C"
_symmetry_group_IT_number 15
_symmetry_cell_setting 'monoclinic'
loop_
_space_group_symop_operation_xyz
x,y,z
-x,y,1/2-z
-x,-y,-z
x,-y,1/2+z
1/2+x,1/2+y,z
1/2-x,1/2+y,1/2-z
1/2-x,1/2-y,-z
1/2+x,1/2-y,1/2+z
loop_
_atom_site_type_symbol
_atom_site_label
_atom_site_fract_x
_atom_site_fract_y
_atom_site_fract_z
Si Si1 0.886266 0.203950 0.762390
Si Si2 0.879783 0.974752 0.896273
Si Si3 0.568267 0.166020 0.059627
Si Si4 0.802747 0.147430 0.223406
O O1 0.896407 0.269300 0.854858
O O2 0.809777 0.195778 0.455809
O O3 0.000000 0.179060 0.750000
O O4 0.844870 0.169152 0.979065
O O5 0.875022 0.906489 0.860412
O O6 0.819398 0.006100 0.614561
O O7 0.000000 0.000000 0.000000
O O8 0.500000 0.140734 0.250000
O O9 0.677743 0.129905 0.104011
O O10 0.500000 0.162944 0.750000
#
# Coordination Sequence:
#
# PCOD8148122 Si02
#       4
#     8   8   8   8
#     4  11  23  36  60  96 128 161 209 249 315 390
#     4  10  23  39  58  88 125 152 204 258 311 377
#     4  11  23  42  60  91 127 164 218 261 290 373
#     4  12  23  39  66  86 127 177 199 254 330 362
#
# _framework density 21.338069000000001
#
# number of rings (size 3 to 8) (size 9 to 14) (size 15 to 20)
#    0.000    1.000    0.000    8.250   10.500    0.000 
#    0.000    0.000    0.000    4.500    0.000    0.000 
#    0.000    0.000    0.000    0.000    0.000    0.000 
#
# Total GULP energy -198329.431823 kJ/mol
# GULP energy per Si atom -12395.589489 kJ/mol
# Density = 2.128950 g / cm^3
# Si number density = 21.338069 Si / 1000 Ang^3
#
#
#
# Elastic Constant Matrix: (Units=GPa)
#
#
# Indices 1 2 3 4 5 6 
#
# 1 120.1073 38.6991 57.5809 0.0000 -5.6563 0.0000
# 2 38.6991 34.9050 14.2188 0.0000 0.5517 0.0000
# 3 57.5809 14.2188 184.4991 0.0000 -22.0924 0.0000
# 4 0.0000 0.0000 0.0000 13.7341 0.0000 -1.6135
# 5 -5.6563 0.5517 -22.0924 0.0000 48.4143 0.0000
# 6 0.0000 0.0000 0.0000 -1.6135 0.0000 17.7219
#
#
#
# Elastic Compliance Matrix: (Units=1/GPa)
#
#
# Indices 1 2 3 4 5 6 
#
# 1 0.014838 -0.015060 -0.003430 0.000000 0.000340 0.000000
# 2 -0.015060 0.044959 0.001019 0.000000 -0.001807 0.000000
# 3 -0.003430 0.001019 0.006730 0.000000 0.002659 0.000000
# 4 0.000000 0.000000 0.000000 0.073599 0.000000 0.006701
# 5 0.000340 -0.001807 0.002659 0.000000 0.021929 0.000000
# 6 0.000000 0.000000 0.000000 0.006701 0.000000 0.057038
#
#
# Mechanical properties :
#
#
# Convention : Reuss Voigt Hill
#
# Bulk Modulus (GPa) = 31.65856 62.27879 46.96868
# Shear Modulus (GPa) = 18.89911 31.24157 25.07034
#
# Velocity S-wave (km/s) = 2.97930 3.83054 3.43142
# Velocity P-wave (km/s) = 5.16757 6.98671 6.14483
#
# Compressibility (1/GPa) = 0.03158703
#
# Stress axis : x y z
#
# Youngs Moduli (GPa) = 67.39287 22.24237 148.58151
#
# Poissons Ratio (x) = 0.33496 0.50958
# Poissons Ratio (y) = 1.01491 -0.15136
# Poissons Ratio (z) = 0.23113 -0.02266
#
# Static dielectric constant tensor:
#      x y z
#    x 4.039450 0.000000 0.059570 
#    y 0.000000 3.496930 0.000000 
#    z 0.059570 0.000000 3.389070 
# 
# 
# High freq. dielectric constant tensor:
#      x y z
#    x 1.829180 0.000000 -0.017570 
#    y 0.000000 1.799360 0.000000 
#    z -0.017570 0.000000 1.870230 
# 
# From -- ./inp_files/3972.got.cif
#   From: 2010.06.25/outbox.cif.g09.slc.cpg/sg15_2_cif.got.tgz:3972.got - 2010.06.28 07:06:18.
