data_PCOD8148885
_publ_section_title
;
Structure prediction by ZEFSAII (Michael W. Deem and Ramdas Pophale) SiO2 
 PCOD8148885
Probable space group: C 2/C
;
_chemical_formula_sum "Si O2"
_cell_formula_units_Z 48
_cell_length_a 12.068283
_cell_length_b 16.620854
_cell_length_c 24.165900
_cell_angle_alpha 90.000000
_cell_angle_beta 153.314674
_cell_angle_gamma 90.000000
_cell_volume 2176.884344
_symmetry_space_group_name_H-M "C 2/C"
_symmetry_group_IT_number 15
_symmetry_cell_setting 'monoclinic'
loop_
_space_group_symop_operation_xyz
x,y,z
-x,y,1/2-z
-x,-y,-z
x,-y,1/2+z
1/2+x,1/2+y,z
1/2-x,1/2+y,1/2-z
1/2-x,1/2-y,-z
1/2+x,1/2-y,1/2+z
loop_
_atom_site_type_symbol
_atom_site_label
_atom_site_fract_x
_atom_site_fract_y
_atom_site_fract_z
Si Si1 0.291408 0.706074 0.076150
Si Si2 0.733833 0.185288 0.789662
Si Si3 0.019598 0.882349 0.198154
Si Si4 0.117245 0.942355 0.713871
Si Si5 0.005905 0.329813 0.555648
Si Si6 0.774856 0.985882 0.356200
O O1 0.486511 0.765023 0.193740
O O2 0.388766 0.617438 0.106861
O O3 0.064288 0.690414 0.016711
O O4 0.250000 0.750000 0.000000
O O5 0.962086 0.246267 0.897843
O O6 0.766438 0.109963 0.844530
O O7 0.747817 0.154285 0.731953
O O8 0.000000 0.843802 0.250000
O O9 0.767527 0.860511 0.054921
O O10 0.042551 0.978094 0.213569
O O11 0.327777 0.900027 0.843900
O O12 0.184063 0.964671 0.681158
O O13 0.500000 0.015128 0.250000
O O14 0.000000 0.000000 0.500000
#
# Coordination Sequence:
#
# PCOD8148885 Si02
#       6
#     8   8   8   8   8   8
#     4  11  23  41  69  98 126 179 224 276 339 414
#     4  10  23  43  66  92 138 173 223 278 347 406
#     4  11  23  41  64  99 128 171 222 278 338 404
#     4  10  25  41  65  94 133 175 220 276 345 402
#     4  11  23  43  66  94 136 173 222 281 341 410
#     4  11  26  45  71 102 136 184 231 287 350 418
#
# _framework density 22.049862999999998
#
# number of rings (size 3 to 8) (size 9 to 14) (size 15 to 20)
#    0.000    1.333    0.000    5.500    9.333    4.000 
#    0.000    0.000    0.000    0.000    0.000    0.000 
#    0.000    0.000    0.000    0.000    0.000    0.000 
#
# Total GULP energy -297402.046433 kJ/mol
# GULP energy per Si atom -12391.751935 kJ/mol
# Density = 2.199968 g / cm^3
# Si number density = 22.049863 Si / 1000 Ang^3
#
#
#
# Elastic Constant Matrix: (Units=GPa)
#
#
# Indices 1 2 3 4 5 6 
#
# 1 94.3237 14.8494 19.0733 -0.0021 -10.7142 -0.0028
# 2 14.8494 106.3559 2.6983 -0.0101 1.2293 0.0013
# 3 19.0733 2.6983 63.1408 0.0209 -6.0036 -0.0017
# 4 -0.0021 -0.0101 0.0209 23.3417 -0.0045 -3.1322
# 5 -10.7142 1.2293 -6.0036 -0.0045 38.8438 0.0002
# 6 -0.0028 0.0013 -0.0017 -3.1322 0.0002 29.5322
#
#
#
# Elastic Compliance Matrix: (Units=1/GPa)
#
#
# Indices 1 2 3 4 5 6 
#
# 1 0.011828 -0.001602 -0.003237 0.000004 0.002813 0.000001
# 2 -0.001602 0.009635 0.000001 0.000004 -0.000747 0.000000
# 3 -0.003237 0.000001 0.016980 -0.000015 0.001731 -0.000001
# 4 0.000004 0.000004 -0.000015 0.043460 0.000004 0.004609
# 5 0.002813 -0.000747 0.001731 0.000004 0.026811 0.000001
# 6 0.000001 0.000000 -0.000001 0.004609 0.000001 0.034350
#
#
# Mechanical properties :
#
#
# Convention : Reuss Voigt Hill
#
# Bulk Modulus (GPa) = 34.76172 37.45139 36.10655
# Shear Modulus (GPa) = 30.80161 33.49016 32.14589
#
# Velocity S-wave (km/s) = 3.74158 3.90145 3.82235
# Velocity P-wave (km/s) = 5.87070 6.10875 5.99091
#
# Compressibility (1/GPa) = 0.02876727
#
# Stress axis : x y z
#
# Youngs Moduli (GPa) = 84.54473 103.79220 58.89266
#
# Poissons Ratio (x) = 0.16626 0.19064
# Poissons Ratio (y) = 0.13543 -0.00007
# Poissons Ratio (z) = 0.27368 -0.00012
#
# Static dielectric constant tensor:
#      x y z
#    x 4.058110 0.000000 -0.033660 
#    y 0.000000 4.142380 -0.000030 
#    z -0.033660 -0.000030 4.111110 
# 
# 
# High freq. dielectric constant tensor:
#      x y z
#    x 1.885510 0.000000 -0.006020 
#    y 0.000000 1.881260 0.000000 
#    z -0.006020 0.000000 1.856780 
# 
# From -- ./inp_files/270660.got.cif
#   From: 2010.06.25/outbox.cif.g09.slc.cpg/sg15_136_cif.got.tgz:270660.got - 2010.06.28 07:06:18.
