data_PCOD8148717
_publ_section_title
;
Structure prediction by ZEFSAII (Michael W. Deem and Ramdas Pophale) SiO2 
 PCOD8148717
Probable space group: C 2/C
;
_chemical_formula_sum "Si O2"
_cell_formula_units_Z 56
_cell_length_a 11.562066
_cell_length_b 11.801758
_cell_length_c 18.522221
_cell_angle_alpha 90.000000
_cell_angle_beta 84.286119
_cell_angle_gamma 90.000000
_cell_volume 2514.849680
_symmetry_space_group_name_H-M "C 2/C"
_symmetry_group_IT_number 15
_symmetry_cell_setting 'monoclinic'
loop_
_space_group_symop_operation_xyz
x,y,z
-x,y,1/2-z
-x,-y,-z
x,-y,1/2+z
1/2+x,1/2+y,z
1/2-x,1/2+y,1/2-z
1/2-x,1/2-y,-z
1/2+x,1/2-y,1/2+z
loop_
_atom_site_type_symbol
_atom_site_label
_atom_site_fract_x
_atom_site_fract_y
_atom_site_fract_z
Si Si1 0.125867 0.791347 0.879472
Si Si2 0.962692 0.882181 0.473485
Si Si3 0.877570 0.006718 0.721942
Si Si4 0.780763 0.088829 0.868090
Si Si5 0.068949 0.620894 0.585601
Si Si6 0.406396 0.071110 0.079388
Si Si7 0.672984 0.304519 0.384649
O O1 0.143564 0.900521 0.828566
O O2 0.237227 0.715581 0.855170
O O3 0.007622 0.720052 0.872014
O O4 0.124582 0.824343 0.964269
O O5 0.904348 0.898635 0.399089
O O6 0.084910 0.817601 0.457519
O O7 0.000000 0.000000 0.500000
O O8 0.000000 0.989231 0.750000
O O9 0.786321 0.017498 0.793374
O O10 0.872150 0.124634 0.679952
O O11 0.691044 0.025595 0.926925
O O12 0.056442 0.622452 0.499842
O O13 0.199708 0.647963 0.602576
O O14 0.017031 0.494778 0.611043
O O15 0.343328 0.169968 0.131324
#
# Coordination Sequence:
#
# PCOD8148717 Si02
#       7
#     8   8   8   8   8   8   8
#     4  11  25  44  72 100 138 178 230 295 341 417
#     4  12  22  42  68 108 133 176 232 282 346 408
#     4  12  27  46  64  99 136 184 233 275 353 428
#     4  11  26  45  68  99 139 183 228 285 352 416
#     4  10  23  42  68 108 134 175 230 283 354 414
#     4  10  23  42  69 101 140 176 224 287 347 420
#     4  12  24  39  71  97 140 181 224 285 349 411
#
# _framework density 22.267731999999999
#
# number of rings (size 3 to 8) (size 9 to 14) (size 15 to 20)
#    0.000    0.857    4.286    1.714    6.000    1.143 
#    0.000    2.143    0.000    0.000    0.000    0.000 
#    0.000    0.000    0.000    0.000    0.000    0.000 
#
# Total GULP energy -346903.354299 kJ/mol
# GULP energy per Si atom -12389.405511 kJ/mol
# Density = 2.221705 g / cm^3
# Si number density = 22.267732 Si / 1000 Ang^3
#
#
#
# Elastic Constant Matrix: (Units=GPa)
#
#
# Indices 1 2 3 4 5 6 
#
# 1 109.7200 55.9056 30.2999 0.0000 -11.0926 0.0000
# 2 55.9056 145.5017 41.5688 0.0000 -0.7444 0.0000
# 3 30.2999 41.5688 97.8056 0.0000 -7.6950 0.0000
# 4 0.0000 0.0000 0.0000 21.1250 0.0000 -9.6466
# 5 -11.0926 -0.7444 -7.6950 0.0000 23.2194 0.0000
# 6 0.0000 0.0000 0.0000 -9.6466 0.0000 33.4726
#
#
#
# Elastic Compliance Matrix: (Units=1/GPa)
#
#
# Indices 1 2 3 4 5 6 
#
# 1 0.012225 -0.004217 -0.001587 0.000000 0.005179 0.000000
# 2 -0.004217 0.009295 -0.002853 0.000000 -0.002662 0.000000
# 3 -0.001587 -0.002853 0.012180 0.000000 0.003187 0.000000
# 4 0.000000 0.000000 0.000000 0.054511 0.000000 0.015710
# 5 0.005179 -0.002662 0.003187 0.000000 0.046512 0.000000
# 6 0.000000 0.000000 0.000000 0.015710 0.000000 0.034403
#
#
# Mechanical properties :
#
#
# Convention : Reuss Voigt Hill
#
# Bulk Modulus (GPa) = 61.03799 67.61955 64.32877
# Shear Modulus (GPa) = 26.05503 30.58029 28.31766
#
# Velocity S-wave (km/s) = 3.42435 3.70983 3.56995
# Velocity P-wave (km/s) = 6.56547 6.98448 6.77821
#
# Compressibility (1/GPa) = 0.01638324
#
# Stress axis : x y z
#
# Youngs Moduli (GPa) = 81.80109 107.58876 82.10464
#
# Poissons Ratio (x) = 0.45371 0.13034
# Poissons Ratio (y) = 0.34496 0.23428
# Poissons Ratio (z) = 0.12985 0.30699
#
# Static dielectric constant tensor:
#      x y z
#    x 3.883270 0.000000 -0.302900 
#    y 0.000000 4.699470 0.000000 
#    z -0.302900 0.000000 3.864050 
# 
# 
# High freq. dielectric constant tensor:
#      x y z
#    x 1.869140 0.000000 -0.024490 
#    y 0.000000 1.901230 0.000000 
#    z -0.024490 0.000000 1.859810 
# 
# From -- ./inp_files/237521.got.cif
#   From: 2010.06.25/outbox.cif.g09.slc.cpg/sg15_119_cif.got.tgz:237521.got - 2010.06.28 07:06:18.
