data_PCOD8148871
_publ_section_title
;
Structure prediction by ZEFSAII (Michael W. Deem and Ramdas Pophale) SiO2 
 PCOD8148871
Probable space group: C 2/C
;
_chemical_formula_sum "Si O2"
_cell_formula_units_Z 36
_cell_length_a 16.886329
_cell_length_b 22.149719
_cell_length_c 8.773767
_cell_angle_alpha 90.000000
_cell_angle_beta 149.606092
_cell_angle_gamma 90.000000
_cell_volume 1660.314436
_symmetry_space_group_name_H-M "C 2/C"
_symmetry_group_IT_number 15
_symmetry_cell_setting 'monoclinic'
loop_
_space_group_symop_operation_xyz
x,y,z
-x,y,1/2-z
-x,-y,-z
x,-y,1/2+z
1/2+x,1/2+y,z
1/2-x,1/2+y,1/2-z
1/2-x,1/2-y,-z
1/2+x,1/2-y,1/2+z
loop_
_atom_site_type_symbol
_atom_site_label
_atom_site_fract_x
_atom_site_fract_y
_atom_site_fract_z
Si Si1 0.747197 0.655733 0.696225
Si Si2 0.833869 0.469852 0.240287
Si Si3 0.461590 0.662132 0.431351
Si Si4 0.867771 0.962237 0.865365
Si Si5 0.000000 0.256911 0.750000
O O1 0.848410 0.594462 0.849084
O O2 0.600040 0.638912 0.554677
O O3 0.684961 0.678911 0.425963
O O4 0.847945 0.703868 0.958046
O O5 0.690393 0.509845 0.071762
O O6 0.000000 0.500000 0.500000
O O7 0.789117 0.459319 0.992788
O O8 0.420271 0.607107 0.476398
O O9 0.522576 0.717546 0.634694
O O10 0.000000 0.000000 0.000000
#
# Coordination Sequence:
#
# PCOD8148871 Si02
#       5
#     8   8   8   8   4
#     4  10  23  44  64  93 135 170 213 276 327 380
#     4  11  24  40  65  98 134 168 212 276 336 382
#     4  10  23  43  65  95 128 172 223 267 319 393
#     4  11  22  40  67  94 127 171 219 267 323 394
#     4  12  24  40  70  96 128 174 222 264 328 392
#
# _framework density 21.682639999999999
#
# number of rings (size 3 to 8) (size 9 to 14) (size 15 to 20)
#    0.000    1.333    2.222    2.667    6.222    0.000 
#    4.000    0.000    0.000    0.000    0.000    0.000 
#    0.000    0.000    0.000    0.000    0.000    0.000 
#
# Total GULP energy -223034.473406 kJ/mol
# GULP energy per Si atom -12390.804078 kJ/mol
# Density = 2.163329 g / cm^3
# Si number density = 21.682640 Si / 1000 Ang^3
#
#
#
# Elastic Constant Matrix: (Units=GPa)
#
#
# Indices 1 2 3 4 5 6 
#
# 1 90.1010 40.5219 39.5019 0.0000 2.5360 0.0000
# 2 40.5219 135.6620 68.5655 0.0000 -5.0771 0.0000
# 3 39.5019 68.5655 128.9602 0.0000 -8.0258 0.0000
# 4 0.0000 0.0000 0.0000 39.3056 0.0000 0.0598
# 5 2.5360 -5.0771 -8.0258 0.0000 37.6404 0.0000
# 6 0.0000 0.0000 0.0000 0.0598 0.0000 35.8663
#
#
#
# Elastic Compliance Matrix: (Units=1/GPa)
#
#
# Indices 1 2 3 4 5 6 
#
# 1 0.013616 -0.002694 -0.002856 0.000000 -0.001890 0.000000
# 2 -0.002694 0.010615 -0.004781 0.000000 0.000594 0.000000
# 3 -0.002856 -0.004781 0.011293 0.000000 0.001955 0.000000
# 4 0.000000 0.000000 0.000000 0.025442 0.000000 -0.000042
# 5 -0.001890 0.000594 0.001955 0.000000 0.027192 0.000000
# 6 0.000000 0.000000 0.000000 -0.000042 0.000000 0.027881
#
#
# Mechanical properties :
#
#
# Convention : Reuss Voigt Hill
#
# Bulk Modulus (GPa) = 67.29268 72.43352 69.86310
# Shear Modulus (GPa) = 35.29715 36.30473 35.80094
#
# Velocity S-wave (km/s) = 4.03910 4.09634 4.06782
# Velocity P-wave (km/s) = 7.27015 7.47343 7.37249
#
# Compressibility (1/GPa) = 0.01486046
#
# Stress axis : x y z
#
# Youngs Moduli (GPa) = 73.44529 94.20724 88.55087
#
# Poissons Ratio (x) = 0.25383 0.25287
# Poissons Ratio (y) = 0.19789 0.42340
# Poissons Ratio (z) = 0.20973 0.45045
#
# Static dielectric constant tensor:
#      x y z
#    x 3.749950 0.000000 -0.242580 
#    y 0.000000 3.871230 0.000000 
#    z -0.242580 0.000000 4.190310 
# 
# 
# High freq. dielectric constant tensor:
#      x y z
#    x 1.841420 0.000000 -0.013870 
#    y 0.000000 1.849930 0.000000 
#    z -0.013870 0.000000 1.870980 
# 
# From -- ./inp_files/23286.got.cif
#   From: 2010.06.25/outbox.cif.g09.slc.cpg/sg15_12_cif.got.tgz:23286.got - 2010.06.28 07:06:18.
