data_PCOD8148872
_publ_section_title
;
Structure prediction by ZEFSAII (Michael W. Deem and Ramdas Pophale) SiO2 
 PCOD8148872
Probable space group: C 2/C
;
_chemical_formula_sum "Si O2"
_cell_formula_units_Z 48
_cell_length_a 11.452976
_cell_length_b 8.323399
_cell_length_c 23.026734
_cell_angle_alpha 90.000000
_cell_angle_beta 100.186799
_cell_angle_gamma 90.000000
_cell_volume 2160.482851
_symmetry_space_group_name_H-M "C 2/C"
_symmetry_group_IT_number 15
_symmetry_cell_setting 'monoclinic'
loop_
_space_group_symop_operation_xyz
x,y,z
-x,y,1/2-z
-x,-y,-z
x,-y,1/2+z
1/2+x,1/2+y,z
1/2-x,1/2+y,1/2-z
1/2-x,1/2-y,-z
1/2+x,1/2-y,1/2+z
loop_
_atom_site_type_symbol
_atom_site_label
_atom_site_fract_x
_atom_site_fract_y
_atom_site_fract_z
Si Si1 0.583723 0.186582 0.080143
Si Si2 0.717614 0.411700 0.171852
Si Si3 0.682032 0.890249 0.918029
Si Si4 0.209304 0.034014 0.883360
Si Si5 0.366070 0.629493 0.235085
Si Si6 0.126067 0.932145 0.993405
O O1 0.605717 0.331400 0.128221
O O2 0.448171 0.130625 0.066188
O O3 0.657208 0.032517 0.106084
O O4 0.631133 0.251841 0.021251
O O5 0.812545 0.481305 0.133870
O O6 0.668325 0.554189 0.206459
O O7 0.783121 0.281821 0.217079
O O8 0.722396 0.720486 0.896478
O O9 0.770460 0.947138 0.976277
O O10 0.146802 0.004333 0.816229
O O11 0.134856 0.931611 0.924589
O O12 0.500000 0.691329 0.250000
O O13 0.000000 0.000000 0.000000
#
# Coordination Sequence:
#
# PCOD8148872 Si02
#       6
#     8   8   8   8   8   8
#     4  10  23  43  65  95 129 167 213 263 318 379
#     4  10  24  42  62  95 126 161 218 261 316 380
#     4  11  23  42  65  93 130 168 209 263 321 375
#     4  11  23  42  65  96 127 173 215 260 319 377
#     4  11  24  42  66  92 126 169 211 263 319 373
#     4  11  23  42  65  95 134 167 211 265 317 382
#
# _framework density 22.217258000000001
#
# number of rings (size 3 to 8) (size 9 to 14) (size 15 to 20)
#    0.000    1.333    1.667    3.000    2.333    4.667 
#    6.000    0.833    0.000    0.000    0.000    0.000 
#    0.000    0.000    0.000    0.000    0.000    0.000 
#
# Total GULP energy -297668.524005 kJ/mol
# GULP energy per Si atom -12402.855167 kJ/mol
# Density = 2.216669 g / cm^3
# Si number density = 22.217258 Si / 1000 Ang^3
#
#
#
# Elastic Constant Matrix: (Units=GPa)
#
#
# Indices 1 2 3 4 5 6 
#
# 1 122.7292 20.1404 26.6892 0.0000 9.3760 0.0000
# 2 20.1404 51.2745 -10.2811 0.0000 -0.7664 0.0000
# 3 26.6892 -10.2811 66.2026 0.0000 -8.1096 0.0000
# 4 0.0000 0.0000 0.0000 28.8697 0.0000 -3.4718
# 5 9.3760 -0.7664 -8.1096 0.0000 33.8447 0.0000
# 6 0.0000 0.0000 0.0000 -3.4718 0.0000 31.7212
#
#
#
# Elastic Compliance Matrix: (Units=1/GPa)
#
#
# Indices 1 2 3 4 5 6 
#
# 1 0.010591 -0.005357 -0.005641 0.000000 -0.004407 0.000000
# 2 -0.005357 0.022890 0.006140 0.000000 0.003474 0.000000
# 3 -0.005641 0.006140 0.019102 0.000000 0.006279 0.000000
# 4 0.000000 0.000000 0.000000 0.035100 0.000000 0.003842
# 5 -0.004407 0.003474 0.006279 0.000000 0.032351 0.000000
# 6 0.000000 0.000000 0.000000 0.003842 0.000000 0.031945
#
#
# Mechanical properties :
#
#
# Convention : Reuss Voigt Hill
#
# Bulk Modulus (GPa) = 23.32851 34.81150 29.07000
# Shear Modulus (GPa) = 28.41163 32.46431 30.43797
#
# Velocity S-wave (km/s) = 3.57992 3.82674 3.70539
# Velocity P-wave (km/s) = 5.25460 5.93531 5.60530
#
# Compressibility (1/GPa) = 0.04286601
#
# Stress axis : x y z
#
# Youngs Moduli (GPa) = 94.42360 43.68707 52.35042
#
# Poissons Ratio (x) = 0.23403 0.29532
# Poissons Ratio (y) = 0.50582 -0.32143
# Poissons Ratio (z) = 0.53267 -0.26823
#
# Static dielectric constant tensor:
#      x y z
#    x 3.876790 0.000000 -0.004710 
#    y 0.000000 4.075100 0.000000 
#    z -0.004710 0.000000 4.243790 
# 
# 
# High freq. dielectric constant tensor:
#      x y z
#    x 1.875100 0.000000 -0.000190 
#    y 0.000000 1.877990 0.000000 
#    z -0.000190 0.000000 1.882640 
# 
# From -- ./inp_files/267805.got.cif
#   From: 2010.06.25/outbox.cif.g09.slc.cpg/sg15_134_cif.got.tgz:267805.got - 2010.06.28 07:06:18.
