data_PCOD8148266
_publ_section_title
;
Structure prediction by ZEFSAII (Michael W. Deem and Ramdas Pophale) SiO2 
 PCOD8148266
Probable space group: C 2/C
;
_chemical_formula_sum "Si O2"
_cell_formula_units_Z 48
_cell_length_a 14.501209
_cell_length_b 12.832818
_cell_length_c 13.378640
_cell_angle_alpha 90.000000
_cell_angle_beta 64.141181
_cell_angle_gamma 90.000000
_cell_volume 2240.364641
_symmetry_space_group_name_H-M "C 2/C"
_symmetry_group_IT_number 15
_symmetry_cell_setting 'monoclinic'
loop_
_space_group_symop_operation_xyz
x,y,z
-x,y,1/2-z
-x,-y,-z
x,-y,1/2+z
1/2+x,1/2+y,z
1/2-x,1/2+y,1/2-z
1/2-x,1/2-y,-z
1/2+x,1/2-y,1/2+z
loop_
_atom_site_type_symbol
_atom_site_label
_atom_site_fract_x
_atom_site_fract_y
_atom_site_fract_z
Si Si1 0.114151 0.590171 0.693676
Si Si2 0.362213 0.295607 0.267855
Si Si3 0.550894 0.226024 0.075024
Si Si4 0.890207 0.495654 0.998833
Si Si5 0.857709 0.778535 0.671939
Si Si6 0.722774 0.497598 0.746494
O O1 0.132208 0.592687 0.565378
O O2 0.114015 0.702541 0.748481
O O3 0.200924 0.513166 0.695759
O O4 0.000000 0.540019 0.750000
O O5 0.430096 0.221858 0.161995
O O6 0.401326 0.302286 0.363651
O O7 0.248944 0.251748 0.326118
O O8 0.360808 0.410946 0.221567
O O9 0.607154 0.114926 0.060012
O O10 0.560168 0.269357 0.957036
O O11 0.795908 0.499210 0.117028
O O12 0.000000 0.500000 0.000000
O O13 0.847962 0.895656 0.715640
#
# Coordination Sequence:
#
# PCOD8148266 Si02
#       6
#     8   8   8   8   8   8
#     4  11  23  41  65 102 132 174 227 275 338 392
#     4  10  23  40  64  99 126 176 232 271 332 404
#     4  11  22  41  68  93 130 177 225 274 333 398
#     4  12  22  39  69  99 127 168 222 283 331 392
#     4  11  23  43  65  96 139 171 218 287 337 396
#     4  11  24  41  64 100 136 171 230 273 337 403
#
# _framework density 21.425083999999998
#
# number of rings (size 3 to 8) (size 9 to 14) (size 15 to 20)
#    0.000    1.000    5.000    2.500    4.667    1.333 
#    3.000    1.667    0.000    0.000    0.000    0.000 
#    0.000    0.000    0.000    0.000    0.000    0.000 
#
# Total GULP energy -297412.979377 kJ/mol
# GULP energy per Si atom -12392.207474 kJ/mol
# Density = 2.137632 g / cm^3
# Si number density = 21.425084 Si / 1000 Ang^3
#
#
#
# Elastic Constant Matrix: (Units=GPa)
#
#
# Indices 1 2 3 4 5 6 
#
# 1 74.3336 15.7463 34.8323 0.0000 20.3706 0.0000
# 2 15.7463 102.1408 45.1589 0.0000 16.4204 0.0000
# 3 34.8323 45.1589 133.1646 0.0000 10.3519 0.0000
# 4 0.0000 0.0000 0.0000 29.0134 0.0000 -11.1399
# 5 20.3706 16.4204 10.3519 0.0000 32.2055 0.0000
# 6 0.0000 0.0000 0.0000 -11.1399 0.0000 -2.1661
#
#
#
# Elastic Compliance Matrix: (Units=1/GPa)
#
#
# Indices 1 2 3 4 5 6 
#
# 1 0.018132 0.000740 -0.004177 0.000000 -0.010503 0.000000
# 2 0.000740 0.012297 -0.003938 0.000000 -0.005472 0.000000
# 3 -0.004177 -0.003938 0.009822 0.000000 0.001493 0.000000
# 4 0.000000 0.000000 0.000000 0.011587 0.000000 -0.059590
# 5 -0.010503 -0.005472 0.001493 0.000000 0.040004 0.000000
# 6 0.000000 0.000000 0.000000 -0.059590 0.000000 -0.155198
#
#
# Mechanical properties :
#
#
# Convention : Reuss Voigt Hill
#
# Bulk Modulus (GPa) = 39.21616 55.67934 47.44775
# Shear Modulus (GPa) = -124.67351 26.07065 -49.30143
#
# Velocity S-wave (km/s) = -7.63654 3.49209 -4.80219
# Velocity P-wave (km/s) = 7.70792 6.50415 2.92474
#
# Compressibility (1/GPa) = 0.02549969
#
# Stress axis : x y z
#
# Youngs Moduli (GPa) = 55.15129 81.31855 101.81517
#
# Poissons Ratio (x) = -0.06019 0.42532
# Poissons Ratio (y) = -0.04082 0.40100
# Poissons Ratio (z) = 0.23039 0.32027
#
# Static dielectric constant tensor:
#      x y z
#    x 4.203090 0.000000 0.112990 
#    y 0.000000 4.075120 0.000000 
#    z 0.112990 0.000000 4.075130 
# 
# 
# High freq. dielectric constant tensor:
#      x y z
#    x 1.836120 0.000000 0.002330 
#    y 0.000000 1.827690 0.000000 
#    z 0.002330 0.000000 1.849070 
# 
# From -- ./inp_files/96178.got.cif
#   From: 2010.06.25/outbox.cif.g09.slc.cpg/sg15_49_cif.got.tgz:96178.got - 2010.06.28 07:06:18.
