data_PCOD8148999
_publ_section_title
;
Structure prediction by ZEFSAII (Michael W. Deem and Ramdas Pophale) SiO2 
 PCOD8148999
Probable space group: C 2/C
;
_chemical_formula_sum "Si O2"
_cell_formula_units_Z 64
_cell_length_a 17.021040
_cell_length_b 15.523341
_cell_length_c 16.490130
_cell_angle_alpha 90.000000
_cell_angle_beta 137.735148
_cell_angle_gamma 90.000000
_cell_volume 2930.390782
_symmetry_space_group_name_H-M "C 2/C"
_symmetry_group_IT_number 15
_symmetry_cell_setting 'monoclinic'
loop_
_space_group_symop_operation_xyz
x,y,z
-x,y,1/2-z
-x,-y,-z
x,-y,1/2+z
1/2+x,1/2+y,z
1/2-x,1/2+y,1/2-z
1/2-x,1/2-y,-z
1/2+x,1/2-y,1/2+z
loop_
_atom_site_type_symbol
_atom_site_label
_atom_site_fract_x
_atom_site_fract_y
_atom_site_fract_z
Si Si1 0.596252 0.708589 0.655022
Si Si2 0.670752 0.038878 0.068863
Si Si3 0.155071 0.170283 0.009455
Si Si4 0.045573 0.563521 0.699324
Si Si5 0.752071 0.642734 0.914909
Si Si6 0.749727 0.316659 0.118914
Si Si7 0.644816 0.104606 0.227490
Si Si8 0.862694 0.851399 0.634232
O O1 0.475621 0.656760 0.557898
O O2 0.669154 0.655244 0.775290
O O3 0.659243 0.715726 0.616790
O O4 0.573162 0.806990 0.664896
O O5 0.668561 0.054117 0.162476
O O6 0.791114 0.074701 0.125176
O O7 0.663999 0.937770 0.041446
O O8 0.555158 0.084508 0.943320
O O9 0.171445 0.272608 0.012448
O O10 0.232925 0.126274 0.137299
O O11 0.176773 0.125081 0.939066
O O12 0.165758 0.614020 0.773011
O O13 0.071168 0.461487 0.725895
O O14 0.000000 0.597872 0.750000
O O15 0.830579 0.239627 0.149244
O O16 0.673333 0.355929 0.987636
O O17 0.000000 0.869015 0.750000
#
# Coordination Sequence:
#
# PCOD8148999 Si02
#       8
#     8   8   8   8   8   8   8   8
#     4  11  23  42  70  96 139 178 224 284 342 413
#     4  12  24  45  67 102 134 178 227 285 344 398
#     4  10  23  43  70  98 138 183 226 283 344 416
#     4  12  24  44  70  95 136 174 232 284 330 404
#     4  10  23  44  67 101 136 178 235 276 351 401
#     4  11  25  45  66 103 130 183 226 275 347 402
#     4  11  25  41  66 106 129 175 232 277 343 402
#     4  11  26  43  69  98 140 178 224 279 341 415
#
# _framework density 21.840091000000001
#
# number of rings (size 3 to 8) (size 9 to 14) (size 15 to 20)
#    0.000    1.000    2.500    3.375    3.500    5.000 
#    0.000    1.250    0.000    0.000    0.000    0.000 
#    0.000    0.000    0.000    0.000    0.000    0.000 
#
# Total GULP energy -396900.169882 kJ/mol
# GULP energy per Si atom -12403.130309 kJ/mol
# Density = 2.179038 g / cm^3
# Si number density = 21.840091 Si / 1000 Ang^3
#
#
#
# Elastic Constant Matrix: (Units=GPa)
#
#
# Indices 1 2 3 4 5 6 
#
# 1 81.6876 8.0233 52.9499 0.0000 -1.7398 0.0000
# 2 8.0233 64.2595 25.8044 0.0000 -4.6406 0.0000
# 3 52.9499 25.8044 113.5607 0.0000 3.0113 0.0000
# 4 0.0000 0.0000 0.0000 22.8529 0.0000 -4.3910
# 5 -1.7398 -4.6406 3.0113 0.0000 38.9851 0.0000
# 6 0.0000 0.0000 0.0000 -4.3910 0.0000 36.1026
#
#
#
# Elastic Compliance Matrix: (Units=1/GPa)
#
#
# Indices 1 2 3 4 5 6 
#
# 1 0.017730 0.001365 -0.008620 0.000000 0.001619 0.000000
# 2 0.001365 0.017446 -0.004667 0.000000 0.002498 0.000000
# 3 -0.008620 -0.004667 0.013939 0.000000 -0.002017 0.000000
# 4 0.000000 0.000000 0.000000 0.044805 0.000000 0.005450
# 5 0.001619 0.002498 -0.002017 0.000000 0.026176 0.000000
# 6 0.000000 0.000000 0.000000 0.005450 0.000000 0.028362
#
#
# Mechanical properties :
#
#
# Convention : Reuss Voigt Hill
#
# Bulk Modulus (GPa) = 39.57163 48.11811 43.84487
# Shear Modulus (GPa) = 27.66636 31.10346 29.38491
#
# Velocity S-wave (km/s) = 3.56303 3.77788 3.67203
# Velocity P-wave (km/s) = 5.92326 6.41168 6.17231
#
# Compressibility (1/GPa) = 0.02527063
#
# Stress axis : x y z
#
# Youngs Moduli (GPa) = 56.40293 57.31999 71.74153
#
# Poissons Ratio (x) = -0.07822 0.61840
# Poissons Ratio (y) = -0.07697 0.33480
# Poissons Ratio (z) = 0.48618 0.26750
#
# Static dielectric constant tensor:
#      x y z
#    x 3.889640 0.000000 -0.068140 
#    y 0.000000 3.898490 0.000000 
#    z -0.068140 0.000000 3.938100 
# 
# 
# High freq. dielectric constant tensor:
#      x y z
#    x 1.861420 0.000000 -0.004740 
#    y 0.000000 1.855360 0.000000 
#    z -0.004740 0.000000 1.867460 
# 
# From -- ./inp_files/211419.got.cif
#   From: 2010.06.25/outbox.cif.g09.slc.cpg/sg15_106_cif.got.tgz:211419.got - 2010.06.28 07:06:18.
