data_PCOD8148577
_publ_section_title
;
Structure prediction by ZEFSAII (Michael W. Deem and Ramdas Pophale) SiO2 
 PCOD8148577
Probable space group: C 2/C
;
_chemical_formula_sum "Si O2"
_cell_formula_units_Z 40
_cell_length_a 5.081013
_cell_length_b 22.336833
_cell_length_c 20.286428
_cell_angle_alpha 90.000000
_cell_angle_beta 119.555600
_cell_angle_gamma 90.000000
_cell_volume 2002.790641
_symmetry_space_group_name_H-M "C 2/C"
_symmetry_group_IT_number 15
_symmetry_cell_setting 'monoclinic'
loop_
_space_group_symop_operation_xyz
x,y,z
-x,y,1/2-z
-x,-y,-z
x,-y,1/2+z
1/2+x,1/2+y,z
1/2-x,1/2+y,1/2-z
1/2-x,1/2-y,-z
1/2+x,1/2-y,1/2+z
loop_
_atom_site_type_symbol
_atom_site_label
_atom_site_fract_x
_atom_site_fract_y
_atom_site_fract_z
Si Si1 0.074773 0.679153 0.045762
Si Si2 0.000000 0.811718 0.250000
Si Si3 0.500000 0.105717 0.750000
Si Si4 0.166451 0.755851 0.597447
Si Si5 0.142346 0.491024 0.833758
Si Si6 0.674119 0.040899 0.072896
O O1 0.399141 0.708849 0.101917
O O2 0.086262 0.608301 0.046243
O O3 0.835097 0.697611 0.071239
O O4 0.967918 0.700398 0.960440
O O5 0.270949 0.853267 0.260828
O O6 0.098824 0.769022 0.321140
O O7 0.668834 0.062911 0.824377
O O8 0.467580 0.465210 0.892076
O O9 0.000000 0.460528 0.750000
O O10 0.911157 0.477761 0.863897
O O11 0.500000 0.000000 0.000000
#
# Coordination Sequence:
#
# PCOD8148577 Si02
#       6
#     8   4   4   8   8   8
#     4  10  23  42  63  90 134 162 207 263 325 369
#     4  12  22  42  67  96 115 172 228 254 316 380
#     4  10  24  38  67  88 133 162 210 276 310 368
#     4  10  23  43  63  94 124 167 211 269 316 372
#     4  10  24  43  60  97 134 170 212 262 336 367
#     4  12  24  42  69 101 125 180 216 260 322 408
#
# _framework density 19.972132999999999
#
# number of rings (size 3 to 8) (size 9 to 14) (size 15 to 20)
#    0.600    0.800    0.000    4.800    5.600    0.000 
#   10.800    0.000    0.000    0.000    0.000    0.000 
#    0.000    0.000    0.000    0.000    0.000    0.000 
#
# Total GULP energy -248063.452168 kJ/mol
# GULP energy per Si atom -12403.172608 kJ/mol
# Density = 1.992668 g / cm^3
# Si number density = 19.972133 Si / 1000 Ang^3
#
#
#
# Elastic Constant Matrix: (Units=GPa)
#
#
# Indices 1 2 3 4 5 6 
#
# 1 81.8838 10.3805 10.9901 0.0000 2.5605 0.0000
# 2 10.3805 125.3966 45.3529 0.0000 -3.7870 0.0000
# 3 10.9901 45.3529 98.9838 0.0000 -1.4441 0.0000
# 4 0.0000 0.0000 0.0000 25.3096 0.0000 5.3740
# 5 2.5605 -3.7870 -1.4441 0.0000 34.4385 0.0000
# 6 0.0000 0.0000 0.0000 5.3740 0.0000 31.1321
#
#
#
# Elastic Compliance Matrix: (Units=1/GPa)
#
#
# Indices 1 2 3 4 5 6 
#
# 1 0.012477 -0.000669 -0.001094 0.000000 -0.001047 0.000000
# 2 -0.000669 0.009621 -0.004320 0.000000 0.000926 0.000000
# 3 -0.001094 -0.004320 0.012205 0.000000 0.000118 0.000000
# 4 0.000000 0.000000 0.000000 0.041014 0.000000 -0.007080
# 5 -0.001047 0.000926 0.000118 0.000000 0.029222 0.000000
# 6 0.000000 0.000000 0.000000 -0.007080 0.000000 0.033343
#
#
# Mechanical properties :
#
#
# Convention : Reuss Voigt Hill
#
# Bulk Modulus (GPa) = 45.17439 48.85680 47.01559
# Shear Modulus (GPa) = 31.76075 34.14541 32.95308
#
# Velocity S-wave (km/s) = 3.99212 4.13928 4.06637
# Velocity P-wave (km/s) = 6.62701 6.88189 6.75565
#
# Compressibility (1/GPa) = 0.02213644
#
# Stress axis : x y z
#
# Youngs Moduli (GPa) = 80.14876 103.94403 81.93136
#
# Poissons Ratio (x) = 0.06951 0.08965
# Poissons Ratio (y) = 0.05360 0.35396
# Poissons Ratio (z) = 0.08770 0.44906
#
# Static dielectric constant tensor:
#      x y z
#    x 3.678620 0.000000 -0.002880 
#    y 0.000000 3.585450 0.000000 
#    z -0.002880 0.000000 3.535630 
# 
# 
# High freq. dielectric constant tensor:
#      x y z
#    x 1.798230 0.000000 0.003730 
#    y 0.000000 1.781020 0.000000 
#    z 0.003730 0.000000 1.777350 
# 
# From -- ./inp_files/261477.got.cif
#   From: 2010.06.25/outbox.cif.g09.slc.cpg/sg15_131_cif.got.tgz:261477.got - 2010.06.28 07:06:18.
