data_PCOD8148550
_publ_section_title
;
Structure prediction by ZEFSAII (Michael W. Deem and Ramdas Pophale) SiO2 
 PCOD8148550
Probable space group: C 2/C
;
_chemical_formula_sum "Si O2"
_cell_formula_units_Z 44
_cell_length_a 10.471845
_cell_length_b 10.798592
_cell_length_c 28.951494
_cell_angle_alpha 90.000000
_cell_angle_beta 41.968654
_cell_angle_gamma 90.000000
_cell_volume 2189.314673
_symmetry_space_group_name_H-M "C 2/C"
_symmetry_group_IT_number 15
_symmetry_cell_setting 'monoclinic'
loop_
_space_group_symop_operation_xyz
x,y,z
-x,y,1/2-z
-x,-y,-z
x,-y,1/2+z
1/2+x,1/2+y,z
1/2-x,1/2+y,1/2-z
1/2-x,1/2-y,-z
1/2+x,1/2-y,1/2+z
loop_
_atom_site_type_symbol
_atom_site_label
_atom_site_fract_x
_atom_site_fract_y
_atom_site_fract_z
Si Si1 0.058105 0.176777 0.455561
Si Si2 0.394739 0.219852 0.656967
Si Si3 0.806974 0.480524 0.430112
Si Si4 0.915291 0.882104 0.820230
Si Si5 0.008081 0.391809 0.535232
Si Si6 0.000000 0.882288 0.250000
O O1 0.847292 0.120835 0.513783
O O2 0.093341 0.269616 0.488612
O O3 0.068333 0.252430 0.406057
O O4 0.219576 0.069560 0.413993
O O5 0.507979 0.092713 0.639119
O O6 0.457910 0.334075 0.671506
O O7 0.169350 0.201511 0.724489
O O8 0.853803 0.565536 0.461252
O O9 0.695319 0.851674 0.888479
O O10 0.000000 0.820805 0.750000
O O11 0.930828 0.031510 0.811488
O O12 0.000000 0.500000 0.500000
#
# Coordination Sequence:
#
# PCOD8148550 Si02
#       6
#     8   8   8   8   8   4
#     4  11  24  38  66 102 122 165 209 269 326 372
#     4  12  22  44  65  87 131 163 216 265 313 386
#     4  11  22  39  63  98 133 155 210 268 320 390
#     4  10  23  42  60  90 128 166 210 261 317 378
#     4  12  20  39  70  92 127 170 208 267 324 372
#     4  10  24  42  60  86 118 174 212 252 312 376
#
# _framework density 20.097612999999999
#
# number of rings (size 3 to 8) (size 9 to 14) (size 15 to 20)
#    0.545    0.364    5.455    2.182    0.000    2.909 
#    3.273    1.818    0.000    0.000    0.000    0.000 
#    0.000    0.000    0.000    0.000    0.000    0.000 
#
# Total GULP energy -272789.667300 kJ/mol
# GULP energy per Si atom -12399.530332 kJ/mol
# Density = 2.005187 g / cm^3
# Si number density = 20.097613 Si / 1000 Ang^3
#
#
#
# Elastic Constant Matrix: (Units=GPa)
#
#
# Indices 1 2 3 4 5 6 
#
# 1 91.1890 29.2239 13.3856 0.0000 -9.4375 0.0000
# 2 29.2239 67.8523 16.4230 0.0000 -8.5147 0.0000
# 3 13.3856 16.4230 58.8763 0.0001 0.9437 0.0001
# 4 0.0000 0.0000 0.0001 16.8703 0.0000 -10.3571
# 5 -9.4375 -8.5147 0.9437 0.0000 32.0712 0.0000
# 6 0.0000 0.0000 0.0001 -10.3571 0.0000 40.3225
#
#
#
# Elastic Compliance Matrix: (Units=1/GPa)
#
#
# Indices 1 2 3 4 5 6 
#
# 1 0.013044 -0.004896 -0.001641 0.000000 0.002587 0.000000
# 2 -0.004896 0.018267 -0.004039 0.000000 0.003528 0.000000
# 3 -0.001641 -0.004039 0.018518 0.000000 -0.002100 0.000000
# 4 0.000000 0.000000 0.000000 0.070373 0.000000 0.018076
# 5 0.002587 0.003528 -0.002100 0.000000 0.032940 0.000000
# 6 0.000000 0.000000 0.000000 0.018076 0.000000 0.029443
#
#
# Mechanical properties :
#
#
# Convention : Reuss Voigt Hill
#
# Bulk Modulus (GPa) = 34.87165 37.33141 36.10153
# Shear Modulus (GPa) = 23.44155 28.44513 25.94334
#
# Velocity S-wave (km/s) = 3.41894 3.76619 3.59676
# Velocity P-wave (km/s) = 5.74233 6.12598 5.93726
#
# Compressibility (1/GPa) = 0.02867659
#
# Stress axis : x y z
#
# Youngs Moduli (GPa) = 76.66367 54.74381 54.00107
#
# Poissons Ratio (x) = 0.26803 0.08863
# Poissons Ratio (y) = 0.37536 0.21810
# Poissons Ratio (z) = 0.12583 0.22110
#
# Static dielectric constant tensor:
#      x y z
#    x 3.714880 0.000000 -0.140520 
#    y 0.000000 3.713530 0.000000 
#    z -0.140520 0.000000 3.576260 
# 
# 
# High freq. dielectric constant tensor:
#      x y z
#    x 1.789110 0.000000 -0.012660 
#    y 0.000000 1.786980 0.000000 
#    z -0.012660 0.000000 1.773190 
# 
# From -- ./inp_files/230118.got.cif
#   From: 2010.06.25/outbox.cif.g09.slc.cpg/sg15_116_cif.got.tgz:230118.got - 2010.06.28 07:06:18.
