data_PCOD8148220
_publ_section_title
;
Structure prediction by ZEFSAII (Michael W. Deem and Ramdas Pophale) SiO2 
 PCOD8148220
Probable space group: C 2/C
;
_chemical_formula_sum "Si O2"
_cell_formula_units_Z 56
_cell_length_a 11.566919
_cell_length_b 11.749899
_cell_length_c 23.740217
_cell_angle_alpha 90.000000
_cell_angle_beta 53.249989
_cell_angle_gamma 90.000000
_cell_volume 2585.273884
_symmetry_space_group_name_H-M "C 2/C"
_symmetry_group_IT_number 15
_symmetry_cell_setting 'monoclinic'
loop_
_space_group_symop_operation_xyz
x,y,z
-x,y,1/2-z
-x,-y,-z
x,-y,1/2+z
1/2+x,1/2+y,z
1/2-x,1/2+y,1/2-z
1/2-x,1/2-y,-z
1/2+x,1/2-y,1/2+z
loop_
_atom_site_type_symbol
_atom_site_label
_atom_site_fract_x
_atom_site_fract_y
_atom_site_fract_z
Si Si1 0.360517 0.739055 0.388698
Si Si2 0.696483 0.264984 0.334366
Si Si3 0.279765 0.766681 0.901054
Si Si4 0.755705 0.433284 0.498420
Si Si5 0.658420 0.177896 0.820536
Si Si6 0.496110 0.942699 0.877631
Si Si7 0.569477 0.368023 0.045198
O O1 0.344777 0.751422 0.325915
O O2 0.271750 0.627838 0.434165
O O3 0.285937 0.846061 0.439860
O O4 0.529662 0.729563 0.354310
O O5 0.725936 0.303139 0.262409
O O6 0.614097 0.145849 0.363054
O O7 0.601614 0.357615 0.396241
O O8 0.246186 0.701823 0.852245
O O9 0.386981 0.878921 0.864169
O O10 0.358689 0.676689 0.917876
O O11 0.126752 0.799171 0.974050
O O12 0.609209 0.500068 0.525687
O O13 0.892750 0.520268 0.460490
O O14 0.585315 0.053919 0.831390
#
# Coordination Sequence:
#
# PCOD8148220 Si02
#       7
#     8   8   8   8   8   8   8
#     4  10  23  40  60  94 131 165 219 265 326 405
#     4  11  24  41  63  97 132 163 219 270 326 404
#     4   9  20  42  66  95 125 163 224 270 319 394
#     4   9  20  41  61  94 122 169 212 268 335 375
#     4  11  24  44  64  91 135 184 206 268 339 394
#     4   9  22  43  65  97 122 172 222 267 330 383
#     4   9  20  38  64  97 122 159 218 280 314 381
#
# _framework density 21.661147
#
# number of rings (size 3 to 8) (size 9 to 14) (size 15 to 20)
#    0.000    2.286    0.000    1.286    8.000    4.571 
#   18.000    0.000    0.000    0.000    0.000    0.000 
#    0.000    0.000    0.000    0.000    0.000    0.000 
#
# Total GULP energy -346882.284935 kJ/mol
# GULP energy per Si atom -12388.653033 kJ/mol
# Density = 2.161185 g / cm^3
# Si number density = 21.661147 Si / 1000 Ang^3
#
#
#
# Elastic Constant Matrix: (Units=GPa)
#
#
# Indices 1 2 3 4 5 6 
#
# 1 63.4213 0.1254 5.8246 0.0000 -2.1280 0.0000
# 2 0.1254 70.9021 9.5536 0.0000 -21.4641 0.0000
# 3 5.8246 9.5536 66.6528 0.0000 -6.3916 0.0000
# 4 0.0000 0.0000 0.0000 22.9975 0.0000 -13.1812
# 5 -2.1280 -21.4641 -6.3916 0.0000 30.7614 0.0000
# 6 0.0000 0.0000 0.0000 -13.1812 0.0000 29.4916
#
#
#
# Elastic Compliance Matrix: (Units=1/GPa)
#
#
# Indices 1 2 3 4 5 6 
#
# 1 0.015930 0.000510 -0.001352 0.000000 0.001177 0.000000
# 2 0.000510 0.018025 -0.001448 0.000000 0.012312 0.000000
# 3 -0.001352 -0.001448 0.015532 0.000000 0.002124 0.000000
# 4 0.000000 0.000000 0.000000 0.058458 0.000000 0.026128
# 5 0.001177 0.012312 0.002124 0.000000 0.041622 0.000000
# 6 0.000000 0.000000 0.000000 0.026128 0.000000 0.045586
#
#
# Mechanical properties :
#
#
# Convention : Reuss Voigt Hill
#
# Bulk Modulus (GPa) = 22.26732 25.77592 24.02162
# Shear Modulus (GPa) = 23.28808 29.01494 26.15151
#
# Velocity S-wave (km/s) = 3.28244 3.66388 3.47839
# Velocity P-wave (km/s) = 4.96669 5.46115 5.21978
#
# Compressibility (1/GPa) = 0.04490886
#
# Stress axis : x y z
#
# Youngs Moduli (GPa) = 62.77358 55.47773 64.38134
#
# Poissons Ratio (x) = -0.02832 0.08707
# Poissons Ratio (y) = -0.03204 0.09320
# Poissons Ratio (z) = 0.08489 0.08031
#
# Static dielectric constant tensor:
#      x y z
#    x 3.786220 0.000000 -0.318060 
#    y 0.000000 4.158680 0.000000 
#    z -0.318060 0.000000 3.838460 
# 
# 
# High freq. dielectric constant tensor:
#      x y z
#    x 1.841430 0.000000 -0.015590 
#    y 0.000000 1.852120 0.000000 
#    z -0.015590 0.000000 1.836290 
# 
# From -- ./inp_files/268725.got.cif
#   From: 2010.06.25/outbox.cif.g09.slc.cpg/sg15_135_cif.got.tgz:268725.got - 2010.06.28 07:06:18.
