data_PCOD8148416
_publ_section_title
;
Structure prediction by ZEFSAII (Michael W. Deem and Ramdas Pophale) SiO2 
 PCOD8148416
Probable space group: C 2/C
;
_chemical_formula_sum "Si O2"
_cell_formula_units_Z 36
_cell_length_a 21.492545
_cell_length_b 7.205839
_cell_length_c 12.167428
_cell_angle_alpha 90.000000
_cell_angle_beta 75.117999
_cell_angle_gamma 90.000000
_cell_volume 1821.183193
_symmetry_space_group_name_H-M "C 2/C"
_symmetry_group_IT_number 15
_symmetry_cell_setting 'monoclinic'
loop_
_space_group_symop_operation_xyz
x,y,z
-x,y,1/2-z
-x,-y,-z
x,-y,1/2+z
1/2+x,1/2+y,z
1/2-x,1/2+y,1/2-z
1/2-x,1/2-y,-z
1/2+x,1/2-y,1/2+z
loop_
_atom_site_type_symbol
_atom_site_label
_atom_site_fract_x
_atom_site_fract_y
_atom_site_fract_z
Si Si1 0.500000 0.064285 0.750000
Si Si2 0.668485 0.391890 0.098871
Si Si3 0.313312 0.959667 0.047121
Si Si4 0.095783 0.759459 0.556372
Si Si5 0.111894 0.656129 0.315005
O O1 0.529838 0.194103 0.642499
O O2 0.446633 0.932471 0.722991
O O3 0.737091 0.492780 0.079293
O O4 0.614569 0.543792 0.098635
O O5 0.653128 0.290410 0.219537
O O6 0.669512 0.248579 0.997043
O O7 0.340818 0.995052 0.157953
O O8 0.347562 0.106354 0.948196
O O9 0.084059 0.776580 0.430237
#
# Coordination Sequence:
#
# PCOD8148416 Si02
#       5
#     4   8   8   8   8
#     4  12  22  46  64  86 142 170 210 276 304 366
#     4  11  21  43  70  95 127 169 209 264 331 382
#     4   9  23  42  65  96 134 155 211 276 318 375
#     4  10  24  41  65  96 125 172 215 257 316 383
#     4  10  23  41  64  93 130 168 210 265 321 368
#
# _framework density 19.767368000000001
#
# number of rings (size 3 to 8) (size 9 to 14) (size 15 to 20)
#    1.333    0.444    2.222    1.333    0.000    8.000 
#    0.000    3.333    0.000    0.000    0.000    0.000 
#    0.000    0.000    0.000    0.000    0.000    0.000 
#
# Total GULP energy -223150.786825 kJ/mol
# GULP energy per Si atom -12397.265935 kJ/mol
# Density = 1.972238 g / cm^3
# Si number density = 19.767368 Si / 1000 Ang^3
#
#
#
# Elastic Constant Matrix: (Units=GPa)
#
#
# Indices 1 2 3 4 5 6 
#
# 1 50.0171 28.0958 32.4398 0.0000 -1.8049 0.0000
# 2 28.0958 74.2181 23.5767 0.0000 2.1545 0.0000
# 3 32.4398 23.5767 99.8029 0.0000 -9.2103 0.0000
# 4 0.0000 0.0000 0.0000 27.4114 0.0000 2.7732
# 5 -1.8049 2.1545 -9.2103 0.0000 41.1126 0.0000
# 6 0.0000 0.0000 0.0000 2.7732 0.0000 21.9987
#
#
#
# Elastic Compliance Matrix: (Units=1/GPa)
#
#
# Indices 1 2 3 4 5 6 
#
# 1 0.029948 -0.008918 -0.007621 0.000000 0.000075 0.000000
# 2 -0.008918 0.017322 -0.001341 0.000000 -0.001600 0.000000
# 3 -0.007621 -0.001341 0.013059 0.000000 0.002661 0.000000
# 4 0.000000 0.000000 0.000000 0.036952 0.000000 -0.004658
# 5 0.000075 -0.001600 0.002661 0.000000 0.025007 0.000000
# 6 0.000000 0.000000 0.000000 -0.004658 0.000000 0.046044
#
#
# Mechanical properties :
#
#
# Convention : Reuss Voigt Hill
#
# Bulk Modulus (GPa) = 40.70047 43.58476 42.14261
# Shear Modulus (GPa) = 23.55350 27.43293 25.49321
#
# Velocity S-wave (km/s) = 3.45561 3.72935 3.59508
# Velocity P-wave (km/s) = 6.04616 6.37501 6.21276
#
# Compressibility (1/GPa) = 0.02456974
#
# Stress axis : x y z
#
# Youngs Moduli (GPa) = 33.39118 57.72900 76.57503
#
# Poissons Ratio (x) = 0.51485 0.58354
# Poissons Ratio (y) = 0.29780 0.10268
# Poissons Ratio (z) = 0.25446 0.07741
#
# Static dielectric constant tensor:
#      x y z
#    x 3.471560 0.000000 -0.111770 
#    y 0.000000 3.404080 0.000000 
#    z -0.111770 0.000000 3.642420 
# 
# 
# High freq. dielectric constant tensor:
#      x y z
#    x 1.766580 0.000000 -0.008960 
#    y 0.000000 1.762870 0.000000 
#    z -0.008960 0.000000 1.775160 
# 
# From -- ./inp_files/115799.got.cif
#   From: 2010.06.25/outbox.cif.g09.slc.cpg/sg15_58_cif.got.tgz:115799.got - 2010.06.28 07:06:18.
