data_PCOD8148040
_publ_section_title
;
Structure prediction by ZEFSAII (Michael W. Deem and Ramdas Pophale) SiO2 
 PCOD8148040
Probable space group: C 2/C
;
_chemical_formula_sum "Si O2"
_cell_formula_units_Z 44
_cell_length_a 11.241735
_cell_length_b 20.605096
_cell_length_c 8.448986
_cell_angle_alpha 90.000000
_cell_angle_beta 97.517842
_cell_angle_gamma 90.000000
_cell_volume 1940.275127
_symmetry_space_group_name_H-M "C 2/C"
_symmetry_group_IT_number 15
_symmetry_cell_setting 'monoclinic'
loop_
_space_group_symop_operation_xyz
x,y,z
-x,y,1/2-z
-x,-y,-z
x,-y,1/2+z
1/2+x,1/2+y,z
1/2-x,1/2+y,1/2-z
1/2-x,1/2-y,-z
1/2+x,1/2-y,1/2+z
loop_
_atom_site_type_symbol
_atom_site_label
_atom_site_fract_x
_atom_site_fract_y
_atom_site_fract_z
Si Si1 0.157004 0.942992 0.038953
Si Si2 0.340213 0.052050 0.971633
Si Si3 0.768104 0.197180 0.868109
Si Si4 0.500000 0.247725 0.250000
Si Si5 0.000000 0.009281 0.250000
Si Si6 0.500000 0.002660 0.750000
Si Si7 0.839914 0.304630 0.464058
O O1 0.222142 0.873695 0.051375
O O2 0.106724 0.962721 0.203084
O O3 0.245429 0.997241 0.990086
O O4 0.046339 0.942852 0.896019
O O5 0.390458 0.046568 0.799665
O O6 0.286187 0.123641 0.989781
O O7 0.454574 0.044650 0.105086
O O8 0.889789 0.208334 0.788945
O O9 0.653352 0.200979 0.727547
O O10 0.750000 0.250000 0.000000
O O11 0.538161 0.204808 0.411983
O O12 0.750000 0.250000 0.500000
#
# Coordination Sequence:
#
# PCOD8148040 Si02
#       7
#     8   8   8   4   4   4   8
#     4  11  23  42  64  93 126 161 207 261 308 368
#     4  11  22  40  63  91 126 160 206 258 307 369
#     4  11  25  42  65  94 124 165 211 255 312 371
#     4  10  24  44  64  88 130 166 204 260 308 370
#     4  10  23  38  66  94 121 164 208 252 317 368
#     4  10  23  36  62  94 121 164 206 250 313 368
#     4  10  23  42  65  92 126 167 207 255 314 369
#
# _framework density 22.677198000000001
#
# number of rings (size 3 to 8) (size 9 to 14) (size 15 to 20)
#    0.000    1.455    0.000    4.364    0.000   16.727 
#    0.000    0.000    0.000    1.091    0.000    0.000 
#    0.000    0.000    0.000    0.000    0.000    0.000 
#
# Total GULP energy -272669.336253 kJ/mol
# GULP energy per Si atom -12394.060739 kJ/mol
# Density = 2.262558 g / cm^3
# Si number density = 22.677198 Si / 1000 Ang^3
#
#
#
# Elastic Constant Matrix: (Units=GPa)
#
#
# Indices 1 2 3 4 5 6 
#
# 1 82.3581 43.1919 29.5336 0.0000 -18.0834 0.0000
# 2 43.1919 188.0303 63.3980 0.0000 -0.7116 0.0000
# 3 29.5336 63.3980 153.7634 0.0000 17.4332 0.0000
# 4 0.0000 0.0000 0.0000 28.2069 0.0000 0.5438
# 5 -18.0834 -0.7116 17.4332 0.0000 47.0038 0.0000
# 6 0.0000 0.0000 0.0000 0.5438 0.0000 48.1532
#
#
#
# Elastic Compliance Matrix: (Units=1/GPa)
#
#
# Indices 1 2 3 4 5 6 
#
# 1 0.016166 -0.002745 -0.002791 0.000000 0.007213 0.000000
# 2 -0.002745 0.006696 -0.002219 0.000000 -0.000132 0.000000
# 3 -0.002791 -0.002219 0.008435 0.000000 -0.004236 0.000000
# 4 0.000000 0.000000 0.000000 0.035460 0.000000 -0.000400
# 5 0.007213 -0.000132 -0.004236 0.000000 0.025619 0.000000
# 6 0.000000 0.000000 0.000000 -0.000400 0.000000 0.020772
#
#
# Mechanical properties :
#
#
# Convention : Reuss Voigt Hill
#
# Bulk Modulus (GPa) = 63.34135 77.37765 70.35950
# Shear Modulus (GPa) = 37.33552 43.87467 40.60509
#
# Velocity S-wave (km/s) = 4.06198 4.40335 4.23610
# Velocity P-wave (km/s) = 7.07049 7.74907 7.41755
#
# Compressibility (1/GPa) = 0.01578748
#
# Stress axis : x y z
#
# Youngs Moduli (GPa) = 61.85649 149.33189 118.55868
#
# Poissons Ratio (x) = 0.40994 0.33090
# Poissons Ratio (y) = 0.16981 0.26306
# Poissons Ratio (z) = 0.17265 0.33134
#
# Static dielectric constant tensor:
#      x y z
#    x 3.993040 0.000000 0.438570 
#    y 0.000000 3.960660 0.000000 
#    z 0.438570 0.000000 4.955610 
# 
# 
# High freq. dielectric constant tensor:
#      x y z
#    x 1.877610 0.000000 0.021470 
#    y 0.000000 1.887360 0.000000 
#    z 0.021470 0.000000 1.923590 
# 
# From -- ./inp_files/30978.got.cif
#   From: 2010.06.25/outbox.cif.g09.slc.cpg/sg15_16_cif.got.tgz:30978.got - 2010.06.28 07:06:18.
