data_PCOD8148188
_publ_section_title
;
Structure prediction by ZEFSAII (Michael W. Deem and Ramdas Pophale) SiO2 
 PCOD8148188
Probable space group: C 2/C
;
_chemical_formula_sum "Si O2"
_cell_formula_units_Z 52
_cell_length_a 21.679775
_cell_length_b 19.648820
_cell_length_c 8.516991
_cell_angle_alpha 90.000000
_cell_angle_beta 139.005763
_cell_angle_gamma 90.000000
_cell_volume 2379.962387
_symmetry_space_group_name_H-M "C 2/C"
_symmetry_group_IT_number 15
_symmetry_cell_setting 'monoclinic'
loop_
_space_group_symop_operation_xyz
x,y,z
-x,y,1/2-z
-x,-y,-z
x,-y,1/2+z
1/2+x,1/2+y,z
1/2-x,1/2+y,1/2-z
1/2-x,1/2-y,-z
1/2+x,1/2-y,1/2+z
loop_
_atom_site_type_symbol
_atom_site_label
_atom_site_fract_x
_atom_site_fract_y
_atom_site_fract_z
Si Si1 0.704666 0.432516 0.178944
Si Si2 0.420654 0.221045 0.987928
Si Si3 0.774179 0.222363 0.715380
Si Si4 0.750020 0.435022 0.923364
Si Si5 0.102460 0.334370 0.387118
Si Si6 0.046780 0.873261 0.501193
Si Si7 0.500000 0.575194 0.250000
O O1 0.695028 0.356758 0.232558
O O2 0.752712 0.484507 0.391099
O O3 0.768057 0.428422 0.144213
O O4 0.600058 0.463923 0.940258
O O5 0.319702 0.232039 0.868306
O O6 0.406167 0.173588 0.813628
O O7 0.462349 0.292711 0.016538
O O8 0.500000 0.185666 0.250000
O O9 0.750000 0.250000 0.500000
O O10 0.858399 0.266346 0.953489
O O11 0.652622 0.398561 0.698905
O O12 0.827004 0.398199 0.960659
O O13 0.000000 0.354442 0.250000
O O14 0.996479 0.888415 0.571595
O O15 0.000000 0.903432 0.250000
#
# Coordination Sequence:
#
# PCOD8148188 Si02
#       7
#     8   8   8   8   8   8   4
#     4  11  27  43  70 100 144 185 235 294 361 431
#     4  11  23  43  67 105 138 177 231 296 361 426
#     4  12  26  44  73 108 142 183 238 296 360 429
#     4  11  25  47  67 100 143 188 232 291 358 429
#     4  12  25  46  73 102 142 190 239 299 357 416
#     4  10  23  39  67 102 145 182 220 284 363 437
#     4  10  24  40  64 106 138 180 230 284 362 446
#
# _framework density 21.849084999999999
#
# number of rings (size 3 to 8) (size 9 to 14) (size 15 to 20)
#    0.000    0.923    3.077    3.231   14.000    1.231 
#    0.000    1.538    0.000    0.000    0.000    0.000 
#    0.000    0.000    0.000    0.000    0.000    0.000 
#
# Total GULP energy -322182.827406 kJ/mol
# GULP energy per Si atom -12391.647208 kJ/mol
# Density = 2.179936 g / cm^3
# Si number density = 21.849085 Si / 1000 Ang^3
#
#
#
# Elastic Constant Matrix: (Units=GPa)
#
#
# Indices 1 2 3 4 5 6 
#
# 1 148.7623 30.3749 47.9447 0.0000 -1.6676 0.0000
# 2 30.3749 121.4053 36.6094 0.0000 -3.1040 0.0000
# 3 47.9447 36.6094 107.3840 0.0000 -17.8107 0.0000
# 4 0.0000 0.0000 0.0000 30.3900 0.0000 -4.5542
# 5 -1.6676 -3.1040 -17.8107 0.0000 45.5977 0.0000
# 6 0.0000 0.0000 0.0000 -4.5542 0.0000 11.4515
#
#
#
# Elastic Compliance Matrix: (Units=1/GPa)
#
#
# Indices 1 2 3 4 5 6 
#
# 1 0.008017 -0.001002 -0.003422 0.000000 -0.001112 0.000000
# 2 -0.001002 0.009323 -0.002814 0.000000 -0.000501 0.000000
# 3 -0.003422 -0.002814 0.012561 0.000000 0.004590 0.000000
# 4 0.000000 0.000000 0.000000 0.034991 0.000000 0.013916
# 5 -0.001112 -0.000501 0.004590 0.000000 0.023649 0.000000
# 6 0.000000 0.000000 0.000000 0.013916 0.000000 0.092859
#
#
# Mechanical properties :
#
#
# Convention : Reuss Voigt Hill
#
# Bulk Modulus (GPa) = 64.83299 67.48995 66.16147
# Shear Modulus (GPa) = 24.87322 34.99602 29.93462
#
# Velocity S-wave (km/s) = 3.37769 4.00649 3.70545
# Velocity P-wave (km/s) = 6.70442 7.23594 6.97524
#
# Compressibility (1/GPa) = 0.01542425
#
# Stress axis : x y z
#
# Youngs Moduli (GPa) = 124.73057 107.25662 79.61175
#
# Poissons Ratio (x) = 0.10751 0.27245
# Poissons Ratio (y) = 0.12502 0.22404
# Poissons Ratio (z) = 0.42686 0.30184
#
# Static dielectric constant tensor:
#      x y z
#    x 4.059510 0.000000 -0.125550 
#    y 0.000000 3.714040 0.000000 
#    z -0.125550 0.000000 4.201420 
# 
# 
# High freq. dielectric constant tensor:
#      x y z
#    x 1.871820 0.000000 -0.006950 
#    y 0.000000 1.840820 0.000000 
#    z -0.006950 0.000000 1.863910 
# 
# From -- ./inp_files/57086.got.cif
#   From: 2010.06.25/outbox.cif.g09.slc.cpg/sg15_29_cif.got.tgz:57086.got - 2010.06.28 07:06:18.
