data_PCOD8148922
_publ_section_title
;
Structure prediction by ZEFSAII (Michael W. Deem and Ramdas Pophale) SiO2 
 PCOD8148922
Probable space group: C 2/C
;
_chemical_formula_sum "Si O2"
_cell_formula_units_Z 48
_cell_length_a 11.427863
_cell_length_b 11.851615
_cell_length_c 16.907652
_cell_angle_alpha 90.000000
_cell_angle_beta 78.026368
_cell_angle_gamma 90.000000
_cell_volume 2240.127252
_symmetry_space_group_name_H-M "C 2/C"
_symmetry_group_IT_number 15
_symmetry_cell_setting 'monoclinic'
loop_
_space_group_symop_operation_xyz
x,y,z
-x,y,1/2-z
-x,-y,-z
x,-y,1/2+z
1/2+x,1/2+y,z
1/2-x,1/2+y,1/2-z
1/2-x,1/2-y,-z
1/2+x,1/2-y,1/2+z
loop_
_atom_site_type_symbol
_atom_site_label
_atom_site_fract_x
_atom_site_fract_y
_atom_site_fract_z
Si Si1 0.531172 0.315671 0.478079
Si Si2 0.443215 0.581332 0.141736
Si Si3 0.339228 0.820713 0.197438
Si Si4 0.918916 0.871302 0.331965
Si Si5 0.752348 0.587996 0.868116
Si Si6 0.974342 0.418484 0.433244
O O1 0.478651 0.410529 0.544463
O O2 0.450635 0.311503 0.410494
O O3 0.667176 0.336310 0.434149
O O4 0.532671 0.203678 0.528150
O O5 0.409361 0.701200 0.183943
O O6 0.551212 0.507876 0.167838
O O7 0.322189 0.508257 0.165946
O O8 0.216739 0.834718 0.165438
O O9 0.317974 0.836630 0.293096
O O10 0.424129 0.917562 0.148852
O O11 0.000000 0.819744 0.250000
O O12 0.852290 0.537320 0.911429
O O13 0.000000 0.500000 0.500000
#
# Coordination Sequence:
#
# PCOD8148922 Si02
#       6
#     8   8   8   8   8   8
#     4  10  23  43  67  96 127 177 223 281 330 406
#     4  10  24  41  71  99 131 175 221 289 326 402
#     4  11  25  44  67  99 135 174 222 282 334 412
#     4  11  21  43  70 100 127 170 233 268 345 402
#     4  11  22  46  64  97 132 171 228 271 342 409
#     4  11  27  41  62  95 135 177 216 278 346 398
#
# _framework density 21.427354000000001
#
# number of rings (size 3 to 8) (size 9 to 14) (size 15 to 20)
#    0.000    1.333    3.333    3.000    7.000    5.333 
#    0.000    0.000    0.000    0.000    0.000    0.000 
#    0.000    0.000    0.000    0.000    0.000    0.000 
#
# Total GULP energy -297437.198605 kJ/mol
# GULP energy per Si atom -12393.216609 kJ/mol
# Density = 2.137858 g / cm^3
# Si number density = 21.427354 Si / 1000 Ang^3
#
#
#
# Elastic Constant Matrix: (Units=GPa)
#
#
# Indices 1 2 3 4 5 6 
#
# 1 110.8701 10.5315 11.0167 0.0000 0.6966 0.0000
# 2 10.5315 60.2637 14.7584 0.0000 -11.4230 0.0000
# 3 11.0167 14.7584 124.4585 0.0000 -18.3311 0.0000
# 4 0.0000 0.0000 0.0000 35.6828 0.0000 -4.2518
# 5 0.6966 -11.4230 -18.3311 0.0000 37.8851 0.0000
# 6 0.0000 0.0000 0.0000 -4.2518 0.0000 26.5590
#
#
#
# Elastic Compliance Matrix: (Units=1/GPa)
#
#
# Indices 1 2 3 4 5 6 
#
# 1 0.009258 -0.001623 -0.000780 0.000000 -0.001037 0.000000
# 2 -0.001623 0.018116 -0.001287 0.000000 0.004869 0.000000
# 3 -0.000780 -0.001287 0.008831 0.000000 0.003899 0.000000
# 4 0.000000 0.000000 0.000000 0.028570 0.000000 0.004574
# 5 -0.001037 0.004869 0.003899 0.000000 0.029769 0.000000
# 6 0.000000 0.000000 0.000000 0.004574 0.000000 0.038384
#
#
# Mechanical properties :
#
#
# Convention : Reuss Voigt Hill
#
# Bulk Modulus (GPa) = 34.69421 40.91171 37.80296
# Shear Modulus (GPa) = 33.35198 37.31110 35.33154
#
# Velocity S-wave (km/s) = 3.94955 4.17740 4.06507
# Velocity P-wave (km/s) = 6.08484 6.51170 6.30188
#
# Compressibility (1/GPa) = 0.02882325
#
# Stress axis : x y z
#
# Youngs Moduli (GPa) = 108.01738 55.20081 113.24069
#
# Poissons Ratio (x) = 0.08962 0.08829
# Poissons Ratio (y) = 0.17536 0.14577
# Poissons Ratio (z) = 0.08422 0.07106
#
# Static dielectric constant tensor:
#      x y z
#    x 3.957720 0.000000 -0.041070 
#    y 0.000000 2.726390 0.000000 
#    z -0.041070 0.000000 3.956690 
# 
# 
# High freq. dielectric constant tensor:
#      x y z
#    x 1.845610 0.000000 -0.001030 
#    y 0.000000 1.821300 0.000000 
#    z -0.001030 0.000000 1.869980 
# 
# From -- ./inp_files/196529.got.cif
#   From: 2010.06.25/outbox.cif.g09.slc.cpg/sg15_99_cif.got.tgz:196529.got - 2010.06.28 07:06:18.
