data_PCOD8148030
_publ_section_title
;
Structure prediction by ZEFSAII (Michael W. Deem and Ramdas Pophale) SiO2 
 PCOD8148030
Probable space group: C 2/C
;
_chemical_formula_sum "Si O2"
_cell_formula_units_Z 48
_cell_length_a 17.476061
_cell_length_b 25.675289
_cell_length_c 5.201266
_cell_angle_alpha 90.000000
_cell_angle_beta 96.532765
_cell_angle_gamma 90.000000
_cell_volume 2318.669611
_symmetry_space_group_name_H-M "C 2/C"
_symmetry_group_IT_number 15
_symmetry_cell_setting 'monoclinic'
loop_
_space_group_symop_operation_xyz
x,y,z
-x,y,1/2-z
-x,-y,-z
x,-y,1/2+z
1/2+x,1/2+y,z
1/2-x,1/2+y,1/2-z
1/2-x,1/2-y,-z
1/2+x,1/2-y,1/2+z
loop_
_atom_site_type_symbol
_atom_site_label
_atom_site_fract_x
_atom_site_fract_y
_atom_site_fract_z
Si Si1 0.295426 0.197150 0.986193
Si Si2 0.417351 0.639020 0.342494
Si Si3 0.242768 0.139974 0.460331
Si Si4 0.449955 0.251880 0.989291
Si Si5 0.238938 0.522479 0.161671
Si Si6 0.588535 0.523128 0.128694
O O1 0.291183 0.169586 0.260558
O O2 0.250000 0.250000 0.000000
O O3 0.260120 0.160813 0.751190
O O4 0.382778 0.209534 0.940709
O O5 0.500000 0.637980 0.250000
O O6 0.349042 0.646438 0.110588
O O7 0.415119 0.689664 0.527281
O O8 0.407554 0.582710 0.475629
O O9 0.267474 0.080442 0.446909
O O10 0.500000 0.250683 0.750000
O O11 0.500000 0.235163 0.250000
O O12 0.198735 0.486223 0.925408
O O13 0.326093 0.502942 0.259550
O O14 0.548854 0.515201 0.398411
#
# Coordination Sequence:
#
# PCOD8148030 Si02
#       6
#     8   8   8   8   8   8
#     4  12  24  40  62  87 120 155 198 246 294 347
#     4  10  23  36  56  79 113 156 203 245 288 337
#     4  11  23  38  60  88 118 158 202 243 291 352
#     4  11  25  42  61  84 116 153 196 242 291 348
#     4   9  17  33  54  80 115 150 189 241 290 338
#     4   9  19  34  49  71 103 148 199 246 285 322
#
# _framework density 20.701526999999999
#
# number of rings (size 3 to 8) (size 9 to 14) (size 15 to 20)
#    0.000    1.667    1.667    2.500    4.667    7.333 
#    0.000    0.000    0.000    0.000    0.000    0.000 
#    0.000   46.667    0.000    0.000    0.000    0.000 
#
# Total GULP energy -297431.032699 kJ/mol
# GULP energy per Si atom -12392.959696 kJ/mol
# Density = 2.065441 g / cm^3
# Si number density = 20.701527 Si / 1000 Ang^3
#
#
#
# Elastic Constant Matrix: (Units=GPa)
#
#
# Indices 1 2 3 4 5 6 
#
# 1 58.9854 25.1054 16.8163 0.0000 5.0215 0.0000
# 2 25.1054 94.9906 38.5526 0.0000 8.1837 0.0000
# 3 16.8163 38.5526 125.4798 0.0000 -5.6967 0.0000
# 4 0.0000 0.0000 0.0000 34.6567 0.0000 2.4191
# 5 5.0215 8.1837 -5.6967 0.0000 30.3865 0.0000
# 6 0.0000 0.0000 0.0000 2.4191 0.0000 22.4098
#
#
#
# Elastic Compliance Matrix: (Units=1/GPa)
#
#
# Indices 1 2 3 4 5 6 
#
# 1 0.019399 -0.004379 -0.001358 0.000000 -0.002281 0.000000
# 2 -0.004379 0.013509 -0.003728 0.000000 -0.003613 0.000000
# 3 -0.001358 -0.003728 0.009433 0.000000 0.002997 0.000000
# 4 0.000000 0.000000 0.000000 0.029074 0.000000 -0.003138
# 5 -0.002281 -0.003613 0.002997 0.000000 0.034821 0.000000
# 6 0.000000 0.000000 0.000000 -0.003138 0.000000 0.044962
#
#
# Mechanical properties :
#
#
# Convention : Reuss Voigt Hill
#
# Bulk Modulus (GPa) = 42.71549 48.93382 45.82465
# Shear Modulus (GPa) = 28.10090 30.75602 29.42846
#
# Velocity S-wave (km/s) = 3.68833 3.85864 3.77445
# Velocity P-wave (km/s) = 6.23034 6.59858 6.41710
#
# Compressibility (1/GPa) = 0.02341071
#
# Stress axis : x y z
#
# Youngs Moduli (GPa) = 51.55028 74.02472 106.01406
#
# Poissons Ratio (x) = 0.32418 0.14394
# Poissons Ratio (y) = 0.22576 0.39519
# Poissons Ratio (z) = 0.06999 0.27594
#
# Static dielectric constant tensor:
#      x y z
#    x 3.280710 0.000000 0.091980 
#    y 0.000000 4.238640 0.000000 
#    z 0.091980 0.000000 3.841550 
# 
# 
# High freq. dielectric constant tensor:
#      x y z
#    x 1.777060 0.000000 -0.008460 
#    y 0.000000 1.809720 0.000000 
#    z -0.008460 0.000000 1.823500 
# 
# From -- ./inp_files/10920.got.cif
#   From: 2010.06.25/outbox.cif.g09.slc.cpg/sg15_6_cif.got.tgz:10920.got - 2010.06.28 07:06:18.
