data_PCOD8148985
_publ_section_title
;
Structure prediction by ZEFSAII (Michael W. Deem and Ramdas Pophale) SiO2 
 PCOD8148985
Probable space group: C 2/C
;
_chemical_formula_sum "Si O2"
_cell_formula_units_Z 60
_cell_length_a 22.311215
_cell_length_b 9.463098
_cell_length_c 14.571385
_cell_angle_alpha 90.000000
_cell_angle_beta 63.142130
_cell_angle_gamma 90.000000
_cell_volume 2744.640830
_symmetry_space_group_name_H-M "C 2/C"
_symmetry_group_IT_number 15
_symmetry_cell_setting 'monoclinic'
loop_
_space_group_symop_operation_xyz
x,y,z
-x,y,1/2-z
-x,-y,-z
x,-y,1/2+z
1/2+x,1/2+y,z
1/2-x,1/2+y,1/2-z
1/2-x,1/2-y,-z
1/2+x,1/2-y,1/2+z
loop_
_atom_site_type_symbol
_atom_site_label
_atom_site_fract_x
_atom_site_fract_y
_atom_site_fract_z
Si Si1 0.407031 0.385957 0.122586
Si Si2 0.665516 0.654389 0.528886
Si Si3 0.000000 0.752065 0.750000
Si Si4 0.842592 0.410024 0.634163
Si Si5 0.463725 0.496601 0.400017
Si Si6 0.696699 0.965986 0.531874
Si Si7 0.869621 0.371705 0.261478
Si Si8 0.307450 0.381704 0.701424
O O1 0.390454 0.226581 0.106495
O O2 0.468225 0.400873 0.153440
O O3 0.338336 0.463135 0.201959
O O4 0.435647 0.479886 0.020458
O O5 0.595172 0.588504 0.610800
O O6 0.664928 0.811743 0.570494
O O7 0.723037 0.554674 0.533520
O O8 0.676584 0.669195 0.412258
O O9 0.975391 0.849962 0.849715
O O10 0.941494 0.648085 0.758302
O O11 0.833319 0.454644 0.535419
O O12 0.880083 0.532620 0.664137
O O13 0.771970 0.382509 0.731685
O O14 0.682079 0.059245 0.631218
O O15 0.839586 0.222346 0.253148
#
# Coordination Sequence:
#
# PCOD8148985 Si02
#       8
#     8   8   4   8   8   8   8   8
#     4  10  23  43  69  99 133 181 239 271 347 422
#     4  10  23  44  71  99 143 184 231 285 350 425
#     4  12  26  46  68 100 140 186 240 292 340 418
#     4  12  25  41  74 105 139 184 226 293 356 408
#     4  10  23  44  67  95 133 187 229 281 337 426
#     4  11  25  43  67 111 141 178 231 300 352 404
#     4  12  26  45  69 102 142 179 235 290 353 408
#     4  11  22  45  69  98 141 185 227 284 345 423
#
# _framework density 21.860783999999999
#
# number of rings (size 3 to 8) (size 9 to 14) (size 15 to 20)
#    0.000    1.067    4.000    1.600    3.733    2.667 
#    0.000    2.000    0.000    0.000    0.000    0.000 
#    0.000    0.000    0.000    0.000    0.000    0.000 
#
# Total GULP energy -372051.787312 kJ/mol
# GULP energy per Si atom -12401.726244 kJ/mol
# Density = 2.181103 g / cm^3
# Si number density = 21.860784 Si / 1000 Ang^3
#
#
#
# Elastic Constant Matrix: (Units=GPa)
#
#
# Indices 1 2 3 4 5 6 
#
# 1 138.4267 51.2183 4.7905 0.0000 1.0671 0.0000
# 2 51.2183 113.4649 14.5699 0.0000 7.7754 -0.0001
# 3 4.7905 14.5699 56.6215 0.0000 8.3898 0.0000
# 4 0.0000 0.0000 0.0000 21.3761 0.0000 3.7290
# 5 1.0671 7.7754 8.3898 0.0000 31.9435 0.0000
# 6 0.0000 -0.0001 0.0000 3.7290 0.0000 44.9690
#
#
#
# Elastic Compliance Matrix: (Units=1/GPa)
#
#
# Indices 1 2 3 4 5 6 
#
# 1 0.008689 -0.003991 0.000199 0.000000 0.000629 0.000000
# 2 -0.003991 0.011034 -0.002209 0.000000 -0.001972 0.000000
# 3 0.000199 -0.002209 0.018868 0.000000 -0.004425 0.000000
# 4 0.000000 0.000000 0.000000 0.047468 0.000000 -0.003936
# 5 0.000629 -0.001972 -0.004425 0.000000 0.032926 0.000000
# 6 0.000000 0.000000 0.000000 -0.003936 0.000000 0.022564
#
#
# Mechanical properties :
#
#
# Convention : Reuss Voigt Hill
#
# Bulk Modulus (GPa) = 37.61109 49.96340 43.78724
# Shear Modulus (GPa) = 30.78535 35.52001 33.15268
#
# Velocity S-wave (km/s) = 3.75673 4.03529 3.89850
# Velocity P-wave (km/s) = 6.00496 6.67954 6.35121
#
# Compressibility (1/GPa) = 0.02658790
#
# Stress axis : x y z
#
# Youngs Moduli (GPa) = 115.08890 90.63227 52.99852
#
# Poissons Ratio (x) = 0.36170 -0.01052
# Poissons Ratio (y) = 0.45930 0.11709
# Poissons Ratio (z) = -0.02285 0.20024
#
# Static dielectric constant tensor:
#      x y z
#    x 4.338330 0.000000 0.071780 
#    y 0.000000 3.874700 0.000000 
#    z 0.071780 0.000000 3.783770 
# 
# 
# High freq. dielectric constant tensor:
#      x y z
#    x 1.874270 0.000000 0.008320 
#    y 0.000000 1.858800 0.000000 
#    z 0.008320 0.000000 1.853700 
# 
# From -- ./inp_files/172347.got.cif
#   From: 2010.06.25/outbox.cif.g09.slc.cpg/sg15_87_cif.got.tgz:172347.got - 2010.06.28 07:06:18.
