data_PCOD8148546
_publ_section_title
;
Structure prediction by ZEFSAII (Michael W. Deem and Ramdas Pophale) SiO2 
 PCOD8148546
Probable space group: C 2/C
;
_chemical_formula_sum "Si O2"
_cell_formula_units_Z 40
_cell_length_a 5.139636
_cell_length_b 22.621325
_cell_length_c 15.378425
_cell_angle_alpha 90.000000
_cell_angle_beta 89.001682
_cell_angle_gamma 90.000000
_cell_volume 1787.706968
_symmetry_space_group_name_H-M "C 2/C"
_symmetry_group_IT_number 15
_symmetry_cell_setting 'monoclinic'
loop_
_space_group_symop_operation_xyz
x,y,z
-x,y,1/2-z
-x,-y,-z
x,-y,1/2+z
1/2+x,1/2+y,z
1/2-x,1/2+y,1/2-z
1/2-x,1/2-y,-z
1/2+x,1/2-y,1/2+z
loop_
_atom_site_type_symbol
_atom_site_label
_atom_site_fract_x
_atom_site_fract_y
_atom_site_fract_z
Si Si1 0.475493 0.385409 0.979726
Si Si2 0.675524 0.412951 0.332731
Si Si3 0.000000 0.744666 0.250000
Si Si4 0.680095 0.546664 0.330859
Si Si5 0.500000 0.177139 0.750000
Si Si6 0.530384 0.849444 0.605401
O O1 0.495839 0.402730 0.080366
O O2 0.509079 0.444109 0.919727
O O3 0.703869 0.338878 0.951607
O O4 0.197074 0.356957 0.962762
O O5 0.500000 0.399404 0.250000
O O6 0.785444 0.479736 0.327858
O O7 0.916612 0.366831 0.329722
O O8 0.254033 0.782890 0.226383
O O9 0.950580 0.705446 0.165403
O O10 0.500000 0.562725 0.250000
O O11 0.926118 0.591807 0.334123
#
# Coordination Sequence:
#
# PCOD8148546 Si02
#       6
#     8   8   4   8   4   8
#     4  10  23  42  70 109 134 173 219 286 340 401
#     4  11  25  47  68  99 145 181 226 265 346 418
#     4  12  24  49  68  99 132 182 228 292 324 394
#     4   9  21  40  73 105 137 172 216 277 348 399
#     4  12  28  43  70  91 138 188 228 272 338 398
#     4  10  23  41  74 100 135 166 229 286 341 381
#
# _framework density 22.375031
#
# number of rings (size 3 to 8) (size 9 to 14) (size 15 to 20)
#    1.200    0.400    1.000    3.000    4.200    4.800 
#    0.000    6.000    0.000    0.000    0.000    0.000 
#    0.000    0.000    0.000    0.000    0.000    0.000 
#
# Total GULP energy -247842.452523 kJ/mol
# GULP energy per Si atom -12392.122626 kJ/mol
# Density = 2.232410 g / cm^3
# Si number density = 22.375031 Si / 1000 Ang^3
#
#
#
# Elastic Constant Matrix: (Units=GPa)
#
#
# Indices 1 2 3 4 5 6 
#
# 1 135.6432 45.0975 40.8637 0.0000 1.5691 0.0000
# 2 45.0975 118.3730 41.0171 0.0000 -4.7240 0.0000
# 3 40.8637 41.0171 156.9409 0.0000 -5.7109 0.0000
# 4 0.0000 0.0000 0.0000 9.2259 0.0000 -16.9318
# 5 1.5691 -4.7240 -5.7109 0.0000 29.6243 0.0000
# 6 0.0000 0.0000 0.0000 -16.9318 0.0000 22.0925
#
#
#
# Elastic Compliance Matrix: (Units=1/GPa)
#
#
# Indices 1 2 3 4 5 6 
#
# 1 0.008816 -0.002855 -0.001594 0.000000 -0.001230 0.000000
# 2 -0.002855 0.010245 -0.001882 0.000000 0.001422 0.000000
# 3 -0.001594 -0.001882 0.007322 0.000000 0.001196 0.000000
# 4 0.000000 0.000000 0.000000 -0.266612 0.000000 -0.204333
# 5 -0.001230 0.001422 0.001196 0.000000 0.034278 0.000000
# 6 0.000000 0.000000 0.000000 -0.204333 0.000000 -0.111338
#
#
# Mechanical properties :
#
#
# Convention : Reuss Voigt Hill
#
# Bulk Modulus (GPa) = 72.88779 73.87932 73.38355
# Shear Modulus (GPa) = -16.66376 31.12047 7.22836
#
# Velocity S-wave (km/s) = -2.73197 3.73347 1.79932
# Velocity P-wave (km/s) = 4.76389 7.18856 6.09795
#
# Compressibility (1/GPa) = 0.01371972
#
# Stress axis : x y z
#
# Youngs Moduli (GPa) = 113.42933 97.61137 136.56912
#
# Poissons Ratio (x) = 0.27873 0.21768
# Poissons Ratio (y) = 0.32390 0.25706
# Poissons Ratio (z) = 0.18080 0.18373
#
# Static dielectric constant tensor:
#      x y z
#    x 3.903370 0.000000 -0.142530 
#    y 0.000000 3.988900 0.000000 
#    z -0.142530 0.000000 3.863440 
# 
# 
# High freq. dielectric constant tensor:
#      x y z
#    x 1.879830 0.000000 -0.010530 
#    y 0.000000 1.870170 0.000000 
#    z -0.010530 0.000000 1.879130 
# 
# From -- ./inp_files/129155.got.cif
#   From: 2010.06.25/outbox.cif.g09.slc.cpg/sg15_65_cif.got.tgz:129155.got - 2010.06.28 07:06:18.
