data_PCOD8148727
_publ_section_title
;
Structure prediction by ZEFSAII (Michael W. Deem and Ramdas Pophale) SiO2 
 PCOD8148727
Probable space group: C 2/C
;
_chemical_formula_sum "Si O2"
_cell_formula_units_Z 48
_cell_length_a 16.716829
_cell_length_b 10.771282
_cell_length_c 25.068973
_cell_angle_alpha 90.000000
_cell_angle_beta 149.853533
_cell_angle_gamma 90.000000
_cell_volume 2266.966527
_symmetry_space_group_name_H-M "C 2/C"
_symmetry_group_IT_number 15
_symmetry_cell_setting 'monoclinic'
loop_
_space_group_symop_operation_xyz
x,y,z
-x,y,1/2-z
-x,-y,-z
x,-y,1/2+z
1/2+x,1/2+y,z
1/2-x,1/2+y,1/2-z
1/2-x,1/2-y,-z
1/2+x,1/2-y,1/2+z
loop_
_atom_site_type_symbol
_atom_site_label
_atom_site_fract_x
_atom_site_fract_y
_atom_site_fract_z
Si Si1 0.749086 0.446118 0.480040
Si Si2 0.627912 0.676211 0.598037
Si Si3 0.016827 0.726856 0.321331
Si Si4 0.058059 0.030646 0.463114
Si Si5 0.695712 0.255676 0.702143
Si Si6 0.954480 0.592376 0.518767
O O1 0.895979 0.376704 0.592694
O O2 0.619998 0.352760 0.380930
O O3 0.669261 0.539240 0.476024
O O4 0.808092 0.536340 0.467093
O O5 0.665115 0.563444 0.577754
O O6 0.496867 0.614542 0.562435
O O7 0.759903 0.744283 0.709614
O O8 0.569858 0.777198 0.523363
O O9 0.000000 0.683883 0.250000
O O10 0.844182 0.745646 0.247608
O O11 0.905285 0.119314 0.365650
O O12 0.602352 0.124898 0.642048
O O13 0.000000 0.500000 0.500000
#
# Coordination Sequence:
#
# PCOD8148727 Si02
#       6
#     8   8   8   8   8   8
#     4  11  25  43  64  99 141 171 223 291 335 399
#     4  10  23  42  68  95 134 178 222 273 348 403
#     4  11  25  39  66  99 131 173 234 276 334 402
#     4  10  24  43  69  94 140 177 224 283 345 405
#     4  11  24  42  70  98 126 184 231 270 338 416
#     4  11  25  42  68  98 137 174 224 281 343 397
#
# _framework density 21.173667999999999
#
# number of rings (size 3 to 8) (size 9 to 14) (size 15 to 20)
#    0.000    1.333    1.667    2.000   14.000    4.000 
#    0.000    1.667    0.000    0.000    0.000    0.000 
#    0.000    0.000    0.000    0.000    0.000    0.000 
#
# Total GULP energy -297358.771907 kJ/mol
# GULP energy per Si atom -12389.948829 kJ/mol
# Density = 2.112548 g / cm^3
# Si number density = 21.173668 Si / 1000 Ang^3
#
#
#
# Elastic Constant Matrix: (Units=GPa)
#
#
# Indices 1 2 3 4 5 6 
#
# 1 148.3011 53.6665 47.4079 0.0000 13.0801 -0.0001
# 2 53.6665 97.5463 31.2919 0.0003 13.5805 0.0000
# 3 47.4079 31.2919 75.2168 0.0021 4.2642 0.0003
# 4 0.0000 0.0003 0.0021 28.6410 0.0003 -0.8249
# 5 13.0801 13.5805 4.2642 0.0003 41.5264 0.0000
# 6 -0.0001 0.0000 0.0003 -0.8249 0.0000 35.3170
#
#
#
# Elastic Compliance Matrix: (Units=1/GPa)
#
#
# Indices 1 2 3 4 5 6 
#
# 1 0.009617 -0.003670 -0.004457 0.000000 -0.001371 0.000000
# 2 -0.003670 0.013723 -0.003226 0.000000 -0.003001 0.000000
# 3 -0.004457 -0.003226 0.017408 -0.000001 0.000671 0.000000
# 4 0.000000 0.000000 -0.000001 0.034938 0.000000 0.000816
# 5 -0.001371 -0.003001 0.000671 0.000000 0.025425 0.000000
# 6 0.000000 0.000000 0.000000 0.000816 0.000000 0.028334
#
#
# Mechanical properties :
#
#
# Convention : Reuss Voigt Hill
#
# Bulk Modulus (GPa) = 55.42464 65.08853 60.25658
# Shear Modulus (GPa) = 31.61243 33.67673 32.64458
#
# Velocity S-wave (km/s) = 3.86814 3.99243 3.93078
# Velocity P-wave (km/s) = 6.79581 7.21525 7.00867
#
# Compressibility (1/GPa) = 0.01804252
#
# Stress axis : x y z
#
# Youngs Moduli (GPa) = 103.98420 72.86851 57.44539
#
# Poissons Ratio (x) = 0.26745 0.25602
# Poissons Ratio (y) = 0.38165 0.18531
# Poissons Ratio (z) = 0.46343 0.23506
#
# Static dielectric constant tensor:
#      x y z
#    x 3.670190 0.000000 -0.669810 
#    y 0.000000 3.615440 0.000000 
#    z -0.669810 0.000000 3.172090 
# 
# 
# High freq. dielectric constant tensor:
#      x y z
#    x 1.840690 0.000000 -0.021560 
#    y 0.000000 1.838610 0.000000 
#    z -0.021560 0.000000 1.824910 
# 
# From -- ./inp_files/315903.got.cif
#   From: 2010.06.25/outbox.cif.g09.slc.cpg/sg15_158_cif.got.tgz:315903.got - 2010.06.28 07:06:18.
