data_PCOD8148857
_publ_section_title
;
Structure prediction by ZEFSAII (Michael W. Deem and Ramdas Pophale) SiO2 
 PCOD8148857
Probable space group: C 2/C
;
_chemical_formula_sum "Si O2"
_cell_formula_units_Z 56
_cell_length_a 8.759869
_cell_length_b 26.766025
_cell_length_c 12.417623
_cell_angle_alpha 90.000000
_cell_angle_beta 63.918458
_cell_angle_gamma 90.000000
_cell_volume 2615.038860
_symmetry_space_group_name_H-M "C 2/C"
_symmetry_group_IT_number 15
_symmetry_cell_setting 'monoclinic'
loop_
_space_group_symop_operation_xyz
x,y,z
-x,y,1/2-z
-x,-y,-z
x,-y,1/2+z
1/2+x,1/2+y,z
1/2-x,1/2+y,1/2-z
1/2-x,1/2-y,-z
1/2+x,1/2-y,1/2+z
loop_
_atom_site_type_symbol
_atom_site_label
_atom_site_fract_x
_atom_site_fract_y
_atom_site_fract_z
Si Si1 0.851840 0.118869 0.232802
Si Si2 0.470403 0.614457 0.636716
Si Si3 0.948380 0.390264 0.525963
Si Si4 0.753575 0.558870 0.438174
Si Si5 0.550652 0.693449 0.030852
Si Si6 0.174076 0.552162 0.633849
Si Si7 0.952308 0.300463 0.391576
O O1 0.695350 0.136020 0.355952
O O2 0.767644 0.087589 0.165758
O O3 0.000000 0.087373 0.250000
O O4 0.958571 0.166605 0.158680
O O5 0.500000 0.629054 0.750000
O O6 0.600864 0.570823 0.565821
O O7 0.508084 0.666020 0.560662
O O8 0.285775 0.591268 0.668337
O O9 0.851584 0.427647 0.477457
O O10 0.043097 0.347000 0.425559
O O11 0.073254 0.423399 0.559405
O O12 0.741715 0.501257 0.410542
O O13 0.490629 0.750819 0.061922
O O14 0.753263 0.690149 0.969923
O O15 0.000000 0.544824 0.750000
O O16 0.000000 0.299251 0.250000
#
# Coordination Sequence:
#
# PCOD8148857 Si02
#       7
#     8   8   8   8   8   8   8
#     4  11  21  43  65  90 134 170 218 270 332 398
#     4  11  24  44  68  97 138 174 223 281 333 396
#     4  12  23  41  66  99 129 176 220 281 328 398
#     4  11  26  42  64  98 134 175 222 276 339 394
#     4  10  23  43  65 101 128 176 218 277 330 405
#     4  12  24  43  65  97 132 179 227 275 334 400
#     4  11  23  39  72  98 131 172 228 268 339 400
#
# _framework density 21.414597000000001
#
# number of rings (size 3 to 8) (size 9 to 14) (size 15 to 20)
#    0.000    0.857    2.857    4.714    4.000    1.714 
#    0.000    4.286    0.000    0.000    0.000    0.000 
#    0.000    0.000    0.000    0.000    0.000    0.000 
#
# Total GULP energy -347062.964438 kJ/mol
# GULP energy per Si atom -12395.105873 kJ/mol
# Density = 2.136586 g / cm^3
# Si number density = 21.414597 Si / 1000 Ang^3
#
#
#
# Elastic Constant Matrix: (Units=GPa)
#
#
# Indices 1 2 3 4 5 6 
#
# 1 85.3788 22.3782 31.5888 0.0000 23.2586 0.0000
# 2 22.3782 118.4680 49.3991 0.0000 7.9690 0.0000
# 3 31.5888 49.3991 136.2569 0.0000 11.2874 0.0000
# 4 0.0000 0.0000 0.0000 23.7039 0.0000 -6.1406
# 5 23.2586 7.9690 11.2874 0.0000 41.8705 0.0000
# 6 0.0000 0.0000 0.0000 -6.1406 0.0000 26.8896
#
#
#
# Elastic Compliance Matrix: (Units=1/GPa)
#
#
# Indices 1 2 3 4 5 6 
#
# 1 0.014960 -0.001340 -0.002368 0.000000 -0.007417 0.000000
# 2 -0.001340 0.010101 -0.003328 0.000000 -0.000281 0.000000
# 3 -0.002368 -0.003328 0.009137 0.000000 -0.000514 0.000000
# 4 0.000000 0.000000 0.000000 0.044840 0.000000 0.010240
# 5 -0.007417 -0.000281 -0.000514 0.000000 0.028195 0.000000
# 6 0.000000 0.000000 0.000000 0.010240 0.000000 0.039527
#
#
# Mechanical properties :
#
#
# Convention : Reuss Voigt Hill
#
# Bulk Modulus (GPa) = 49.68548 60.75956 55.22252
# Shear Modulus (GPa) = 29.84332 34.27531 32.05932
#
# Velocity S-wave (km/s) = 3.73714 4.00504 3.87341
# Velocity P-wave (km/s) = 6.47099 7.05845 6.77109
#
# Compressibility (1/GPa) = 0.02012660
#
# Stress axis : x y z
#
# Youngs Moduli (GPa) = 66.84355 99.00180 109.44136
#
# Poissons Ratio (x) = 0.13262 0.25918
# Poissons Ratio (y) = 0.08954 0.36424
# Poissons Ratio (z) = 0.15830 0.32949
#
# Static dielectric constant tensor:
#      x y z
#    x 3.969940 0.000000 -0.159960 
#    y 0.000000 4.022040 0.000000 
#    z -0.159960 0.000000 4.328240 
# 
# 
# High freq. dielectric constant tensor:
#      x y z
#    x 1.833910 0.000000 -0.002380 
#    y 0.000000 1.836630 0.000000 
#    z -0.002380 0.000000 1.862990 
# 
# From -- ./inp_files/81249.got.cif
#   From: 2010.06.25/outbox.cif.g09.slc.cpg/sg15_41_cif.got.tgz:81249.got - 2010.06.28 07:06:18.
