data_PCOD8148435
_publ_section_title
;
Structure prediction by ZEFSAII (Michael W. Deem and Ramdas Pophale) SiO2 
 PCOD8148435
Probable space group: C 2/C
;
_chemical_formula_sum "Si O2"
_cell_formula_units_Z 56
_cell_length_a 21.794762
_cell_length_b 9.112521
_cell_length_c 13.733289
_cell_angle_alpha 90.000000
_cell_angle_beta 84.145218
_cell_angle_gamma 90.000000
_cell_volume 2713.275311
_symmetry_space_group_name_H-M "C 2/C"
_symmetry_group_IT_number 15
_symmetry_cell_setting 'monoclinic'
loop_
_space_group_symop_operation_xyz
x,y,z
-x,y,1/2-z
-x,-y,-z
x,-y,1/2+z
1/2+x,1/2+y,z
1/2-x,1/2+y,1/2-z
1/2-x,1/2-y,-z
1/2+x,1/2-y,1/2+z
loop_
_atom_site_type_symbol
_atom_site_label
_atom_site_fract_x
_atom_site_fract_y
_atom_site_fract_z
Si Si1 0.516513 0.306018 0.137258
Si Si2 0.395917 0.956713 0.894968
Si Si3 0.371277 0.482838 0.460091
Si Si4 0.099873 0.286691 0.966434
Si Si5 0.723929 0.415777 0.192741
Si Si6 0.188020 0.275305 0.452356
Si Si7 0.821998 0.624243 0.222410
O O1 0.500000 0.351740 0.250000
O O2 0.545448 0.144785 0.132263
O O3 0.561149 0.434037 0.088950
O O4 0.457312 0.289184 0.078664
O O5 0.361041 0.964402 0.797064
O O6 0.351060 0.890800 0.981586
O O7 0.418473 0.112196 0.936996
O O8 0.364354 0.648951 0.494644
O O9 0.320120 0.464927 0.386053
O O10 0.351491 0.374876 0.552472
O O11 0.142562 0.382956 0.886764
O O12 0.790298 0.341821 0.153151
O O13 0.751710 0.560573 0.239916
O O14 0.683994 0.299882 0.260244
O O15 0.250000 0.250000 0.500000
#
# Coordination Sequence:
#
# PCOD8148435 Si02
#       7
#     8   8   8   8   8   8   8
#     4  11  21  46  70  89 130 172 217 269 336 387
#     4  11  22  42  63  92 132 169 216 267 328 384
#     4  10  23  41  65  92 126 173 212 272 324 390
#     4  12  25  40  67 101 125 172 229 267 322 389
#     4  11  23  40  61  95 133 173 213 260 329 387
#     4   9  17  39  60  80 126 172 200 249 327 377
#     4  12  25  40  66  99 133 176 213 273 325 394
#
# _framework density 20.639261999999999
#
# number of rings (size 3 to 8) (size 9 to 14) (size 15 to 20)
#    0.000    1.143    7.143    0.857    4.000    0.571 
#    0.000    0.714    0.000    0.000    0.000    0.000 
#    0.000    0.000    0.000    0.000    0.000    0.000 
#
# Total GULP energy -346909.979815 kJ/mol
# GULP energy per Si atom -12389.642136 kJ/mol
# Density = 2.059229 g / cm^3
# Si number density = 20.639262 Si / 1000 Ang^3
#
#
#
# Elastic Constant Matrix: (Units=GPa)
#
#
# Indices 1 2 3 4 5 6 
#
# 1 66.5992 8.1992 19.3628 0.0000 4.1142 0.0000
# 2 8.1992 75.7912 35.9851 0.0000 13.2804 0.0000
# 3 19.3628 35.9851 65.2395 0.0000 1.3805 0.0000
# 4 0.0000 0.0000 0.0000 21.7993 0.0000 3.8262
# 5 4.1142 13.2804 1.3805 0.0000 31.4315 0.0000
# 6 0.0000 0.0000 0.0000 3.8262 0.0000 34.1347
#
#
#
# Elastic Compliance Matrix: (Units=1/GPa)
#
#
# Indices 1 2 3 4 5 6 
#
# 1 0.016637 0.001292 -0.005598 0.000000 -0.002478 0.000000
# 2 0.001292 0.019727 -0.011095 0.000000 -0.008017 0.000000
# 3 -0.005598 -0.011095 0.023016 0.000000 0.004410 0.000000
# 4 0.000000 0.000000 0.000000 0.046794 0.000000 -0.005245
# 5 -0.002478 -0.008017 0.004410 0.000000 0.035333 0.000000
# 6 0.000000 0.000000 0.000000 -0.005245 0.000000 0.029884
#
#
# Mechanical properties :
#
#
# Convention : Reuss Voigt Hill
#
# Bulk Modulus (GPa) = 34.99160 37.19154 36.09157
# Shear Modulus (GPa) = 23.61637 27.07864 25.34751
#
# Velocity S-wave (km/s) = 3.38634 3.62608 3.50826
# Velocity P-wave (km/s) = 5.68159 5.96575 5.82540
#
# Compressibility (1/GPa) = 0.02857829
#
# Stress axis : x y z
#
# Youngs Moduli (GPa) = 60.10799 50.69230 43.44782
#
# Poissons Ratio (x) = -0.06551 0.24323
# Poissons Ratio (y) = -0.07768 0.48205
# Poissons Ratio (z) = 0.33649 0.56243
#
# Static dielectric constant tensor:
#      x y z
#    x 3.784940 0.000000 -0.112610 
#    y 0.000000 4.402890 0.000000 
#    z -0.112610 0.000000 3.973560 
# 
# 
# High freq. dielectric constant tensor:
#      x y z
#    x 1.810400 0.000000 -0.003950 
#    y 0.000000 1.808030 0.000000 
#    z -0.003950 0.000000 1.798040 
# 
# From -- ./inp_files/166671.got.cif
#   From: 2010.06.25/outbox.cif.g09.slc.cpg/sg15_84_cif.got.tgz:166671.got - 2010.06.28 07:06:18.
