data_PCOD8148843
_publ_section_title
;
Structure prediction by ZEFSAII (Michael W. Deem and Ramdas Pophale) SiO2 
 PCOD8148843
Probable space group: C 2/C
;
_chemical_formula_sum "Si O2"
_cell_formula_units_Z 48
_cell_length_a 10.625872
_cell_length_b 25.666662
_cell_length_c 9.490658
_cell_angle_alpha 90.000000
_cell_angle_beta 67.707400
_cell_angle_gamma 90.000000
_cell_volume 2394.933625
_symmetry_space_group_name_H-M "C 2/C"
_symmetry_group_IT_number 15
_symmetry_cell_setting 'monoclinic'
loop_
_space_group_symop_operation_xyz
x,y,z
-x,y,1/2-z
-x,-y,-z
x,-y,1/2+z
1/2+x,1/2+y,z
1/2-x,1/2+y,1/2-z
1/2-x,1/2-y,-z
1/2+x,1/2-y,1/2+z
loop_
_atom_site_type_symbol
_atom_site_label
_atom_site_fract_x
_atom_site_fract_y
_atom_site_fract_z
Si Si1 0.000000 0.873440 0.250000
Si Si2 0.497760 0.102136 0.589152
Si Si3 0.000000 0.864130 0.750000
Si Si4 0.587448 0.194188 0.073750
Si Si5 0.287929 0.444432 0.953463
Si Si6 0.888604 0.191668 0.035956
Si Si7 0.275635 0.545157 0.782114
O O1 0.134927 0.907743 0.197747
O O2 0.995695 0.836803 0.388544
O O3 0.500000 0.121716 0.750000
O O4 0.478515 0.150881 0.496299
O O5 0.637778 0.075871 0.483860
O O6 0.380708 0.058928 0.618800
O O7 0.103635 0.899132 0.617306
O O8 0.085591 0.827005 0.816499
O O9 0.500000 0.203477 0.250000
O O10 0.737030 0.176035 0.054854
O O11 0.591069 0.246529 0.980078
O O12 0.320863 0.492428 0.838196
O O13 0.301259 0.464241 0.106837
#
# Coordination Sequence:
#
# PCOD8148843 Si02
#       7
#     4   8   4   8   8   8   8
#     4  12  21  44  66  92 130 168 205 268 320 378
#     4  10  23  43  64  94 128 168 215 265 316 378
#     4  12  25  44  62  98 130 166 211 270 314 378
#     4  11  23  43  67  96 126 172 213 256 323 382
#     4  11  25  41  63  94 126 169 216 261 321 380
#     4  11  25  42  66  97 131 165 211 265 319 383
#     4  11  24  41  65  91 128 167 213 264 319 380
#
# _framework density 20.042308999999999
#
# number of rings (size 3 to 8) (size 9 to 14) (size 15 to 20)
#    0.000    1.000    4.167    2.000    3.500    2.667 
#    0.000    1.667    0.000    0.000    0.000    0.000 
#    0.000    0.000    0.000    0.000    0.000    0.000 
#
# Total GULP energy -297773.807938 kJ/mol
# GULP energy per Si atom -12407.241997 kJ/mol
# Density = 1.999669 g / cm^3
# Si number density = 20.042309 Si / 1000 Ang^3
#
#
#
# Elastic Constant Matrix: (Units=GPa)
#
#
# Indices 1 2 3 4 5 6 
#
# 1 78.3910 38.0150 25.8792 0.0000 2.2819 0.0000
# 2 38.0150 94.2066 41.7487 0.0000 17.4085 0.0000
# 3 25.8792 41.7487 83.1929 0.0000 5.0918 0.0000
# 4 0.0000 0.0000 0.0000 38.3399 0.0000 4.0315
# 5 2.2819 17.4085 5.0918 0.0000 38.2420 0.0000
# 6 0.0000 0.0000 0.0000 4.0315 0.0000 24.3703
#
#
#
# Elastic Compliance Matrix: (Units=1/GPa)
#
#
# Indices 1 2 3 4 5 6 
#
# 1 0.016329 -0.005994 -0.002197 0.000000 0.002047 0.000000
# 2 -0.005994 0.017028 -0.006279 0.000000 -0.006558 0.000000
# 3 -0.002197 -0.006279 0.015801 0.000000 0.000886 0.000000
# 4 0.000000 0.000000 0.000000 0.026544 0.000000 -0.004391
# 5 0.002047 -0.006558 0.000886 0.000000 0.028894 0.000000
# 6 0.000000 0.000000 0.000000 -0.004391 0.000000 0.041760
#
#
# Mechanical properties :
#
#
# Convention : Reuss Voigt Hill
#
# Bulk Modulus (GPa) = 49.46190 51.89738 50.67964
# Shear Modulus (GPa) = 27.46713 30.20028 28.83371
#
# Velocity S-wave (km/s) = 3.70598 3.88600 3.79706
# Velocity P-wave (km/s) = 6.56085 6.78858 6.67568
#
# Compressibility (1/GPa) = 0.02021758
#
# Stress axis : x y z
#
# Youngs Moduli (GPa) = 61.24122 58.72595 63.28862
#
# Poissons Ratio (x) = 0.35199 0.13904
# Poissons Ratio (y) = 0.36707 0.39742
# Poissons Ratio (z) = 0.13454 0.36876
#
# Static dielectric constant tensor:
#      x y z
#    x 3.767620 0.000000 -0.027060 
#    y 0.000000 3.519370 0.000000 
#    z -0.027060 0.000000 3.636510 
# 
# 
# High freq. dielectric constant tensor:
#      x y z
#    x 1.794990 0.000000 -0.002910 
#    y 0.000000 1.785970 0.000000 
#    z -0.002910 0.000000 1.789960 
# 
# From -- ./inp_files/32559.got.cif
#   From: 2010.06.25/outbox.cif.g09.slc.cpg/sg15_17_cif.got.tgz:32559.got - 2010.06.28 07:06:18.
