data_PCOD8148086
_publ_section_title
;
Structure prediction by ZEFSAII (Michael W. Deem and Ramdas Pophale) SiO2 
 PCOD8148086
Probable space group: C 2/C
;
_chemical_formula_sum "Si O2"
_cell_formula_units_Z 60
_cell_length_a 11.645140
_cell_length_b 24.778192
_cell_length_c 9.293859
_cell_angle_alpha 90.000000
_cell_angle_beta 87.717332
_cell_angle_gamma 90.000000
_cell_volume 2679.573371
_symmetry_space_group_name_H-M "C 2/C"
_symmetry_group_IT_number 15
_symmetry_cell_setting 'monoclinic'
loop_
_space_group_symop_operation_xyz
x,y,z
-x,y,1/2-z
-x,-y,-z
x,-y,1/2+z
1/2+x,1/2+y,z
1/2-x,1/2+y,1/2-z
1/2-x,1/2-y,-z
1/2+x,1/2-y,1/2+z
loop_
_atom_site_type_symbol
_atom_site_label
_atom_site_fract_x
_atom_site_fract_y
_atom_site_fract_z
Si Si1 0.500000 0.366112 0.250000
Si Si2 0.303265 0.302723 0.129958
Si Si3 0.370072 0.286483 0.817530
Si Si4 0.600331 0.089881 0.938021
Si Si5 0.234803 0.895156 0.809945
Si Si6 0.651655 0.103435 0.614188
Si Si7 0.208099 0.516347 0.416721
Si Si8 0.919324 0.950947 0.473901
O O1 0.388449 0.328465 0.242677
O O2 0.486520 0.403757 0.389353
O O3 0.221463 0.260518 0.219501
O O4 0.226947 0.347582 0.052552
O O5 0.378140 0.280678 0.991296
O O6 0.500000 0.277537 0.750000
O O7 0.312572 0.341277 0.761362
O O8 0.644765 0.112947 0.784643
O O9 0.468760 0.106880 0.965181
O O10 0.599900 0.024290 0.924468
O O11 0.676763 0.115424 0.062502
O O12 0.300418 0.935547 0.698255
O O13 0.122954 0.926153 0.873837
O O14 0.712776 0.046175 0.572546
O O15 0.314303 0.475388 0.386911
O O16 0.000000 0.000000 0.500000
#
# Coordination Sequence:
#
# PCOD8148086 Si02
#       8
#     4   8   8   8   8   8   8   8
#     4  12  24  46  70  98 142 184 226 294 350 428
#     4  11  25  49  70 103 131 185 231 288 364 408
#     4  11  26  48  74 100 134 178 237 298 354 412
#     4  10  23  38  63 100 139 185 232 272 337 415
#     4  11  23  42  64 102 135 178 236 287 340 415
#     4  11  22  42  66  91 144 188 222 284 344 407
#     4  11  21  38  61  99 141 183 228 276 343 416
#     4  11  23  38  66 101 138 183 226 278 349 422
#
# _framework density 22.391624
#
# number of rings (size 3 to 8) (size 9 to 14) (size 15 to 20)
#    0.000    1.067    1.333    6.000    3.733    1.600 
#    4.800    3.333    0.000    0.000    0.000    0.000 
#    0.000    0.000    0.000    0.000    0.000    0.000 
#
# Total GULP energy -371808.280073 kJ/mol
# GULP energy per Si atom -12393.609336 kJ/mol
# Density = 2.234066 g / cm^3
# Si number density = 22.391624 Si / 1000 Ang^3
#
#
#
# Elastic Constant Matrix: (Units=GPa)
#
#
# Indices 1 2 3 4 5 6 
#
# 1 129.4527 64.3701 41.4150 0.0000 0.0294 0.0000
# 2 64.3701 113.9429 25.7355 0.0000 6.1340 0.0000
# 3 41.4150 25.7355 76.1648 0.0000 0.0635 0.0000
# 4 0.0000 0.0000 0.0000 32.2722 0.0000 -1.9536
# 5 0.0294 6.1340 0.0635 0.0000 33.3927 0.0000
# 6 0.0000 0.0000 0.0000 -1.9536 0.0000 41.5155
#
#
#
# Elastic Compliance Matrix: (Units=1/GPa)
#
#
# Indices 1 2 3 4 5 6 
#
# 1 0.012112 -0.005860 -0.004607 0.000000 0.001075 0.000000
# 2 -0.005860 0.012439 -0.001015 0.000000 -0.002278 0.000000
# 3 -0.004607 -0.001015 0.015977 0.000000 0.000160 0.000000
# 4 0.000000 0.000000 0.000000 0.031075 0.000000 0.001462
# 5 0.001075 -0.002278 0.000160 0.000000 0.030364 0.000000
# 6 0.000000 0.000000 0.000000 0.001462 0.000000 0.024156
#
#
# Mechanical properties :
#
#
# Convention : Reuss Voigt Hill
#
# Bulk Modulus (GPa) = 56.93150 64.73351 60.83250
# Shear Modulus (GPa) = 32.27030 33.97207 33.12119
#
# Velocity S-wave (km/s) = 3.80040 3.89932 3.85018
# Velocity P-wave (km/s) = 6.68864 7.01751 6.85505
#
# Compressibility (1/GPa) = 0.01756497
#
# Stress axis : x y z
#
# Youngs Moduli (GPa) = 82.56055 80.39495 62.58917
#
# Poissons Ratio (x) = 0.47111 0.28835
# Poissons Ratio (y) = 0.48380 0.06350
# Poissons Ratio (z) = 0.38036 0.08157
#
# Static dielectric constant tensor:
#      x y z
#    x 4.123350 0.000000 -0.351730 
#    y 0.000000 4.268830 0.000000 
#    z -0.351730 0.000000 3.860190 
# 
# 
# High freq. dielectric constant tensor:
#      x y z
#    x 1.888280 0.000000 -0.014210 
#    y 0.000000 1.881170 0.000000 
#    z -0.014210 0.000000 1.877730 
# 
# From -- ./inp_files/34262.got.cif
#   From: 2010.06.25/outbox.cif.g09.slc.cpg/sg15_18_cif.got.tgz:34262.got - 2010.06.28 07:06:18.
