data_PCOD8148062
_publ_section_title
;
Structure prediction by ZEFSAII (Michael W. Deem and Ramdas Pophale) SiO2 
 PCOD8148062
Probable space group: C 2/C
;
_chemical_formula_sum "Si O2"
_cell_formula_units_Z 56
_cell_length_a 10.050662
_cell_length_b 25.234704
_cell_length_c 11.034748
_cell_angle_alpha 90.000000
_cell_angle_beta 101.654078
_cell_angle_gamma 90.000000
_cell_volume 2740.998281
_symmetry_space_group_name_H-M "C 2/C"
_symmetry_group_IT_number 15
_symmetry_cell_setting 'monoclinic'
loop_
_space_group_symop_operation_xyz
x,y,z
-x,y,1/2-z
-x,-y,-z
x,-y,1/2+z
1/2+x,1/2+y,z
1/2-x,1/2+y,1/2-z
1/2-x,1/2-y,-z
1/2+x,1/2-y,1/2+z
loop_
_atom_site_type_symbol
_atom_site_label
_atom_site_fract_x
_atom_site_fract_y
_atom_site_fract_z
Si Si1 0.935392 0.682452 0.497387
Si Si2 0.767339 0.342962 0.486994
Si Si3 0.291929 0.622310 0.914057
Si Si4 0.499500 0.287973 0.389689
Si Si5 0.345670 0.432429 0.191340
Si Si6 0.356675 0.554095 0.163200
Si Si7 0.144524 0.618281 0.247746
O O1 0.837721 0.661069 0.586985
O O2 0.934056 0.745418 0.470615
O O3 0.872078 0.656818 0.367270
O O4 0.090757 0.667199 0.557078
O O5 0.658652 0.296193 0.449185
O O6 0.706508 0.398137 0.430121
O O7 0.799065 0.345542 0.634488
O O8 0.416956 0.658245 0.893537
O O9 0.258957 0.581978 0.796840
O O10 0.338277 0.586452 0.035727
O O11 0.500000 0.268786 0.250000
O O12 0.500000 0.418636 0.250000
O O13 0.333384 0.491992 0.139978
O O14 0.500000 0.567477 0.250000
O O15 0.245155 0.570564 0.240175
O O16 0.000000 0.591345 0.250000
#
# Coordination Sequence:
#
# PCOD8148062 Si02
#       7
#     8   8   8   8   8   8   8
#     4  10  24  39  62  89 124 161 201 258 301 358
#     4  11  20  39  63  88 122 163 208 244 300 376
#     4  11  22  43  59  93 130 151 203 261 300 355
#     4  12  21  40  65  91 124 165 203 246 310 361
#     4  11  23  40  62  93 121 165 199 256 308 360
#     4  10  23  37  65  90 119 162 206 252 307 359
#     4   9  20  41  58  88 124 157 207 254 301 365
#
# _framework density 20.430513000000001
#
# number of rings (size 3 to 8) (size 9 to 14) (size 15 to 20)
#    0.000    1.429    2.857    3.000    2.000    1.714 
#    2.571    2.143    6.286    0.000    0.000    0.000 
#    0.000    0.000    0.000    0.000    0.000    0.000 
#
# Total GULP energy -347077.406010 kJ/mol
# GULP energy per Si atom -12395.621643 kJ/mol
# Density = 2.038401 g / cm^3
# Si number density = 20.430513 Si / 1000 Ang^3
#
#
#
# Elastic Constant Matrix: (Units=GPa)
#
#
# Indices 1 2 3 4 5 6 
#
# 1 109.4747 41.6043 29.3601 0.0000 3.8664 0.0000
# 2 41.6043 100.5504 16.7198 0.0000 1.6643 0.0000
# 3 29.3601 16.7198 47.4723 0.0000 0.1183 0.0000
# 4 0.0000 0.0000 0.0000 24.9914 0.0000 -6.5793
# 5 3.8664 1.6643 0.1183 0.0000 32.7887 0.0000
# 6 0.0000 0.0000 0.0000 -6.5793 0.0000 44.3945
#
#
#
# Elastic Compliance Matrix: (Units=1/GPa)
#
#
# Indices 1 2 3 4 5 6 
#
# 1 0.012397 -0.004073 -0.006229 0.000000 -0.001233 0.000000
# 2 -0.004073 0.011911 -0.001676 0.000000 -0.000118 0.000000
# 3 -0.006229 -0.001676 0.025506 0.000000 0.000728 0.000000
# 4 0.000000 0.000000 0.000000 0.041638 0.000000 0.006171
# 5 -0.001233 -0.000118 0.000728 0.000000 0.030647 0.000000
# 6 0.000000 0.000000 0.000000 0.006171 0.000000 0.023440
#
#
# Mechanical properties :
#
#
# Convention : Reuss Voigt Hill
#
# Bulk Modulus (GPa) = 38.67358 48.09621 43.38489
# Shear Modulus (GPa) = 28.07183 31.75578 29.91381
#
# Velocity S-wave (km/s) = 3.71079 3.94678 3.83060
# Velocity P-wave (km/s) = 6.10986 6.66047 6.39110
#
# Compressibility (1/GPa) = 0.02585744
#
# Stress axis : x y z
#
# Youngs Moduli (GPa) = 80.66718 83.95483 39.20651
#
# Poissons Ratio (x) = 0.34195 0.24423
# Poissons Ratio (y) = 0.32856 0.06570
# Poissons Ratio (z) = 0.50250 0.14069
#
# Static dielectric constant tensor:
#      x y z
#    x 4.475680 0.000000 -0.034180 
#    y 0.000000 3.665270 0.000000 
#    z -0.034180 0.000000 3.684490 
# 
# 
# High freq. dielectric constant tensor:
#      x y z
#    x 1.807280 0.000000 0.002250 
#    y 0.000000 1.797690 0.000000 
#    z 0.002250 0.000000 1.797890 
# 
# From -- ./inp_files/81395.got.cif
#   From: 2010.06.25/outbox.cif.g09.slc.cpg/sg15_41_cif.got.tgz:81395.got - 2010.06.28 07:06:18.
