data_PCOD8148758
_publ_section_title
;
Structure prediction by ZEFSAII (Michael W. Deem and Ramdas Pophale) SiO2 
 PCOD8148758
Probable space group: C 2/C
;
_chemical_formula_sum "Si O2"
_cell_formula_units_Z 64
_cell_length_a 26.096055
_cell_length_b 18.858277
_cell_length_c 11.576011
_cell_angle_alpha 90.000000
_cell_angle_beta 28.017120
_cell_angle_gamma 90.000000
_cell_volume 2676.018185
_symmetry_space_group_name_H-M "C 2/C"
_symmetry_group_IT_number 15
_symmetry_cell_setting 'monoclinic'
loop_
_space_group_symop_operation_xyz
x,y,z
-x,y,1/2-z
-x,-y,-z
x,-y,1/2+z
1/2+x,1/2+y,z
1/2-x,1/2+y,1/2-z
1/2-x,1/2-y,-z
1/2+x,1/2-y,1/2+z
loop_
_atom_site_type_symbol
_atom_site_label
_atom_site_fract_x
_atom_site_fract_y
_atom_site_fract_z
Si Si1 0.510882 0.236519 0.054221
Si Si2 0.166765 0.897322 0.373249
Si Si3 0.598971 0.544079 0.473198
Si Si4 0.401238 0.098091 0.186592
Si Si5 0.923293 0.481015 0.302526
Si Si6 0.452122 0.375431 0.655570
Si Si7 0.727252 0.129721 0.274492
Si Si8 0.680315 0.772737 0.403016
O O1 0.456596 0.173320 0.093181
O O2 0.411323 0.263334 0.332793
O O3 0.556036 0.297654 0.881843
O O4 0.617621 0.207954 0.909725
O O5 0.138921 0.883851 0.563872
O O6 0.268849 0.844915 0.142657
O O7 0.070264 0.881045 0.476500
O O8 0.190219 0.980922 0.301710
O O9 0.500000 0.515574 0.750000
O O10 0.565753 0.564238 0.407997
O O11 0.647712 0.612072 0.441467
O O12 0.298944 0.108645 0.304827
O O13 0.359744 0.051065 0.379253
O O14 0.498049 0.051224 0.947458
O O15 0.848724 0.414537 0.488186
O O16 0.000000 0.511770 0.250000
O O17 0.721438 0.214945 0.306459
#
# Coordination Sequence:
#
# PCOD8148758 Si02
#       8
#     8   8   8   8   8   8   8   8
#     4  11  25  45  73  96 142 192 224 307 348 427
#     4  11  27  44  74 108 138 186 240 296 342 436
#     4  12  25  46  71 104 144 188 230 292 360 416
#     4  10  23  42  70 101 135 179 232 280 349 415
#     4   9  22  43  67 101 137 178 226 286 347 411
#     4  11  24  48  71 105 142 184 236 288 364 415
#     4  11  24  43  71 101 136 182 229 288 343 422
#     4  11  26  47  68 106 139 181 244 284 364 417
#
# _framework density 23.916129000000002
#
# number of rings (size 3 to 8) (size 9 to 14) (size 15 to 20)
#    0.000    1.250    2.500    1.875    5.250    7.500 
#    0.000    0.000    0.000    0.000    0.000    0.000 
#    0.000    0.000    0.000    0.000    0.000    0.000 
#
# Total GULP energy -396520.895238 kJ/mol
# GULP energy per Si atom -12391.277976 kJ/mol
# Density = 2.386169 g / cm^3
# Si number density = 23.916129 Si / 1000 Ang^3
#
#
#
# Elastic Constant Matrix: (Units=GPa)
#
#
# Indices 1 2 3 4 5 6 
#
# 1 137.6063 63.4862 37.7407 0.0000 0.9993 0.0000
# 2 63.4862 142.9360 32.2665 0.0000 2.1006 0.0000
# 3 37.7407 32.2665 45.5187 0.0000 -2.7524 0.0000
# 4 0.0000 0.0000 0.0000 36.6124 0.0000 -4.1599
# 5 0.9993 2.1006 -2.7524 0.0000 25.9827 0.0000
# 6 0.0000 0.0000 0.0000 -4.1599 0.0000 37.1171
#
#
#
# Elastic Compliance Matrix: (Units=1/GPa)
#
#
# Indices 1 2 3 4 5 6 
#
# 1 0.010536 -0.003195 -0.006521 0.000000 -0.000838 0.000000
# 2 -0.003195 0.009342 -0.004037 0.000000 -0.001060 0.000000
# 3 -0.006521 -0.004037 0.030468 0.000000 0.003805 0.000000
# 4 0.000000 0.000000 0.000000 0.027665 0.000000 0.003101
# 5 -0.000838 -0.001060 0.003805 0.000000 0.039008 0.000000
# 6 0.000000 0.000000 0.000000 0.003101 0.000000 0.027289
#
#
# Mechanical properties :
#
#
# Convention : Reuss Voigt Hill
#
# Bulk Modulus (GPa) = 43.78559 65.89421 54.83990
# Shear Modulus (GPa) = 27.86616 32.78030 30.32323
#
# Velocity S-wave (km/s) = 3.41715 3.70623 3.56462
# Velocity P-wave (km/s) = 5.82383 6.77693 6.31838
#
# Compressibility (1/GPa) = 0.02283856
#
# Stress axis : x y z
#
# Youngs Moduli (GPa) = 94.91371 107.04057 32.82143
#
# Poissons Ratio (x) = 0.34201 0.21404
# Poissons Ratio (y) = 0.30327 0.13251
# Poissons Ratio (z) = 0.61896 0.43215
#
# Static dielectric constant tensor:
#      x y z
#    x 4.407680 0.000000 0.008620 
#    y 0.000000 4.481420 0.000000 
#    z 0.008620 0.000000 4.086740 
# 
# 
# High freq. dielectric constant tensor:
#      x y z
#    x 1.956420 0.000000 -0.002100 
#    y 0.000000 1.967820 0.000000 
#    z -0.002100 0.000000 1.939640 
# 
# From -- ./inp_files/124231.got.cif
#   From: 2010.06.25/outbox.cif.g09.slc.cpg/sg15_63_cif.got.tgz:124231.got - 2010.06.28 07:06:18.
