data_PCOD8148181
_publ_section_title
;
Structure prediction by ZEFSAII (Michael W. Deem and Ramdas Pophale) SiO2 
 PCOD8148181
Probable space group: C 2/C
;
_chemical_formula_sum "Si O2"
_cell_formula_units_Z 64
_cell_length_a 14.020890
_cell_length_b 24.564527
_cell_length_c 8.692390
_cell_angle_alpha 90.000000
_cell_angle_beta 95.923972
_cell_angle_gamma 90.000000
_cell_volume 2977.815072
_symmetry_space_group_name_H-M "C 2/C"
_symmetry_group_IT_number 15
_symmetry_cell_setting 'monoclinic'
loop_
_space_group_symop_operation_xyz
x,y,z
-x,y,1/2-z
-x,-y,-z
x,-y,1/2+z
1/2+x,1/2+y,z
1/2-x,1/2+y,1/2-z
1/2-x,1/2-y,-z
1/2+x,1/2-y,1/2+z
loop_
_atom_site_type_symbol
_atom_site_label
_atom_site_fract_x
_atom_site_fract_y
_atom_site_fract_z
Si Si1 0.450688 0.263928 0.485903
Si Si2 0.359404 0.266443 0.154536
Si Si3 0.095628 0.574835 0.475735
Si Si4 0.600596 0.636772 0.317963
Si Si5 0.249972 0.662003 0.419028
Si Si6 0.743817 0.073183 0.990839
Si Si7 0.835099 0.500826 0.257698
Si Si8 0.061330 0.643730 0.916198
O O1 0.400350 0.285962 0.323326
O O2 0.563674 0.261081 0.470322
O O3 0.426008 0.304043 0.620123
O O4 0.415296 0.204384 0.526215
O O5 0.312663 0.207555 0.177789
O O6 0.285190 0.312057 0.085883
O O7 0.189124 0.609983 0.455025
O O8 0.087158 0.528886 0.342814
O O9 0.107042 0.545061 0.640952
O O10 0.999865 0.611427 0.463985
O O11 0.500000 0.608443 0.250000
O O12 0.665672 0.642895 0.178554
O O13 0.653870 0.601715 0.459752
O O14 0.713215 0.046158 0.145744
O O15 0.664738 0.116223 0.918902
O O16 0.749790 0.027203 0.859192
O O17 0.000000 0.644423 0.750000
#
# Coordination Sequence:
#
# PCOD8148181 Si02
#       8
#     8   8   8   8   8   8   8   8
#     4  11  24  41  64  98 143 174 232 269 335 418
#     4  10  23  39  65  98 128 183 225 277 337 410
#     4  11  23  43  68  99 143 176 228 280 345 411
#     4  12  25  46  68  99 135 184 228 288 336 404
#     4  11  22  42  67  95 135 181 224 282 345 402
#     4  11  25  44  68  99 133 176 227 282 347 396
#     4  10  24  44  69  99 137 178 230 285 338 409
#     4  12  25  40  69 106 141 184 216 275 347 424
#
# _framework density 21.492266999999998
#
# number of rings (size 3 to 8) (size 9 to 14) (size 15 to 20)
#    0.000    1.000    5.000    1.125    1.750    5.500 
#    0.000    0.625    0.000    0.000    0.000    0.000 
#    0.000    0.000    0.000    0.000    0.000    0.000 
#
# Total GULP energy -396852.228934 kJ/mol
# GULP energy per Si atom -12401.632154 kJ/mol
# Density = 2.144335 g / cm^3
# Si number density = 21.492267 Si / 1000 Ang^3
#
#
#
# Elastic Constant Matrix: (Units=GPa)
#
#
# Indices 1 2 3 4 5 6 
#
# 1 88.2060 13.4097 19.1354 0.0000 13.7213 0.0000
# 2 13.4097 68.6056 24.9275 0.0000 10.2059 0.0000
# 3 19.1354 24.9275 88.6957 0.0000 11.4061 0.0000
# 4 0.0000 0.0000 0.0000 31.9347 0.0000 -4.5431
# 5 13.7213 10.2059 11.4061 0.0000 33.4163 0.0000
# 6 0.0000 0.0000 0.0000 -4.5431 0.0000 24.8837
#
#
#
# Elastic Compliance Matrix: (Units=1/GPa)
#
#
# Indices 1 2 3 4 5 6 
#
# 1 0.012564 -0.001164 -0.001847 0.000000 -0.004173 0.000000
# 2 -0.001164 0.016756 -0.004039 0.000000 -0.003261 0.000000
# 3 -0.001847 -0.004039 0.013128 0.000000 -0.002489 0.000000
# 4 0.000000 0.000000 0.000000 0.032149 0.000000 0.005870
# 5 -0.004173 -0.003261 -0.002489 0.000000 0.033485 0.000000
# 6 0.000000 0.000000 0.000000 0.005870 0.000000 0.041259
#
#
# Mechanical properties :
#
#
# Convention : Reuss Voigt Hill
#
# Bulk Modulus (GPa) = 35.27436 40.05028 37.66232
# Shear Modulus (GPa) = 28.92027 30.58257 29.75142
#
# Velocity S-wave (km/s) = 3.67224 3.77630 3.72463
# Velocity P-wave (km/s) = 5.86759 6.13915 6.00491
#
# Compressibility (1/GPa) = 0.02834921
#
# Stress axis : x y z
#
# Youngs Moduli (GPa) = 79.59340 59.67951 76.17232
#
# Poissons Ratio (x) = 0.06946 0.14067
# Poissons Ratio (y) = 0.09264 0.30764
# Poissons Ratio (z) = 0.14699 0.24103
#
# Static dielectric constant tensor:
#      x y z
#    x 3.832150 0.000000 0.128600 
#    y 0.000000 3.948100 0.000000 
#    z 0.128600 0.000000 3.950300 
# 
# 
# High freq. dielectric constant tensor:
#      x y z
#    x 1.827100 0.000000 0.008750 
#    y 0.000000 1.845110 0.000000 
#    z 0.008750 0.000000 1.857530 
# 
# From -- ./inp_files/42667.got.cif
#   From: 2010.06.25/outbox.cif.g09.slc.cpg/sg15_22_cif.got.tgz:42667.got - 2010.06.28 07:06:18.
