data_PCOD8148691
_publ_section_title
;
Structure prediction by ZEFSAII (Michael W. Deem and Ramdas Pophale) SiO2 
 PCOD8148691
Probable space group: C 2/C
;
_chemical_formula_sum "Si O2"
_cell_formula_units_Z 44
_cell_length_a 7.064100
_cell_length_b 15.586417
_cell_length_c 19.092879
_cell_angle_alpha 90.000000
_cell_angle_beta 106.267263
_cell_angle_gamma 90.000000
_cell_volume 2018.041881
_symmetry_space_group_name_H-M "C 2/C"
_symmetry_group_IT_number 15
_symmetry_cell_setting 'monoclinic'
loop_
_space_group_symop_operation_xyz
x,y,z
-x,y,1/2-z
-x,-y,-z
x,-y,1/2+z
1/2+x,1/2+y,z
1/2-x,1/2+y,1/2-z
1/2-x,1/2-y,-z
1/2+x,1/2-y,1/2+z
loop_
_atom_site_type_symbol
_atom_site_label
_atom_site_fract_x
_atom_site_fract_y
_atom_site_fract_z
Si Si1 0.000000 0.657268 0.250000
Si Si2 0.447589 0.853298 0.500104
Si Si3 0.296854 0.009761 0.306201
Si Si4 0.110053 0.767829 0.383112
Si Si5 0.575499 0.553788 0.658604
Si Si6 0.832878 0.478695 0.060944
O O1 0.849371 0.603910 0.282940
O O2 0.861654 0.712853 0.184378
O O3 0.323185 0.800428 0.430183
O O4 0.499300 0.789715 0.569041
O O5 0.646702 0.894379 0.487149
O O6 0.318656 0.934239 0.514541
O O7 0.254683 0.952469 0.232819
O O8 0.476411 0.973380 0.369415
O O9 0.103872 0.007921 0.335939
O O10 0.973002 0.846698 0.349223
O O11 0.637451 0.523542 0.587551
#
# Coordination Sequence:
#
# PCOD8148691 Si02
#       6
#     4   8   8   8   8   8
#     4  12  22  44  70  86 140 170 220 274 332 376
#     4  10  23  42  67  93 137 173 214 259 341 379
#     4  11  21  41  67  95 122 176 219 264 316 391
#     4  11  23  40  64 101 130 171 213 282 320 387
#     4  11  23  39  69  98 127 164 231 264 320 385
#     4  11  21  44  67  94 129 181 210 266 315 409
#
# _framework density 21.803314
#
# number of rings (size 3 to 8) (size 9 to 14) (size 15 to 20)
#    0.000    1.091    5.455    1.091    0.000    1.455 
#    0.000    7.273    0.000    0.000    0.000    0.000 
#    0.000    0.000    0.000    0.000    0.000    0.000 
#
# Total GULP energy -272728.251144 kJ/mol
# GULP energy per Si atom -12396.738688 kJ/mol
# Density = 2.175369 g / cm^3
# Si number density = 21.803314 Si / 1000 Ang^3
#
#
#
# Elastic Constant Matrix: (Units=GPa)
#
#
# Indices 1 2 3 4 5 6 
#
# 1 72.4652 44.9100 29.1719 0.0000 -36.5095 0.0000
# 2 44.9100 124.3820 59.5309 0.0000 -12.4019 0.0000
# 3 29.1719 59.5309 100.5264 0.0000 -16.5319 0.0000
# 4 0.0000 0.0000 0.0000 52.7688 0.0000 -1.1618
# 5 -36.5095 -12.4019 -16.5319 0.0000 51.0876 0.0000
# 6 0.0000 0.0000 0.0000 -1.1618 0.0000 25.4652
#
#
#
# Elastic Compliance Matrix: (Units=1/GPa)
#
#
# Indices 1 2 3 4 5 6 
#
# 1 0.028045 -0.008170 -0.000349 0.000000 0.017946 0.000000
# 2 -0.008170 0.013617 -0.006453 0.000000 -0.004621 0.000000
# 3 -0.000349 -0.006453 0.014335 0.000000 0.002823 0.000000
# 4 0.000000 0.000000 0.000000 0.018970 0.000000 0.000865
# 5 0.017946 -0.004621 0.002823 0.000000 0.032191 0.000000
# 6 0.000000 0.000000 0.000000 0.000865 0.000000 0.039309
#
#
# Mechanical properties :
#
#
# Convention : Reuss Voigt Hill
#
# Bulk Modulus (GPa) = 38.38328 62.73325 50.55827
# Shear Modulus (GPa) = 27.01319 36.78169 31.89744
#
# Velocity S-wave (km/s) = 3.52369 4.11174 3.82902
# Velocity P-wave (km/s) = 5.84788 7.16775 6.54119
#
# Compressibility (1/GPa) = 0.02605301
#
# Stress axis : x y z
#
# Youngs Moduli (GPa) = 35.65704 73.43561 69.76065
#
# Poissons Ratio (x) = 0.59994 0.02436
# Poissons Ratio (y) = 0.29130 0.45018
# Poissons Ratio (z) = 0.01245 0.47390
#
# Static dielectric constant tensor:
#      x y z
#    x 3.735650 0.000000 -0.191450 
#    y 0.000000 4.011260 0.000000 
#    z -0.191450 0.000000 4.461090 
# 
# 
# High freq. dielectric constant tensor:
#      x y z
#    x 1.821270 0.000000 -0.005690 
#    y 0.000000 1.854140 0.000000 
#    z -0.005690 0.000000 1.889310 
# 
# From -- ./inp_files/188956.got.cif
#   From: 2010.06.25/outbox.cif.g09.slc.cpg/sg15_95_cif.got.tgz:188956.got - 2010.06.28 07:06:18.
