data_PCOD8148029
_publ_section_title
;
Structure prediction by ZEFSAII (Michael W. Deem and Ramdas Pophale) SiO2 
 PCOD8148029
Probable space group: C 2/C
;
_chemical_formula_sum "Si O2"
_cell_formula_units_Z 52
_cell_length_a 12.731208
_cell_length_b 25.630133
_cell_length_c 9.141663
_cell_angle_alpha 90.000000
_cell_angle_beta 57.285009
_cell_angle_gamma 90.000000
_cell_volume 2509.761169
_symmetry_space_group_name_H-M "C 2/C"
_symmetry_group_IT_number 15
_symmetry_cell_setting 'monoclinic'
loop_
_space_group_symop_operation_xyz
x,y,z
-x,y,1/2-z
-x,-y,-z
x,-y,1/2+z
1/2+x,1/2+y,z
1/2-x,1/2+y,1/2-z
1/2-x,1/2-y,-z
1/2+x,1/2-y,1/2+z
loop_
_atom_site_type_symbol
_atom_site_label
_atom_site_fract_x
_atom_site_fract_y
_atom_site_fract_z
Si Si1 0.496914 0.937963 0.525150
Si Si2 0.389140 0.379499 0.732404
Si Si3 0.750590 0.807583 0.061383
Si Si4 0.770182 0.937441 0.340894
Si Si5 0.751436 0.463470 0.829145
Si Si6 0.000000 0.632735 0.750000
Si Si7 0.443741 0.341673 0.140270
O O1 0.630730 0.914074 0.472286
O O2 0.387845 0.934813 0.729768
O O3 0.455381 0.905450 0.413501
O O4 0.500000 0.000000 0.500000
O O5 0.500000 0.398731 0.750000
O O6 0.327757 0.432681 0.729302
O O7 0.437497 0.347853 0.554562
O O8 0.298547 0.343421 0.894092
O O9 0.614591 0.829292 0.209677
O O10 0.840710 0.805843 0.136856
O O11 0.750000 0.750000 0.000000
O O12 0.809766 0.963552 0.464366
O O13 0.875617 0.896456 0.220994
O O14 0.752005 0.976773 0.219751
O O15 0.500000 0.318138 0.250000
#
# Coordination Sequence:
#
# PCOD8148029 Si02
#       7
#     8   8   8   8   8   4   8
#     4  10  23  35  61  92 136 172 216 277 339 393
#     4  10  23  40  63  90 130 168 216 270 328 391
#     4  11  26  46  74 100 128 172 230 283 344 404
#     4  11  24  37  61  95 133 181 223 264 331 402
#     4  11  23  38  60  91 136 176 223 268 328 395
#     4  12  22  42  72 104 130 176 230 282 332 414
#     4  11  23  44  65  95 136 173 217 278 337 396
#
# _framework density 20.719101999999999
#
# number of rings (size 3 to 8) (size 9 to 14) (size 15 to 20)
#    0.000    1.231    4.615    0.462   16.154    1.231 
#    0.000    0.769    3.385    0.000    0.000    0.000 
#    0.000    0.000    0.000    0.000    0.000    0.000 
#
# Total GULP energy -322170.646961 kJ/mol
# GULP energy per Si atom -12391.178729 kJ/mol
# Density = 2.067194 g / cm^3
# Si number density = 20.719102 Si / 1000 Ang^3
#
#
#
# Elastic Constant Matrix: (Units=GPa)
#
#
# Indices 1 2 3 4 5 6 
#
# 1 105.8172 34.2372 30.5974 0.0000 6.6326 0.0000
# 2 34.2372 73.6226 19.1763 0.0000 6.1395 0.0000
# 3 30.5974 19.1763 89.0205 0.0000 9.7957 0.0000
# 4 0.0000 0.0000 0.0000 19.8588 0.0000 4.8121
# 5 6.6326 6.1395 9.7957 0.0000 40.2611 0.0000
# 6 0.0000 0.0000 0.0000 4.8121 0.0000 23.2592
#
#
#
# Elastic Compliance Matrix: (Units=1/GPa)
#
#
# Indices 1 2 3 4 5 6 
#
# 1 0.011872 -0.004694 -0.003014 0.000000 -0.000507 0.000000
# 2 -0.004694 0.016332 -0.001763 0.000000 -0.001288 0.000000
# 3 -0.003014 -0.001763 0.012910 0.000000 -0.002376 0.000000
# 4 0.000000 0.000000 0.000000 0.053013 0.000000 -0.010968
# 5 -0.000507 -0.001288 -0.002376 0.000000 0.025696 0.000000
# 6 0.000000 0.000000 0.000000 -0.010968 0.000000 0.045263
#
#
# Mechanical properties :
#
#
# Convention : Reuss Voigt Hill
#
# Bulk Modulus (GPa) = 45.09866 48.49801 46.79833
# Shear Modulus (GPa) = 26.12071 28.97246 27.54659
#
# Velocity S-wave (km/s) = 3.55450 3.74350 3.65022
# Velocity P-wave (km/s) = 6.21771 6.49179 6.35622
#
# Compressibility (1/GPa) = 0.02217361
#
# Stress axis : x y z
#
# Youngs Moduli (GPa) = 84.23112 61.22873 77.45656
#
# Poissons Ratio (x) = 0.28739 0.23343
# Poissons Ratio (y) = 0.39536 0.13657
# Poissons Ratio (z) = 0.25385 0.10796
#
# Static dielectric constant tensor:
#      x y z
#    x 3.595000 0.000000 0.835300 
#    y 0.000000 3.331400 0.000000 
#    z 0.835300 0.000000 2.350790 
# 
# 
# High freq. dielectric constant tensor:
#      x y z
#    x 1.826530 0.000000 -0.004040 
#    y 0.000000 1.767140 0.000000 
#    z -0.004040 0.000000 1.824770 
# 
# From -- ./inp_files/33498.got.cif
#   From: 2010.06.25/outbox.cif.g09.slc.cpg/sg15_17_cif.got.tgz:33498.got - 2010.06.28 07:06:18.
