data_PCOD8148306
_publ_section_title
;
Structure prediction by ZEFSAII (Michael W. Deem and Ramdas Pophale) SiO2 
 PCOD8148306
Probable space group: C 2/C
;
_chemical_formula_sum "Si O2"
_cell_formula_units_Z 52
_cell_length_a 25.488339
_cell_length_b 18.022285
_cell_length_c 5.399257
_cell_angle_alpha 90.000000
_cell_angle_beta 119.426243
_cell_angle_gamma 90.000000
_cell_volume 2160.220060
_symmetry_space_group_name_H-M "C 2/C"
_symmetry_group_IT_number 15
_symmetry_cell_setting 'monoclinic'
loop_
_space_group_symop_operation_xyz
x,y,z
-x,y,1/2-z
-x,-y,-z
x,-y,1/2+z
1/2+x,1/2+y,z
1/2-x,1/2+y,1/2-z
1/2-x,1/2-y,-z
1/2+x,1/2-y,1/2+z
loop_
_atom_site_type_symbol
_atom_site_label
_atom_site_fract_x
_atom_site_fract_y
_atom_site_fract_z
Si Si1 0.571480 0.458574 0.905467
Si Si2 0.806136 0.199093 0.186930
Si Si3 0.106189 0.189805 0.704348
Si Si4 0.864143 0.535572 0.716574
Si Si5 0.722829 0.535225 0.449655
Si Si6 0.000000 0.764561 0.250000
Si Si7 0.093652 0.300146 0.297517
O O1 0.500000 0.451358 0.750000
O O2 0.593589 0.490762 0.690268
O O3 0.600876 0.376639 0.994010
O O4 0.826257 0.189725 0.521735
O O5 0.789765 0.120669 0.033652
O O6 0.863039 0.234291 0.189466
O O7 0.750000 0.250000 0.000000
O O8 0.091419 0.275053 0.579117
O O9 0.051247 0.178690 0.770932
O O10 0.892187 0.489219 0.547968
O O11 0.793700 0.520433 0.581977
O O12 0.877878 0.620616 0.688368
O O13 0.694105 0.494681 0.625250
O O14 0.028650 0.708976 0.520988
#
# Coordination Sequence:
#
# PCOD8148306 Si02
#       7
#     8   8   8   8   8   4   8
#     4  10  23  40  66  98 138 184 235 290 347 413
#     4  11  25  43  67 104 137 183 237 290 345 423
#     4  11  26  42  70  97 139 188 234 298 348 422
#     4  10  23  43  70 100 137 179 225 281 354 419
#     4  10  23  43  67  98 144 188 226 284 348 414
#     4  10  24  44  68  98 136 176 242 284 360 406
#     4  11  24  44  72 100 137 181 233 288 348 423
#
# _framework density 24.071622000000001
#
# number of rings (size 3 to 8) (size 9 to 14) (size 15 to 20)
#    0.000    1.538    1.538    1.385   14.000    3.077 
#    0.000    0.769    0.000    0.000    0.000    0.000 
#    0.000    0.000    0.000    0.000    0.000    0.000 
#
# Total GULP energy -322211.221855 kJ/mol
# GULP energy per Si atom -12392.739302 kJ/mol
# Density = 2.401683 g / cm^3
# Si number density = 24.071622 Si / 1000 Ang^3
#
#
#
# Elastic Constant Matrix: (Units=GPa)
#
#
# Indices 1 2 3 4 5 6 
#
# 1 65.4131 32.7223 48.2061 0.0000 -19.5967 0.0000
# 2 32.7223 149.4423 44.8502 0.0000 -31.2863 0.0000
# 3 48.2061 44.8502 144.7716 0.0000 -12.9492 0.0000
# 4 0.0000 0.0000 0.0000 37.7885 0.0000 -4.0813
# 5 -19.5967 -31.2863 -12.9492 0.0000 31.0198 0.0000
# 6 0.0000 0.0000 0.0000 -4.0813 0.0000 32.4709
#
#
#
# Elastic Compliance Matrix: (Units=1/GPa)
#
#
# Indices 1 2 3 4 5 6 
#
# 1 0.024151 -0.000835 -0.006746 0.000000 0.011599 0.000000
# 2 -0.000835 0.009068 -0.001828 0.000000 0.007854 0.000000
# 3 -0.006746 -0.001828 0.009530 0.000000 -0.002127 0.000000
# 4 0.000000 0.000000 0.000000 0.026827 0.000000 0.003372
# 5 0.011599 0.007854 -0.002127 0.000000 0.046599 0.000000
# 6 0.000000 0.000000 0.000000 0.003372 0.000000 0.031221
#
#
# Mechanical properties :
#
#
# Convention : Reuss Voigt Hill
#
# Bulk Modulus (GPa) = 41.78904 67.90938 54.84921
# Shear Modulus (GPa) = 28.70410 35.84575 32.27493
#
# Velocity S-wave (km/s) = 3.45693 3.86311 3.66565
# Velocity P-wave (km/s) = 5.77337 6.94052 6.38367
#
# Compressibility (1/GPa) = 0.02392972
#
# Stress axis : x y z
#
# Youngs Moduli (GPa) = 41.40532 110.28332 104.93460
#
# Poissons Ratio (x) = 0.09214 0.70785
# Poissons Ratio (y) = 0.03459 0.19186
# Poissons Ratio (z) = 0.27931 0.20164
#
# Static dielectric constant tensor:
#      x y z
#    x 4.543030 0.000000 -0.283580 
#    y 0.000000 4.048980 0.000000 
#    z -0.283580 0.000000 5.465550 
# 
# 
# High freq. dielectric constant tensor:
#      x y z
#    x 1.956410 0.000000 -0.002890 
#    y 0.000000 1.945180 0.000000 
#    z -0.002890 0.000000 1.971950 
# 
# From -- ./inp_files/17238.got.cif
#   From: 2010.06.25/outbox.cif.g09.slc.cpg/sg15_9_cif.got.tgz:17238.got - 2010.06.28 07:06:18.
