data_PCOD8148490
_publ_section_title
;
Structure prediction by ZEFSAII (Michael W. Deem and Ramdas Pophale) SiO2 
 PCOD8148490
Probable space group: C 2/C
;
_chemical_formula_sum "Si O2"
_cell_formula_units_Z 56
_cell_length_a 20.468623
_cell_length_b 8.554406
_cell_length_c 18.003124
_cell_angle_alpha 90.000000
_cell_angle_beta 55.066540
_cell_angle_gamma 90.000000
_cell_volume 2584.304009
_symmetry_space_group_name_H-M "C 2/C"
_symmetry_group_IT_number 15
_symmetry_cell_setting 'monoclinic'
loop_
_space_group_symop_operation_xyz
x,y,z
-x,y,1/2-z
-x,-y,-z
x,-y,1/2+z
1/2+x,1/2+y,z
1/2-x,1/2+y,1/2-z
1/2-x,1/2-y,-z
1/2+x,1/2-y,1/2+z
loop_
_atom_site_type_symbol
_atom_site_label
_atom_site_fract_x
_atom_site_fract_y
_atom_site_fract_z
Si Si1 0.719499 0.391499 0.070486
Si Si2 0.561142 0.269617 0.144698
Si Si3 0.353324 0.938840 0.414694
Si Si4 0.002143 0.247132 0.160917
Si Si5 0.207176 0.969645 0.241513
Si Si6 0.031068 0.055944 0.900974
Si Si7 0.830661 0.324497 0.266048
O O1 0.626618 0.409572 0.109988
O O2 0.723345 0.364637 0.157261
O O3 0.750000 0.250000 0.000000
O O4 0.773261 0.542561 0.016004
O O5 0.500000 0.292629 0.250000
O O6 0.602543 0.103097 0.125617
O O7 0.515123 0.286766 0.095415
O O8 0.415228 0.827323 0.419188
O O9 0.323963 0.869456 0.356232
O O10 0.997858 0.068113 0.141183
O O11 0.923285 0.333496 0.179421
O O12 0.000000 0.263679 0.250000
O O13 0.125940 0.917999 0.336488
O O14 0.203590 0.150475 0.221400
O O15 0.280288 0.945526 0.249947
O O16 0.000000 0.000000 0.000000
#
# Coordination Sequence:
#
# PCOD8148490 Si02
#       7
#     8   8   8   8   8   8   8
#     4  10  24  40  65  98 134 167 227 278 329 397
#     4  11  21  40  69  92 128 170 227 263 329 400
#     4  10  23  41  67  97 126 173 222 274 324 403
#     4   9  20  43  64  89 130 168 212 271 323 389
#     4  11  25  43  63  99 138 178 215 283 342 393
#     4  11  25  40  65  97 131 171 220 273 330 399
#     4  10  24  40  67  93 137 173 220 272 341 391
#
# _framework density 21.669277000000001
#
# number of rings (size 3 to 8) (size 9 to 14) (size 15 to 20)
#    0.000    1.714    1.429    1.714   10.000    6.286 
#    0.000    1.429    0.000    0.000    0.000    0.000 
#    0.000    0.000    0.000    0.000    0.000    0.000 
#
# Total GULP energy -347044.483023 kJ/mol
# GULP energy per Si atom -12394.445822 kJ/mol
# Density = 2.161996 g / cm^3
# Si number density = 21.669277 Si / 1000 Ang^3
#
#
#
# Elastic Constant Matrix: (Units=GPa)
#
#
# Indices 1 2 3 4 5 6 
#
# 1 149.4998 45.6215 35.3826 0.0000 1.0250 0.0003
# 2 45.6215 59.0300 14.3758 0.0003 -3.9418 0.0000
# 3 35.3826 14.3758 96.8382 -0.0001 -4.7158 0.0001
# 4 0.0000 0.0003 -0.0001 20.0320 0.0000 4.1805
# 5 1.0250 -3.9418 -4.7158 0.0000 31.9196 -0.0001
# 6 0.0003 0.0000 0.0001 4.1805 -0.0001 44.2401
#
#
#
# Elastic Compliance Matrix: (Units=1/GPa)
#
#
# Indices 1 2 3 4 5 6 
#
# 1 0.009335 -0.006709 -0.002488 0.000000 -0.001496 0.000000
# 2 -0.006709 0.022500 -0.000749 0.000000 0.002883 0.000000
# 3 -0.002488 -0.000749 0.011428 0.000000 0.001676 0.000000
# 4 0.000000 0.000000 0.000000 0.050924 0.000000 -0.004812
# 5 -0.001496 0.002883 0.001676 0.000000 0.031980 0.000000
# 6 0.000000 0.000000 0.000000 -0.004812 0.000000 0.023059
#
#
# Mechanical properties :
#
#
# Convention : Reuss Voigt Hill
#
# Bulk Modulus (GPa) = 42.78354 55.12530 48.95442
# Shear Modulus (GPa) = 28.26316 33.23756 30.75036
#
# Velocity S-wave (km/s) = 3.61542 3.92070 3.77115
# Velocity P-wave (km/s) = 6.10042 6.78162 6.45002
#
# Compressibility (1/GPa) = 0.02337348
#
# Stress axis : x y z
#
# Youngs Moduli (GPa) = 107.12036 44.44383 87.50265
#
# Poissons Ratio (x) = 0.29817 0.21769
# Poissons Ratio (y) = 0.71865 0.06550
# Poissons Ratio (z) = 0.26650 0.03327
#
# Static dielectric constant tensor:
#      x y z
#    x 4.652750 0.000000 -0.600190 
#    y 0.000000 3.370880 0.000000 
#    z -0.600190 0.000000 4.182680 
# 
# 
# High freq. dielectric constant tensor:
#      x y z
#    x 1.869160 0.000000 -0.018490 
#    y 0.000000 1.839460 0.000000 
#    z -0.018490 0.000000 1.844160 
# 
# From -- ./inp_files/213787.got.cif
#   From: 2010.06.25/outbox.cif.g09.slc.cpg/sg15_107_cif.got.tgz:213787.got - 2010.06.28 07:06:18.
