data_PCOD8148386
_publ_section_title
;
Structure prediction by ZEFSAII (Michael W. Deem and Ramdas Pophale) SiO2 
 PCOD8148386
Probable space group: C 2/C
;
_chemical_formula_sum "Si O2"
_cell_formula_units_Z 52
_cell_length_a 10.326300
_cell_length_b 23.720957
_cell_length_c 11.683126
_cell_angle_alpha 90.000000
_cell_angle_beta 66.259089
_cell_angle_gamma 90.000000
_cell_volume 2619.601443
_symmetry_space_group_name_H-M "C 2/C"
_symmetry_group_IT_number 15
_symmetry_cell_setting 'monoclinic'
loop_
_space_group_symop_operation_xyz
x,y,z
-x,y,1/2-z
-x,-y,-z
x,-y,1/2+z
1/2+x,1/2+y,z
1/2-x,1/2+y,1/2-z
1/2-x,1/2-y,-z
1/2+x,1/2-y,1/2+z
loop_
_atom_site_type_symbol
_atom_site_label
_atom_site_fract_x
_atom_site_fract_y
_atom_site_fract_z
Si Si1 0.390948 0.726462 0.504393
Si Si2 0.000000 0.835904 0.750000
Si Si3 0.276567 0.392949 0.520989
Si Si4 0.070115 0.866774 0.347651
Si Si5 0.662546 0.527426 0.699958
Si Si6 0.270695 0.909076 0.708325
Si Si7 0.486810 0.825451 0.889642
O O1 0.250000 0.750000 0.500000
O O2 0.488829 0.702528 0.367495
O O3 0.340039 0.680860 0.619385
O O4 0.477995 0.772979 0.542714
O O5 0.862326 0.874785 0.791606
O O6 0.437431 0.372865 0.480985
O O7 0.277149 0.445334 0.435788
O O8 0.216694 0.413668 0.661088
O O9 0.172693 0.342607 0.517333
O O10 0.163437 0.923955 0.299543
O O11 0.000000 0.849910 0.250000
O O12 0.500000 0.506464 0.750000
O O13 0.764948 0.474599 0.677224
O O14 0.411110 0.877944 0.613422
O O15 0.500000 0.809167 0.750000
#
# Coordination Sequence:
#
# PCOD8148386 Si02
#       7
#     8   4   8   8   8   8   8
#     4  12  24  40  59  89 124 154 197 253 299 355
#     4  12  24  36  60  90 120 156 192 248 316 344
#     4   9  20  38  58  85 117 156 199 242 293 354
#     4   9  20  38  62  91 116 155 204 244 295 351
#     4   9  20  35  62  90 115 153 200 249 291 348
#     4  11  20  39  59  89 117 156 201 240 306 351
#     4  10  23  41  63  84 119 162 200 244 293 363
#
# _framework density 19.850345999999998
#
# number of rings (size 3 to 8) (size 9 to 14) (size 15 to 20)
#    0.000    2.154    3.846    0.462    0.000    7.385 
#    0.000    0.000    0.000    0.000    0.000    0.000 
#    0.000    0.000    0.000    0.000    0.000    0.000 
#
# Total GULP energy -322150.622470 kJ/mol
# GULP energy per Si atom -12390.408557 kJ/mol
# Density = 1.980517 g / cm^3
# Si number density = 19.850346 Si / 1000 Ang^3
#
#
#
# Elastic Constant Matrix: (Units=GPa)
#
#
# Indices 1 2 3 4 5 6 
#
# 1 58.4421 43.6663 12.3639 0.0000 10.7987 0.0000
# 2 43.6663 138.9593 46.1450 0.0000 18.2770 0.0000
# 3 12.3639 46.1450 70.0346 0.0000 7.7907 0.0000
# 4 0.0000 0.0000 0.0000 24.0871 0.0000 11.2736
# 5 10.7987 18.2770 7.7907 0.0000 26.7759 0.0000
# 6 0.0000 0.0000 0.0000 11.2736 0.0000 32.3452
#
#
#
# Elastic Compliance Matrix: (Units=1/GPa)
#
#
# Indices 1 2 3 4 5 6 
#
# 1 0.022958 -0.006926 0.001049 0.000000 -0.004836 0.000000
# 2 -0.006926 0.011904 -0.006229 0.000000 -0.003520 0.000000
# 3 0.001049 -0.006229 0.018366 0.000000 -0.001515 0.000000
# 4 0.000000 0.000000 0.000000 0.049609 0.000000 -0.017290
# 5 -0.004836 -0.003520 -0.001515 0.000000 0.042141 0.000000
# 6 0.000000 0.000000 0.000000 -0.017290 0.000000 0.036943
#
#
# Mechanical properties :
#
#
# Convention : Reuss Voigt Hill
#
# Bulk Modulus (GPa) = 34.46525 52.42072 43.44299
# Shear Modulus (GPa) = 23.16887 27.65904 25.41396
#
# Velocity S-wave (km/s) = 3.42010 3.73685 3.58198
# Velocity P-wave (km/s) = 5.74425 6.71446 6.24822
#
# Compressibility (1/GPa) = 0.02901473
#
# Stress axis : x y z
#
# Youngs Moduli (GPa) = 43.55802 84.00187 54.44697
#
# Poissons Ratio (x) = 0.58183 -0.05710
# Poissons Ratio (y) = 0.30170 0.33917
# Poissons Ratio (z) = -0.04568 0.52328
#
# Static dielectric constant tensor:
#      x y z
#    x 3.686390 0.000000 0.043130 
#    y 0.000000 3.717280 0.000000 
#    z 0.043130 0.000000 3.678850 
# 
# 
# High freq. dielectric constant tensor:
#      x y z
#    x 1.759690 0.000000 0.006600 
#    y 0.000000 1.777340 0.000000 
#    z 0.006600 0.000000 1.774370 
# 
# From -- ./inp_files/90295.got.cif
#   From: 2010.06.25/outbox.cif.g09.slc.cpg/sg15_46_cif.got.tgz:90295.got - 2010.06.28 07:06:18.
