data_PCOD8148530
_publ_section_title
;
Structure prediction by ZEFSAII (Michael W. Deem and Ramdas Pophale) SiO2 
 PCOD8148530
Probable space group: C 2/C
;
_chemical_formula_sum "Si O2"
_cell_formula_units_Z 48
_cell_length_a 29.875021
_cell_length_b 14.374277
_cell_length_c 9.189145
_cell_angle_alpha 90.000000
_cell_angle_beta 145.565392
_cell_angle_gamma 90.000000
_cell_volume 2231.388980
_symmetry_space_group_name_H-M "C 2/C"
_symmetry_group_IT_number 15
_symmetry_cell_setting 'monoclinic'
loop_
_space_group_symop_operation_xyz
x,y,z
-x,y,1/2-z
-x,-y,-z
x,-y,1/2+z
1/2+x,1/2+y,z
1/2-x,1/2+y,1/2-z
1/2-x,1/2-y,-z
1/2+x,1/2-y,1/2+z
loop_
_atom_site_type_symbol
_atom_site_label
_atom_site_fract_x
_atom_site_fract_y
_atom_site_fract_z
Si Si1 0.812124 0.141680 0.832520
Si Si2 0.614117 0.719728 0.748100
Si Si3 0.978089 0.088402 0.352964
Si Si4 0.411027 0.077333 0.452863
Si Si5 0.259887 0.294452 0.683743
Si Si6 0.816569 0.516494 0.475648
O O1 0.833781 0.152847 0.719415
O O2 0.797221 0.244681 0.853779
O O3 0.736566 0.076902 0.661161
O O4 0.885069 0.103649 0.121681
O O5 0.525772 0.679993 0.531395
O O6 0.606913 0.820191 0.655655
O O7 0.652175 0.718158 0.011559
O O8 0.000000 0.062864 0.250000
O O9 0.000000 0.000000 0.500000
O O10 0.345681 0.047759 0.395977
O O11 0.395854 0.003368 0.282590
O O12 0.500000 0.068809 0.750000
O O13 0.250000 0.250000 0.500000
O O14 0.237197 0.401828 0.602705
#
# Coordination Sequence:
#
# PCOD8148530 Si02
#       6
#     8   8   8   8   8   8
#     4  11  22  45  69 101 136 176 233 276 348 413
#     4  11  23  46  72  95 138 189 223 280 352 416
#     4  10  23  41  71 102 134 179 222 278 345 406
#     4  12  25  46  70 100 140 185 233 277 348 422
#     4  12  25  42  64 102 137 175 235 291 344 400
#     4  12  25  41  71 101 138 182 231 292 336 417
#
# _framework density 21.511264000000001
#
# number of rings (size 3 to 8) (size 9 to 14) (size 15 to 20)
#    0.000    0.667    3.333    5.500    0.000    5.333 
#    0.000    0.000    0.000    0.000    0.000    0.000 
#    0.000    0.000    0.000    0.000    0.000    0.000 
#
# Total GULP energy -297545.056968 kJ/mol
# GULP energy per Si atom -12397.710707 kJ/mol
# Density = 2.146230 g / cm^3
# Si number density = 21.511264 Si / 1000 Ang^3
#
#
#
# Elastic Constant Matrix: (Units=GPa)
#
#
# Indices 1 2 3 4 5 6 
#
# 1 44.8513 18.9922 37.2661 0.0000 -2.3566 0.0000
# 2 18.9922 102.4933 57.4208 0.0000 -5.4390 0.0000
# 3 37.2661 57.4208 179.5225 0.0000 -6.9885 0.0000
# 4 0.0000 0.0000 0.0000 44.3418 0.0000 1.5626
# 5 -2.3566 -5.4390 -6.9885 0.0000 35.9834 0.0000
# 6 0.0000 0.0000 0.0000 1.5626 0.0000 29.6791
#
#
#
# Elastic Compliance Matrix: (Units=1/GPa)
#
#
# Indices 1 2 3 4 5 6 
#
# 1 0.027390 -0.002284 -0.004936 0.000000 0.000490 0.000000
# 2 -0.002284 0.012118 -0.003362 0.000000 0.001029 0.000000
# 3 -0.004936 -0.003362 0.007696 0.000000 0.000663 0.000000
# 4 0.000000 0.000000 0.000000 0.022594 0.000000 -0.001190
# 5 0.000490 0.001029 0.000663 0.000000 0.028107 0.000000
# 6 0.000000 0.000000 0.000000 -0.001190 0.000000 0.033756
#
#
# Mechanical properties :
#
#
# Convention : Reuss Voigt Hill
#
# Bulk Modulus (GPa) = 38.40196 61.58058 49.99127
# Shear Modulus (GPa) = 30.95865 36.21339 33.58602
#
# Velocity S-wave (km/s) = 3.79777 4.10745 3.95564
# Velocity P-wave (km/s) = 6.09275 7.15431 6.64476
#
# Compressibility (1/GPa) = 0.02604034
#
# Stress axis : x y z
#
# Youngs Moduli (GPa) = 36.50942 82.52198 129.93603
#
# Poissons Ratio (x) = 0.18848 0.64138
# Poissons Ratio (y) = 0.08339 0.43682
# Poissons Ratio (z) = 0.18022 0.27742
#
# Static dielectric constant tensor:
#      x y z
#    x 3.743070 0.000000 -0.093510 
#    y 0.000000 3.948310 0.000000 
#    z -0.093510 0.000000 4.196180 
# 
# 
# High freq. dielectric constant tensor:
#      x y z
#    x 1.826350 0.000000 -0.003710 
#    y 0.000000 1.855320 0.000000 
#    z -0.003710 0.000000 1.866570 
# 
# From -- ./inp_files/66487.got.cif
#   From: 2010.06.25/outbox.cif.g09.slc.cpg/sg15_34_cif.got.tgz:66487.got - 2010.06.28 07:06:18.
