data_PCOD8148958
_publ_section_title
;
Structure prediction by ZEFSAII (Michael W. Deem and Ramdas Pophale) SiO2 
 PCOD8148958
Probable space group: C 2/C
;
_chemical_formula_sum "Si O2"
_cell_formula_units_Z 56
_cell_length_a 11.679739
_cell_length_b 13.974697
_cell_length_c 14.652998
_cell_angle_alpha 90.000000
_cell_angle_beta 93.521477
_cell_angle_gamma 90.000000
_cell_volume 2387.158402
_symmetry_space_group_name_H-M "C 2/C"
_symmetry_group_IT_number 15
_symmetry_cell_setting 'monoclinic'
loop_
_space_group_symop_operation_xyz
x,y,z
-x,y,1/2-z
-x,-y,-z
x,-y,1/2+z
1/2+x,1/2+y,z
1/2-x,1/2+y,1/2-z
1/2-x,1/2-y,-z
1/2+x,1/2-y,1/2+z
loop_
_atom_site_type_symbol
_atom_site_label
_atom_site_fract_x
_atom_site_fract_y
_atom_site_fract_z
Si Si1 0.850099 0.977806 0.883264
Si Si2 0.551729 0.645410 0.351047
Si Si3 0.532972 0.002494 0.157806
Si Si4 0.118753 0.721725 0.003400
Si Si5 0.394768 0.318771 0.312315
Si Si6 0.152692 0.500232 0.993497
Si Si7 0.724389 0.138119 0.232581
O O1 0.841810 0.076534 0.827430
O O2 0.788782 0.991297 0.979345
O O3 0.776035 0.896640 0.829869
O O4 0.981247 0.941032 0.896956
O O5 0.500000 0.671390 0.250000
O O6 0.546204 0.739313 0.413819
O O7 0.684212 0.612940 0.343932
O O8 0.500000 0.943224 0.250000
O O9 0.601874 0.093360 0.201643
O O10 0.418087 0.036961 0.098635
O O11 0.616039 0.947795 0.087341
O O12 0.108225 0.608370 0.006773
O O13 0.250000 0.750000 0.000000
O O14 0.065176 0.770777 0.090685
O O15 0.500000 0.330605 0.250000
O O16 0.295076 0.252858 0.262875
#
# Coordination Sequence:
#
# PCOD8148958 Si02
#       7
#     8   8   8   8   8   8   8
#     4  11  24  44  67 105 137 175 228 285 348 399
#     4  10  23  43  68  97 140 174 223 286 342 400
#     4  11  22  39  64  95 127 179 223 280 333 403
#     4  12  22  43  67  97 128 187 230 271 341 416
#     4  12  25  42  70 100 135 180 230 278 335 416
#     4  11  23  39  67  96 133 168 236 276 337 408
#     4  11  21  43  70  92 137 181 224 272 345 401
#
# _framework density 23.458855
#
# number of rings (size 3 to 8) (size 9 to 14) (size 15 to 20)
#    0.000    0.857    5.714    1.714    0.000    1.143 
#    7.714    0.000    0.000    6.857    0.000    0.000 
#    0.000    0.000    0.000    0.000    0.000    0.000 
#
# Total GULP energy -346921.469276 kJ/mol
# GULP energy per Si atom -12390.052474 kJ/mol
# Density = 2.340546 g / cm^3
# Si number density = 23.458855 Si / 1000 Ang^3
#
#
#
# Elastic Constant Matrix: (Units=GPa)
#
#
# Indices 1 2 3 4 5 6 
#
# 1 114.9116 31.7954 37.0562 0.0000 -41.8881 0.0000
# 2 31.7954 79.6728 22.0958 0.0000 1.4023 0.0000
# 3 37.0562 22.0958 151.7582 0.0000 -41.7906 0.0000
# 4 0.0000 0.0000 0.0000 21.9160 0.0000 1.9422
# 5 -41.8881 1.4023 -41.7906 0.0000 51.5234 0.0000
# 6 0.0000 0.0000 0.0000 1.9422 0.0000 28.4732
#
#
#
# Elastic Compliance Matrix: (Units=1/GPa)
#
#
# Indices 1 2 3 4 5 6 
#
# 1 0.014958 -0.006443 0.000879 0.000000 0.013050 0.000000
# 2 -0.006443 0.016099 -0.003005 0.000000 -0.008114 0.000000
# 3 0.000879 -0.003005 0.009054 0.000000 0.008140 0.000000
# 4 0.000000 0.000000 0.000000 0.045906 0.000000 -0.003131
# 5 0.013050 -0.008114 0.008140 0.000000 0.036841 0.000000
# 6 0.000000 0.000000 0.000000 -0.003131 0.000000 0.035334
#
#
# Mechanical properties :
#
#
# Convention : Reuss Voigt Hill
#
# Bulk Modulus (GPa) = 43.52897 58.69305 51.11101
# Shear Modulus (GPa) = 27.32412 37.40886 32.36649
#
# Velocity S-wave (km/s) = 3.41657 3.99765 3.71848
# Velocity P-wave (km/s) = 5.84463 6.81044 6.34594
#
# Compressibility (1/GPa) = 0.02297321
#
# Stress axis : x y z
#
# Youngs Moduli (GPa) = 66.85165 62.11648 110.44980
#
# Poissons Ratio (x) = 0.40022 -0.09709
# Poissons Ratio (y) = 0.43073 0.33190
# Poissons Ratio (z) = -0.05877 0.18666
#
# Static dielectric constant tensor:
#      x y z
#    x 4.559950 0.000000 -0.193020 
#    y 0.000000 4.084960 0.000000 
#    z -0.193020 0.000000 4.871410 
# 
# 
# High freq. dielectric constant tensor:
#      x y z
#    x 1.934760 0.000000 -0.024310 
#    y 0.000000 1.891590 0.000000 
#    z -0.024310 0.000000 1.941670 
# 
# From -- ./inp_files/144246.got.cif
#   From: 2010.06.25/outbox.cif.g09.slc.cpg/sg15_73_cif.got.tgz:144246.got - 2010.06.28 07:06:18.
