data_PCOD8148670
_publ_section_title
;
Structure prediction by ZEFSAII (Michael W. Deem and Ramdas Pophale) SiO2 
 PCOD8148670
Probable space group: C 2/C
;
_chemical_formula_sum "Si O2"
_cell_formula_units_Z 60
_cell_length_a 18.322508
_cell_length_b 17.176241
_cell_length_c 8.978576
_cell_angle_alpha 90.000000
_cell_angle_beta 83.339356
_cell_angle_gamma 90.000000
_cell_volume 2806.592270
_symmetry_space_group_name_H-M "C 2/C"
_symmetry_group_IT_number 15
_symmetry_cell_setting 'monoclinic'
loop_
_space_group_symop_operation_xyz
x,y,z
-x,y,1/2-z
-x,-y,-z
x,-y,1/2+z
1/2+x,1/2+y,z
1/2-x,1/2+y,1/2-z
1/2-x,1/2-y,-z
1/2+x,1/2-y,1/2+z
loop_
_atom_site_type_symbol
_atom_site_label
_atom_site_fract_x
_atom_site_fract_y
_atom_site_fract_z
Si Si1 0.069357 0.253746 0.126908
Si Si2 0.574300 0.309639 0.316171
Si Si3 0.411754 0.078190 0.997144
Si Si4 0.806918 0.737663 0.689086
Si Si5 0.500000 0.020235 0.250000
Si Si6 0.836847 0.317526 0.868834
Si Si7 0.284339 0.407808 0.256013
Si Si8 0.285257 0.023676 0.449265
O O1 0.095388 0.332869 0.044143
O O2 0.137078 0.222447 0.209555
O O3 0.000000 0.264626 0.250000
O O4 0.055305 0.193571 0.996429
O O5 0.500000 0.331950 0.250000
O O6 0.605279 0.225708 0.251856
O O7 0.631760 0.379487 0.276473
O O8 0.443937 0.035835 0.845600
O O9 0.331949 0.037993 0.036727
O O10 0.460153 0.073260 0.135393
O O11 0.852784 0.711650 0.532420
O O12 0.746434 0.800373 0.659603
O O13 0.769453 0.662929 0.775807
O O14 0.841774 0.412131 0.860952
O O15 0.266567 0.481166 0.157024
O O16 0.270076 0.429747 0.430719
#
# Coordination Sequence:
#
# PCOD8148670 Si02
#       8
#     8   8   8   8   4   8   8   8
#     4  12  25  39  62  92 134 176 219 276 324 396
#     4  11  26  45  66  94 133 176 228 275 341 398
#     4  11  23  38  57  93 131 177 216 266 315 403
#     4   9  19  41  61  94 130 165 222 275 324 391
#     4  10  24  36  54  84 142 178 208 250 332 390
#     4   9  21  38  69  92 124 173 219 275 329 398
#     4  10  23  42  66  97 130 172 220 280 329 405
#     4  11  22  39  68  97 131 169 222 272 334 383
#
# _framework density 21.378238
#
# number of rings (size 3 to 8) (size 9 to 14) (size 15 to 20)
#    0.000    1.600    2.000    2.400    6.533    4.267 
#    0.000    0.667    0.000    0.800    0.000    0.000 
#    0.000    0.000    0.000    0.000    0.000    0.000 
#
# Total GULP energy -371983.441004 kJ/mol
# GULP energy per Si atom -12399.448033 kJ/mol
# Density = 2.132958 g / cm^3
# Si number density = 21.378238 Si / 1000 Ang^3
#
#
#
# Elastic Constant Matrix: (Units=GPa)
#
#
# Indices 1 2 3 4 5 6 
#
# 1 85.8176 13.9477 30.1277 0.0000 10.6713 0.0000
# 2 13.9477 47.9638 16.5986 0.0000 -4.0611 0.0000
# 3 30.1277 16.5986 91.3204 0.0000 13.4772 0.0000
# 4 0.0000 0.0000 0.0000 21.1928 0.0000 6.3120
# 5 10.6713 -4.0611 13.4772 0.0000 37.1110 0.0000
# 6 0.0000 0.0000 0.0000 6.3120 0.0000 20.5190
#
#
#
# Elastic Compliance Matrix: (Units=1/GPa)
#
#
# Indices 1 2 3 4 5 6 
#
# 1 0.013763 -0.003029 -0.003547 0.000000 -0.003001 0.000000
# 2 -0.003029 0.023529 -0.004000 0.000000 0.004898 0.000000
# 3 -0.003547 -0.004000 0.013485 0.000000 -0.004315 0.000000
# 4 0.000000 0.000000 0.000000 0.051945 0.000000 -0.015979
# 5 -0.003001 0.004898 -0.004315 0.000000 0.029912 0.000000
# 6 0.000000 0.000000 0.000000 -0.015979 0.000000 0.053651
#
#
# Mechanical properties :
#
#
# Convention : Reuss Voigt Hill
#
# Bulk Modulus (GPa) = 33.75638 38.49441 36.12539
# Shear Modulus (GPa) = 23.00833 26.72641 24.86737
#
# Velocity S-wave (km/s) = 3.28418 3.53961 3.41429
# Velocity P-wave (km/s) = 5.49595 5.89496 5.69895
#
# Compressibility (1/GPa) = 0.02962403
#
# Stress axis : x y z
#
# Youngs Moduli (GPa) = 72.65651 42.50084 74.15839
#
# Poissons Ratio (x) = 0.12873 0.26306
# Poissons Ratio (y) = 0.22006 0.29666
# Poissons Ratio (z) = 0.25773 0.17002
#
# Static dielectric constant tensor:
#      x y z
#    x 3.729450 0.000000 -0.007580 
#    y 0.000000 3.671440 0.000000 
#    z -0.007580 0.000000 4.037670 
# 
# 
# High freq. dielectric constant tensor:
#      x y z
#    x 1.826630 0.000000 0.000960 
#    y 0.000000 1.815210 0.000000 
#    z 0.000960 0.000000 1.856400 
# 
# From -- ./inp_files/49082.got.cif
#   From: 2010.06.25/outbox.cif.g09.slc.cpg/sg15_25_cif.got.tgz:49082.got - 2010.06.28 07:06:18.
