data_PCOD8148606
_publ_section_title
;
Structure prediction by ZEFSAII (Michael W. Deem and Ramdas Pophale) SiO2 
 PCOD8148606
Probable space group: C 2/C
;
_chemical_formula_sum "Si O2"
_cell_formula_units_Z 64
_cell_length_a 15.624998
_cell_length_b 22.525303
_cell_length_c 14.798055
_cell_angle_alpha 90.000000
_cell_angle_beta 36.457159
_cell_angle_gamma 90.000000
_cell_volume 3094.878877
_symmetry_space_group_name_H-M "C 2/C"
_symmetry_group_IT_number 15
_symmetry_cell_setting 'monoclinic'
loop_
_space_group_symop_operation_xyz
x,y,z
-x,y,1/2-z
-x,-y,-z
x,-y,1/2+z
1/2+x,1/2+y,z
1/2-x,1/2+y,1/2-z
1/2-x,1/2-y,-z
1/2+x,1/2-y,1/2+z
loop_
_atom_site_type_symbol
_atom_site_label
_atom_site_fract_x
_atom_site_fract_y
_atom_site_fract_z
Si Si1 0.827394 0.304408 0.892831
Si Si2 0.199991 0.980473 0.415253
Si Si3 0.021296 0.595533 0.833728
Si Si4 0.909562 0.072250 0.123807
Si Si5 0.702735 0.699108 0.308994
Si Si6 0.745081 0.019273 0.423499
Si Si7 0.496253 0.813708 0.004451
Si Si8 0.587862 0.097429 0.081221
O O1 0.774982 0.320601 0.839649
O O2 0.783802 0.360281 0.992483
O O3 0.000000 0.294808 0.750000
O O4 0.750000 0.250000 0.000000
O O5 0.357625 0.955318 0.257653
O O6 0.186173 0.984664 0.535303
O O7 0.081462 0.936762 0.471436
O O8 0.177436 0.045445 0.388692
O O9 0.000000 0.616795 0.750000
O O10 0.868474 0.571397 0.996182
O O11 0.057589 0.653710 0.859810
O O12 0.886705 0.142865 0.152997
O O13 0.868320 0.033182 0.246887
O O14 0.606880 0.756553 0.412877
O O15 0.839195 0.711053 0.126622
O O16 0.657518 0.959231 0.474897
O O17 0.493724 0.862145 0.924716
O O18 0.500000 0.080489 0.250000
#
# Coordination Sequence:
#
# PCOD8148606 Si02
#       8
#     8   8   8   8   8   8   8   8
#     4  11  20  39  59  92 133 170 210 254 311 388
#     4  10  23  42  64  95 133 166 211 265 333 388
#     4  10  23  43  67  93 122 160 223 276 321 379
#     4  11  24  42  64  94 136 171 209 266 330 394
#     4  12  24  42  64  94 130 173 214 265 320 387
#     4  11  22  40  69  97 125 169 216 273 323 384
#     4  12  25  41  66  93 131 168 224 262 326 386
#     4  11  21  36  66 100 132 166 209 263 317 392
#
# _framework density 20.679323
#
# number of rings (size 3 to 8) (size 9 to 14) (size 15 to 20)
#    0.000    1.000    5.000    3.000    3.500    1.000 
#    0.000    3.125    0.000    0.000    0.000    0.000 
#    0.000    0.000    0.000    0.000    0.000    0.000 
#
# Total GULP energy -396422.319256 kJ/mol
# GULP energy per Si atom -12388.197477 kJ/mol
# Density = 2.063226 g / cm^3
# Si number density = 20.679323 Si / 1000 Ang^3
#
#
#
# Elastic Constant Matrix: (Units=GPa)
#
#
# Indices 1 2 3 4 5 6 
#
# 1 89.7920 30.2903 23.6472 -0.0185 2.1901 0.0083
# 2 30.2903 100.5034 22.7525 -0.0169 4.1315 0.0124
# 3 23.6472 22.7525 56.7281 -0.0334 0.1466 0.0196
# 4 -0.0185 -0.0169 -0.0334 29.2859 0.0248 6.4276
# 5 2.1901 4.1315 0.1466 0.0248 27.6332 -0.0136
# 6 0.0083 0.0124 0.0196 6.4276 -0.0136 30.1745
#
#
#
# Elastic Compliance Matrix: (Units=1/GPa)
#
#
# Indices 1 2 3 4 5 6 
#
# 1 0.013308 -0.003004 -0.004341 0.000002 -0.000583 0.000000
# 2 -0.003004 0.011694 -0.003434 0.000003 -0.001492 -0.000003
# 3 -0.004341 -0.003434 0.020813 0.000022 0.000747 -0.000015
# 4 0.000002 0.000003 0.000022 0.035821 -0.000037 -0.007630
# 5 -0.000583 -0.001492 0.000747 -0.000037 0.036454 0.000025
# 6 0.000000 -0.000003 -0.000015 -0.007630 0.000025 0.034766
#
#
# Mechanical properties :
#
#
# Convention : Reuss Voigt Hill
#
# Bulk Modulus (GPa) = 41.22631 44.48929 42.85780
# Shear Modulus (GPa) = 27.39739 28.77426 28.08583
#
# Velocity S-wave (km/s) = 3.64382 3.73426 3.68932
# Velocity P-wave (km/s) = 6.13861 6.33668 6.23843
#
# Compressibility (1/GPa) = 0.02425635
#
# Stress axis : x y z
#
# Youngs Moduli (GPa) = 75.14475 85.51340 48.04706
#
# Poissons Ratio (x) = 0.25689 0.20857
# Poissons Ratio (y) = 0.22574 0.16500
# Poissons Ratio (z) = 0.32620 0.29367
#
# Static dielectric constant tensor:
#      x y z
#    x 3.502530 -0.000020 -0.009010 
#    y -0.000020 3.571310 0.000040 
#    z -0.009010 0.000040 3.796410 
# 
# 
# High freq. dielectric constant tensor:
#      x y z
#    x 1.812500 0.000000 0.000840 
#    y 0.000000 1.805620 0.000000 
#    z 0.000840 0.000000 1.806690 
# 
# From -- ./inp_files/156782.got.cif
#   From: 2010.06.25/outbox.cif.g09.slc.cpg/sg15_79_cif.got.tgz:156782.got - 2010.06.28 07:06:18.
