data_PCOD8148659
_publ_section_title
;
Structure prediction by ZEFSAII (Michael W. Deem and Ramdas Pophale) SiO2 
 PCOD8148659
Probable space group: C 2/C
;
_chemical_formula_sum "Si O2"
_cell_formula_units_Z 40
_cell_length_a 19.799330
_cell_length_b 4.790284
_cell_length_c 20.753907
_cell_angle_alpha 90.000000
_cell_angle_beta 71.192254
_cell_angle_gamma 90.000000
_cell_volume 1863.291188
_symmetry_space_group_name_H-M "C 2/C"
_symmetry_group_IT_number 15
_symmetry_cell_setting 'monoclinic'
loop_
_space_group_symop_operation_xyz
x,y,z
-x,y,1/2-z
-x,-y,-z
x,-y,1/2+z
1/2+x,1/2+y,z
1/2-x,1/2+y,1/2-z
1/2-x,1/2-y,-z
1/2+x,1/2-y,1/2+z
loop_
_atom_site_type_symbol
_atom_site_label
_atom_site_fract_x
_atom_site_fract_y
_atom_site_fract_z
Si Si1 0.545006 0.795151 0.940606
Si Si2 0.403652 0.574042 0.963755
Si Si3 0.181862 0.595043 0.551574
Si Si4 0.176197 0.595077 0.323948
Si Si5 0.233061 0.404669 0.672182
O O1 0.483538 0.651255 0.915870
O O2 0.598021 0.963599 0.877401
O O3 0.590573 0.565680 0.966792
O O4 0.500000 0.000000 0.000000
O O5 0.376443 0.338734 0.922710
O O6 0.349493 0.842385 0.983577
O O7 0.250000 0.750000 0.500000
O O8 0.196201 0.466037 0.616227
O O9 0.174899 0.550015 0.247087
O O10 0.237411 0.409172 0.338555
O O11 0.197700 0.909866 0.334375
#
# Coordination Sequence:
#
# PCOD8148659 Si02
#       5
#     8   8   8   8   8
#     4  11  24  41  68  91 129 166 218 266 310 385
#     4  11  25  40  61 100 125 168 210 263 329 375
#     4  12  24  39  65  96 135 164 209 269 325 378
#     4  10  23  42  67  92 123 169 220 259 314 382
#     4  10  23  42  66  94 126 169 211 265 322 374
#
# _framework density 21.467390000000002
#
# number of rings (size 3 to 8) (size 9 to 14) (size 15 to 20)
#    0.000    1.200    2.000    3.000    8.400    0.000 
#    0.000    1.000    4.400    0.000    0.000    0.000 
#    0.000    0.000    0.000    0.000    0.000    0.000 
#
# Total GULP energy -247896.131621 kJ/mol
# GULP energy per Si atom -12394.806581 kJ/mol
# Density = 2.141853 g / cm^3
# Si number density = 21.467390 Si / 1000 Ang^3
#
#
#
# Elastic Constant Matrix: (Units=GPa)
#
#
# Indices 1 2 3 4 5 6 
#
# 1 132.7061 52.3392 84.9583 -0.0145 -0.5623 -0.0233
# 2 52.3392 113.3022 43.6858 -0.0290 -4.1011 -0.0170
# 3 84.9583 43.6858 144.2356 -0.0120 -24.2733 -0.0113
# 4 -0.0145 -0.0290 -0.0120 26.3687 -0.0075 3.5091
# 5 -0.5623 -4.1011 -24.2733 -0.0075 32.4403 -0.0125
# 6 -0.0233 -0.0170 -0.0113 3.5091 -0.0125 49.8282
#
#
#
# Elastic Compliance Matrix: (Units=1/GPa)
#
#
# Indices 1 2 3 4 5 6 
#
# 1 0.014342 -0.003601 -0.008457 -0.000002 -0.006534 0.000002
# 2 -0.003601 0.010934 -0.001108 0.000010 0.000491 0.000001
# 3 -0.008457 -0.001108 0.013960 0.000003 0.010159 0.000001
# 4 -0.000002 0.000010 0.000003 0.038283 0.000011 -0.002696
# 5 -0.006534 0.000491 0.010159 0.000011 0.038376 0.000008
# 6 0.000002 0.000001 0.000001 -0.002696 0.000008 0.020259
#
#
# Mechanical properties :
#
#
# Convention : Reuss Voigt Hill
#
# Bulk Modulus (GPa) = 77.49457 83.57892 80.53675
# Shear Modulus (GPa) = 29.97845 35.67815 32.82830
#
# Velocity S-wave (km/s) = 3.74098 4.08115 3.91476
# Velocity P-wave (km/s) = 7.40520 7.82465 7.61782
#
# Compressibility (1/GPa) = 0.01290413
#
# Stress axis : x y z
#
# Youngs Moduli (GPa) = 69.72502 91.45412 71.63549
#
# Poissons Ratio (x) = 0.32933 0.60581
# Poissons Ratio (y) = 0.25108 0.07938
# Poissons Ratio (z) = 0.58965 0.10134
#
# Static dielectric constant tensor:
#      x y z
#    x 4.257440 -0.000010 -0.056160 
#    y -0.000010 4.372240 -0.000030 
#    z -0.056160 -0.000030 3.670870 
# 
# 
# High freq. dielectric constant tensor:
#      x y z
#    x 1.840410 0.000000 -0.002840 
#    y 0.000000 1.870990 0.000000 
#    z -0.002840 0.000000 1.809520 
# 
# From -- ./inp_files/246203.got.cif
#   From: 2010.06.25/outbox.cif.g09.slc.cpg/sg15_124_cif.got.tgz:246203.got - 2010.06.28 07:06:18.
