data_PCOD8148828
_publ_section_title
;
Structure prediction by ZEFSAII (Michael W. Deem and Ramdas Pophale) SiO2 
 PCOD8148828
Probable space group: C 2/C
;
_chemical_formula_sum "Si O2"
_cell_formula_units_Z 44
_cell_length_a 23.845945
_cell_length_b 11.141101
_cell_length_c 12.008739
_cell_angle_alpha 90.000000
_cell_angle_beta 36.278152
_cell_angle_gamma 90.000000
_cell_volume 1887.756159
_symmetry_space_group_name_H-M "C 2/C"
_symmetry_group_IT_number 15
_symmetry_cell_setting 'monoclinic'
loop_
_space_group_symop_operation_xyz
x,y,z
-x,y,1/2-z
-x,-y,-z
x,-y,1/2+z
1/2+x,1/2+y,z
1/2-x,1/2+y,1/2-z
1/2-x,1/2-y,-z
1/2+x,1/2-y,1/2+z
loop_
_atom_site_type_symbol
_atom_site_label
_atom_site_fract_x
_atom_site_fract_y
_atom_site_fract_z
Si Si1 0.728416 0.843775 0.825618
Si Si2 0.245178 0.441328 0.450733
Si Si3 0.662831 0.631948 0.074766
Si Si4 0.500000 0.497509 0.250000
Si Si5 0.378855 0.225311 0.219797
Si Si6 0.431901 0.673315 0.039945
O O1 0.655376 0.831424 0.842177
O O2 0.836066 0.798767 0.620146
O O3 0.726292 0.983043 0.867785
O O4 0.699933 0.761981 0.978492
O O5 0.254401 0.532994 0.541275
O O6 0.339782 0.361255 0.285644
O O7 0.158447 0.352784 0.616593
O O8 0.591320 0.583303 0.096414
O O9 0.608492 0.626018 0.279494
O O10 0.496548 0.419145 0.367465
O O11 0.493635 0.220803 0.048214
#
# Coordination Sequence:
#
# PCOD8148828 Si02
#       6
#     8   8   8   4   8   8
#     4  11  26  43  73  98 142 185 220 283 355 402
#     4  10  23  43  63 102 137 175 230 279 343 399
#     4  11  23  42  67 101 139 178 226 287 340 403
#     4  12  22  38  74 100 132 176 242 292 330 394
#     4  11  24  44  72  99 139 179 229 287 339 407
#     4  11  24  43  67 106 130 179 235 286 327 409
#
# _framework density 23.308095999999999
#
# number of rings (size 3 to 8) (size 9 to 14) (size 15 to 20)
#    0.000    1.091    1.818    4.909   12.727    0.000 
#    0.000    3.636   12.000    0.000    0.000    0.000 
#    0.000    0.000    0.000    0.000    0.000    0.000 
#
# Total GULP energy -272609.696646 kJ/mol
# GULP energy per Si atom -12391.349848 kJ/mol
# Density = 2.325505 g / cm^3
# Si number density = 23.308096 Si / 1000 Ang^3
#
#
#
# Elastic Constant Matrix: (Units=GPa)
#
#
# Indices 1 2 3 4 5 6 
#
# 1 80.8216 30.4750 27.8622 0.0000 -21.3067 0.0000
# 2 30.4750 112.6399 47.0690 0.0000 -1.9026 0.0000
# 3 27.8622 47.0690 98.3609 0.0000 -7.2722 0.0000
# 4 0.0000 0.0000 0.0000 21.7234 0.0000 3.5619
# 5 -21.3067 -1.9026 -7.2722 0.0000 36.7369 0.0000
# 6 0.0000 0.0000 0.0000 3.5619 0.0000 30.7401
#
#
#
# Elastic Compliance Matrix: (Units=1/GPa)
#
#
# Indices 1 2 3 4 5 6 
#
# 1 0.016919 -0.003378 -0.002500 0.000000 0.009143 0.000000
# 2 -0.003378 0.011780 -0.004851 0.000000 -0.002310 0.000000
# 3 -0.002500 -0.004851 0.013264 0.000000 0.000925 0.000000
# 4 0.000000 0.000000 0.000000 0.046925 0.000000 -0.005437
# 5 0.009143 -0.002310 0.000925 0.000000 0.032587 0.000000
# 6 0.000000 0.000000 0.000000 -0.005437 0.000000 0.033161
#
#
# Mechanical properties :
#
#
# Convention : Reuss Voigt Hill
#
# Bulk Modulus (GPa) = 48.76866 55.84828 52.30847
# Shear Modulus (GPa) = 27.33304 30.26783 28.80043
#
# Velocity S-wave (km/s) = 3.42816 3.60752 3.51898
# Velocity P-wave (km/s) = 6.05299 6.43157 6.24515
#
# Compressibility (1/GPa) = 0.02050497
#
# Stress axis : x y z
#
# Youngs Moduli (GPa) = 59.10547 84.89030 75.38962
#
# Poissons Ratio (x) = 0.28679 0.18847
# Poissons Ratio (y) = 0.19968 0.36570
# Poissons Ratio (z) = 0.14776 0.41179
#
# Static dielectric constant tensor:
#      x y z
#    x 4.362700 0.000000 -0.261740 
#    y 0.000000 4.080020 0.000000 
#    z -0.261740 0.000000 4.158620 
# 
# 
# High freq. dielectric constant tensor:
#      x y z
#    x 1.931000 0.000000 0.002910 
#    y 0.000000 1.909290 0.000000 
#    z 0.002910 0.000000 1.911380 
# 
# From -- ./inp_files/95097.got.cif
#   From: 2010.06.25/outbox.cif.g09.slc.cpg/sg15_48_cif.got.tgz:95097.got - 2010.06.28 07:06:18.
