data_PCOD8148610
_publ_section_title
;
Structure prediction by ZEFSAII (Michael W. Deem and Ramdas Pophale) SiO2 
 PCOD8148610
Probable space group: C 2/C
;
_chemical_formula_sum "Si O2"
_cell_formula_units_Z 56
_cell_length_a 12.850906
_cell_length_b 25.081731
_cell_length_c 8.259052
_cell_angle_alpha 90.000000
_cell_angle_beta 74.060153
_cell_angle_gamma 90.000000
_cell_volume 2559.726551
_symmetry_space_group_name_H-M "C 2/C"
_symmetry_group_IT_number 15
_symmetry_cell_setting 'monoclinic'
loop_
_space_group_symop_operation_xyz
x,y,z
-x,y,1/2-z
-x,-y,-z
x,-y,1/2+z
1/2+x,1/2+y,z
1/2-x,1/2+y,1/2-z
1/2-x,1/2-y,-z
1/2+x,1/2-y,1/2+z
loop_
_atom_site_type_symbol
_atom_site_label
_atom_site_fract_x
_atom_site_fract_y
_atom_site_fract_z
Si Si1 0.233763 0.664485 0.483745
Si Si2 0.594347 0.541636 0.422481
Si Si3 0.416164 0.730746 0.897456
Si Si4 0.749885 0.518494 0.627443
Si Si5 0.024827 0.149783 0.068289
Si Si6 0.123396 0.561762 0.637456
Si Si7 0.221388 0.744263 0.762471
O O1 0.346883 0.641502 0.501126
O O2 0.147724 0.616054 0.525362
O O3 0.189668 0.710697 0.619930
O O4 0.247355 0.694228 0.302531
O O5 0.500000 0.500000 0.500000
O O6 0.673375 0.552324 0.540822
O O7 0.670810 0.524359 0.242719
O O8 0.537823 0.594818 0.390116
O O9 0.500000 0.765048 0.750000
O O10 0.315067 0.716633 0.827566
O O11 0.482680 0.678646 0.925192
O O12 0.382763 0.759475 0.076828
O O13 0.801484 0.559100 0.734622
O O14 0.846887 0.488145 0.490620
O O15 0.000000 0.180758 0.250000
O O16 0.000000 0.559269 0.750000
#
# Coordination Sequence:
#
# PCOD8148610 Si02
#       7
#     8   8   8   8   8   8   8
#     4  11  23  42  68  96 132 172 226 278 339 397
#     4  11  22  37  65 100 139 170 208 274 335 408
#     4  11  23  40  64  91 125 173 215 271 331 396
#     4  10  23  42  64  97 139 172 222 271 329 401
#     4  12  22  38  65  97 131 174 214 261 350 406
#     4  11  24  44  68  97 129 184 225 278 328 395
#     4  10  24  43  62  94 132 170 225 277 329 403
#
# _framework density 21.877337000000001
#
# number of rings (size 3 to 8) (size 9 to 14) (size 15 to 20)
#    0.000    1.143    2.857    4.286    2.000    2.286 
#    0.000    0.000    0.000    1.714    0.000    0.000 
#    0.000    0.000    0.000    0.000    0.000    0.000 
#
# Total GULP energy -347004.942299 kJ/mol
# GULP energy per Si atom -12393.033654 kJ/mol
# Density = 2.182754 g / cm^3
# Si number density = 21.877337 Si / 1000 Ang^3
#
#
#
# Elastic Constant Matrix: (Units=GPa)
#
#
# Indices 1 2 3 4 5 6 
#
# 1 94.0508 32.1507 45.5220 0.0000 -15.3459 0.0000
# 2 32.1507 60.4958 25.7424 0.0000 -3.7304 0.0000
# 3 45.5220 25.7424 142.1125 0.0000 -20.6027 0.0000
# 4 0.0000 0.0000 0.0000 22.1219 0.0000 -1.0178
# 5 -15.3459 -3.7304 -20.6027 0.0000 52.6771 0.0000
# 6 0.0000 0.0000 0.0000 -1.0178 0.0000 24.0357
#
#
#
# Elastic Compliance Matrix: (Units=1/GPa)
#
#
# Indices 1 2 3 4 5 6 
#
# 1 0.014772 -0.006325 -0.003209 0.000000 0.002600 0.000000
# 2 -0.006325 0.020619 -0.001870 0.000000 -0.001114 0.000000
# 3 -0.003209 -0.001870 0.008745 0.000000 0.002353 0.000000
# 4 0.000000 0.000000 0.000000 0.045292 0.000000 0.001918
# 5 0.002600 -0.001114 0.002353 0.000000 0.020582 0.000000
# 6 0.000000 0.000000 0.000000 0.001918 0.000000 0.041686
#
#
# Mechanical properties :
#
#
# Convention : Reuss Voigt Hill
#
# Bulk Modulus (GPa) = 46.88980 55.94324 51.41652
# Shear Modulus (GPa) = 27.53092 32.64986 30.09039
#
# Velocity S-wave (km/s) = 3.55127 3.86736 3.71268
# Velocity P-wave (km/s) = 6.18829 6.75046 6.47548
#
# Compressibility (1/GPa) = 0.02132660
#
# Stress axis : x y z
#
# Youngs Moduli (GPa) = 67.69446 48.49983 114.35669
#
# Poissons Ratio (x) = 0.30675 0.36700
# Poissons Ratio (y) = 0.42815 0.21389
# Poissons Ratio (z) = 0.21725 0.09071
#
# Static dielectric constant tensor:
#      x y z
#    x 4.082720 0.000000 -0.014940 
#    y 0.000000 3.754540 0.000000 
#    z -0.014940 0.000000 4.456170 
# 
# 
# High freq. dielectric constant tensor:
#      x y z
#    x 1.860420 0.000000 -0.005840 
#    y 0.000000 1.823330 0.000000 
#    z -0.005840 0.000000 1.889470 
# 
# From -- ./inp_files/34222.got.cif
#   From: 2010.06.25/outbox.cif.g09.slc.cpg/sg15_18_cif.got.tgz:34222.got - 2010.06.28 07:06:18.
