data_PCOD8148077
_publ_section_title
;
Structure prediction by ZEFSAII (Michael W. Deem and Ramdas Pophale) SiO2 
 PCOD8148077
Probable space group: C 2/C
;
_chemical_formula_sum "Si O2"
_cell_formula_units_Z 48
_cell_length_a 19.846492
_cell_length_b 17.732079
_cell_length_c 17.400066
_cell_angle_alpha 90.000000
_cell_angle_beta 157.949313
_cell_angle_gamma 90.000000
_cell_volume 2298.896636
_symmetry_space_group_name_H-M "C 2/C"
_symmetry_group_IT_number 15
_symmetry_cell_setting 'monoclinic'
loop_
_space_group_symop_operation_xyz
x,y,z
-x,y,1/2-z
-x,-y,-z
x,-y,1/2+z
1/2+x,1/2+y,z
1/2-x,1/2+y,1/2-z
1/2-x,1/2-y,-z
1/2+x,1/2-y,1/2+z
loop_
_atom_site_type_symbol
_atom_site_label
_atom_site_fract_x
_atom_site_fract_y
_atom_site_fract_z
Si Si1 0.721103 0.192137 0.702085
Si Si2 0.500000 0.252537 0.750000
Si Si3 0.153883 0.493334 0.354646
Si Si4 0.500000 0.582097 0.750000
Si Si5 0.423910 0.070287 0.373350
Si Si6 0.296060 0.832525 0.145099
Si Si7 0.075953 0.152241 0.993054
O O1 0.543597 0.142309 0.515704
O O2 0.760051 0.205227 0.833414
O O3 0.676312 0.267508 0.607444
O O4 0.892267 0.150016 0.846950
O O5 0.517855 0.201540 0.691239
O O6 0.337036 0.309297 0.563918
O O7 0.328029 0.527698 0.581345
O O8 0.067282 0.556429 0.208432
O O9 0.203471 0.423305 0.351332
O O10 0.000000 0.467065 0.250000
O O11 0.528550 0.635730 0.854020
O O12 0.500000 0.000000 0.500000
O O13 0.215026 0.089357 0.173396
#
# Coordination Sequence:
#
# PCOD8148077 Si02
#       7
#     8   4   8   4   8   8   8
#     4  12  23  44  67 103 135 177 224 282 338 406
#     4  10  23  38  60  93 124 176 220 268 336 405
#     4  11  22  44  66  94 131 176 221 282 335 399
#     4  10  25  46  66 101 132 176 234 274 338 409
#     4  11  24  44  67  98 134 174 230 275 337 408
#     4  11  22  40  63  92 132 171 221 274 336 404
#     4  11  25  44  71 100 137 181 225 280 345 397
#
# _framework density 20.879581999999999
#
# number of rings (size 3 to 8) (size 9 to 14) (size 15 to 20)
#    0.000    1.000    4.167    2.500    0.000    1.333 
#    7.500    0.000    0.000    0.000    0.000    0.000 
#    0.000    0.000    0.000    0.000    0.000    0.000 
#
# Total GULP energy -297499.116605 kJ/mol
# GULP energy per Si atom -12395.796525 kJ/mol
# Density = 2.083206 g / cm^3
# Si number density = 20.879582 Si / 1000 Ang^3
#
#
#
# Elastic Constant Matrix: (Units=GPa)
#
#
# Indices 1 2 3 4 5 6 
#
# 1 125.5416 34.0838 54.1031 0.0100 7.2165 0.0059
# 2 34.0838 90.6891 42.9869 0.0031 -10.6616 0.0028
# 3 54.1031 42.9869 121.1357 0.0127 -1.5695 0.0130
# 4 0.0100 0.0031 0.0127 39.5052 0.0102 -6.6921
# 5 7.2165 -10.6616 -1.5695 0.0102 32.5769 0.0071
# 6 0.0059 0.0028 0.0130 -6.6921 0.0071 34.5954
#
#
#
# Elastic Compliance Matrix: (Units=1/GPa)
#
#
# Indices 1 2 3 4 5 6 
#
# 1 0.010494 -0.002517 -0.003837 0.000000 -0.003333 0.000000
# 2 -0.002517 0.014435 -0.003932 -0.000001 0.005093 0.000000
# 3 -0.003837 -0.003932 0.011366 -0.000003 0.000111 -0.000004
# 4 0.000000 -0.000001 -0.000003 0.026171 -0.000010 0.005062
# 5 -0.003333 0.005093 0.000111 -0.000010 0.033107 -0.000009
# 6 0.000000 0.000000 -0.000004 0.005062 -0.000009 0.029885
#
#
# Mechanical properties :
#
#
# Convention : Reuss Voigt Hill
#
# Bulk Modulus (GPa) = 63.60397 66.63487 65.11942
# Shear Modulus (GPa) = 33.05318 35.08167 34.06742
#
# Velocity S-wave (km/s) = 3.98306 4.10346 4.04371
# Velocity P-wave (km/s) = 7.18898 7.37796 7.28408
#
# Compressibility (1/GPa) = 0.01572229
#
# Stress axis : x y z
#
# Youngs Moduli (GPa) = 95.29226 69.27434 87.98336
#
# Poissons Ratio (x) = 0.17437 0.33758
# Poissons Ratio (y) = 0.23987 0.34598
# Poissons Ratio (z) = 0.36563 0.27241
#
# Static dielectric constant tensor:
#      x y z
#    x 3.863740 0.000010 0.111190 
#    y 0.000010 4.026780 0.000020 
#    z 0.111190 0.000020 4.090140 
# 
# 
# High freq. dielectric constant tensor:
#      x y z
#    x 1.809930 0.000000 -0.000240 
#    y 0.000000 1.819090 0.000000 
#    z -0.000240 0.000000 1.835880 
# 
# From -- ./inp_files/163216.got.cif
#   From: 2010.06.25/outbox.cif.g09.slc.cpg/sg15_82_cif.got.tgz:163216.got - 2010.06.28 07:06:18.
