data_PCOD8148855
_publ_section_title
;
Structure prediction by ZEFSAII (Michael W. Deem and Ramdas Pophale) SiO2 
 PCOD8148855
Probable space group: C 2/C
;
_chemical_formula_sum "Si O2"
_cell_formula_units_Z 56
_cell_length_a 12.698793
_cell_length_b 12.944851
_cell_length_c 17.581347
_cell_angle_alpha 90.000000
_cell_angle_beta 119.701673
_cell_angle_gamma 90.000000
_cell_volume 2510.383049
_symmetry_space_group_name_H-M "C 2/C"
_symmetry_group_IT_number 15
_symmetry_cell_setting 'monoclinic'
loop_
_space_group_symop_operation_xyz
x,y,z
-x,y,1/2-z
-x,-y,-z
x,-y,1/2+z
1/2+x,1/2+y,z
1/2-x,1/2+y,1/2-z
1/2-x,1/2-y,-z
1/2+x,1/2-y,1/2+z
loop_
_atom_site_type_symbol
_atom_site_label
_atom_site_fract_x
_atom_site_fract_y
_atom_site_fract_z
Si Si1 0.649951 0.165931 0.453392
Si Si2 0.533483 0.567586 0.438472
Si Si3 0.138512 0.568914 0.293534
Si Si4 0.647907 0.234434 0.024925
Si Si5 0.772373 0.481442 0.933958
Si Si6 0.331303 0.521464 0.767295
Si Si7 0.611409 0.744875 0.674695
O O1 0.750000 0.250000 0.500000
O O2 0.684975 0.096805 0.393318
O O3 0.522934 0.223799 0.400606
O O4 0.654187 0.087575 0.526377
O O5 0.500000 0.500000 0.500000
O O6 0.535809 0.690453 0.461604
O O7 0.664820 0.531657 0.456524
O O8 0.434564 0.554738 0.336684
O O9 0.218083 0.477461 0.285747
O O10 0.159967 0.669803 0.249384
O O11 0.000000 0.532102 0.250000
O O12 0.626873 0.110288 0.021316
O O13 0.690801 0.265420 0.126040
O O14 0.750000 0.250000 0.000000
O O15 0.712920 0.480613 0.829428
O O16 0.387160 0.636173 0.780562
#
# Coordination Sequence:
#
# PCOD8148855 Si02
#       7
#     8   8   8   8   8   8   8
#     4  11  24  41  69 102 133 178 231 281 346 407
#     4  11  22  40  71 100 134 180 231 283 340 407
#     4  10  24  45  65  98 136 176 226 284 342 406
#     4  10  23  43  64  98 142 179 223 282 347 412
#     4  11  24  44  68 101 141 182 224 285 349 415
#     4  12  23  42  73 100 134 177 233 286 340 406
#     4  11  23  44  67  97 139 174 227 289 335 409
#
# _framework density 22.307351000000001
#
# number of rings (size 3 to 8) (size 9 to 14) (size 15 to 20)
#    0.000    1.143    2.857    3.000    4.000    2.857 
#    0.000    0.000    0.000    0.000    0.000    0.000 
#    0.000    0.000    0.000    0.000    0.000    0.000 
#
# Total GULP energy -347054.359900 kJ/mol
# GULP energy per Si atom -12394.798568 kJ/mol
# Density = 2.225658 g / cm^3
# Si number density = 22.307351 Si / 1000 Ang^3
#
#
#
# Elastic Constant Matrix: (Units=GPa)
#
#
# Indices 1 2 3 4 5 6 
#
# 1 87.0529 34.4593 27.6134 0.0000 -6.2694 0.0000
# 2 34.4593 155.3772 48.2241 0.0000 22.1784 0.0000
# 3 27.6134 48.2241 114.9622 0.0000 2.3451 0.0000
# 4 0.0000 0.0000 0.0000 41.2606 0.0000 3.8386
# 5 -6.2694 22.1784 2.3451 0.0000 35.0907 0.0000
# 6 0.0000 0.0000 0.0000 3.8386 0.0000 37.7691
#
#
#
# Elastic Compliance Matrix: (Units=1/GPa)
#
#
# Indices 1 2 3 4 5 6 
#
# 1 0.013675 -0.003019 -0.002110 0.000000 0.004493 0.000000
# 2 -0.003019 0.008841 -0.002862 0.000000 -0.005936 0.000000
# 3 -0.002110 -0.002862 0.010391 0.000000 0.000738 0.000000
# 4 0.000000 0.000000 0.000000 0.024468 0.000000 -0.002487
# 5 0.004493 -0.005936 0.000738 0.000000 0.033003 0.000000
# 6 0.000000 0.000000 0.000000 -0.002487 0.000000 0.026729
#
#
# Mechanical properties :
#
#
# Convention : Reuss Voigt Hill
#
# Bulk Modulus (GPa) = 59.08647 64.22068 61.65357
# Shear Modulus (GPa) = 36.04079 39.29712 37.66895
#
# Velocity S-wave (km/s) = 4.02387 4.20172 4.11376
# Velocity P-wave (km/s) = 6.93784 7.23815 7.08959
#
# Compressibility (1/GPa) = 0.01692435
#
# Stress axis : x y z
#
# Youngs Moduli (GPa) = 73.12492 113.10577 96.23760
#
# Poissons Ratio (x) = 0.34150 0.20305
# Poissons Ratio (y) = 0.22079 0.27547
# Poissons Ratio (z) = 0.15428 0.32375
#
# Static dielectric constant tensor:
#      x y z
#    x 4.115050 0.000000 -0.219050 
#    y 0.000000 3.950820 0.000000 
#    z -0.219050 0.000000 4.198050 
# 
# 
# High freq. dielectric constant tensor:
#      x y z
#    x 1.874540 0.000000 -0.020290 
#    y 0.000000 1.882320 0.000000 
#    z -0.020290 0.000000 1.884870 
# 
# From -- ./inp_files/204545.got.cif
#   From: 2010.06.25/outbox.cif.g09.slc.cpg/sg15_103_cif.got.tgz:204545.got - 2010.06.28 07:06:18.
