data_PCOD8148611
_publ_section_title
;
Structure prediction by ZEFSAII (Michael W. Deem and Ramdas Pophale) SiO2 
 PCOD8148611
Probable space group: C 2/C
;
_chemical_formula_sum "Si O2"
_cell_formula_units_Z 64
_cell_length_a 15.516592
_cell_length_b 11.793079
_cell_length_c 26.752701
_cell_angle_alpha 90.000000
_cell_angle_beta 40.729039
_cell_angle_gamma 90.000000
_cell_volume 3194.185206
_symmetry_space_group_name_H-M "C 2/C"
_symmetry_group_IT_number 15
_symmetry_cell_setting 'monoclinic'
loop_
_space_group_symop_operation_xyz
x,y,z
-x,y,1/2-z
-x,-y,-z
x,-y,1/2+z
1/2+x,1/2+y,z
1/2-x,1/2+y,1/2-z
1/2-x,1/2-y,-z
1/2+x,1/2-y,1/2+z
loop_
_atom_site_type_symbol
_atom_site_label
_atom_site_fract_x
_atom_site_fract_y
_atom_site_fract_z
Si Si1 0.454967 0.959671 0.327454
Si Si2 0.934604 0.088971 0.591921
Si Si3 0.610067 0.175757 0.429578
Si Si4 0.913739 0.916265 0.677684
Si Si5 0.099760 0.212478 0.161903
Si Si6 0.115970 0.730373 0.893989
Si Si7 0.851680 0.502947 0.166274
Si Si8 0.702853 0.577404 0.418088
O O1 0.500000 0.970460 0.250000
O O2 0.397689 0.835014 0.366986
O O3 0.568611 0.992955 0.316880
O O4 0.338077 0.050704 0.387385
O O5 0.897755 0.219665 0.605379
O O6 0.081320 0.066148 0.508744
O O7 0.931354 0.044522 0.649985
O O8 0.820497 0.018968 0.613398
O O9 0.757634 0.167825 0.385647
O O10 0.514802 0.189935 0.518970
O O11 0.571204 0.066351 0.412999
O O12 0.920762 0.822921 0.631145
O O13 0.038449 0.889257 0.657032
O O14 0.776544 0.918114 0.768385
O O15 0.000000 0.237084 0.250000
O O16 0.185196 0.622756 0.837583
O O17 0.212158 0.795453 0.890692
#
# Coordination Sequence:
#
# PCOD8148611 Si02
#       8
#     8   8   8   8   8   8   8   8
#     4  11  22  38  63  95 123 165 221 266 309 386
#     4   9  19  36  62  94 121 165 203 255 317 372
#     4  11  23  42  68  92 135 169 211 266 325 384
#     4  11  23  38  65  92 129 164 219 268 319 378
#     4  11  22  39  62  96 126 162 214 270 319 373
#     4  10  23  42  64  98 129 172 210 259 330 389
#     4  12  25  40  64  94 132 171 213 263 330 379
#     4   9  18  38  63  89 127 159 207 256 310 378
#
# _framework density 20.036408999999999
#
# number of rings (size 3 to 8) (size 9 to 14) (size 15 to 20)
#    0.000    1.500    3.750    2.625    3.500    1.500 
#    0.000    3.750    2.750    0.000    0.000    0.000 
#    0.000    0.000    0.000    0.000    0.000    0.000 
#
# Total GULP energy -396639.255881 kJ/mol
# GULP energy per Si atom -12394.976746 kJ/mol
# Density = 1.999081 g / cm^3
# Si number density = 20.036409 Si / 1000 Ang^3
#
#
#
# Elastic Constant Matrix: (Units=GPa)
#
#
# Indices 1 2 3 4 5 6 
#
# 1 91.5121 46.6628 34.5933 0.0000 -11.6991 0.0000
# 2 46.6628 94.8476 24.6276 0.0000 0.4203 0.0000
# 3 34.5933 24.6276 65.5591 0.0000 4.7139 0.0001
# 4 0.0000 0.0000 0.0000 41.0902 0.0000 26.7497
# 5 -11.6991 0.4203 4.7139 0.0000 23.2079 0.0000
# 6 0.0000 0.0000 0.0001 26.7497 0.0000 79.0803
#
#
#
# Elastic Compliance Matrix: (Units=1/GPa)
#
#
# Indices 1 2 3 4 5 6 
#
# 1 0.019285 -0.007403 -0.008223 0.000000 0.011526 0.000000
# 2 -0.007403 0.014536 -0.001285 0.000000 -0.003734 0.000000
# 3 -0.008223 -0.001285 0.020674 0.000000 -0.008321 0.000000
# 4 0.000000 0.000000 0.000000 0.031209 0.000000 -0.010557
# 5 0.011526 -0.003734 -0.008321 0.000000 0.050657 0.000000
# 6 0.000000 0.000000 0.000000 -0.010557 0.000000 0.016216
#
#
# Mechanical properties :
#
#
# Convention : Reuss Voigt Hill
#
# Bulk Modulus (GPa) = 48.37989 51.52069 49.95029
# Shear Modulus (GPa) = 25.86770 38.41135 32.13952
#
# Velocity S-wave (km/s) = 3.59699 4.38319 4.00941
# Velocity P-wave (km/s) = 6.43813 7.16839 6.81306
#
# Compressibility (1/GPa) = 0.02066975
#
# Stress axis : x y z
#
# Youngs Moduli (GPa) = 51.85458 68.79534 48.37027
#
# Poissons Ratio (x) = 0.50932 0.39777
# Poissons Ratio (y) = 0.38390 0.06218
# Poissons Ratio (z) = 0.42642 0.08843
#
# Static dielectric constant tensor:
#      x y z
#    x 3.504400 0.000000 0.141410 
#    y 0.000000 3.818530 0.000000 
#    z 0.141410 0.000000 3.555920 
# 
# 
# High freq. dielectric constant tensor:
#      x y z
#    x 1.763440 0.000000 0.005530 
#    y 0.000000 1.784420 0.000000 
#    z 0.005530 0.000000 1.782010 
# 
# From -- ./inp_files/296121.got.cif
#   From: 2010.06.25/outbox.cif.g09.slc.cpg/sg15_149_cif.got.tgz:296121.got - 2010.06.28 07:06:18.
