data_PCOD8148559
_publ_section_title
;
Structure prediction by ZEFSAII (Michael W. Deem and Ramdas Pophale) SiO2 
 PCOD8148559
Probable space group: C 2/C
;
_chemical_formula_sum "Si O2"
_cell_formula_units_Z 48
_cell_length_a 15.927046
_cell_length_b 8.837062
_cell_length_c 20.415028
_cell_angle_alpha 90.000000
_cell_angle_beta 118.437345
_cell_angle_gamma 90.000000
_cell_volume 2526.673608
_symmetry_space_group_name_H-M "C 2/C"
_symmetry_group_IT_number 15
_symmetry_cell_setting 'monoclinic'
loop_
_space_group_symop_operation_xyz
x,y,z
-x,y,1/2-z
-x,-y,-z
x,-y,1/2+z
1/2+x,1/2+y,z
1/2-x,1/2+y,1/2-z
1/2-x,1/2-y,-z
1/2+x,1/2-y,1/2+z
loop_
_atom_site_type_symbol
_atom_site_label
_atom_site_fract_x
_atom_site_fract_y
_atom_site_fract_z
Si Si1 0.526682 0.389394 0.920101
Si Si2 0.717067 0.346766 0.926236
Si Si3 0.813106 0.152901 0.333040
Si Si4 0.511052 0.721118 0.551256
Si Si5 0.712091 0.698104 0.675194
Si Si6 0.688741 0.169891 0.532638
O O1 0.604074 0.373986 0.891809
O O2 0.423636 0.347919 0.852149
O O3 0.534067 0.559321 0.949180
O O4 0.549063 0.279475 0.990242
O O5 0.726712 0.259676 0.862055
O O6 0.775974 0.501050 0.943166
O O7 0.750000 0.250000 0.000000
O O8 0.751765 0.244399 0.258301
O O9 0.799439 0.231719 0.397636
O O10 0.777460 0.981657 0.324464
O O11 0.602089 0.756635 0.630602
O O12 0.424123 0.839537 0.528851
O O13 0.750000 0.250000 0.500000
#
# Coordination Sequence:
#
# PCOD8148559 Si02
#       6
#     8   8   8   8   8   8
#     4   9  18  37  61  86 118 161 193 234 302 366
#     4  12  22  36  61  95 119 150 200 251 297 351
#     4  10  23  42  62  84 120 164 200 240 305 363
#     4   9  18  37  62  86 117 157 198 239 298 358
#     4  11  22  40  62  86 123 158 199 246 299 361
#     4  11  21  38  65  91 115 152 203 251 290 356
#
# _framework density 18.997309999999999
#
# number of rings (size 3 to 8) (size 9 to 14) (size 15 to 20)
#    0.000    1.667    3.333    3.000    0.000    1.333 
#    3.000    0.833    3.667    0.000    0.000    0.000 
#    0.000    0.000    0.000    0.000    0.000    0.000 
#
# Total GULP energy -297605.780341 kJ/mol
# GULP energy per Si atom -12400.240848 kJ/mol
# Density = 1.895407 g / cm^3
# Si number density = 18.997310 Si / 1000 Ang^3
#
#
#
# Elastic Constant Matrix: (Units=GPa)
#
#
# Indices 1 2 3 4 5 6 
#
# 1 141.5981 57.4942 55.8253 0.0000 -0.1695 0.0000
# 2 57.4942 115.4646 50.2838 0.0000 4.9596 0.0000
# 3 55.8253 50.2838 115.8681 0.0000 7.4221 0.0000
# 4 0.0000 0.0000 0.0000 33.2008 0.0000 -2.5832
# 5 -0.1695 4.9596 7.4221 0.0000 29.1370 0.0000
# 6 0.0000 0.0000 0.0000 -2.5832 0.0000 27.6089
#
#
#
# Elastic Compliance Matrix: (Units=1/GPa)
#
#
# Indices 1 2 3 4 5 6 
#
# 1 0.009783 -0.003503 -0.003289 0.000000 0.001491 0.000000
# 2 -0.003503 0.011945 -0.003420 0.000000 -0.001182 0.000000
# 3 -0.003289 -0.003420 0.011857 0.000000 -0.002457 0.000000
# 4 0.000000 0.000000 0.000000 0.030341 0.000000 0.002839
# 5 0.001491 -0.001182 -0.002457 0.000000 0.035157 0.000000
# 6 0.000000 0.000000 0.000000 0.002839 0.000000 0.036486
#
#
# Mechanical properties :
#
#
# Convention : Reuss Voigt Hill
#
# Bulk Modulus (GPa) = 75.98430 77.79303 76.88866
# Shear Modulus (GPa) = 31.17604 31.94450 31.56027
#
# Velocity S-wave (km/s) = 4.05542 4.10509 4.08033
# Velocity P-wave (km/s) = 7.87482 7.96916 7.92213
#
# Compressibility (1/GPa) = 0.01316061
#
# Stress axis : x y z
#
# Youngs Moduli (GPa) = 102.21803 83.71439 84.34008
#
# Poissons Ratio (x) = 0.29327 0.27737
# Poissons Ratio (y) = 0.35809 0.28848
# Poissons Ratio (z) = 0.33616 0.28634
#
# Static dielectric constant tensor:
#      x y z
#    x 3.735610 0.000000 0.061870 
#    y 0.000000 3.131270 0.000000 
#    z 0.061870 0.000000 3.375260 
# 
# 
# High freq. dielectric constant tensor:
#      x y z
#    x 1.750690 0.000000 0.005690 
#    y 0.000000 1.738600 0.000000 
#    z 0.005690 0.000000 1.727380 
# 
# From -- ./inp_files/242591.got.cif
#   From: 2010.06.25/outbox.cif.g09.slc.cpg/sg15_122_cif.got.tgz:242591.got - 2010.06.28 07:06:18.
