data_PCOD8148003
_publ_section_title
;
Structure prediction by ZEFSAII (Michael W. Deem and Ramdas Pophale) SiO2 
 PCOD8148003
Probable space group: C 2/C
;
_chemical_formula_sum "Si O2"
_cell_formula_units_Z 56
_cell_length_a 17.770012
_cell_length_b 13.601729
_cell_length_c 19.492846
_cell_angle_alpha 90.000000
_cell_angle_beta 29.634400
_cell_angle_gamma 90.000000
_cell_volume 2329.654980
_symmetry_space_group_name_H-M "C 2/C"
_symmetry_group_IT_number 15
_symmetry_cell_setting 'monoclinic'
loop_
_space_group_symop_operation_xyz
x,y,z
-x,y,1/2-z
-x,-y,-z
x,-y,1/2+z
1/2+x,1/2+y,z
1/2-x,1/2+y,1/2-z
1/2-x,1/2-y,-z
1/2+x,1/2-y,1/2+z
loop_
_atom_site_type_symbol
_atom_site_label
_atom_site_fract_x
_atom_site_fract_y
_atom_site_fract_z
Si Si1 0.699015 0.542084 0.979185
Si Si2 0.469821 0.958195 0.600725
Si Si3 0.000000 0.652177 0.750000
Si Si4 0.000000 0.037241 0.750000
Si Si5 0.737343 0.815799 0.439494
Si Si6 0.399270 0.318810 0.062539
Si Si7 0.066460 0.674015 0.840902
Si Si8 0.292584 0.365972 0.620658
O O1 0.570159 0.535396 0.138660
O O2 0.626232 0.606687 0.978145
O O3 0.852585 0.588223 0.887254
O O4 0.738650 0.433478 0.920681
O O5 0.585514 0.881925 0.545910
O O6 0.305450 0.903559 0.735978
O O7 0.500000 0.000000 0.500000
O O8 0.457658 0.057991 0.654686
O O9 0.964718 0.719776 0.710508
O O10 0.128936 0.107741 0.677220
O O11 0.750000 0.750000 0.500000
O O12 0.756842 0.743355 0.360090
O O13 0.457285 0.214318 0.986670
O O14 0.526328 0.367605 0.009489
O O15 0.239461 0.301747 0.228469
#
# Coordination Sequence:
#
# PCOD8148003 Si02
#       8
#     8   8   4   4   8   8   8   8
#     4  11  25  45  74 102 146 191 244 315 372 459
#     4  12  28  48  77 114 154 212 258 322 395 473
#     4  10  22  48  70 100 136 200 238 300 384 438
#     4  12  26  42  74 114 144 190 250 310 382 466
#     4  12  27  48  78 115 157 204 258 325 398 477
#     4  11  27  46  72 110 146 204 252 312 386 458
#     4  11  26  46  75 105 150 196 254 316 379 463
#     4  12  26  47  74 103 156 195 253 311 392 461
#
# _framework density 24.037894999999999
#
# number of rings (size 3 to 8) (size 9 to 14) (size 15 to 20)
#    0.000    0.571    4.286    3.000    6.000    4.571 
#    0.000    0.000    0.000    0.000    0.000    0.000 
#    0.000    0.000    0.000    0.000    0.000    0.000 
#
# Total GULP energy -347005.390729 kJ/mol
# GULP energy per Si atom -12393.049669 kJ/mol
# Density = 2.398318 g / cm^3
# Si number density = 24.037895 Si / 1000 Ang^3
#
#
#
# Elastic Constant Matrix: (Units=GPa)
#
#
# Indices 1 2 3 4 5 6 
#
# 1 75.4348 -6.9950 14.1492 0.0021 -10.1152 0.0002
# 2 -6.9950 78.2651 2.9083 -0.0032 1.7365 0.0009
# 3 14.1492 2.9083 93.0197 -0.0102 6.8140 0.0038
# 4 0.0021 -0.0032 -0.0102 54.8616 0.0026 13.7188
# 5 -10.1152 1.7365 6.8140 0.0026 36.9280 0.0000
# 6 0.0002 0.0009 0.0038 13.7188 0.0000 26.1834
#
#
#
# Elastic Compliance Matrix: (Units=1/GPa)
#
#
# Indices 1 2 3 4 5 6 
#
# 1 0.014441 0.001289 -0.002557 -0.000001 0.004367 0.000001
# 2 0.001289 0.012917 -0.000589 0.000001 -0.000146 -0.000001
# 3 -0.002557 -0.000589 0.011361 0.000003 -0.002769 -0.000003
# 4 -0.000001 0.000001 0.000003 0.020976 -0.000003 -0.010990
# 5 0.004367 -0.000146 -0.002769 -0.000003 0.028794 0.000002
# 6 0.000001 -0.000001 -0.000003 -0.010990 0.000002 0.043951
#
#
# Mechanical properties :
#
#
# Convention : Reuss Voigt Hill
#
# Bulk Modulus (GPa) = 28.56764 29.64939 29.10852
# Shear Modulus (GPa) = 33.82448 39.37175 36.59811
#
# Velocity S-wave (km/s) = 3.75524 4.05149 3.90618
# Velocity P-wave (km/s) = 5.54190 5.85212 5.69912
#
# Compressibility (1/GPa) = 0.03500464
#
# Stress axis : x y z
#
# Youngs Moduli (GPa) = 69.24661 77.41494 88.02369
#
# Poissons Ratio (x) = -0.09977 0.22506
# Poissons Ratio (y) = -0.08925 0.05187
# Poissons Ratio (z) = 0.17705 0.04562
#
# Static dielectric constant tensor:
#      x y z
#    x 4.329420 -0.000010 -0.297950 
#    y -0.000010 4.525600 0.000000 
#    z -0.297950 0.000000 4.278860 
# 
# 
# High freq. dielectric constant tensor:
#      x y z
#    x 1.958570 0.000000 -0.004150 
#    y 0.000000 1.959790 0.000000 
#    z -0.004150 0.000000 1.961430 
# 
# From -- ./inp_files/249260.got.cif
#   From: 2010.06.25/outbox.cif.g09.slc.cpg/sg15_125_cif.got.tgz:249260.got - 2010.06.28 07:06:18.
