data_PCOD8148701
_publ_section_title
;
Structure prediction by ZEFSAII (Michael W. Deem and Ramdas Pophale) SiO2 
 PCOD8148701
Probable space group: C 2/C
;
_chemical_formula_sum "Si O2"
_cell_formula_units_Z 60
_cell_length_a 23.933912
_cell_length_b 22.814572
_cell_length_c 11.401791
_cell_angle_alpha 90.000000
_cell_angle_beta 27.393201
_cell_angle_gamma 90.000000
_cell_volume 2864.481794
_symmetry_space_group_name_H-M "C 2/C"
_symmetry_group_IT_number 15
_symmetry_cell_setting 'monoclinic'
loop_
_space_group_symop_operation_xyz
x,y,z
-x,y,1/2-z
-x,-y,-z
x,-y,1/2+z
1/2+x,1/2+y,z
1/2-x,1/2+y,1/2-z
1/2-x,1/2-y,-z
1/2+x,1/2-y,1/2+z
loop_
_atom_site_type_symbol
_atom_site_label
_atom_site_fract_x
_atom_site_fract_y
_atom_site_fract_z
Si Si1 0.507676 0.068670 0.501547
Si Si2 0.858548 0.051145 0.504844
Si Si3 0.863286 0.078722 0.955063
Si Si4 0.231976 0.641419 0.595411
Si Si5 0.500000 0.131347 0.750000
Si Si6 0.755697 0.610934 0.560684
Si Si7 0.354861 0.211330 0.529008
Si Si8 0.751764 0.173570 0.308486
O O1 0.378709 0.097114 0.715477
O O2 0.542714 0.088388 0.566604
O O3 0.500000 0.000000 0.500000
O O4 0.610276 0.090314 0.221789
O O5 0.839061 0.101837 0.446800
O O6 0.794699 0.067287 0.746251
O O7 0.813124 0.987856 0.543156
O O8 0.000000 0.044961 0.250000
O O9 0.839225 0.109148 0.871814
O O10 0.000000 0.084109 0.750000
O O11 0.782103 0.109784 0.203088
O O12 0.288627 0.674094 0.376769
O O13 0.189308 0.691515 0.761887
O O14 0.606079 0.177701 0.581064
O O15 0.779183 0.676689 0.569118
O O16 0.500000 0.204159 0.250000
O O17 0.317222 0.279660 0.601084
#
# Coordination Sequence:
#
# PCOD8148701 Si02
#       8
#     8   8   8   8   4   8   8   8
#     4  11  22  38  69  99 134 171 207 273 339 405
#     4  10  25  42  65  96 142 177 219 277 335 408
#     4  11  25  42  65 100 134 180 227 272 333 405
#     4  10  23  42  67  97 133 172 221 271 339 403
#     4  10  24  42  58 100 136 162 226 266 332 398
#     4  11  24  43  68 101 135 175 229 278 341 397
#     4  11  23  46  68  95 132 172 228 284 331 398
#     4  11  24  43  68  95 131 177 222 276 333 397
#
# _framework density 20.946197000000002
#
# number of rings (size 3 to 8) (size 9 to 14) (size 15 to 20)
#    0.000    1.333    2.667    1.600    7.467    2.667 
#    4.800    1.333    0.000    0.000    0.000    0.000 
#    0.000    0.000    0.000    0.000    0.000    0.000 
#
# Total GULP energy -371823.600027 kJ/mol
# GULP energy per Si atom -12394.120001 kJ/mol
# Density = 2.089852 g / cm^3
# Si number density = 20.946197 Si / 1000 Ang^3
#
#
#
# Elastic Constant Matrix: (Units=GPa)
#
#
# Indices 1 2 3 4 5 6 
#
# 1 115.3525 36.1147 28.6316 0.0021 16.4546 -0.0007
# 2 36.1147 100.6609 36.8420 -0.0001 4.4773 0.0001
# 3 28.6316 36.8420 80.4865 0.0004 16.1705 -0.0001
# 4 0.0021 -0.0001 0.0004 33.5767 -0.0020 -0.5639
# 5 16.4546 4.4773 16.1705 -0.0020 31.8905 0.0007
# 6 -0.0007 0.0001 -0.0001 -0.5639 0.0007 23.4842
#
#
#
# Elastic Compliance Matrix: (Units=1/GPa)
#
#
# Indices 1 2 3 4 5 6 
#
# 1 0.010614 -0.003064 -0.001514 -0.000001 -0.004279 0.000000
# 2 -0.003064 0.012861 -0.005291 0.000000 0.002458 0.000000
# 3 -0.001514 -0.005291 0.016789 -0.000001 -0.006989 0.000000
# 4 -0.000001 0.000000 -0.000001 0.029795 0.000003 0.000715
# 5 -0.004279 0.002458 -0.006989 0.000003 0.036764 -0.000001
# 6 0.000000 0.000000 0.000000 0.000715 -0.000001 0.042599
#
#
# Mechanical properties :
#
#
# Convention : Reuss Voigt Hill
#
# Bulk Modulus (GPa) = 48.71567 55.51962 52.11765
# Shear Modulus (GPa) = 28.40895 30.78438 29.59667
#
# Velocity S-wave (km/s) = 3.68677 3.83781 3.76305
# Velocity P-wave (km/s) = 6.43669 6.79719 6.61940
#
# Compressibility (1/GPa) = 0.02052728
#
# Stress axis : x y z
#
# Youngs Moduli (GPa) = 94.21137 77.75632 59.56303
#
# Poissons Ratio (x) = 0.23823 0.09016
# Poissons Ratio (y) = 0.28865 0.31514
# Poissons Ratio (z) = 0.14261 0.41139
#
# Static dielectric constant tensor:
#      x y z
#    x 4.084410 0.000000 0.019910 
#    y 0.000000 3.858310 0.000000 
#    z 0.019910 0.000000 3.909950 
# 
# 
# High freq. dielectric constant tensor:
#      x y z
#    x 1.826580 0.000000 0.002350 
#    y 0.000000 1.819550 0.000000 
#    z 0.002350 0.000000 1.830170 
# 
# From -- ./inp_files/119946.got.cif
#   From: 2010.06.25/outbox.cif.g09.slc.cpg/sg15_60_cif.got.tgz:119946.got - 2010.06.28 07:06:18.
