data_PCOD8148159
_publ_section_title
;
Structure prediction by ZEFSAII (Michael W. Deem and Ramdas Pophale) SiO2 
 PCOD8148159
Probable space group: C 2/C
;
_chemical_formula_sum "Si O2"
_cell_formula_units_Z 48
_cell_length_a 7.529378
_cell_length_b 25.433691
_cell_length_c 12.938595
_cell_angle_alpha 90.000000
_cell_angle_beta 71.523234
_cell_angle_gamma 90.000000
_cell_volume 2350.017413
_symmetry_space_group_name_H-M "C 2/C"
_symmetry_group_IT_number 15
_symmetry_cell_setting 'monoclinic'
loop_
_space_group_symop_operation_xyz
x,y,z
-x,y,1/2-z
-x,-y,-z
x,-y,1/2+z
1/2+x,1/2+y,z
1/2-x,1/2+y,1/2-z
1/2-x,1/2-y,-z
1/2+x,1/2-y,1/2+z
loop_
_atom_site_type_symbol
_atom_site_label
_atom_site_fract_x
_atom_site_fract_y
_atom_site_fract_z
Si Si1 0.500000 0.930471 0.750000
Si Si2 0.500000 0.114205 0.750000
Si Si3 0.227633 0.525359 0.782665
Si Si4 0.972371 0.200324 0.377988
Si Si5 0.723776 0.137061 0.051192
Si Si6 0.084698 0.680631 0.546142
Si Si7 0.448978 0.542027 0.925789
O O1 0.428508 0.894025 0.854244
O O2 0.666835 0.968678 0.753378
O O3 0.585671 0.073478 0.817126
O O4 0.616748 0.150524 0.649545
O O5 0.290332 0.513716 0.887140
O O6 0.376287 0.552265 0.679427
O O7 0.953047 0.259797 0.416467
O O8 0.776039 0.171992 0.445560
O O9 0.000000 0.193864 0.250000
O O10 0.157310 0.177897 0.401457
O O11 0.602391 0.163875 0.982624
O O12 0.880533 0.097703 0.979676
O O13 0.500000 0.500000 0.000000
#
# Coordination Sequence:
#
# PCOD8148159 Si02
#       7
#     4   4   8   8   8   8   8
#     4  11  24  40  64  94 130 168 218 265 324 388
#     4  11  20  42  68  92 130 168 224 273 322 390
#     4  10  23  39  63  96 123 173 221 264 319 391
#     4  11  25  45  70  98 135 172 219 276 340 403
#     4  12  24  43  67 101 131 176 219 273 332 395
#     4  11  24  45  70 100 131 173 222 277 337 397
#     4  11  22  40  61  90 132 170 217 267 321 383
#
# _framework density 20.425380000000001
#
# number of rings (size 3 to 8) (size 9 to 14) (size 15 to 20)
#    0.000    1.000    4.167    2.500    0.000    4.667 
#    0.000    0.000    0.000    0.000    0.000    0.000 
#    0.000    0.000    0.000    0.000    0.000    0.000 
#
# Total GULP energy -297326.840592 kJ/mol
# GULP energy per Si atom -12388.618358 kJ/mol
# Density = 2.037889 g / cm^3
# Si number density = 20.425380 Si / 1000 Ang^3
#
#
#
# Elastic Constant Matrix: (Units=GPa)
#
#
# Indices 1 2 3 4 5 6 
#
# 1 101.1356 34.1572 41.6301 0.0000 11.6753 0.0000
# 2 34.1572 84.8858 37.2446 0.0000 0.6203 0.0000
# 3 41.6301 37.2446 125.3767 0.0000 2.1830 0.0000
# 4 0.0000 0.0000 0.0000 27.4921 0.0000 -37.3394
# 5 11.6753 0.6203 2.1830 0.0000 38.3892 0.0000
# 6 0.0000 0.0000 0.0000 -37.3394 0.0000 -130.2864
#
#
#
# Elastic Compliance Matrix: (Units=1/GPa)
#
#
# Indices 1 2 3 4 5 6 
#
# 1 0.012862 -0.003798 -0.003078 0.000000 -0.003675 0.000000
# 2 -0.003798 0.014668 -0.003115 0.000000 0.001095 0.000000
# 3 -0.003078 -0.003115 0.009916 0.000000 0.000423 0.000000
# 4 0.000000 0.000000 0.000000 0.026183 0.000000 -0.007504
# 5 -0.003675 0.001095 0.000423 0.000000 0.027125 0.000000
# 6 0.000000 0.000000 0.000000 -0.007504 0.000000 -0.005525
#
#
# Mechanical properties :
#
#
# Convention : Reuss Voigt Hill
#
# Bulk Modulus (GPa) = 57.26552 59.71801 58.49176
# Shear Modulus (GPa) = 45.03194 0.34338 22.68766
#
# Velocity S-wave (km/s) = 4.70052 0.41046 3.33642
# Velocity P-wave (km/s) = 7.58665 5.43372 6.59858
#
# Compressibility (1/GPa) = 0.01746252
#
# Stress axis : x y z
#
# Youngs Moduli (GPa) = 77.74931 68.17752 100.84531
#
# Poissons Ratio (x) = 0.25893 0.31045
# Poissons Ratio (y) = 0.29529 0.31415
# Poissons Ratio (z) = 0.23935 0.21239
#
# Static dielectric constant tensor:
#      x y z
#    x 3.874000 0.000000 0.136790 
#    y 0.000000 3.691010 0.000000 
#    z 0.136790 0.000000 3.792840 
# 
# 
# High freq. dielectric constant tensor:
#      x y z
#    x 1.804510 0.000000 0.004790 
#    y 0.000000 1.807010 0.000000 
#    z 0.004790 0.000000 1.812140 
# 
# From -- ./inp_files/79816.got.cif
#   From: 2010.06.25/outbox.cif.g09.slc.cpg/sg15_40_cif.got.tgz:79816.got - 2010.06.28 07:06:18.
