data_PCOD8148636
_publ_section_title
;
Structure prediction by ZEFSAII (Michael W. Deem and Ramdas Pophale) SiO2 
 PCOD8148636
Probable space group: C 2/C
;
_chemical_formula_sum "Si O2"
_cell_formula_units_Z 44
_cell_length_a 14.208743
_cell_length_b 20.982388
_cell_length_c 14.723016
_cell_angle_alpha 90.000000
_cell_angle_beta 150.877076
_cell_angle_gamma 90.000000
_cell_volume 2136.265672
_symmetry_space_group_name_H-M "C 2/C"
_symmetry_group_IT_number 15
_symmetry_cell_setting 'monoclinic'
loop_
_space_group_symop_operation_xyz
x,y,z
-x,y,1/2-z
-x,-y,-z
x,-y,1/2+z
1/2+x,1/2+y,z
1/2-x,1/2+y,1/2-z
1/2-x,1/2-y,-z
1/2+x,1/2-y,1/2+z
loop_
_atom_site_type_symbol
_atom_site_label
_atom_site_fract_x
_atom_site_fract_y
_atom_site_fract_z
Si Si1 0.395090 0.166964 0.966528
Si Si2 0.815770 0.034984 0.031095
Si Si3 0.500000 0.125027 0.750000
Si Si4 0.305117 0.367970 0.374950
Si Si5 0.201546 0.110137 0.969737
Si Si6 0.312694 0.309647 0.861174
O O1 0.287781 0.121335 0.803084
O O2 0.366436 0.139131 0.043488
O O3 0.294965 0.235766 0.872115
O O4 0.624954 0.171828 0.143289
O O5 0.000000 0.041854 0.250000
O O6 0.747739 0.962440 0.963139
O O7 0.642058 0.077410 0.927539
O O8 0.858795 0.063776 0.965746
O O9 0.365483 0.165753 0.706316
O O10 0.494021 0.323403 0.533834
O O11 0.000000 0.115391 0.750000
O O12 0.183232 0.149646 0.044967
#
# Coordination Sequence:
#
# PCOD8148636 Si02
#       6
#     8   8   4   8   8   8
#     4  12  24  42  65  97 132 168 215 268 322 391
#     4   9  22  42  66  92 133 168 215 265 321 383
#     4   8  22  42  62  86 132 158 216 262 324 360
#     4  10  23  42  65  96 128 167 222 269 314 389
#     4  11  22  43  64  98 135 173 208 262 330 389
#     4  12  24  40  67  95 133 169 215 264 326 385
#
# _framework density 20.596689000000001
#
# number of rings (size 3 to 8) (size 9 to 14) (size 15 to 20)
#    1.091    0.364    3.636    1.091    5.091    0.727 
#    0.000    2.727    2.000    0.000    0.000    0.000 
#    0.000    0.000    0.000    0.000    0.000    0.000 
#
# Total GULP energy -272603.896760 kJ/mol
# GULP energy per Si atom -12391.086216 kJ/mol
# Density = 2.054981 g / cm^3
# Si number density = 20.596689 Si / 1000 Ang^3
#
#
#
# Elastic Constant Matrix: (Units=GPa)
#
#
# Indices 1 2 3 4 5 6 
#
# 1 102.1172 48.4037 37.0543 0.0000 14.0343 0.0000
# 2 48.4037 107.2721 42.0300 0.0000 -9.4097 0.0000
# 3 37.0543 42.0300 102.9396 0.0000 5.3100 0.0000
# 4 0.0000 0.0000 0.0000 28.2512 0.0000 -4.8578
# 5 14.0343 -9.4097 5.3100 0.0000 36.4893 0.0000
# 6 0.0000 0.0000 0.0000 -4.8578 0.0000 35.6486
#
#
#
# Elastic Compliance Matrix: (Units=1/GPa)
#
#
# Indices 1 2 3 4 5 6 
#
# 1 0.014546 -0.006254 -0.002328 0.000000 -0.006868 0.000000
# 2 -0.006254 0.014261 -0.003915 0.000000 0.006653 0.000000
# 3 -0.002328 -0.003915 0.012249 0.000000 -0.001897 0.000000
# 4 0.000000 0.000000 0.000000 0.036246 0.000000 0.004939
# 5 -0.006868 0.006653 -0.001897 0.000000 0.032038 0.000000
# 6 0.000000 0.000000 0.000000 0.004939 0.000000 0.028725
#
#
# Mechanical properties :
#
#
# Convention : Reuss Voigt Hill
#
# Bulk Modulus (GPa) = 62.25817 63.03389 62.64603
# Shear Modulus (GPa) = 29.68900 32.40055 31.04478
#
# Velocity S-wave (km/s) = 3.80076 3.97053 3.88657
# Velocity P-wave (km/s) = 7.03945 7.18961 7.11493
#
# Compressibility (1/GPa) = 0.01606215
#
# Stress axis : x y z
#
# Youngs Moduli (GPa) = 68.74915 70.11977 81.64052
#
# Poissons Ratio (x) = 0.43850 0.19008
# Poissons Ratio (y) = 0.42993 0.31962
# Poissons Ratio (z) = 0.16007 0.27452
#
# Static dielectric constant tensor:
#      x y z
#    x 3.718580 0.000000 0.218540 
#    y 0.000000 3.622340 0.000000 
#    z 0.218540 0.000000 4.012450 
# 
# 
# High freq. dielectric constant tensor:
#      x y z
#    x 1.793060 0.000000 0.014930 
#    y 0.000000 1.783460 0.000000 
#    z 0.014930 0.000000 1.827990 
# 
# From -- ./inp_files/156275.got.cif
#   From: 2010.06.25/outbox.cif.g09.slc.cpg/sg15_79_cif.got.tgz:156275.got - 2010.06.28 07:06:18.
