data_PCOD8148867
_publ_section_title
;
Structure prediction by ZEFSAII (Michael W. Deem and Ramdas Pophale) SiO2 
 PCOD8148867
Probable space group: C 2/C
;
_chemical_formula_sum "Si O2"
_cell_formula_units_Z 48
_cell_length_a 8.773600
_cell_length_b 25.907603
_cell_length_c 14.256558
_cell_angle_alpha 90.000000
_cell_angle_beta 46.054765
_cell_angle_gamma 90.000000
_cell_volume 2333.212662
_symmetry_space_group_name_H-M "C 2/C"
_symmetry_group_IT_number 15
_symmetry_cell_setting 'monoclinic'
loop_
_space_group_symop_operation_xyz
x,y,z
-x,y,1/2-z
-x,-y,-z
x,-y,1/2+z
1/2+x,1/2+y,z
1/2-x,1/2+y,1/2-z
1/2-x,1/2-y,-z
1/2+x,1/2-y,1/2+z
loop_
_atom_site_type_symbol
_atom_site_label
_atom_site_fract_x
_atom_site_fract_y
_atom_site_fract_z
Si Si1 0.212612 0.803931 0.220906
Si Si2 0.859678 0.489323 0.647298
Si Si3 0.557907 0.626957 0.424332
Si Si4 0.719873 0.910519 0.209495
Si Si5 0.500000 0.589568 0.250000
Si Si6 0.000000 0.427620 0.750000
Si Si7 0.058477 0.761816 0.013321
O O1 0.284115 0.859526 0.225398
O O2 0.418151 0.782369 0.076539
O O3 0.000000 0.810017 0.250000
O O4 0.156323 0.764583 0.332065
O O5 0.744621 0.540127 0.738404
O O6 0.695503 0.446901 0.685349
O O7 0.000000 0.500000 0.500000
O O8 0.021371 0.465041 0.652430
O O9 0.409321 0.591746 0.553511
O O10 0.468361 0.625120 0.355973
O O11 0.795083 0.607268 0.329825
O O12 0.572856 0.684742 0.453179
O O13 0.500000 0.915465 0.250000
O O14 0.250000 0.750000 0.000000
#
# Coordination Sequence:
#
# PCOD8148867 Si02
#       7
#     8   8   8   8   4   4   8
#     4   9  20  38  62  94 119 166 210 266 321 380
#     4  11  24  39  62  93 125 171 214 261 323 380
#     4  10  23  43  65  94 130 169 212 271 325 383
#     4  11  23  42  63  88 131 170 212 266 318 385
#     4  10  24  40  60  92 128 166 210 258 320 388
#     4  10  24  40  64  94 122 172 214 268 322 372
#     4   9  19  38  64  93 125 159 215 262 325 378
#
# _framework density 20.572492
#
# number of rings (size 3 to 8) (size 9 to 14) (size 15 to 20)
#    0.000    2.000    0.833    1.000    7.000    4.000 
#    7.500    1.667    0.000    0.000    0.000    0.000 
#    0.000    0.000    0.000    0.000    0.000    0.000 
#
# Total GULP energy -297422.167430 kJ/mol
# GULP energy per Si atom -12392.590310 kJ/mol
# Density = 2.052567 g / cm^3
# Si number density = 20.572492 Si / 1000 Ang^3
#
#
#
# Elastic Constant Matrix: (Units=GPa)
#
#
# Indices 1 2 3 4 5 6 
#
# 1 100.4899 41.1647 44.9153 0.0000 20.4385 0.0000
# 2 41.1647 68.2598 22.5137 0.0000 18.2554 0.0000
# 3 44.9153 22.5137 96.1102 0.0000 25.9455 0.0000
# 4 0.0000 0.0000 0.0000 22.7672 0.0000 42.6138
# 5 20.4385 18.2554 25.9455 0.0000 36.6696 0.0000
# 6 0.0000 0.0000 0.0000 42.6138 0.0000 14.1532
#
#
#
# Elastic Compliance Matrix: (Units=1/GPa)
#
#
# Indices 1 2 3 4 5 6 
#
# 1 0.015532 -0.007294 -0.005183 0.000000 -0.001359 0.000000
# 2 -0.007294 0.020670 0.000305 0.000000 -0.006441 0.000000
# 3 -0.005183 0.000305 0.014854 0.000000 -0.007773 0.000000
# 4 0.000000 0.000000 0.000000 -0.009475 0.000000 0.028529
# 5 -0.001359 -0.006441 -0.007773 0.000000 0.036734 0.000000
# 6 0.000000 0.000000 0.000000 0.028529 0.000000 -0.015242
#
#
# Mechanical properties :
#
#
# Convention : Reuss Voigt Hill
#
# Bulk Modulus (GPa) = 37.43503 53.56080 45.49792
# Shear Modulus (GPa) = 51.90976 25.13576 38.52276
#
# Velocity S-wave (km/s) = 5.02866 3.49924 4.33198
# Velocity P-wave (km/s) = 7.20782 6.51290 6.86915
#
# Compressibility (1/GPa) = 0.02671295
#
# Stress axis : x y z
#
# Youngs Moduli (GPa) = 64.38239 48.37828 67.32269
#
# Poissons Ratio (x) = 0.35287 0.34896
# Poissons Ratio (y) = 0.46960 -0.02057
# Poissons Ratio (z) = 0.33372 -0.01478
#
# Static dielectric constant tensor:
#      x y z
#    x 3.831520 0.000000 0.553270 
#    y 0.000000 3.885100 0.000000 
#    z 0.553270 0.000000 4.132860 
# 
# 
# High freq. dielectric constant tensor:
#      x y z
#    x 1.803980 0.000000 0.020870 
#    y 0.000000 1.807140 0.000000 
#    z 0.020870 0.000000 1.815670 
# 
# From -- ./inp_files/80574.got.cif
#   From: 2010.06.25/outbox.cif.g09.slc.cpg/sg15_41_cif.got.tgz:80574.got - 2010.06.28 07:06:18.
