data_PCOD8148901
_publ_section_title
;
Structure prediction by ZEFSAII (Michael W. Deem and Ramdas Pophale) SiO2 
 PCOD8148901
Probable space group: C 2/C
;
_chemical_formula_sum "Si O2"
_cell_formula_units_Z 44
_cell_length_a 14.796794
_cell_length_b 11.998914
_cell_length_c 11.189844
_cell_angle_alpha 90.000000
_cell_angle_beta 93.145285
_cell_angle_gamma 90.000000
_cell_volume 1983.713244
_symmetry_space_group_name_H-M "C 2/C"
_symmetry_group_IT_number 15
_symmetry_cell_setting 'monoclinic'
loop_
_space_group_symop_operation_xyz
x,y,z
-x,y,1/2-z
-x,-y,-z
x,-y,1/2+z
1/2+x,1/2+y,z
1/2-x,1/2+y,1/2-z
1/2-x,1/2-y,-z
1/2+x,1/2-y,1/2+z
loop_
_atom_site_type_symbol
_atom_site_label
_atom_site_fract_x
_atom_site_fract_y
_atom_site_fract_z
Si Si1 0.500000 0.039656 0.250000
Si Si2 0.261633 0.347182 0.594733
Si Si3 0.439079 0.389416 0.491214
Si Si4 0.925708 0.711721 0.058061
Si Si5 0.821942 0.175183 0.755539
Si Si6 0.336462 0.942409 0.369006
O O1 0.473903 0.114721 0.135492
O O2 0.420637 0.959400 0.287511
O O3 0.250000 0.250000 0.500000
O O4 0.365479 0.391483 0.594435
O O5 0.230932 0.291011 0.717289
O O6 0.190708 0.445917 0.560693
O O7 0.500000 0.500000 0.500000
O O8 0.500975 0.280257 0.513441
O O9 0.386596 0.376503 0.361475
O O10 0.879511 0.800580 0.141827
O O11 0.853951 0.657412 0.962563
O O12 0.748284 0.081861 0.722319
#
# Coordination Sequence:
#
# PCOD8148901 Si02
#       6
#     4   8   8   8   8   8
#     4  12  24  44  70 100 140 180 234 300 350 404
#     4  10  23  43  66  98 137 183 229 287 349 419
#     4  11  24  44  73 101 140 185 232 286 351 422
#     4  12  24  47  69 102 141 185 235 293 354 419
#     4  11  24  45  67  98 147 178 226 291 357 410
#     4  12  27  41  74 102 135 187 240 287 355 432
#
# _framework density 22.180624999999999
#
# number of rings (size 3 to 8) (size 9 to 14) (size 15 to 20)
#    0.000    0.727    3.636    3.273    7.636    1.455 
#    0.000    1.818    0.000    0.000    0.000    0.000 
#    0.000    0.000    0.000    0.000    0.000    0.000 
#
# Total GULP energy -272814.842948 kJ/mol
# GULP energy per Si atom -12400.674679 kJ/mol
# Density = 2.213014 g / cm^3
# Si number density = 22.180625 Si / 1000 Ang^3
#
#
#
# Elastic Constant Matrix: (Units=GPa)
#
#
# Indices 1 2 3 4 5 6 
#
# 1 151.6913 60.6316 42.3982 0.0000 -10.5192 0.0000
# 2 60.6316 104.4733 47.1780 0.0000 14.0919 0.0000
# 3 42.3982 47.1780 61.7901 0.0000 5.5399 0.0000
# 4 0.0000 0.0000 0.0000 32.8498 0.0000 2.2342
# 5 -10.5192 14.0919 5.5399 0.0000 38.7834 0.0000
# 6 0.0000 0.0000 0.0000 2.2342 0.0000 60.7208
#
#
#
# Elastic Compliance Matrix: (Units=1/GPa)
#
#
# Indices 1 2 3 4 5 6 
#
# 1 0.009827 -0.004763 -0.003546 0.000000 0.004903 0.000000
# 2 -0.004763 0.017481 -0.009515 0.000000 -0.006284 0.000000
# 3 -0.003546 -0.009515 0.025991 0.000000 -0.001217 0.000000
# 4 0.000000 0.000000 0.000000 0.030518 0.000000 -0.001123
# 5 0.004903 -0.006284 -0.001217 0.000000 0.029571 0.000000
# 6 0.000000 0.000000 0.000000 -0.001123 0.000000 0.016510
#
#
# Mechanical properties :
#
#
# Convention : Reuss Voigt Hill
#
# Bulk Modulus (GPa) = 56.65540 68.70780 62.68160
# Shear Modulus (GPa) = 29.16640 37.65391 33.41016
#
# Velocity S-wave (km/s) = 3.63016 4.12467 3.88529
# Velocity P-wave (km/s) = 6.57031 7.32991 6.96048
#
# Compressibility (1/GPa) = 0.01765057
#
# Stress axis : x y z
#
# Youngs Moduli (GPa) = 101.75679 57.20576 38.47521
#
# Poissons Ratio (x) = 0.27250 0.13642
# Poissons Ratio (y) = 0.48472 0.36609
# Poissons Ratio (z) = 0.36080 0.54431
#
# Static dielectric constant tensor:
#      x y z
#    x 4.722890 0.000000 -0.433740 
#    y 0.000000 4.329430 0.000000 
#    z -0.433740 0.000000 4.018270 
# 
# 
# High freq. dielectric constant tensor:
#      x y z
#    x 1.896860 0.000000 -0.015300 
#    y 0.000000 1.882630 0.000000 
#    z -0.015300 0.000000 1.849070 
# 
# From -- ./inp_files/95041.got.cif
#   From: 2010.06.25/outbox.cif.g09.slc.cpg/sg15_48_cif.got.tgz:95041.got - 2010.06.28 07:06:18.
