data_PCOD8148178
_publ_section_title
;
Structure prediction by ZEFSAII (Michael W. Deem and Ramdas Pophale) SiO2 
 PCOD8148178
Probable space group: C 2/C
;
_chemical_formula_sum "Si O2"
_cell_formula_units_Z 32
_cell_length_a 19.151665
_cell_length_b 7.726457
_cell_length_c 9.756823
_cell_angle_alpha 90.000000
_cell_angle_beta 63.166714
_cell_angle_gamma 90.000000
_cell_volume 1288.302346
_symmetry_space_group_name_H-M "C 2/C"
_symmetry_group_IT_number 15
_symmetry_cell_setting 'monoclinic'
loop_
_space_group_symop_operation_xyz
x,y,z
-x,y,1/2-z
-x,-y,-z
x,-y,1/2+z
1/2+x,1/2+y,z
1/2-x,1/2+y,1/2-z
1/2-x,1/2-y,-z
1/2+x,1/2-y,1/2+z
loop_
_atom_site_type_symbol
_atom_site_label
_atom_site_fract_x
_atom_site_fract_y
_atom_site_fract_z
Si Si1 0.270458 0.979611 0.543457
Si Si2 0.687309 0.648837 0.374607
Si Si3 0.977483 0.758370 0.419403
Si Si4 0.063357 0.637566 0.583075
O O1 0.291535 0.161113 0.592615
O O2 0.228247 0.006764 0.435693
O O3 0.213888 0.876029 0.695393
O O4 0.346438 0.856725 0.447998
O O5 0.593452 0.623615 0.462737
O O6 0.950922 0.561283 0.438121
O O7 0.000000 0.829682 0.250000
O O8 0.051170 0.759989 0.459394
O O9 0.000000 0.703138 0.750000
#
# Coordination Sequence:
#
# PCOD8148178 Si02
#       4
#     8   8   8   8
#     4  10  23  39  65  94 130 167 213 267 320 380
#     4  10  23  41  62  95 130 170 210 265 324 380
#     4   9  19  36  61  87 123 165 208 259 312 373
#     4   9  19  34  60  93 118 160 219 260 297 374
#
# _framework density 24.838889999999999
#
# number of rings (size 3 to 8) (size 9 to 14) (size 15 to 20)
#    0.000    2.500    0.000    0.000   21.000    1.000 
#    0.000    1.250    0.000    0.000    0.000    0.000 
#    0.000    0.000    0.000    0.000    0.000    0.000 
#
# Total GULP energy -198334.729996 kJ/mol
# GULP energy per Si atom -12395.920625 kJ/mol
# Density = 2.478236 g / cm^3
# Si number density = 24.838890 Si / 1000 Ang^3
#
#
#
# Elastic Constant Matrix: (Units=GPa)
#
#
# Indices 1 2 3 4 5 6 
#
# 1 133.8583 21.9865 52.2952 0.0000 -14.5533 0.0000
# 2 21.9865 36.1100 23.4509 0.0000 1.0836 0.0000
# 3 52.2952 23.4509 150.1948 0.0000 -27.0449 0.0000
# 4 0.0000 0.0000 0.0000 23.2308 0.0000 -7.2635
# 5 -14.5533 1.0836 -27.0449 0.0000 46.8421 0.0000
# 6 0.0000 0.0000 0.0000 -7.2635 0.0000 16.0717
#
#
#
# Elastic Compliance Matrix: (Units=1/GPa)
#
#
# Indices 1 2 3 4 5 6 
#
# 1 0.009222 -0.004200 -0.002257 0.000000 0.001660 0.000000
# 2 -0.004200 0.033381 -0.004602 0.000000 -0.004734 0.000000
# 3 -0.002257 -0.004602 0.008990 0.000000 0.004596 0.000000
# 4 0.000000 0.000000 0.000000 0.050130 0.000000 0.022656
# 5 0.001660 -0.004734 0.004596 0.000000 0.024627 0.000000
# 6 0.000000 0.000000 0.000000 0.022656 0.000000 0.072460
#
#
# Mechanical properties :
#
#
# Convention : Reuss Voigt Hill
#
# Bulk Modulus (GPa) = 33.92526 57.29203 45.60865
# Shear Modulus (GPa) = 21.66820 32.05762 26.86291
#
# Velocity S-wave (km/s) = 2.95676 3.59642 3.29216
# Velocity P-wave (km/s) = 5.03432 6.35304 5.73173
#
# Compressibility (1/GPa) = 0.02947656
#
# Stress axis : x y z
#
# Youngs Moduli (GPa) = 108.43177 29.95704 111.23694
#
# Poissons Ratio (x) = 0.12581 0.25101
# Poissons Ratio (y) = 0.45537 0.51194
# Poissons Ratio (z) = 0.24468 0.13787
#
# Static dielectric constant tensor:
#      x y z
#    x 4.840420 0.000000 -0.021050 
#    y 0.000000 4.081300 0.000000 
#    z -0.021050 0.000000 4.426650 
# 
# 
# High freq. dielectric constant tensor:
#      x y z
#    x 1.991350 0.000000 0.001440 
#    y 0.000000 1.969210 0.000000 
#    z 0.001440 0.000000 1.987900 
# 
# From -- ./inp_files/53930.got.cif
#   From: 2010.06.25/outbox.cif.g09.slc.cpg/sg15_27_cif.got.tgz:53930.got - 2010.06.28 07:06:18.
