data_PCOD8148777
_publ_section_title
;
Structure prediction by ZEFSAII (Michael W. Deem and Ramdas Pophale) SiO2 
 PCOD8148777
Probable space group: C 2/C
;
_chemical_formula_sum "Si O2"
_cell_formula_units_Z 48
_cell_length_a 12.796583
_cell_length_b 18.498126
_cell_length_c 9.259498
_cell_angle_alpha 90.000000
_cell_angle_beta 94.701475
_cell_angle_gamma 90.000000
_cell_volume 2184.466802
_symmetry_space_group_name_H-M "C 2/C"
_symmetry_group_IT_number 15
_symmetry_cell_setting 'monoclinic'
loop_
_space_group_symop_operation_xyz
x,y,z
-x,y,1/2-z
-x,-y,-z
x,-y,1/2+z
1/2+x,1/2+y,z
1/2-x,1/2+y,1/2-z
1/2-x,1/2-y,-z
1/2+x,1/2-y,1/2+z
loop_
_atom_site_type_symbol
_atom_site_label
_atom_site_fract_x
_atom_site_fract_y
_atom_site_fract_z
Si Si1 0.491295 0.165517 0.414819
Si Si2 0.826554 0.769520 0.378880
Si Si3 0.930999 0.455301 0.098073
Si Si4 0.215992 0.683020 0.405910
Si Si5 0.210961 0.967649 0.532750
Si Si6 0.120073 0.925670 0.223581
O O1 0.500000 0.136578 0.250000
O O2 0.448130 0.248224 0.425565
O O3 0.415740 0.120838 0.513994
O O4 0.610803 0.159686 0.480288
O O5 0.750000 0.750000 0.500000
O O6 0.798424 0.709055 0.257784
O O7 0.821788 0.851939 0.322680
O O8 0.818589 0.494011 0.098213
O O9 0.000000 0.445968 0.250000
O O10 0.000000 0.500000 0.000000
O O11 0.250000 0.750000 0.500000
O O12 0.294450 0.614972 0.411336
O O13 0.188579 0.962099 0.359333
O O14 0.119253 0.015505 0.594756
O O15 0.000000 0.908615 0.250000
#
# Coordination Sequence:
#
# PCOD8148777 Si02
#       6
#     8   8   8   8   8   8
#     4  10  23  42  70  99 136 178 226 293 364 419
#     4  11  25  45  73 100 137 181 243 298 360 425
#     4  12  24  40  66 107 147 179 226 292 359 431
#     4  11  23  44  68 101 137 184 229 294 361 420
#     4  12  27  43  75 102 146 189 241 290 360 431
#     4  12  27  50  72 102 143 198 245 298 353 429
#
# _framework density 21.973326
#
# number of rings (size 3 to 8) (size 9 to 14) (size 15 to 20)
#    0.000    0.667    3.333    4.500    9.333    1.333 
#    0.000    0.000    0.000    0.000    0.000    0.000 
#    0.000    0.000    0.000    0.000    0.000    0.000 
#
# Total GULP energy -297316.873606 kJ/mol
# GULP energy per Si atom -12388.203067 kJ/mol
# Density = 2.192331 g / cm^3
# Si number density = 21.973326 Si / 1000 Ang^3
#
#
#
# Elastic Constant Matrix: (Units=GPa)
#
#
# Indices 1 2 3 4 5 6 
#
# 1 74.2718 24.9099 42.6603 0.0000 -6.2324 0.0000
# 2 24.9099 152.3585 63.1032 0.0000 -10.7786 0.0000
# 3 42.6603 63.1032 121.3587 0.0000 -9.6079 0.0000
# 4 0.0000 0.0000 0.0000 44.9459 0.0000 -5.9038
# 5 -6.2324 -10.7786 -9.6079 0.0000 34.3881 0.0000
# 6 0.0000 0.0000 0.0000 -5.9038 0.0000 36.9438
#
#
#
# Elastic Compliance Matrix: (Units=1/GPa)
#
#
# Indices 1 2 3 4 5 6 
#
# 1 0.016952 -0.000320 -0.005683 0.000000 0.001384 0.000000
# 2 -0.000320 0.008441 -0.004164 0.000000 0.001424 0.000000
# 3 -0.005683 -0.004164 0.012494 0.000000 0.001156 0.000000
# 4 0.000000 0.000000 0.000000 0.022726 0.000000 0.003632
# 5 0.001384 0.001424 0.001156 0.000000 0.030100 0.000000
# 6 0.000000 0.000000 0.000000 0.003632 0.000000 0.027649
#
#
# Mechanical properties :
#
#
# Convention : Reuss Voigt Hill
#
# Bulk Modulus (GPa) = 56.96832 67.70398 62.33615
# Shear Modulus (GPa) = 34.59090 37.74326 36.16708
#
# Velocity S-wave (km/s) = 3.97195 4.14899 4.06144
# Velocity P-wave (km/s) = 6.85694 7.33696 7.10101
#
# Compressibility (1/GPa) = 0.01755362
#
# Stress axis : x y z
#
# Youngs Moduli (GPa) = 58.99117 118.46738 80.03590
#
# Poissons Ratio (x) = 0.03789 0.45484
# Poissons Ratio (y) = 0.01887 0.33327
# Poissons Ratio (z) = 0.33525 0.49329
#
# Static dielectric constant tensor:
#      x y z
#    x 3.743140 0.000000 -0.069230 
#    y 0.000000 3.969600 0.000000 
#    z -0.069230 0.000000 3.630370 
# 
# 
# High freq. dielectric constant tensor:
#      x y z
#    x 1.860010 0.000000 -0.001690 
#    y 0.000000 1.878870 0.000000 
#    z -0.001690 0.000000 1.865490 
# 
# From -- ./inp_files/39626.got.cif
#   From: 2010.06.25/outbox.cif.g09.slc.cpg/sg15_20_cif.got.tgz:39626.got - 2010.06.28 07:06:18.
