data_PCOD8148923
_publ_section_title
;
Structure prediction by ZEFSAII (Michael W. Deem and Ramdas Pophale) SiO2 
 PCOD8148923
Probable space group: C 2/C
;
_chemical_formula_sum "Si O2"
_cell_formula_units_Z 64
_cell_length_a 15.573182
_cell_length_b 25.807406
_cell_length_c 12.445486
_cell_angle_alpha 90.000000
_cell_angle_beta 38.175758
_cell_angle_gamma 90.000000
_cell_volume 3091.543367
_symmetry_space_group_name_H-M "C 2/C"
_symmetry_group_IT_number 15
_symmetry_cell_setting 'monoclinic'
loop_
_space_group_symop_operation_xyz
x,y,z
-x,y,1/2-z
-x,-y,-z
x,-y,1/2+z
1/2+x,1/2+y,z
1/2-x,1/2+y,1/2-z
1/2-x,1/2-y,-z
1/2+x,1/2-y,1/2+z
loop_
_atom_site_type_symbol
_atom_site_label
_atom_site_fract_x
_atom_site_fract_y
_atom_site_fract_z
Si Si1 0.191517 0.305536 0.956401
Si Si2 0.519575 0.940469 0.853662
Si Si3 0.377144 0.516412 0.299359
Si Si4 0.128018 0.455106 0.187566
Si Si5 0.774059 0.901873 0.736372
Si Si6 0.625082 0.211546 0.757033
Si Si7 0.526919 0.599264 0.842413
Si Si8 0.291689 0.884807 0.207763
O O1 0.221601 0.361509 0.877132
O O2 0.306155 0.267556 0.791365
O O3 0.200692 0.311593 0.076154
O O4 0.039953 0.281456 0.085052
O O5 0.500000 0.923120 0.750000
O O6 0.645437 0.911999 0.786552
O O7 0.545116 0.002218 0.839680
O O8 0.379816 0.923492 0.048660
O O9 0.500000 0.542862 0.250000
O O10 0.235036 0.512208 0.508189
O O11 0.339547 0.548673 0.231125
O O12 0.437660 0.461676 0.200145
O O13 0.216222 0.414025 0.169153
O O14 0.000000 0.426107 0.250000
O O15 0.892445 0.883263 0.540164
O O16 0.648626 0.172470 0.832743
O O17 0.500000 0.622021 0.750000
O O18 0.648700 0.626341 0.788658
#
# Coordination Sequence:
#
# PCOD8148923 Si02
#       8
#     8   8   8   8   8   8   8   8
#     4  10  23  43  67  97 126 154 189 255 318 386
#     4  11  22  38  57  87 124 166 211 253 299 354
#     4  11  22  39  57  90 130 167 206 255 304 365
#     4  11  22  35  59  91 129 160 202 255 308 370
#     4  12  22  39  65  90 121 169 212 250 306 370
#     4  10  23  43  67  96 128 151 192 250 324 380
#     4  11  24  40  58  86 129 173 216 256 291 348
#     4  12  22  38  63  91 120 169 207 252 306 369
#
# _framework density 20.701635
#
# number of rings (size 3 to 8) (size 9 to 14) (size 15 to 20)
#    0.000    1.000    1.250    7.500    3.500    0.000 
#    2.250    0.000    0.000    4.500    0.000    0.000 
#    0.000    0.000    0.000    0.000    0.000    0.000 
#
# Total GULP energy -396667.614691 kJ/mol
# GULP energy per Si atom -12395.862959 kJ/mol
# Density = 2.065452 g / cm^3
# Si number density = 20.701635 Si / 1000 Ang^3
#
#
#
# Elastic Constant Matrix: (Units=GPa)
#
#
# Indices 1 2 3 4 5 6 
#
# 1 176.7794 23.2794 35.4470 -0.0004 -39.0111 0.0002
# 2 23.2794 41.0148 -4.5835 0.0000 1.0921 0.0000
# 3 35.4470 -4.5835 83.0416 -0.0003 -26.1744 0.0001
# 4 -0.0004 0.0000 -0.0003 25.2323 0.0004 -0.9591
# 5 -39.0111 1.0921 -26.1744 0.0004 53.4388 -0.0002
# 6 0.0002 0.0000 0.0001 -0.9591 -0.0002 20.6348
#
#
#
# Elastic Compliance Matrix: (Units=1/GPa)
#
#
# Indices 1 2 3 4 5 6 
#
# 1 0.007743 -0.004753 -0.002076 0.000000 0.004733 0.000000
# 2 -0.004753 0.027452 0.002689 0.000000 -0.002714 0.000000
# 3 -0.002076 0.002689 0.014879 0.000000 0.005717 0.000000
# 4 0.000000 0.000000 0.000000 0.039702 0.000000 0.001845
# 5 0.004733 -0.002714 0.005717 0.000000 0.025024 0.000000
# 6 0.000000 0.000000 0.000000 0.001845 0.000000 0.048548
#
#
# Mechanical properties :
#
#
# Convention : Reuss Voigt Hill
#
# Bulk Modulus (GPa) = 23.92700 45.45796 34.69248
# Shear Modulus (GPa) = 26.94556 36.30737 31.62646
#
# Velocity S-wave (km/s) = 3.61170 4.19243 3.91286
# Velocity P-wave (km/s) = 5.38290 6.74104 6.09989
#
# Compressibility (1/GPa) = 0.04179379
#
# Stress axis : x y z
#
# Youngs Moduli (GPa) = 129.14188 36.42724 67.21009
#
# Poissons Ratio (x) = 0.17314 0.13951
# Poissons Ratio (y) = 0.61382 -0.18071
# Poissons Ratio (z) = 0.26807 -0.09794
#
# Static dielectric constant tensor:
#      x y z
#    x 4.152370 0.000000 0.009800 
#    y 0.000000 3.343700 0.000000 
#    z 0.009800 0.000000 3.823480 
# 
# 
# High freq. dielectric constant tensor:
#      x y z
#    x 1.828590 0.000000 -0.009620 
#    y 0.000000 1.773240 0.000000 
#    z -0.009620 0.000000 1.818280 
# 
# From -- ./inp_files/101303.got.cif
#   From: 2010.06.25/outbox.cif.g09.slc.cpg/sg15_51_cif.got.tgz:101303.got - 2010.06.28 07:06:18.
