data_PCOD8148502
_publ_section_title
;
Structure prediction by ZEFSAII (Michael W. Deem and Ramdas Pophale) SiO2 
 PCOD8148502
Probable space group: C 2/C
;
_chemical_formula_sum "Si O2"
_cell_formula_units_Z 52
_cell_length_a 19.127839
_cell_length_b 16.174986
_cell_length_c 9.390816
_cell_angle_alpha 90.000000
_cell_angle_beta 54.348296
_cell_angle_gamma 90.000000
_cell_volume 2360.895001
_symmetry_space_group_name_H-M "C 2/C"
_symmetry_group_IT_number 15
_symmetry_cell_setting 'monoclinic'
loop_
_space_group_symop_operation_xyz
x,y,z
-x,y,1/2-z
-x,-y,-z
x,-y,1/2+z
1/2+x,1/2+y,z
1/2-x,1/2+y,1/2-z
1/2-x,1/2-y,-z
1/2+x,1/2-y,1/2+z
loop_
_atom_site_type_symbol
_atom_site_label
_atom_site_fract_x
_atom_site_fract_y
_atom_site_fract_z
Si Si1 0.869149 0.084906 0.296099
Si Si2 0.335576 0.762283 0.316135
Si Si3 0.164502 0.572065 0.543150
Si Si4 0.424481 0.054435 0.146104
Si Si5 0.500000 0.812014 0.750000
Si Si6 0.825841 0.221884 0.012898
Si Si7 0.084468 0.058959 0.567759
O O1 0.895503 0.182172 0.279172
O O2 0.766836 0.072699 0.409631
O O3 0.898965 0.033753 0.397081
O O4 0.921127 0.050524 0.096880
O O5 0.250000 0.750000 0.500000
O O6 0.374911 0.850224 0.319492
O O7 0.304535 0.760954 0.190327
O O8 0.135826 0.578442 0.413683
O O9 0.130034 0.489502 0.662527
O O10 0.473477 0.134438 0.145469
O O11 0.500000 0.000000 0.000000
O O12 0.580540 0.754564 0.630996
O O13 0.750000 0.250000 0.000000
O O14 0.835389 0.122005 0.998004
O O15 0.000000 0.093192 0.750000
#
# Coordination Sequence:
#
# PCOD8148502 Si02
#       7
#     8   8   8   8   4   8   8
#     4  10  23  41  68  94 130 178 232 279 339 410
#     4   9  22  43  65  99 135 175 233 282 336 416
#     4  11  23  42  68 100 141 180 231 280 346 414
#     4  12  24  41  66  99 141 181 217 286 343 412
#     4  12  26  44  68 106 138 174 238 278 350 420
#     4  11  26  44  73  98 137 184 228 286 348 413
#     4  11  23  45  64  96 131 175 229 292 340 401
#
# _framework density 22.025545999999999
#
# number of rings (size 3 to 8) (size 9 to 14) (size 15 to 20)
#    0.000    1.231    2.308    2.308    8.615    2.462 
#    0.000    1.538    0.000    0.000    0.000    0.000 
#    0.000    0.000    0.000    0.000    0.000    0.000 
#
# Total GULP energy -322187.339362 kJ/mol
# GULP energy per Si atom -12391.820745 kJ/mol
# Density = 2.197541 g / cm^3
# Si number density = 22.025546 Si / 1000 Ang^3
#
#
#
# Elastic Constant Matrix: (Units=GPa)
#
#
# Indices 1 2 3 4 5 6 
#
# 1 80.6968 27.0333 28.0024 0.0000 7.9594 0.0000
# 2 27.0333 93.9408 20.7820 0.0000 18.2682 0.0000
# 3 28.0024 20.7820 120.2952 0.0000 5.2682 0.0000
# 4 0.0000 0.0000 0.0000 33.6323 0.0000 9.3592
# 5 7.9594 18.2682 5.2682 0.0000 43.2282 0.0000
# 6 0.0000 0.0000 0.0000 9.3592 0.0000 28.5439
#
#
#
# Elastic Compliance Matrix: (Units=1/GPa)
#
#
# Indices 1 2 3 4 5 6 
#
# 1 0.014583 -0.003408 -0.002766 0.000000 -0.000908 0.000000
# 2 -0.003408 0.012795 -0.001214 0.000000 -0.004632 0.000000
# 3 -0.002766 -0.001214 0.009171 0.000000 -0.000095 0.000000
# 4 0.000000 0.000000 0.000000 0.032719 0.000000 -0.010728
# 5 -0.000908 -0.004632 -0.000095 0.000000 0.025269 0.000000
# 6 0.000000 0.000000 0.000000 -0.010728 0.000000 0.038551
#
#
# Mechanical properties :
#
#
# Convention : Reuss Voigt Hill
#
# Bulk Modulus (GPa) = 45.93079 49.61871 47.77475
# Shear Modulus (GPa) = 32.23257 35.68857 33.96057
#
# Velocity S-wave (km/s) = 3.82961 4.02969 3.93093
# Velocity P-wave (km/s) = 6.36029 6.65041 6.50697
#
# Compressibility (1/GPa) = 0.02177189
#
# Stress axis : x y z
#
# Youngs Moduli (GPa) = 68.57212 78.15503 109.04252
#
# Poissons Ratio (x) = 0.26636 0.30163
# Poissons Ratio (y) = 0.23370 0.13241
# Poissons Ratio (z) = 0.18968 0.09490
#
# Static dielectric constant tensor:
#      x y z
#    x 3.977310 0.000000 0.276770 
#    y 0.000000 3.254510 0.000000 
#    z 0.276770 0.000000 4.613340 
# 
# 
# High freq. dielectric constant tensor:
#      x y z
#    x 1.849320 0.000000 -0.001540 
#    y 0.000000 1.879920 0.000000 
#    z -0.001540 0.000000 1.887560 
# 
# From -- ./inp_files/48937.got.cif
#   From: 2010.06.25/outbox.cif.g09.slc.cpg/sg15_25_cif.got.tgz:48937.got - 2010.06.28 07:06:18.
