data_PCOD8148539
_publ_section_title
;
Structure prediction by ZEFSAII (Michael W. Deem and Ramdas Pophale) SiO2 
 PCOD8148539
Probable space group: C 2/C
;
_chemical_formula_sum "Si O2"
_cell_formula_units_Z 56
_cell_length_a 17.018676
_cell_length_b 9.057128
_cell_length_c 17.789122
_cell_angle_alpha 90.000000
_cell_angle_beta 59.308849
_cell_angle_gamma 90.000000
_cell_volume 2357.949236
_symmetry_space_group_name_H-M "C 2/C"
_symmetry_group_IT_number 15
_symmetry_cell_setting 'monoclinic'
loop_
_space_group_symop_operation_xyz
x,y,z
-x,y,1/2-z
-x,-y,-z
x,-y,1/2+z
1/2+x,1/2+y,z
1/2-x,1/2+y,1/2-z
1/2-x,1/2-y,-z
1/2+x,1/2-y,1/2+z
loop_
_atom_site_type_symbol
_atom_site_label
_atom_site_fract_x
_atom_site_fract_y
_atom_site_fract_z
Si Si1 0.606730 0.387957 0.510118
Si Si2 0.074996 0.965749 0.363437
Si Si3 0.759892 0.994066 0.927619
Si Si4 0.349742 0.261488 0.288218
Si Si5 0.944940 0.449434 0.456292
Si Si6 0.201353 0.203138 0.234966
Si Si7 0.575096 0.961243 0.262757
O O1 0.630438 0.401846 0.409375
O O2 0.530088 0.509544 0.565136
O O3 0.692819 0.425892 0.521198
O O4 0.569029 0.225703 0.545322
O O5 0.074066 0.857487 0.292168
O O6 0.119722 0.117240 0.314832
O O7 0.762876 0.875786 0.858122
O O8 0.805056 0.148218 0.879004
O O9 0.654432 0.026750 0.999278
O O10 0.279560 0.220491 0.257015
O O11 0.392122 0.108996 0.297696
O O12 0.000000 0.500000 0.500000
O O13 0.017245 0.512196 0.362009
O O14 0.164127 0.364957 0.234103
O O15 0.500000 0.872086 0.250000
#
# Coordination Sequence:
#
# PCOD8148539 Si02
#       7
#     8   8   8   8   8   8   8
#     4  11  23  43  70 105 135 185 236 293 350 421
#     4  10  23  41  72  93 141 183 234 282 358 421
#     4  11  26  43  76 100 142 179 247 288 346 423
#     4  11  25  45  68 101 138 189 229 287 349 423
#     4  12  24  45  71 106 139 182 228 297 356 415
#     4  11  22  45  69 100 134 194 231 286 349 433
#     4  12  26  43  70 101 141 178 232 289 352 410
#
# _framework density 23.749452999999999
#
# number of rings (size 3 to 8) (size 9 to 14) (size 15 to 20)
#    0.000    0.857    1.429    6.429    2.000    3.429 
#    0.000    1.429    0.000    0.000    0.000    0.000 
#    0.000    0.000    0.000    0.000    0.000    0.000 
#
# Total GULP energy -347118.282715 kJ/mol
# GULP energy per Si atom -12397.081526 kJ/mol
# Density = 2.369540 g / cm^3
# Si number density = 23.749453 Si / 1000 Ang^3
#
#
#
# Elastic Constant Matrix: (Units=GPa)
#
#
# Indices 1 2 3 4 5 6 
#
# 1 105.6004 5.1002 -5.6508 0.0000 7.1285 0.0000
# 2 5.1002 105.9068 0.9680 -0.0001 -11.3435 -0.0001
# 3 -5.6508 0.9680 44.8529 0.0000 -1.8214 0.0000
# 4 0.0000 -0.0001 0.0000 20.9890 0.0000 1.2777
# 5 7.1285 -11.3435 -1.8214 0.0000 40.8323 0.0000
# 6 0.0000 -0.0001 0.0000 1.2777 0.0000 41.1316
#
#
#
# Elastic Compliance Matrix: (Units=1/GPa)
#
#
# Indices 1 2 3 4 5 6 
#
# 1 0.009688 -0.000673 0.001161 0.000000 -0.001826 0.000000
# 2 -0.000673 0.009779 -0.000181 0.000000 0.002826 0.000000
# 3 0.001161 -0.000181 0.022476 0.000000 0.000750 0.000000
# 4 0.000000 0.000000 0.000000 0.047734 0.000000 -0.001483
# 5 -0.001826 0.002826 0.000750 0.000000 0.025628 0.000000
# 6 0.000000 0.000000 0.000000 -0.001483 0.000000 0.024358
#
#
# Mechanical properties :
#
#
# Convention : Reuss Voigt Hill
#
# Bulk Modulus (GPa) = 23.49828 28.57722 26.03775
# Shear Modulus (GPa) = 32.62982 37.65342 35.14162
#
# Velocity S-wave (km/s) = 3.71066 3.98608 3.85084
# Velocity P-wave (km/s) = 5.31737 5.76577 5.54610
#
# Compressibility (1/GPa) = 0.04255631
#
# Stress axis : x y z
#
# Youngs Moduli (GPa) = 103.22517 102.25982 44.49254
#
# Poissons Ratio (x) = 0.06880 -0.05165
# Poissons Ratio (y) = 0.06945 0.00806
# Poissons Ratio (z) = -0.11983 0.01851
#
# Static dielectric constant tensor:
#      x y z
#    x 4.194650 0.000000 0.047450 
#    y 0.000000 4.840450 0.000000 
#    z 0.047450 0.000000 4.275800 
# 
# 
# High freq. dielectric constant tensor:
#      x y z
#    x 1.950460 0.000000 -0.002390 
#    y 0.000000 1.940500 0.000000 
#    z -0.002390 0.000000 1.951300 
# 
# From -- ./inp_files/209525.got.cif
#   From: 2010.06.25/outbox.cif.g09.slc.cpg/sg15_105_cif.got.tgz:209525.got - 2010.06.28 07:06:18.
