data_PCOD8148905
_publ_section_title
;
Structure prediction by ZEFSAII (Michael W. Deem and Ramdas Pophale) SiO2 
 PCOD8148905
Probable space group: C 2/C
;
_chemical_formula_sum "Si O2"
_cell_formula_units_Z 60
_cell_length_a 24.049476
_cell_length_b 13.699903
_cell_length_c 9.622879
_cell_angle_alpha 90.000000
_cell_angle_beta 60.708905
_cell_angle_gamma 90.000000
_cell_volume 2765.139151
_symmetry_space_group_name_H-M "C 2/C"
_symmetry_group_IT_number 15
_symmetry_cell_setting 'monoclinic'
loop_
_space_group_symop_operation_xyz
x,y,z
-x,y,1/2-z
-x,-y,-z
x,-y,1/2+z
1/2+x,1/2+y,z
1/2-x,1/2+y,1/2-z
1/2-x,1/2-y,-z
1/2+x,1/2-y,1/2+z
loop_
_atom_site_type_symbol
_atom_site_label
_atom_site_fract_x
_atom_site_fract_y
_atom_site_fract_z
Si Si1 0.142003 0.995317 0.154445
Si Si2 0.544461 0.970744 0.820367
Si Si3 0.431415 0.780492 0.847673
Si Si4 0.058523 0.950624 0.507874
Si Si5 0.908405 0.659492 0.673136
Si Si6 0.500000 0.717746 0.250000
Si Si7 0.797693 0.800600 0.836082
Si Si8 0.704275 0.320289 0.969882
O O1 0.084681 0.991490 0.111177
O O2 0.165738 0.106860 0.143197
O O3 0.116801 0.947507 0.328096
O O4 0.202795 0.929986 0.033468
O O5 0.500000 0.999236 0.750000
O O6 0.573628 0.861411 0.770436
O O7 0.602821 0.048749 0.759507
O O8 0.500000 0.000000 0.000000
O O9 0.500000 0.722926 0.750000
O O10 0.370332 0.711263 0.924072
O O11 0.439629 0.840454 0.981437
O O12 0.036022 0.845210 0.587635
O O13 0.000000 0.000000 0.500000
O O14 0.841994 0.711800 0.740035
O O15 0.949628 0.716385 0.734869
O O16 0.768808 0.829050 0.720437
O O17 0.750000 0.750000 0.000000
O O18 0.750000 0.250000 0.000000
#
# Coordination Sequence:
#
# PCOD8148905 Si02
#       8
#     8   8   8   8   8   4   8   8
#     4  12  25  46  71 102 145 186 233 294 350 431
#     4  11  20  38  63  96 138 177 222 283 344 404
#     4  10  23  43  66  99 139 178 230 289 357 407
#     4  12  23  41  67 107 149 183 227 285 357 424
#     4  11  22  40  64  99 137 178 226 285 341 426
#     4  12  24  36  66 106 142 178 232 268 366 420
#     4  11  26  49  69  96 137 187 233 291 347 420
#     4  11  28  48  72 102 139 184 244 289 358 429
#
# _framework density 21.698727000000002
#
# number of rings (size 3 to 8) (size 9 to 14) (size 15 to 20)
#    0.000    0.800    7.333    0.000    5.600    1.067 
#    2.400    2.667    0.000    0.000    0.000    0.000 
#    0.000    0.000    0.000    0.000    0.000    0.000 
#
# Total GULP energy -371657.313040 kJ/mol
# GULP energy per Si atom -12388.577101 kJ/mol
# Density = 2.164934 g / cm^3
# Si number density = 21.698727 Si / 1000 Ang^3
#
#
#
# Elastic Constant Matrix: (Units=GPa)
#
#
# Indices 1 2 3 4 5 6 
#
# 1 70.8738 14.6973 22.2633 0.0000 7.4437 0.0000
# 2 14.6973 85.6982 32.2996 0.0000 -4.2482 0.0000
# 3 22.2633 32.2996 143.1411 0.0000 0.4415 0.0000
# 4 0.0000 0.0000 0.0000 37.8012 0.0000 -1.0241
# 5 7.4437 -4.2482 0.4415 0.0000 35.2620 0.0000
# 6 0.0000 0.0000 0.0000 -1.0241 0.0000 11.4588
#
#
#
# Elastic Compliance Matrix: (Units=1/GPa)
#
#
# Indices 1 2 3 4 5 6 
#
# 1 0.015521 -0.002109 -0.001927 0.000000 -0.003506 0.000000
# 2 -0.002109 0.013128 -0.002641 0.000000 0.002060 0.000000
# 3 -0.001927 -0.002641 0.007882 0.000000 -0.000010 0.000000
# 4 0.000000 0.000000 0.000000 0.026518 0.000000 0.002370
# 5 -0.003506 0.002060 -0.000010 0.000000 0.029348 0.000000
# 6 0.000000 0.000000 0.000000 0.002370 0.000000 0.087481
#
#
# Mechanical properties :
#
#
# Convention : Reuss Voigt Hill
#
# Bulk Modulus (GPa) = 43.14772 48.69261 45.92016
# Shear Modulus (GPa) = 24.88092 32.26790 28.57441
#
# Velocity S-wave (km/s) = 3.38990 3.86046 3.63281
# Velocity P-wave (km/s) = 5.93717 6.50845 6.22936
#
# Compressibility (1/GPa) = 0.02317620
#
# Stress axis : x y z
#
# Youngs Moduli (GPa) = 64.43035 76.17339 126.87556
#
# Poissons Ratio (x) = 0.16067 0.24452
# Poissons Ratio (y) = 0.13590 0.33503
# Poissons Ratio (z) = 0.12417 0.20114
#
# Static dielectric constant tensor:
#      x y z
#    x 3.661220 0.000000 0.486420 
#    y 0.000000 4.384950 0.000000 
#    z 0.486420 0.000000 4.649350 
# 
# 
# High freq. dielectric constant tensor:
#      x y z
#    x 1.828820 0.000000 0.015100 
#    y 0.000000 1.859580 0.000000 
#    z 0.015100 0.000000 1.871110 
# 
# From -- ./inp_files/61883.got.cif
#   From: 2010.06.25/outbox.cif.g09.slc.cpg/sg15_31_cif.got.tgz:61883.got - 2010.06.28 07:06:18.
