data_PCOD8148420
_publ_section_title
;
Structure prediction by ZEFSAII (Michael W. Deem and Ramdas Pophale) SiO2 
 PCOD8148420
Probable space group: C 2/C
;
_chemical_formula_sum "Si O2"
_cell_formula_units_Z 40
_cell_length_a 25.744227
_cell_length_b 8.639777
_cell_length_c 17.063090
_cell_angle_alpha 90.000000
_cell_angle_beta 30.667624
_cell_angle_gamma 90.000000
_cell_volume 1935.792265
_symmetry_space_group_name_H-M "C 2/C"
_symmetry_group_IT_number 15
_symmetry_cell_setting 'monoclinic'
loop_
_space_group_symop_operation_xyz
x,y,z
-x,y,1/2-z
-x,-y,-z
x,-y,1/2+z
1/2+x,1/2+y,z
1/2-x,1/2+y,1/2-z
1/2-x,1/2-y,-z
1/2+x,1/2-y,1/2+z
loop_
_atom_site_type_symbol
_atom_site_label
_atom_site_fract_x
_atom_site_fract_y
_atom_site_fract_z
Si Si1 0.062134 0.351894 0.892661
Si Si2 0.652505 0.324449 0.586847
Si Si3 0.557963 0.167040 0.095744
Si Si4 0.445855 0.800825 0.427462
Si Si5 0.725393 0.347762 0.956074
O O1 0.170673 0.406944 0.718418
O O2 0.999885 0.260345 0.905205
O O3 0.074913 0.251185 0.955334
O O4 0.000000 0.500000 0.000000
O O5 0.750000 0.250000 0.500000
O O6 0.644651 0.269256 0.507061
O O7 0.553985 0.270393 0.762610
O O8 0.659490 0.509232 0.573622
O O9 0.500000 0.211298 0.250000
O O10 0.558796 0.983921 0.081608
O O11 0.668454 0.244644 0.963581
O O12 0.750000 0.250000 0.000000
#
# Coordination Sequence:
#
# PCOD8148420 Si02
#       5
#     8   8   8   8   8
#     4  10  23  42  65  95 134 167 214 272 323 377
#     4  11  22  41  66  92 127 172 218 254 324 392
#     4  11  20  41  68  90 132 170 213 269 322 381
#     4  10  23  41  64  95 129 171 209 269 323 378
#     4  12  25  39  69  99 123 177 222 263 324 388
#
# _framework density 20.663374999999998
#
# number of rings (size 3 to 8) (size 9 to 14) (size 15 to 20)
#    0.000    1.200    4.000    3.600    2.800    4.800 
#    0.000    4.000    0.000    0.000    0.000    0.000 
#    0.000    0.000    0.000    0.000    0.000    0.000 
#
# Total GULP energy -247907.759073 kJ/mol
# GULP energy per Si atom -12395.387954 kJ/mol
# Density = 2.061634 g / cm^3
# Si number density = 20.663375 Si / 1000 Ang^3
#
#
#
# Elastic Constant Matrix: (Units=GPa)
#
#
# Indices 1 2 3 4 5 6 
#
# 1 222.5967 52.7829 55.8754 -0.0003 4.0177 -0.0002
# 2 52.7829 107.7544 49.3092 0.0000 -5.8208 0.0015
# 3 55.8754 49.3092 101.9948 -0.0008 -6.1896 0.0004
# 4 -0.0003 0.0000 -0.0008 29.5469 0.0006 -10.2528
# 5 4.0177 -5.8208 -6.1896 0.0006 44.1685 -0.0004
# 6 -0.0002 0.0015 0.0004 -10.2528 -0.0004 31.7964
#
#
#
# Elastic Compliance Matrix: (Units=1/GPa)
#
#
# Indices 1 2 3 4 5 6 
#
# 1 0.005479 -0.001718 -0.002234 0.000000 -0.001038 0.000000
# 2 -0.001718 0.012481 -0.005026 0.000000 0.001097 -0.000001
# 3 -0.002234 -0.005026 0.013546 0.000000 0.001439 0.000000
# 4 0.000000 0.000000 0.000000 0.038109 0.000000 0.012288
# 5 -0.001038 0.001097 0.001439 0.000000 0.023081 0.000000
# 6 0.000000 -0.000001 0.000000 0.012288 0.000000 0.035412
#
#
# Mechanical properties :
#
#
# Convention : Reuss Voigt Hill
#
# Bulk Modulus (GPa) = 73.80384 83.14232 78.47308
# Shear Modulus (GPa) = 33.20459 39.39425 36.29942
#
# Velocity S-wave (km/s) = 4.01300 4.37106 4.19585
# Velocity P-wave (km/s) = 7.56750 8.11165 7.84429
#
# Compressibility (1/GPa) = 0.01354943
#
# Stress axis : x y z
#
# Youngs Moduli (GPa) = 182.50507 80.12093 73.82368
#
# Poissons Ratio (x) = 0.13762 0.16494
# Poissons Ratio (y) = 0.31348 0.37107
# Poissons Ratio (z) = 0.40777 0.40272
#
# Static dielectric constant tensor:
#      x y z
#    x 5.567580 0.000010 0.315130 
#    y 0.000010 3.755660 0.000000 
#    z 0.315130 0.000000 3.904340 
# 
# 
# High freq. dielectric constant tensor:
#      x y z
#    x 1.842060 0.000000 -0.002300 
#    y 0.000000 1.786900 0.000000 
#    z -0.002300 0.000000 1.800950 
# 
# From -- ./inp_files/176319.got.cif
#   From: 2010.06.25/outbox.cif.g09.slc.cpg/sg15_89_cif.got.tgz:176319.got - 2010.06.28 07:06:18.
