data_PCOD8148557
_publ_section_title
;
Structure prediction by ZEFSAII (Michael W. Deem and Ramdas Pophale) SiO2 
 PCOD8148557
Probable space group: C 2/C
;
_chemical_formula_sum "Si O2"
_cell_formula_units_Z 44
_cell_length_a 11.803796
_cell_length_b 14.881505
_cell_length_c 13.759517
_cell_angle_alpha 90.000000
_cell_angle_beta 119.889152
_cell_angle_gamma 90.000000
_cell_volume 2095.493824
_symmetry_space_group_name_H-M "C 2/C"
_symmetry_group_IT_number 15
_symmetry_cell_setting 'monoclinic'
loop_
_space_group_symop_operation_xyz
x,y,z
-x,y,1/2-z
-x,-y,-z
x,-y,1/2+z
1/2+x,1/2+y,z
1/2-x,1/2+y,1/2-z
1/2-x,1/2-y,-z
1/2+x,1/2-y,1/2+z
loop_
_atom_site_type_symbol
_atom_site_label
_atom_site_fract_x
_atom_site_fract_y
_atom_site_fract_z
Si Si1 0.728032 0.877269 0.243136
Si Si2 0.500000 0.105637 0.250000
Si Si3 0.730918 0.008565 0.921412
Si Si4 0.073212 0.261927 0.631089
Si Si5 0.466568 0.907266 0.042851
Si Si6 0.604346 0.602287 0.867937
O O1 0.786589 0.787588 0.317929
O O2 0.572110 0.886955 0.173275
O O3 0.771733 0.880412 0.148724
O O4 0.778707 0.957608 0.335985
O O5 0.400103 0.051225 0.140564
O O6 0.406305 0.165395 0.276379
O O7 0.677399 0.087565 0.969321
O O8 0.853303 0.959592 0.024055
O O9 0.033412 0.315547 0.518575
O O10 0.958337 0.192386 0.613262
O O11 0.500000 0.000000 0.000000
O O12 0.500000 0.555294 0.750000
#
# Coordination Sequence:
#
# PCOD8148557 Si02
#       6
#     8   4   8   8   8   8
#     4  11  22  42  63  96 134 165 215 270 318 386
#     4  12  20  38  64 100 114 168 222 260 312 382
#     4  12  24  40  69  95 129 170 218 264 327 383
#     4  11  24  39  64  95 129 169 214 264 324 377
#     4  12  22  41  65  96 128 171 213 269 320 381
#     4  10  23  42  61  96 133 168 215 263 321 385
#
# _framework density 20.997437000000001
#
# number of rings (size 3 to 8) (size 9 to 14) (size 15 to 20)
#    0.000    0.727    8.182    0.000    2.545    5.091 
#    0.000    1.818    0.000    0.000    0.000    0.000 
#    0.000    0.000    0.000    0.000    0.000    0.000 
#
# Total GULP energy -272559.167111 kJ/mol
# GULP energy per Si atom -12389.053051 kJ/mol
# Density = 2.094965 g / cm^3
# Si number density = 20.997437 Si / 1000 Ang^3
#
#
#
# Elastic Constant Matrix: (Units=GPa)
#
#
# Indices 1 2 3 4 5 6 
#
# 1 53.4150 33.8533 16.1464 0.0000 -4.8223 0.0000
# 2 33.8533 101.8837 65.5772 0.0000 -0.7475 0.0000
# 3 16.1464 65.5772 137.5666 0.0000 6.9903 0.0000
# 4 0.0000 0.0000 0.0000 37.1348 0.0000 -7.2484
# 5 -4.8223 -0.7475 6.9903 0.0000 33.8883 0.0000
# 6 0.0000 0.0000 0.0000 -7.2484 0.0000 34.3921
#
#
#
# Elastic Compliance Matrix: (Units=1/GPa)
#
#
# Indices 1 2 3 4 5 6 
#
# 1 0.024201 -0.008790 0.001197 0.000000 0.003003 0.000000
# 2 -0.008790 0.017452 -0.007320 0.000000 0.000644 0.000000
# 3 0.001197 -0.007320 0.010730 0.000000 -0.002205 0.000000
# 4 0.000000 0.000000 0.000000 0.028084 0.000000 0.005919
# 5 0.003003 0.000644 -0.002205 0.000000 0.030405 0.000000
# 6 0.000000 0.000000 0.000000 0.005919 0.000000 0.030324
#
#
# Mechanical properties :
#
#
# Convention : Reuss Voigt Hill
#
# Bulk Modulus (GPa) = 44.33160 58.22437 51.27798
# Shear Modulus (GPa) = 28.00443 32.90226 30.45335
#
# Velocity S-wave (km/s) = 3.65596 3.96279 3.81246
# Velocity P-wave (km/s) = 6.24340 6.98052 6.62223
#
# Compressibility (1/GPa) = 0.02255728
#
# Stress axis : x y z
#
# Youngs Moduli (GPa) = 41.31983 57.29909 93.19342
#
# Poissons Ratio (x) = 0.50365 -0.11154
# Poissons Ratio (y) = 0.36320 0.68222
# Poissons Ratio (z) = -0.04946 0.41946
#
# Static dielectric constant tensor:
#      x y z
#    x 3.844940 0.000000 -0.147750 
#    y 0.000000 3.805270 0.000000 
#    z -0.147750 0.000000 3.915700 
# 
# 
# High freq. dielectric constant tensor:
#      x y z
#    x 1.810720 0.000000 -0.008390 
#    y 0.000000 1.805970 0.000000 
#    z -0.008390 0.000000 1.836580 
# 
# From -- ./inp_files/143889.got.cif
#   From: 2010.06.25/outbox.cif.g09.slc.cpg/sg15_72_cif.got.tgz:143889.got - 2010.06.28 07:06:18.
