data_PCOD8148952
_publ_section_title
;
Structure prediction by ZEFSAII (Michael W. Deem and Ramdas Pophale) SiO2 
 PCOD8148952
Probable space group: C 2/C
;
_chemical_formula_sum "Si O2"
_cell_formula_units_Z 64
_cell_length_a 14.973117
_cell_length_b 11.470089
_cell_length_c 26.405916
_cell_angle_alpha 90.000000
_cell_angle_beta 44.492238
_cell_angle_gamma 90.000000
_cell_volume 3178.206889
_symmetry_space_group_name_H-M "C 2/C"
_symmetry_group_IT_number 15
_symmetry_cell_setting 'monoclinic'
loop_
_space_group_symop_operation_xyz
x,y,z
-x,y,1/2-z
-x,-y,-z
x,-y,1/2+z
1/2+x,1/2+y,z
1/2-x,1/2+y,1/2-z
1/2-x,1/2-y,-z
1/2+x,1/2-y,1/2+z
loop_
_atom_site_type_symbol
_atom_site_label
_atom_site_fract_x
_atom_site_fract_y
_atom_site_fract_z
Si Si1 0.356130 0.832068 0.932291
Si Si2 0.585576 0.523099 0.168140
Si Si3 0.159513 0.871110 0.932668
Si Si4 0.927388 0.842007 0.177270
Si Si5 0.735886 0.856555 0.343054
Si Si6 0.516310 0.028141 0.551065
Si Si7 0.113477 0.876846 0.417157
Si Si8 0.725706 0.790752 0.953732
O O1 0.282461 0.899414 0.917442
O O2 0.469919 0.760637 0.861040
O O3 0.413538 0.923952 0.948462
O O4 0.250000 0.750000 0.000000
O O5 0.500000 0.567113 0.250000
O O6 0.496610 0.465704 0.160775
O O7 0.684379 0.424912 0.146646
O O8 0.658538 0.631605 0.114205
O O9 0.180031 0.760739 0.888917
O O10 0.134109 0.985147 0.909930
O O11 0.035251 0.844230 0.016787
O O12 0.821661 0.817081 0.261804
O O13 0.854247 0.839294 0.153139
O O14 0.621863 0.940738 0.369194
O O15 0.597226 0.143177 0.516468
O O16 0.500000 0.000000 0.500000
O O17 0.201554 0.812259 0.422848
O O18 0.750000 0.750000 0.000000
#
# Coordination Sequence:
#
# PCOD8148952 Si02
#       8
#     8   8   8   8   8   8   8   8
#     4  12  22  38  66  98 131 172 221 276 330 394
#     4  10  23  43  68  95 131 173 216 274 334 396
#     4  11  23  42  66  94 135 168 219 276 328 399
#     4  11  24  41  69  97 130 173 220 275 339 391
#     4  11  23  44  66 100 129 173 226 274 331 398
#     4  12  23  39  66  97 128 172 225 272 320 393
#     4  11  25  42  63 100 132 174 215 271 339 391
#     4  12  25  43  66  96 132 172 222 266 328 401
#
# _framework density 20.137139999999999
#
# number of rings (size 3 to 8) (size 9 to 14) (size 15 to 20)
#    0.000    0.750    5.000    3.000    3.500    1.000 
#    4.500    0.000    2.750    0.000    0.000    0.000 
#    0.000    0.000    0.000    0.000    0.000    0.000 
#
# Total GULP energy -396765.798528 kJ/mol
# GULP energy per Si atom -12398.931204 kJ/mol
# Density = 2.009131 g / cm^3
# Si number density = 20.137140 Si / 1000 Ang^3
#
#
#
# Elastic Constant Matrix: (Units=GPa)
#
#
# Indices 1 2 3 4 5 6 
#
# 1 141.3741 50.5690 51.9865 0.0000 13.8303 0.0000
# 2 50.5690 102.8462 58.7456 0.0000 4.7098 0.0000
# 3 51.9865 58.7456 121.9942 0.0000 -0.0861 0.0000
# 4 0.0000 0.0000 0.0000 38.0753 0.0000 -5.8329
# 5 13.8303 4.7098 -0.0861 0.0000 31.6025 0.0000
# 6 0.0000 0.0000 0.0000 -5.8329 0.0000 42.5667
#
#
#
# Elastic Compliance Matrix: (Units=1/GPa)
#
#
# Indices 1 2 3 4 5 6 
#
# 1 0.009462 -0.003005 -0.002588 0.000000 -0.003700 0.000000
# 2 -0.003005 0.014496 -0.005701 0.000000 -0.000861 0.000000
# 3 -0.002588 -0.005701 0.012046 0.000000 0.002015 0.000000
# 4 0.000000 0.000000 0.000000 0.026827 0.000000 0.003676
# 5 -0.003700 -0.000861 0.002015 0.000000 0.033396 0.000000
# 6 0.000000 0.000000 0.000000 0.003676 0.000000 0.023996
#
#
# Mechanical properties :
#
#
# Convention : Reuss Voigt Hill
#
# Bulk Modulus (GPa) = 74.52660 76.53519 75.53090
# Shear Modulus (GPa) = 33.94821 36.10980 35.02900
#
# Velocity S-wave (km/s) = 4.11037 4.23921 4.17528
# Velocity P-wave (km/s) = 7.72118 7.87722 7.79959
#
# Compressibility (1/GPa) = 0.01341803
#
# Stress axis : x y z
#
# Youngs Moduli (GPa) = 105.68869 68.98258 83.01193
#
# Poissons Ratio (x) = 0.20728 0.21481
# Poissons Ratio (y) = 0.31757 0.47324
# Poissons Ratio (z) = 0.27349 0.39326
#
# Static dielectric constant tensor:
#      x y z
#    x 2.484910 0.000000 0.917770 
#    y 0.000000 3.679020 0.000000 
#    z 0.917770 0.000000 2.992460 
# 
# 
# High freq. dielectric constant tensor:
#      x y z
#    x 1.799760 0.000000 -0.003770 
#    y 0.000000 1.786800 0.000000 
#    z -0.003770 0.000000 1.784980 
# 
# From -- ./inp_files/296123.got.cif
#   From: 2010.06.25/outbox.cif.g09.slc.cpg/sg15_149_cif.got.tgz:296123.got - 2010.06.28 07:06:18.
