data_PCOD8148650
_publ_section_title
;
Structure prediction by ZEFSAII (Michael W. Deem and Ramdas Pophale) SiO2 
 PCOD8148650
Probable space group: C 2/C
;
_chemical_formula_sum "Si O2"
_cell_formula_units_Z 48
_cell_length_a 20.501303
_cell_length_b 18.641312
_cell_length_c 9.201485
_cell_angle_alpha 90.000000
_cell_angle_beta 140.021372
_cell_angle_gamma 90.000000
_cell_volume 2259.384918
_symmetry_space_group_name_H-M "C 2/C"
_symmetry_group_IT_number 15
_symmetry_cell_setting 'monoclinic'
loop_
_space_group_symop_operation_xyz
x,y,z
-x,y,1/2-z
-x,-y,-z
x,-y,1/2+z
1/2+x,1/2+y,z
1/2-x,1/2+y,1/2-z
1/2-x,1/2-y,-z
1/2+x,1/2-y,1/2+z
loop_
_atom_site_type_symbol
_atom_site_label
_atom_site_fract_x
_atom_site_fract_y
_atom_site_fract_z
Si Si1 0.905334 0.236289 0.494851
Si Si2 0.718174 0.541538 0.514759
Si Si3 0.465322 0.640258 0.357708
Si Si4 0.427190 0.002817 0.741041
Si Si5 0.652703 0.617519 0.882489
Si Si6 0.189741 0.375458 0.074973
O O1 0.930977 0.216158 0.371271
O O2 0.860959 0.166046 0.498797
O O3 0.833819 0.305619 0.368507
O O4 0.000000 0.263481 0.750000
O O5 0.628109 0.585541 0.286133
O O6 0.821389 0.543887 0.593493
O O7 0.682283 0.461341 0.485389
O O8 0.739046 0.573187 0.708522
O O9 0.500000 0.651898 0.250000
O O10 0.554082 0.610683 0.612135
O O11 0.500000 0.044083 0.750000
O O12 0.405236 0.922246 0.643831
O O13 0.500000 0.000000 0.000000
O O14 0.745083 0.652146 0.950337
#
# Coordination Sequence:
#
# PCOD8148650 Si02
#       6
#     8   8   8   8   8   8
#     4  10  24  41  67  94 136 186 226 271 340 410
#     4  11  24  38  70  99 134 176 225 287 335 393
#     4  11  23  43  66  99 141 174 225 280 337 400
#     4  11  23  41  65  95 133 175 229 278 337 394
#     4  10  23  42  66 101 132 181 226 274 345 402
#     4  11  22  42  69  96 136 177 226 284 333 402
#
# _framework density 21.244720000000001
#
# number of rings (size 3 to 8) (size 9 to 14) (size 15 to 20)
#    0.000    1.333    3.333    1.500    4.667    2.667 
#    0.000    0.833    0.000    0.000    0.000    0.000 
#    0.000    0.000    0.000    0.000    0.000    0.000 
#
# Total GULP energy -297461.653728 kJ/mol
# GULP energy per Si atom -12394.235572 kJ/mol
# Density = 2.119637 g / cm^3
# Si number density = 21.244720 Si / 1000 Ang^3
#
#
#
# Elastic Constant Matrix: (Units=GPa)
#
#
# Indices 1 2 3 4 5 6 
#
# 1 135.5690 41.4347 33.6676 0.0000 -0.3726 0.0000
# 2 41.4347 113.2924 48.9249 0.0000 -1.6812 0.0000
# 3 33.6676 48.9249 66.1653 0.0000 4.0008 0.0000
# 4 0.0000 0.0000 0.0000 18.4562 0.0000 1.9376
# 5 -0.3726 -1.6812 4.0008 0.0000 34.4846 0.0000
# 6 0.0000 0.0000 0.0000 1.9376 0.0000 25.7272
#
#
#
# Elastic Compliance Matrix: (Units=1/GPa)
#
#
# Indices 1 2 3 4 5 6 
#
# 1 0.008708 -0.001846 -0.003088 0.000000 0.000362 0.000000
# 2 -0.001846 0.013465 -0.009120 0.000000 0.001695 0.000000
# 3 -0.003088 -0.009120 0.023623 0.000000 -0.003219 0.000000
# 4 0.000000 0.000000 0.000000 0.054614 0.000000 -0.004113
# 5 0.000362 0.001695 -0.003219 0.000000 0.029458 0.000000
# 6 0.000000 0.000000 0.000000 -0.004113 0.000000 0.039179
#
#
# Mechanical properties :
#
#
# Convention : Reuss Voigt Hill
#
# Bulk Modulus (GPa) = 56.53237 62.56455 59.54846
# Shear Modulus (GPa) = 24.62409 28.46690 26.54549
#
# Velocity S-wave (km/s) = 3.40820 3.66451 3.53868
# Velocity P-wave (km/s) = 6.49274 6.88609 6.69230
#
# Compressibility (1/GPa) = 0.01768898
#
# Stress axis : x y z
#
# Youngs Moduli (GPa) = 114.83129 74.26428 42.33115
#
# Poissons Ratio (x) = 0.13709 0.13072
# Poissons Ratio (y) = 0.21198 0.38606
# Poissons Ratio (z) = 0.35461 0.67729
#
# Static dielectric constant tensor:
#      x y z
#    x 4.186430 0.000000 0.164770 
#    y 0.000000 3.711060 0.000000 
#    z 0.164770 0.000000 3.866240 
# 
# 
# High freq. dielectric constant tensor:
#      x y z
#    x 1.852990 0.000000 0.007260 
#    y 0.000000 1.812310 0.000000 
#    z 0.007260 0.000000 1.837990 
# 
# From -- ./inp_files/57963.got.cif
#   From: 2010.06.25/outbox.cif.g09.slc.cpg/sg15_29_cif.got.tgz:57963.got - 2010.06.28 07:06:18.
