data_PCOD8148651
_publ_section_title
;
Structure prediction by ZEFSAII (Michael W. Deem and Ramdas Pophale) SiO2 
 PCOD8148651
Probable space group: C 2/C
;
_chemical_formula_sum "Si O2"
_cell_formula_units_Z 56
_cell_length_a 14.330644
_cell_length_b 19.228253
_cell_length_c 13.608828
_cell_angle_alpha 90.000000
_cell_angle_beta 138.951421
_cell_angle_gamma 90.000000
_cell_volume 2462.591671
_symmetry_space_group_name_H-M "C 2/C"
_symmetry_group_IT_number 15
_symmetry_cell_setting 'monoclinic'
loop_
_space_group_symop_operation_xyz
x,y,z
-x,y,1/2-z
-x,-y,-z
x,-y,1/2+z
1/2+x,1/2+y,z
1/2-x,1/2+y,1/2-z
1/2-x,1/2-y,-z
1/2+x,1/2-y,1/2+z
loop_
_atom_site_type_symbol
_atom_site_label
_atom_site_fract_x
_atom_site_fract_y
_atom_site_fract_z
Si Si1 0.000000 0.142611 0.750000
Si Si2 0.500000 0.024524 0.250000
Si Si3 0.293416 0.420773 0.932482
Si Si4 0.839420 0.807150 0.301194
Si Si5 0.646690 0.575694 0.536633
Si Si6 0.369079 0.899054 0.049833
Si Si7 0.862962 0.869033 0.784769
Si Si8 0.467498 0.225695 0.901466
O O1 0.083383 0.193216 0.742194
O O2 0.884908 0.095003 0.602203
O O3 0.455350 0.971987 0.125033
O O4 0.373628 0.077269 0.175621
O O5 0.326331 0.365553 0.872704
O O6 0.329469 0.496240 0.917602
O O7 0.865382 0.881875 0.371907
O O8 0.671428 0.799175 0.149270
O O9 0.905359 0.746207 0.422513
O O10 0.770856 0.608648 0.568204
O O11 0.494373 0.580935 0.362004
O O12 0.478015 0.834414 0.129180
O O13 0.273393 0.899486 0.877388
O O14 0.914311 0.791613 0.794509
#
# Coordination Sequence:
#
# PCOD8148651 Si02
#       8
#     4   4   8   8   8   8   8   8
#     4  12  26  44  69  97 132 186 224 282 340 392
#     4  10  26  44  65 105 134 182 228 276 340 412
#     4  11  24  44  68  98 139 174 234 279 337 403
#     4  11  25  44  67  99 134 179 228 279 338 393
#     4  10  23  42  66 102 134 172 226 280 335 410
#     4  11  23  43  68  97 142 176 220 275 350 400
#     4  11  23  40  67 101 129 183 221 277 336 401
#     4  11  22  45  63  99 136 173 223 275 330 409
#
# _framework density 22.740269000000001
#
# number of rings (size 3 to 8) (size 9 to 14) (size 15 to 20)
#    0.000    1.143    4.286    2.571    4.000    4.571 
#   10.286    0.000    0.000    0.000    0.000    0.000 
#    0.000    0.000    0.000    0.000    0.000    0.000 
#
# Total GULP energy -347156.770936 kJ/mol
# GULP energy per Si atom -12398.456105 kJ/mol
# Density = 2.268851 g / cm^3
# Si number density = 22.740269 Si / 1000 Ang^3
#
#
#
# Elastic Constant Matrix: (Units=GPa)
#
#
# Indices 1 2 3 4 5 6 
#
# 1 95.4697 14.6810 29.1269 0.0000 15.6120 0.0000
# 2 14.6810 43.3510 3.4074 0.0000 9.7886 0.0000
# 3 29.1269 3.4074 126.3208 0.0000 19.2727 0.0000
# 4 0.0000 0.0000 0.0000 21.2610 0.0000 10.4268
# 5 15.6120 9.7886 19.2727 0.0000 45.4018 0.0000
# 6 0.0000 0.0000 0.0000 10.4268 0.0000 29.8318
#
#
#
# Elastic Compliance Matrix: (Units=1/GPa)
#
#
# Indices 1 2 3 4 5 6 
#
# 1 0.012102 -0.003362 -0.002326 0.000000 -0.002449 0.000000
# 2 -0.003362 0.025185 0.000800 0.000000 -0.004613 0.000000
# 3 -0.002326 0.000800 0.008913 0.000000 -0.003156 0.000000
# 4 0.000000 0.000000 0.000000 0.056764 0.000000 -0.019840
# 5 -0.002449 -0.004613 -0.003156 0.000000 0.025202 0.000000
# 6 0.000000 0.000000 0.000000 -0.019840 0.000000 0.040456
#
#
# Mechanical properties :
#
#
# Convention : Reuss Voigt Hill
#
# Bulk Modulus (GPa) = 27.45604 39.95244 33.70424
# Shear Modulus (GPa) = 26.24125 33.82735 30.03430
#
# Velocity S-wave (km/s) = 3.40068 3.86107 3.63816
# Velocity P-wave (km/s) = 5.24590 6.12244 5.70104
#
# Compressibility (1/GPa) = 0.03642185
#
# Stress axis : x y z
#
# Youngs Moduli (GPa) = 82.63273 39.70619 112.20049
#
# Poissons Ratio (x) = 0.13351 0.26099
# Poissons Ratio (y) = 0.27785 -0.08974
# Poissons Ratio (z) = 0.19221 -0.03176
#
# Static dielectric constant tensor:
#      x y z
#    x 4.033940 0.000000 0.410340 
#    y 0.000000 3.905140 0.000000 
#    z 0.410340 0.000000 4.282720 
# 
# 
# High freq. dielectric constant tensor:
#      x y z
#    x 1.893860 0.000000 0.029740 
#    y 0.000000 1.883220 0.000000 
#    z 0.029740 0.000000 1.907700 
# 
# From -- ./inp_files/156252.got.cif
#   From: 2010.06.25/outbox.cif.g09.slc.cpg/sg15_79_cif.got.tgz:156252.got - 2010.06.28 07:06:18.
