data_PCOD8148517
_publ_section_title
;
Structure prediction by ZEFSAII (Michael W. Deem and Ramdas Pophale) SiO2 
 PCOD8148517
Probable space group: C 2/C
;
_chemical_formula_sum "Si O2"
_cell_formula_units_Z 44
_cell_length_a 9.483307
_cell_length_b 31.164840
_cell_length_c 9.552242
_cell_angle_alpha 90.000000
_cell_angle_beta 129.943060
_cell_angle_gamma 90.000000
_cell_volume 2164.441154
_symmetry_space_group_name_H-M "C 2/C"
_symmetry_group_IT_number 15
_symmetry_cell_setting 'monoclinic'
loop_
_space_group_symop_operation_xyz
x,y,z
-x,y,1/2-z
-x,-y,-z
x,-y,1/2+z
1/2+x,1/2+y,z
1/2-x,1/2+y,1/2-z
1/2-x,1/2-y,-z
1/2+x,1/2-y,1/2+z
loop_
_atom_site_type_symbol
_atom_site_label
_atom_site_fract_x
_atom_site_fract_y
_atom_site_fract_z
Si Si1 0.610357 0.802506 0.532495
Si Si2 0.306027 0.574950 0.786523
Si Si3 0.500000 0.165291 0.250000
Si Si4 0.500000 0.873918 0.250000
Si Si5 0.000000 0.231452 0.250000
Si Si6 0.276470 0.409220 0.947771
Si Si7 0.871429 0.492820 0.786741
O O1 0.510949 0.804537 0.620359
O O2 0.565006 0.845577 0.421101
O O3 0.830310 0.799010 0.680924
O O4 0.532851 0.760420 0.407414
O O5 0.236468 0.579109 0.582772
O O6 0.307748 0.523685 0.817616
O O7 0.169635 0.597808 0.806540
O O8 0.506322 0.594769 0.939650
O O9 0.316298 0.136418 0.140320
O O10 0.189557 0.444053 0.785382
O O11 0.000000 0.511788 0.750000
O O12 0.000000 0.500000 0.000000
#
# Coordination Sequence:
#
# PCOD8148517 Si02
#       7
#     8   8   4   4   4   8   8
#     4  10  23  41  69  93 133 161 209 255 318 386
#     4  11  23  40  62  91 128 173 221 266 323 373
#     4  12  22  41  64 103 130 166 204 269 324 373
#     4  11  22  41  64 100 120 170 210 270 318 373
#     4   9  22  48  66  95 128 170 204 255 304 400
#     4  11  24  41  60  93 133 170 214 274 320 376
#     4  12  22  40  63  84 126 177 220 267 316 369
#
# _framework density 20.328572000000001
#
# number of rings (size 3 to 8) (size 9 to 14) (size 15 to 20)
#    0.000    1.091    5.455    0.545    2.545    0.727 
#    0.000    1.818    0.000    0.000    0.000    0.000 
#    0.000    0.000    0.000    0.000    0.000    0.000 
#
# Total GULP energy -272752.309409 kJ/mol
# GULP energy per Si atom -12397.832246 kJ/mol
# Density = 2.028230 g / cm^3
# Si number density = 20.328572 Si / 1000 Ang^3
#
#
#
# Elastic Constant Matrix: (Units=GPa)
#
#
# Indices 1 2 3 4 5 6 
#
# 1 130.2876 40.4449 54.6590 0.0000 -5.9353 0.0000
# 2 40.4449 69.7828 28.8822 0.0000 -2.7010 0.0000
# 3 54.6590 28.8822 113.0692 0.0000 -7.6305 0.0000
# 4 0.0000 0.0000 0.0000 12.1543 0.0000 -4.8326
# 5 -5.9353 -2.7010 -7.6305 0.0000 43.7009 0.0000
# 6 0.0000 0.0000 0.0000 -4.8326 0.0000 32.7260
#
#
#
# Elastic Compliance Matrix: (Units=1/GPa)
#
#
# Indices 1 2 3 4 5 6 
#
# 1 0.010806 -0.004580 -0.004021 0.000000 0.000482 0.000000
# 2 -0.004580 0.017969 -0.002371 0.000000 0.000075 0.000000
# 3 -0.004021 -0.002371 0.011482 0.000000 0.001312 0.000000
# 4 0.000000 0.000000 0.000000 0.087408 0.000000 0.012907
# 5 0.000482 0.000075 0.001312 0.000000 0.023182 0.000000
# 6 0.000000 0.000000 0.000000 0.012907 0.000000 0.032463
#
#
# Mechanical properties :
#
#
# Convention : Reuss Voigt Hill
#
# Bulk Modulus (GPa) = 54.60660 62.34576 58.47618
# Shear Modulus (GPa) = 23.65649 30.32645 26.99147
#
# Velocity S-wave (km/s) = 3.41502 3.86659 3.64780
# Velocity P-wave (km/s) = 6.51691 7.11826 6.82421
#
# Compressibility (1/GPa) = 0.01831281
#
# Stress axis : x y z
#
# Youngs Moduli (GPa) = 92.54008 55.65197 87.09074
#
# Poissons Ratio (x) = 0.25489 0.35022
# Poissons Ratio (y) = 0.42383 0.20648
# Poissons Ratio (z) = 0.37214 0.13194
#
# Static dielectric constant tensor:
#      x y z
#    x 3.792990 0.000000 -0.011310 
#    y 0.000000 3.578560 0.000000 
#    z -0.011310 0.000000 3.732080 
# 
# 
# High freq. dielectric constant tensor:
#      x y z
#    x 1.802840 0.000000 -0.002230 
#    y 0.000000 1.786930 0.000000 
#    z -0.002230 0.000000 1.801450 
# 
# From -- ./inp_files/26017.got.cif
#   From: 2010.06.25/outbox.cif.g09.slc.cpg/sg15_14_cif.got.tgz:26017.got - 2010.06.28 07:06:18.
