data_PCOD8148512
_publ_section_title
;
Structure prediction by ZEFSAII (Michael W. Deem and Ramdas Pophale) SiO2 
 PCOD8148512
Probable space group: C 2/C
;
_chemical_formula_sum "Si O2"
_cell_formula_units_Z 60
_cell_length_a 22.151601
_cell_length_b 8.161600
_cell_length_c 15.672040
_cell_angle_alpha 90.000000
_cell_angle_beta 61.280305
_cell_angle_gamma 90.000000
_cell_volume 2484.827022
_symmetry_space_group_name_H-M "C 2/C"
_symmetry_group_IT_number 15
_symmetry_cell_setting 'monoclinic'
loop_
_space_group_symop_operation_xyz
x,y,z
-x,y,1/2-z
-x,-y,-z
x,-y,1/2+z
1/2+x,1/2+y,z
1/2-x,1/2+y,1/2-z
1/2-x,1/2-y,-z
1/2+x,1/2-y,1/2+z
loop_
_atom_site_type_symbol
_atom_site_label
_atom_site_fract_x
_atom_site_fract_y
_atom_site_fract_z
Si Si1 0.765694 0.403847 0.376657
Si Si2 0.133722 0.330299 0.736651
Si Si3 0.791374 0.965105 0.255020
Si Si4 0.000000 0.242348 0.750000
Si Si5 0.354777 0.272989 0.939753
Si Si6 0.355705 0.979026 0.588762
Si Si7 0.096823 0.836165 0.908049
Si Si8 0.473726 0.470328 0.898354
O O1 0.799095 0.584266 0.349494
O O2 0.740374 0.351120 0.299612
O O3 0.702146 0.399021 0.484668
O O4 0.827088 0.286526 0.367114
O O5 0.153545 0.139066 0.728867
O O6 0.116056 0.401007 0.842453
O O7 0.068393 0.352620 0.717206
O O8 0.727820 0.019873 0.357209
O O9 0.830674 0.117915 0.185098
O O10 0.000153 0.133380 0.835095
O O11 0.374564 0.128531 0.993282
O O12 0.423985 0.369531 0.869001
O O13 0.392048 0.157511 0.557058
O O14 0.034414 0.844407 0.882608
O O15 0.075142 0.976082 0.990058
#
# Coordination Sequence:
#
# PCOD8148512 Si02
#       8
#     8   8   8   4   8   8   8   8
#     4  10  23  41  69 102 137 174 224 294 344 407
#     4  11  24  44  71  98 140 179 232 283 347 418
#     4  11  21  46  70 103 136 180 227 278 349 416
#     4  12  28  46  68 100 134 190 234 296 338 412
#     4  11  24  45  68 104 141 175 231 289 350 405
#     4  11  24  40  76 104 139 178 227 290 343 421
#     4  11  24  44  71 101 135 189 231 274 349 410
#     4  11  26  47  68  92 144 185 234 280 342 418
#
# _framework density 24.146550000000001
#
# number of rings (size 3 to 8) (size 9 to 14) (size 15 to 20)
#    0.000    1.067    4.000    1.600    5.600    5.867 
#    0.000    2.000    0.000    0.000    0.000    0.000 
#    0.000    0.000    0.000    0.000    0.000    0.000 
#
# Total GULP energy -371944.119136 kJ/mol
# GULP energy per Si atom -12398.137305 kJ/mol
# Density = 2.409159 g / cm^3
# Si number density = 24.146550 Si / 1000 Ang^3
#
#
#
# Elastic Constant Matrix: (Units=GPa)
#
#
# Indices 1 2 3 4 5 6 
#
# 1 153.3287 28.3294 9.4639 0.0000 -8.3879 0.0000
# 2 28.3294 74.9974 8.6774 -0.0001 -12.1965 -0.0005
# 3 9.4639 8.6774 34.3787 0.0000 -4.3126 -0.0001
# 4 0.0000 -0.0001 0.0000 22.0779 0.0000 1.1103
# 5 -8.3879 -12.1965 -4.3126 0.0000 27.7647 0.0000
# 6 0.0000 -0.0005 -0.0001 1.1103 0.0000 41.8307
#
#
#
# Elastic Compliance Matrix: (Units=1/GPa)
#
#
# Indices 1 2 3 4 5 6 
#
# 1 0.007089 -0.002388 -0.001236 0.000000 0.000900 0.000000
# 2 -0.002388 0.015451 -0.002531 0.000000 0.005673 0.000000
# 3 -0.001236 -0.002531 0.030474 0.000000 0.003248 0.000000
# 4 0.000000 0.000000 0.000000 0.045355 0.000000 -0.001204
# 5 0.000900 0.005673 0.003248 0.000000 0.039285 0.000000
# 6 0.000000 0.000000 0.000000 -0.001204 0.000000 0.023938
#
#
# Mechanical properties :
#
#
# Convention : Reuss Voigt Hill
#
# Bulk Modulus (GPa) = 24.56726 39.51624 32.04175
# Shear Modulus (GPa) = 26.67093 32.75029 29.71061
#
# Velocity S-wave (km/s) = 3.32707 3.68681 3.51155
# Velocity P-wave (km/s) = 4.99555 5.87572 5.45342
#
# Compressibility (1/GPa) = 0.04070459
#
# Stress axis : x y z
#
# Youngs Moduli (GPa) = 141.06898 64.71941 32.81465
#
# Poissons Ratio (x) = 0.15457 0.04055
# Poissons Ratio (y) = 0.33691 0.08305
# Poissons Ratio (z) = 0.17431 0.16380
#
# Static dielectric constant tensor:
#      x y z
#    x 4.559460 0.000000 -0.009880 
#    y 0.000000 4.135050 0.000000 
#    z -0.009880 0.000000 4.019220 
# 
# 
# High freq. dielectric constant tensor:
#      x y z
#    x 1.977460 0.000000 -0.004980 
#    y 0.000000 1.948530 0.000000 
#    z -0.004980 0.000000 1.935240 
# 
# From -- ./inp_files/214275.got.cif
#   From: 2010.06.25/outbox.cif.g09.slc.cpg/sg15_108_cif.got.tgz:214275.got - 2010.06.28 07:06:18.
