data_PCOD8148791
_publ_section_title
;
Structure prediction by ZEFSAII (Michael W. Deem and Ramdas Pophale) SiO2 
 PCOD8148791
Probable space group: C 2/C
;
_chemical_formula_sum "Si O2"
_cell_formula_units_Z 32
_cell_length_a 5.715085
_cell_length_b 27.147187
_cell_length_c 9.795363
_cell_angle_alpha 90.000000
_cell_angle_beta 74.817712
_cell_angle_gamma 90.000000
_cell_volume 1466.693117
_symmetry_space_group_name_H-M "C 2/C"
_symmetry_group_IT_number 15
_symmetry_cell_setting 'monoclinic'
loop_
_space_group_symop_operation_xyz
x,y,z
-x,y,1/2-z
-x,-y,-z
x,-y,1/2+z
1/2+x,1/2+y,z
1/2-x,1/2+y,1/2-z
1/2-x,1/2-y,-z
1/2+x,1/2-y,1/2+z
loop_
_atom_site_type_symbol
_atom_site_label
_atom_site_fract_x
_atom_site_fract_y
_atom_site_fract_z
Si Si1 0.501398 0.232821 0.100166
Si Si2 0.276171 0.470036 0.671933
Si Si3 0.191591 0.672463 0.606043
Si Si4 0.440178 0.425578 0.104970
O O1 0.500000 0.209138 0.250000
O O2 0.336816 0.280927 0.139504
O O3 0.411951 0.187857 0.023435
O O4 0.750000 0.250000 0.000000
O O5 0.500000 0.462286 0.750000
O O6 0.331589 0.440400 0.524302
O O7 0.258231 0.527960 0.637464
O O8 0.000000 0.453409 0.750000
O O9 0.337156 0.623186 0.550095
O O10 0.000000 0.658085 0.750000
O O11 0.500000 0.410064 0.250000
#
# Coordination Sequence:
#
# PCOD8148791 Si02
#       4
#     8   8   8   8
#     4  11  23  44  66  94 135 173 214 289 349 408
#     4  10  23  46  70 103 148 185 230 296 354 408
#     4  11  23  40  68  97 128 175 234 274 341 424
#     4  10  23  42  71  99 134 185 234 282 345 425
#
# _framework density 21.817786999999999
#
# number of rings (size 3 to 8) (size 9 to 14) (size 15 to 20)
#    0.000    1.500    2.500    1.500    0.000   11.000 
#    4.500    0.000    0.000    0.000    0.000    0.000 
#    0.000    0.000    0.000    0.000    0.000    0.000 
#
# Total GULP energy -198235.854358 kJ/mol
# GULP energy per Si atom -12389.740897 kJ/mol
# Density = 2.176813 g / cm^3
# Si number density = 21.817787 Si / 1000 Ang^3
#
#
#
# Elastic Constant Matrix: (Units=GPa)
#
#
# Indices 1 2 3 4 5 6 
#
# 1 116.0983 41.1544 68.8760 0.0000 -0.1459 0.0000
# 2 41.1544 128.2209 58.0879 0.0000 14.3394 0.0000
# 3 68.8760 58.0879 177.9638 0.0000 4.4759 0.0000
# 4 0.0000 0.0000 0.0000 7.9960 0.0000 0.1652
# 5 -0.1459 14.3394 4.4759 0.0000 39.6877 0.0000
# 6 0.0000 0.0000 0.0000 0.1652 0.0000 19.6064
#
#
#
# Elastic Compliance Matrix: (Units=1/GPa)
#
#
# Indices 1 2 3 4 5 6 
#
# 1 0.011653 -0.002139 -0.003843 0.000000 0.001249 0.000000
# 2 -0.002139 0.009910 -0.002323 0.000000 -0.003326 0.000000
# 3 -0.003843 -0.002323 0.007866 0.000000 -0.000062 0.000000
# 4 0.000000 0.000000 0.000000 0.125085 0.000000 -0.001054
# 5 0.001249 -0.003326 -0.000062 0.000000 0.026410 0.000000
# 6 0.000000 0.000000 0.000000 -0.001054 0.000000 0.051013
#
#
# Mechanical properties :
#
#
# Convention : Reuss Voigt Hill
#
# Bulk Modulus (GPa) = 78.00985 84.27997 81.14491
# Shear Modulus (GPa) = 19.77685 30.40232 25.08958
#
# Velocity S-wave (km/s) = 3.01401 3.73696 3.39479
# Velocity P-wave (km/s) = 6.92424 7.57184 7.25527
#
# Compressibility (1/GPa) = 0.01281889
#
# Stress axis : x y z
#
# Youngs Moduli (GPa) = 85.81316 100.90804 127.12212
#
# Poissons Ratio (x) = 0.21582 0.48858
# Poissons Ratio (y) = 0.18354 0.29533
# Poissons Ratio (z) = 0.32981 0.23443
#
# Static dielectric constant tensor:
#      x y z
#    x 3.978890 0.000000 0.084400 
#    y 0.000000 3.730410 0.000000 
#    z 0.084400 0.000000 4.145410 
# 
# 
# High freq. dielectric constant tensor:
#      x y z
#    x 1.844610 0.000000 -0.002860 
#    y 0.000000 1.859400 0.000000 
#    z -0.002860 0.000000 1.878570 
# 
# From -- ./inp_files/20138.got.cif
#   From: 2010.06.25/outbox.cif.g09.slc.cpg/sg15_11_cif.got.tgz:20138.got - 2010.06.28 07:06:18.
