data_PCOD8148383
_publ_section_title
;
Structure prediction by ZEFSAII (Michael W. Deem and Ramdas Pophale) SiO2 
 PCOD8148383
Probable space group: C 2/C
;
_chemical_formula_sum "Si O2"
_cell_formula_units_Z 64
_cell_length_a 21.838184
_cell_length_b 11.997501
_cell_length_c 12.038614
_cell_angle_alpha 90.000000
_cell_angle_beta 77.593339
_cell_angle_gamma 90.000000
_cell_volume 3080.502477
_symmetry_space_group_name_H-M "C 2/C"
_symmetry_group_IT_number 15
_symmetry_cell_setting 'monoclinic'
loop_
_space_group_symop_operation_xyz
x,y,z
-x,y,1/2-z
-x,-y,-z
x,-y,1/2+z
1/2+x,1/2+y,z
1/2-x,1/2+y,1/2-z
1/2-x,1/2-y,-z
1/2+x,1/2-y,1/2+z
loop_
_atom_site_type_symbol
_atom_site_label
_atom_site_fract_x
_atom_site_fract_y
_atom_site_fract_z
Si Si1 0.507456 0.602153 0.579634
Si Si2 0.794470 0.854252 0.470179
Si Si3 0.711670 0.992456 0.864488
Si Si4 0.868154 0.650257 0.743043
Si Si5 0.101604 0.088944 0.727207
Si Si6 0.032817 0.660608 0.980567
Si Si7 0.677809 0.615844 0.288954
Si Si8 0.091785 0.552370 0.540618
O O1 0.500000 0.500000 0.500000
O O2 0.553595 0.548562 0.651947
O O3 0.441041 0.644310 0.659100
O O4 0.539838 0.711784 0.515447
O O5 0.750000 0.750000 0.500000
O O6 0.753417 0.961167 0.450491
O O7 0.846647 0.831512 0.353034
O O8 0.827468 0.874315 0.575741
O O9 0.691396 0.093573 0.792753
O O10 0.750509 0.903484 0.777002
O O11 0.650150 0.933175 0.935253
O O12 0.931384 0.643039 0.648126
O O13 0.848161 0.777715 0.767029
O O14 0.884283 0.588155 0.849398
O O15 0.134923 0.985196 0.769581
O O16 0.960379 0.634261 0.988112
O O17 0.064583 0.574767 0.056739
#
# Coordination Sequence:
#
# PCOD8148383 Si02
#       8
#     8   8   8   8   8   8   8   8
#     4  11  23  43  67  96 133 166 213 271 323 390
#     4  11  21  40  65  89 127 172 208 261 318 384
#     4  10  23  41  62  98 123 165 217 257 323 378
#     4  11  21  41  66  90 125 174 210 261 325 378
#     4  10  24  40  60 101 124 166 218 258 327 388
#     4  10  23  43  64  95 127 170 214 261 328 380
#     4  11  23  41  66  91 131 169 213 266 314 393
#     4  10  23  42  63  94 129 163 217 266 313 381
#
# _framework density 20.775831
#
# number of rings (size 3 to 8) (size 9 to 14) (size 15 to 20)
#    0.000    1.500    1.250    3.375    3.500    1.500 
#   13.500    0.000    0.000    0.000    0.000    0.000 
#    0.000    0.000    0.000    0.000    0.000    0.000 
#
# Total GULP energy -396716.899333 kJ/mol
# GULP energy per Si atom -12397.403104 kJ/mol
# Density = 2.072854 g / cm^3
# Si number density = 20.775831 Si / 1000 Ang^3
#
#
#
# Elastic Constant Matrix: (Units=GPa)
#
#
# Indices 1 2 3 4 5 6 
#
# 1 101.1899 17.8867 35.9363 0.0000 -10.7553 0.0000
# 2 17.8867 76.9363 36.3129 0.0000 6.6968 0.0000
# 3 35.9363 36.3129 99.8205 0.0000 -1.5086 0.0000
# 4 0.0000 0.0000 0.0000 25.5424 0.0000 1.5716
# 5 -10.7553 6.6968 -1.5086 0.0000 42.6761 0.0000
# 6 0.0000 0.0000 0.0000 1.5716 0.0000 33.4123
#
#
#
# Elastic Compliance Matrix: (Units=1/GPa)
#
#
# Indices 1 2 3 4 5 6 
#
# 1 0.011748 -0.001231 -0.003736 0.000000 0.003022 0.000000
# 2 -0.001231 0.016130 -0.005471 0.000000 -0.003035 0.000000
# 3 -0.003736 -0.005471 0.013359 0.000000 0.000389 0.000000
# 4 0.000000 0.000000 0.000000 0.039264 0.000000 -0.001847
# 5 0.003022 -0.003035 0.000389 0.000000 0.024684 0.000000
# 6 0.000000 0.000000 0.000000 -0.001847 0.000000 0.030016
#
#
# Mechanical properties :
#
#
# Convention : Reuss Voigt Hill
#
# Bulk Modulus (GPa) = 49.11078 50.91317 50.01197
# Shear Modulus (GPa) = 30.70058 32.84686 31.77372
#
# Velocity S-wave (km/s) = 3.84827 3.98051 3.91495
# Velocity P-wave (km/s) = 6.59054 6.75908 6.67534
#
# Compressibility (1/GPa) = 0.02036213
#
# Stress axis : x y z
#
# Youngs Moduli (GPa) = 85.12127 61.99580 74.85645
#
# Poissons Ratio (x) = 0.07632 0.27966
# Poissons Ratio (y) = 0.10478 0.40951
# Poissons Ratio (z) = 0.31800 0.33915
#
# Static dielectric constant tensor:
#      x y z
#    x 3.588890 0.000000 -1.262810 
#    y 0.000000 3.835700 0.000000 
#    z -1.262810 0.000000 1.623660 
# 
# 
# High freq. dielectric constant tensor:
#      x y z
#    x 1.838210 0.000000 -0.007770 
#    y 0.000000 1.795970 0.000000 
#    z -0.007770 0.000000 1.815920 
# 
# From -- ./inp_files/117564.got.cif
#   From: 2010.06.25/outbox.cif.g09.slc.cpg/sg15_59_cif.got.tgz:117564.got - 2010.06.28 07:06:18.
