data_PCOD8148397
_publ_section_title
;
Structure prediction by ZEFSAII (Michael W. Deem and Ramdas Pophale) SiO2 
 PCOD8148397
Probable space group: C 2/C
;
_chemical_formula_sum "Si O2"
_cell_formula_units_Z 32
_cell_length_a 8.814799
_cell_length_b 20.104502
_cell_length_c 10.339246
_cell_angle_alpha 90.000000
_cell_angle_beta 50.133004
_cell_angle_gamma 90.000000
_cell_volume 1406.347087
_symmetry_space_group_name_H-M "C 2/C"
_symmetry_group_IT_number 15
_symmetry_cell_setting 'monoclinic'
loop_
_space_group_symop_operation_xyz
x,y,z
-x,y,1/2-z
-x,-y,-z
x,-y,1/2+z
1/2+x,1/2+y,z
1/2-x,1/2+y,1/2-z
1/2-x,1/2-y,-z
1/2+x,1/2-y,1/2+z
loop_
_atom_site_type_symbol
_atom_site_label
_atom_site_fract_x
_atom_site_fract_y
_atom_site_fract_z
Si Si1 0.303351 0.537383 0.781503
Si Si2 0.329073 0.701680 0.239568
Si Si3 0.570291 0.673343 0.860102
Si Si4 0.437738 0.085834 0.145864
O O1 0.500000 0.515096 0.750000
O O2 0.352434 0.598134 0.657575
O O3 0.220077 0.474166 0.749714
O O4 0.135278 0.562532 0.969511
O O5 0.500000 0.694837 0.250000
O O6 0.245982 0.775834 0.292829
O O7 0.161940 0.648228 0.372832
O O8 0.394740 0.686403 0.056820
O O9 0.500000 0.680424 0.750000
O O10 0.500000 0.113124 0.250000
#
# Coordination Sequence:
#
# PCOD8148397 Si02
#       4
#     8   8   8   8
#     4  10  23  41  63  92 124 163 211 262 313 371
#     4  12  25  41  65  96 131 166 210 262 315 374
#     4  11  23  42  66  91 127 169 212 258 312 376
#     4  11  23  40  64  92 127 168 211 258 314 376
#
# _framework density 22.753983999999999
#
# number of rings (size 3 to 8) (size 9 to 14) (size 15 to 20)
#    0.000    1.000    0.000    7.500    0.000    9.000 
#    0.000    0.000    0.000    0.000    0.000    0.000 
#    0.000    0.000    0.000    0.000    0.000    0.000 
#
# Total GULP energy -198434.133096 kJ/mol
# GULP energy per Si atom -12402.133318 kJ/mol
# Density = 2.270220 g / cm^3
# Si number density = 22.753984 Si / 1000 Ang^3
#
#
#
# Elastic Constant Matrix: (Units=GPa)
#
#
# Indices 1 2 3 4 5 6 
#
# 1 126.7533 27.1947 20.3300 0.0000 -16.6373 0.0000
# 2 27.1947 85.5293 -0.2264 0.0000 -15.4438 0.0000
# 3 20.3300 -0.2264 76.7655 0.0000 -10.9305 0.0000
# 4 0.0000 0.0000 0.0000 18.0725 0.0000 -20.0711
# 5 -16.6373 -15.4438 -10.9305 0.0000 37.2777 0.0000
# 6 0.0000 0.0000 0.0000 -20.0711 0.0000 35.5489
#
#
#
# Elastic Compliance Matrix: (Units=1/GPa)
#
#
# Indices 1 2 3 4 5 6 
#
# 1 0.009064 -0.002449 -0.002062 0.000000 0.002426 0.000000
# 2 -0.002449 0.013348 0.001377 0.000000 0.004841 0.000000
# 3 -0.002062 0.001377 0.014116 0.000000 0.003789 0.000000
# 4 0.000000 0.000000 0.000000 0.148363 0.000000 0.083767
# 5 0.002426 0.004841 0.003789 0.000000 0.031025 0.000000
# 6 0.000000 0.000000 0.000000 0.083767 0.000000 0.075426
#
#
# Mechanical properties :
#
#
# Convention : Reuss Voigt Hill
#
# Bulk Modulus (GPa) = 33.04661 42.62716 37.83689
# Shear Modulus (GPa) = 16.24970 34.29646 25.27308
#
# Velocity S-wave (km/s) = 2.67525 3.88657 3.33635
# Velocity P-wave (km/s) = 4.90893 6.23821 5.61306
#
# Compressibility (1/GPa) = 0.03026029
#
# Stress axis : x y z
#
# Youngs Moduli (GPa) = 110.32608 74.91508 70.83923
#
# Poissons Ratio (x) = 0.18350 0.14609
# Poissons Ratio (y) = 0.27023 -0.09757
# Poissons Ratio (z) = 0.22752 -0.10318
#
# Static dielectric constant tensor:
#      x y z
#    x 4.044400 0.000000 -0.269310 
#    y 0.000000 4.551070 0.000000 
#    z -0.269310 0.000000 4.157510 
# 
# 
# High freq. dielectric constant tensor:
#      x y z
#    x 1.897490 0.000000 -0.020240 
#    y 0.000000 1.916140 0.000000 
#    z -0.020240 0.000000 1.899310 
# 
# From -- ./inp_files/22087.got.cif
#   From: 2010.06.25/outbox.cif.g09.slc.cpg/sg15_12_cif.got.tgz:22087.got - 2010.06.28 07:06:18.
