data_PCOD8148544
_publ_section_title
;
Structure prediction by ZEFSAII (Michael W. Deem and Ramdas Pophale) SiO2 
 PCOD8148544
Probable space group: C 2/C
;
_chemical_formula_sum "Si O2"
_cell_formula_units_Z 56
_cell_length_a 24.121939
_cell_length_b 8.748100
_cell_length_c 14.643529
_cell_angle_alpha 90.000000
_cell_angle_beta 50.610408
_cell_angle_gamma 90.000000
_cell_volume 2388.175711
_symmetry_space_group_name_H-M "C 2/C"
_symmetry_group_IT_number 15
_symmetry_cell_setting 'monoclinic'
loop_
_space_group_symop_operation_xyz
x,y,z
-x,y,1/2-z
-x,-y,-z
x,-y,1/2+z
1/2+x,1/2+y,z
1/2-x,1/2+y,1/2-z
1/2-x,1/2-y,-z
1/2+x,1/2-y,1/2+z
loop_
_atom_site_type_symbol
_atom_site_label
_atom_site_fract_x
_atom_site_fract_y
_atom_site_fract_z
Si Si1 0.406595 0.285100 0.716158
Si Si2 0.272674 0.109631 0.800394
Si Si3 0.273671 0.419317 0.486908
Si Si4 0.420011 0.477554 0.863191
Si Si5 0.078803 0.055649 0.925522
Si Si6 0.045174 0.632764 0.500840
Si Si7 0.303109 0.924071 0.595838
O O1 0.353843 0.149292 0.744403
O O2 0.402846 0.317934 0.828474
O O3 0.380420 0.437305 0.685263
O O4 0.489196 0.234219 0.617447
O O5 0.218481 0.251161 0.858045
O O6 0.243985 0.975261 0.893438
O O7 0.270947 0.045376 0.700333
O O8 0.250000 0.250000 0.500000
O O9 0.359902 0.410338 0.383654
O O10 0.231151 0.534915 0.465204
O O11 0.500000 0.535690 0.750000
O O12 0.400649 0.462249 0.989548
O O13 0.082037 0.237937 0.894773
O O14 0.000000 0.000000 0.000000
O O15 0.109478 0.561724 0.494424
O O16 0.000000 0.500000 0.500000
#
# Coordination Sequence:
#
# PCOD8148544 Si02
#       7
#     8   8   8   8   8   8   8
#     4  11  25  47  73 110 146 193 253 297 377 453
#     4  12  27  48  77 109 149 204 246 301 387 453
#     4  12  30  49  71 112 153 192 255 311 374 454
#     4  12  24  45  78 104 143 197 252 298 373 444
#     4  10  23  41  73 103 146 187 244 305 363 444
#     4  11  23  43  70 107 144 186 248 309 367 431
#     4  12  27  47  77 104 153 199 242 311 381 443
#
# _framework density 23.448858999999999
#
# number of rings (size 3 to 8) (size 9 to 14) (size 15 to 20)
#    0.000    0.571    5.714    2.143    8.000    1.143 
#    0.000    0.000    0.000    3.429    0.000    0.000 
#    0.000    0.000    0.000    0.000    0.000    0.000 
#
# Total GULP energy -346888.904267 kJ/mol
# GULP energy per Si atom -12388.889438 kJ/mol
# Density = 2.339549 g / cm^3
# Si number density = 23.448859 Si / 1000 Ang^3
#
#
#
# Elastic Constant Matrix: (Units=GPa)
#
#
# Indices 1 2 3 4 5 6 
#
# 1 158.6158 34.8459 27.6228 0.0001 -19.4304 0.0000
# 2 34.8459 124.2260 22.5236 0.0000 -7.0596 0.0001
# 3 27.6228 22.5236 61.5631 0.0001 9.3015 0.0000
# 4 0.0001 0.0000 0.0001 35.8720 0.0000 -4.3323
# 5 -19.4304 -7.0596 9.3015 0.0000 44.2107 0.0000
# 6 0.0000 0.0001 0.0000 -4.3323 0.0000 39.7423
#
#
#
# Elastic Compliance Matrix: (Units=1/GPa)
#
#
# Indices 1 2 3 4 5 6 
#
# 1 0.007690 -0.001286 -0.003573 0.000000 0.003926 0.000000
# 2 -0.001286 0.009031 -0.002953 0.000000 0.001498 0.000000
# 3 -0.003573 -0.002953 0.019867 0.000000 -0.006222 0.000000
# 4 0.000000 0.000000 0.000000 0.028249 0.000000 0.003079
# 5 0.003926 0.001498 -0.006222 0.000000 0.025893 0.000000
# 6 0.000000 0.000000 0.000000 0.003079 0.000000 0.025498
#
#
# Mechanical properties :
#
#
# Convention : Reuss Voigt Hill
#
# Bulk Modulus (GPa) = 47.70253 57.15439 52.42846
# Shear Modulus (GPa) = 36.01218 41.25917 38.63567
#
# Velocity S-wave (km/s) = 3.92315 4.19924 4.06354
# Velocity P-wave (km/s) = 6.39600 6.92376 6.66511
#
# Compressibility (1/GPa) = 0.02096325
#
# Stress axis : x y z
#
# Youngs Moduli (GPa) = 130.03325 110.72650 50.33372
#
# Poissons Ratio (x) = 0.14241 0.17985
# Poissons Ratio (y) = 0.16725 0.14866
# Poissons Ratio (z) = 0.46464 0.32703
#
# Static dielectric constant tensor:
#      x y z
#    x 1.533820 -0.000100 -2.043250 
#    y -0.000100 -4.660530 -0.000080 
#    z -2.043250 -0.000080 3.495220 
# 
# 
# High freq. dielectric constant tensor:
#      x y z
#    x 1.961340 0.000000 -0.014270 
#    y 0.000000 1.918420 0.000000 
#    z -0.014270 0.000000 1.914800 
# 
# From -- ./inp_files/172255.got.cif
#   From: 2010.06.25/outbox.cif.g09.slc.cpg/sg15_87_cif.got.tgz:172255.got - 2010.06.28 07:06:18.
