data_PCOD8148932
_publ_section_title
;
Structure prediction by ZEFSAII (Michael W. Deem and Ramdas Pophale) SiO2 
 PCOD8148932
Probable space group: C 2/C
;
_chemical_formula_sum "Si O2"
_cell_formula_units_Z 48
_cell_length_a 9.126711
_cell_length_b 22.459174
_cell_length_c 11.321597
_cell_angle_alpha 90.000000
_cell_angle_beta 85.907294
_cell_angle_gamma 90.000000
_cell_volume 2314.764703
_symmetry_space_group_name_H-M "C 2/C"
_symmetry_group_IT_number 15
_symmetry_cell_setting 'monoclinic'
loop_
_space_group_symop_operation_xyz
x,y,z
-x,y,1/2-z
-x,-y,-z
x,-y,1/2+z
1/2+x,1/2+y,z
1/2-x,1/2+y,1/2-z
1/2-x,1/2-y,-z
1/2+x,1/2-y,1/2+z
loop_
_atom_site_type_symbol
_atom_site_label
_atom_site_fract_x
_atom_site_fract_y
_atom_site_fract_z
Si Si1 0.300824 0.780880 0.720287
Si Si2 0.000000 0.270452 0.250000
Si Si3 0.894744 0.915661 0.080031
Si Si4 0.500000 0.674151 0.750000
Si Si5 0.895911 0.607555 0.352816
Si Si6 0.606928 0.845379 0.020699
Si Si7 0.088924 0.956563 0.856347
O O1 0.356721 0.714680 0.747120
O O2 0.373570 0.825172 0.808694
O O3 0.331671 0.799834 0.582657
O O4 0.130223 0.776511 0.759722
O O5 0.967029 0.310456 0.366880
O O6 0.002867 0.867998 0.134884
O O7 0.870949 0.973714 0.163892
O O8 0.738172 0.886835 0.058602
O O9 0.974381 0.942140 0.963662
O O10 0.741657 0.575761 0.373348
O O11 0.000000 0.574264 0.250000
O O12 0.981055 0.611723 0.472653
O O13 0.000000 0.931697 0.750000
#
# Coordination Sequence:
#
# PCOD8148932 Si02
#       7
#     8   4   8   4   8   8   8
#     4  11  24  42  67  98 136 176 216 277 338 410
#     4  12  26  36  65  97 134 182 210 270 344 400
#     4  11  26  43  71  95 134 177 224 285 321 401
#     4  12  22  46  67  97 140 170 212 280 332 394
#     4  10  23  43  67  98 131 174 222 276 337 399
#     4  11  24  45  60 102 135 170 227 272 340 399
#     4  11  24  46  69  97 128 180 233 269 336 391
#
# _framework density 20.736449
#
# number of rings (size 3 to 8) (size 9 to 14) (size 15 to 20)
#    0.000    1.000    5.000    2.500    5.833    1.333 
#    1.500    0.000    0.000    0.000    0.000    0.000 
#    0.000    0.000    0.000    0.000    0.000    0.000 
#
# Total GULP energy -297477.037944 kJ/mol
# GULP energy per Si atom -12394.876581 kJ/mol
# Density = 2.068925 g / cm^3
# Si number density = 20.736449 Si / 1000 Ang^3
#
#
#
# Elastic Constant Matrix: (Units=GPa)
#
#
# Indices 1 2 3 4 5 6 
#
# 1 138.5631 33.6735 39.6903 0.0000 1.6409 0.0000
# 2 33.6735 95.0869 27.5548 0.0000 4.0992 0.0000
# 3 39.6903 27.5548 82.8647 0.0000 5.1895 0.0000
# 4 0.0000 0.0000 0.0000 23.1384 0.0000 18.4926
# 5 1.6409 4.0992 5.1895 0.0000 34.7428 0.0000
# 6 0.0000 0.0000 0.0000 18.4926 0.0000 24.0983
#
#
#
# Elastic Compliance Matrix: (Units=1/GPa)
#
#
# Indices 1 2 3 4 5 6 
#
# 1 0.008725 -0.002089 -0.003507 0.000000 0.000358 0.000000
# 2 -0.002089 0.012161 -0.002987 0.000000 -0.000890 0.000000
# 3 -0.003507 -0.002987 0.014847 0.000000 -0.001700 0.000000
# 4 0.000000 0.000000 0.000000 0.111764 0.000000 -0.085766
# 5 0.000358 -0.000890 -0.001700 0.000000 0.029125 0.000000
# 6 0.000000 0.000000 0.000000 -0.085766 0.000000 0.107312
#
#
# Mechanical properties :
#
#
# Convention : Reuss Voigt Hill
#
# Bulk Modulus (GPa) = 53.86074 57.59464 55.72769
# Shear Modulus (GPa) = 16.27136 30.76897 23.52016
#
# Velocity S-wave (km/s) = 2.80424 3.85621 3.37151
# Velocity P-wave (km/s) = 6.04279 6.90377 6.48758
#
# Compressibility (1/GPa) = 0.01856640
#
# Stress axis : x y z
#
# Youngs Moduli (GPa) = 114.61526 82.23312 67.35196
#
# Poissons Ratio (x) = 0.17178 0.23619
# Poissons Ratio (y) = 0.23943 0.20121
# Poissons Ratio (z) = 0.40193 0.24566
#
# Static dielectric constant tensor:
#      x y z
#    x 4.022830 0.000000 0.062680 
#    y 0.000000 3.872120 0.000000 
#    z 0.062680 0.000000 3.939200 
# 
# 
# High freq. dielectric constant tensor:
#      x y z
#    x 1.831620 0.000000 0.013310 
#    y 0.000000 1.810230 0.000000 
#    z 0.013310 0.000000 1.807740 
# 
# From -- ./inp_files/79167.got.cif
#   From: 2010.06.25/outbox.cif.g09.slc.cpg/sg15_40_cif.got.tgz:79167.got - 2010.06.28 07:06:18.
