data_PCOD8148305
_publ_section_title
;
Structure prediction by ZEFSAII (Michael W. Deem and Ramdas Pophale) SiO2 
 PCOD8148305
Probable space group: C 2/C
;
_chemical_formula_sum "Si O2"
_cell_formula_units_Z 52
_cell_length_a 27.573486
_cell_length_b 7.701695
_cell_length_c 11.940488
_cell_angle_alpha 90.000000
_cell_angle_beta 118.122714
_cell_angle_gamma 90.000000
_cell_volume 2236.346754
_symmetry_space_group_name_H-M "C 2/C"
_symmetry_group_IT_number 15
_symmetry_cell_setting 'monoclinic'
loop_
_space_group_symop_operation_xyz
x,y,z
-x,y,1/2-z
-x,-y,-z
x,-y,1/2+z
1/2+x,1/2+y,z
1/2-x,1/2+y,1/2-z
1/2-x,1/2-y,-z
1/2+x,1/2-y,1/2+z
loop_
_atom_site_type_symbol
_atom_site_label
_atom_site_fract_x
_atom_site_fract_y
_atom_site_fract_z
Si Si1 0.377616 0.061127 0.536563
Si Si2 0.536958 0.845115 0.995680
Si Si3 0.500000 0.614601 0.750000
Si Si4 0.797699 0.899610 0.665525
Si Si5 0.921401 0.177960 0.241806
Si Si6 0.792605 0.248675 0.800107
Si Si7 0.720007 0.922734 0.930779
O O1 0.425263 0.158278 0.660969
O O2 0.343978 0.211668 0.436192
O O3 0.405794 0.925964 0.483305
O O4 0.338066 0.945318 0.570610
O O5 0.507836 0.736738 0.865908
O O6 0.546999 0.713229 0.108692
O O7 0.500000 0.000000 0.000000
O O8 0.553444 0.493742 0.788023
O O9 0.856917 0.837892 0.694467
O O10 0.766259 0.748195 0.699998
O O11 0.802433 0.069624 0.747670
O O12 0.762449 0.926620 0.513182
O O13 0.790541 0.412772 0.712672
O O14 0.750000 0.750000 0.000000
#
# Coordination Sequence:
#
# PCOD8148305 Si02
#       7
#     8   8   4   8   8   8   8
#     4  11  25  43  73 103 140 192 240 290 357 435
#     4  12  28  50  78 100 141 186 246 305 370 434
#     4  12  30  50  76 106 142 180 244 310 372 440
#     4  10  25  38  68  99 144 184 229 285 349 426
#     4  12  28  46  75 107 143 186 243 305 372 423
#     4  10  23  40  66  97 148 181 235 275 352 418
#     4   9  21  40  64 101 144 183 234 280 344 425
#
# _framework density 23.252208
#
# number of rings (size 3 to 8) (size 9 to 14) (size 15 to 20)
#    0.000    1.231    0.000    3.231   19.385    1.231 
#    0.000    0.000    0.000    0.000    0.000    0.000 
#    0.000    0.000    0.000    0.000    0.000    0.000 
#
# Total GULP energy -322406.093155 kJ/mol
# GULP energy per Si atom -12400.234352 kJ/mol
# Density = 2.319928 g / cm^3
# Si number density = 23.252208 Si / 1000 Ang^3
#
#
#
# Elastic Constant Matrix: (Units=GPa)
#
#
# Indices 1 2 3 4 5 6 
#
# 1 116.2191 26.4919 19.2142 0.0000 3.3656 0.0000
# 2 26.4919 102.6756 28.9381 0.0000 -8.6604 0.0000
# 3 19.2142 28.9381 118.7963 0.0000 -11.2303 0.0000
# 4 0.0000 0.0000 0.0000 39.7119 0.0000 -2.7392
# 5 3.3656 -8.6604 -11.2303 0.0000 25.3650 0.0000
# 6 0.0000 0.0000 0.0000 -2.7392 0.0000 46.7650
#
#
#
# Elastic Compliance Matrix: (Units=1/GPa)
#
#
# Indices 1 2 3 4 5 6 
#
# 1 0.009403 -0.002304 -0.001202 0.000000 -0.002566 0.000000
# 2 -0.002304 0.011182 -0.002047 0.000000 0.003217 0.000000
# 3 -0.001202 -0.002047 0.009456 0.000000 0.003647 0.000000
# 4 0.000000 0.000000 0.000000 0.025284 0.000000 0.001481
# 5 -0.002566 0.003217 0.003647 0.000000 0.042478 0.000000
# 6 0.000000 0.000000 0.000000 0.001481 0.000000 0.021470
#
#
# Mechanical properties :
#
#
# Convention : Reuss Voigt Hill
#
# Bulk Modulus (GPa) = 52.81422 54.10880 53.46151
# Shear Modulus (GPa) = 36.57915 39.90483 38.24199
#
# Velocity S-wave (km/s) = 3.97060 4.14717 4.05984
# Velocity P-wave (km/s) = 6.61693 6.80095 6.70957
#
# Compressibility (1/GPa) = 0.01893429
#
# Stress axis : x y z
#
# Youngs Moduli (GPa) = 106.35316 89.42841 105.75658
#
# Poissons Ratio (x) = 0.20601 0.12715
# Poissons Ratio (y) = 0.24500 0.21650
# Poissons Ratio (z) = 0.12786 0.18308
#
# Static dielectric constant tensor:
#      x y z
#    x 4.227650 0.000000 -0.329120 
#    y 0.000000 4.328510 0.000000 
#    z -0.329120 0.000000 4.869960 
# 
# 
# High freq. dielectric constant tensor:
#      x y z
#    x 1.921990 0.000000 -0.012550 
#    y 0.000000 1.932540 0.000000 
#    z -0.012550 0.000000 1.935080 
# 
# From -- ./inp_files/122046.got.cif
#   From: 2010.06.25/outbox.cif.g09.slc.cpg/sg15_62_cif.got.tgz:122046.got - 2010.06.28 07:06:18.
