data_PCOD8148975
_publ_section_title
;
Structure prediction by ZEFSAII (Michael W. Deem and Ramdas Pophale) SiO2 
 PCOD8148975
Probable space group: C 2/C
;
_chemical_formula_sum "Si O2"
_cell_formula_units_Z 60
_cell_length_a 28.069923
_cell_length_b 13.150022
_cell_length_c 21.595804
_cell_angle_alpha 90.000000
_cell_angle_beta 20.180805
_cell_angle_gamma 90.000000
_cell_volume 2750.019296
_symmetry_space_group_name_H-M "C 2/C"
_symmetry_group_IT_number 15
_symmetry_cell_setting 'monoclinic'
loop_
_space_group_symop_operation_xyz
x,y,z
-x,y,1/2-z
-x,-y,-z
x,-y,1/2+z
1/2+x,1/2+y,z
1/2-x,1/2+y,1/2-z
1/2-x,1/2-y,-z
1/2+x,1/2-y,1/2+z
loop_
_atom_site_type_symbol
_atom_site_label
_atom_site_fract_x
_atom_site_fract_y
_atom_site_fract_z
Si Si1 0.160291 0.778556 0.754817
Si Si2 0.783021 0.047931 0.413824
Si Si3 0.000000 0.556493 0.250000
Si Si4 0.404171 0.193548 0.480198
Si Si5 0.225221 0.926134 0.439530
Si Si6 0.921541 0.430101 0.642751
Si Si7 0.833870 0.267832 0.666952
Si Si8 0.984455 0.086215 0.841018
O O1 0.188978 0.874873 0.675940
O O2 0.235581 0.680618 0.636295
O O3 0.240865 0.794945 0.720483
O O4 0.994065 0.762300 0.960253
O O5 0.825282 0.095690 0.428977
O O6 0.623515 0.019062 0.615171
O O7 0.873113 0.944667 0.298190
O O8 0.946446 0.628199 0.369940
O O9 0.484955 0.156389 0.441639
O O10 0.243022 0.181082 0.697525
O O11 0.432921 0.312748 0.436951
O O12 0.355644 0.003140 0.278164
O O13 0.111414 0.985030 0.536756
O O14 0.814344 0.370384 0.730599
O O15 0.000000 0.500000 0.500000
O O16 0.000000 0.114609 0.750000
#
# Coordination Sequence:
#
# PCOD8148975 Si02
#       8
#     8   8   4   8   8   8   8   8
#     4  12  27  48  73 106 150 194 251 293 365 442
#     4  11  27  44  70 108 142 187 246 306 365 425
#     4  12  28  44  74 106 144 186 238 316 362 434
#     4  12  25  46  73 108 144 190 246 302 373 434
#     4  11  22  47  73 100 144 196 240 298 370 433
#     4  12  24  44  72 102 148 194 244 289 364 451
#     4  12  26  46  73 107 144 199 237 299 361 436
#     4  10  23  43  69 106 141 179 238 305 370 423
#
# _framework density 21.81803
#
# number of rings (size 3 to 8) (size 9 to 14) (size 15 to 20)
#    0.000    0.533    6.000    1.200    5.600    0.533 
#    3.600    1.333    0.000    0.000    0.000    0.000 
#    0.000    0.000    0.000    0.000    0.000    0.000 
#
# Total GULP energy -371666.217324 kJ/mol
# GULP energy per Si atom -12388.873911 kJ/mol
# Density = 2.176837 g / cm^3
# Si number density = 21.818030 Si / 1000 Ang^3
#
#
#
# Elastic Constant Matrix: (Units=GPa)
#
#
# Indices 1 2 3 4 5 6 
#
# 1 125.1424 55.1198 42.2027 0.0002 3.6602 -0.0005
# 2 55.1198 97.5031 26.2376 -0.0002 7.9789 -0.0006
# 3 42.2027 26.2376 89.1912 0.0016 5.9027 -0.0016
# 4 0.0002 -0.0002 0.0016 45.9669 -0.0010 15.7749
# 5 3.6602 7.9789 5.9027 -0.0010 38.0983 0.0007
# 6 -0.0005 -0.0006 -0.0016 15.7749 0.0007 42.9340
#
#
#
# Elastic Compliance Matrix: (Units=1/GPa)
#
#
# Indices 1 2 3 4 5 6 
#
# 1 0.011800 -0.005659 -0.003963 0.000000 0.000665 0.000000
# 2 -0.005659 0.013981 -0.001291 0.000000 -0.002184 0.000000
# 3 -0.003963 -0.001291 0.013563 -0.000001 -0.001450 0.000001
# 4 0.000000 0.000000 -0.000001 0.024894 0.000001 -0.009146
# 5 0.000665 -0.002184 -0.001450 0.000001 0.026866 -0.000001
# 6 0.000000 0.000000 0.000001 -0.009146 -0.000001 0.026652
#
#
# Mechanical properties :
#
#
# Convention : Reuss Voigt Hill
#
# Bulk Modulus (GPa) = 57.08032 62.10631 59.59332
# Shear Modulus (GPa) = 34.38289 37.95163 36.16726
#
# Velocity S-wave (km/s) = 3.97406 4.17521 4.07588
# Velocity P-wave (km/s) = 6.87578 7.19518 7.03729
#
# Compressibility (1/GPa) = 0.01751917
#
# Stress axis : x y z
#
# Youngs Moduli (GPa) = 84.74274 71.52438 73.73182
#
# Poissons Ratio (x) = 0.40476 0.29219
# Poissons Ratio (y) = 0.47956 0.09516
# Poissons Ratio (z) = 0.33583 0.09231
#
# Static dielectric constant tensor:
#      x y z
#    x 3.907900 0.000000 0.088660 
#    y 0.000000 3.727270 0.000000 
#    z 0.088660 0.000000 4.168570 
# 
# 
# High freq. dielectric constant tensor:
#      x y z
#    x 1.862610 0.000000 0.005910 
#    y 0.000000 1.854430 0.000000 
#    z 0.005910 0.000000 1.879030 
# 
# From -- ./inp_files/257863.got.cif
#   From: 2010.06.25/outbox.cif.g09.slc.cpg/sg15_129_cif.got.tgz:257863.got - 2010.06.28 07:06:18.
