data_PCOD8148176
_publ_section_title
;
Structure prediction by ZEFSAII (Michael W. Deem and Ramdas Pophale) SiO2 
 PCOD8148176
Probable space group: C 2/C
;
_chemical_formula_sum "Si O2"
_cell_formula_units_Z 48
_cell_length_a 16.690714
_cell_length_b 16.290755
_cell_length_c 8.694786
_cell_angle_alpha 90.000000
_cell_angle_beta 90.491110
_cell_angle_gamma 90.000000
_cell_volume 2364.063137
_symmetry_space_group_name_H-M "C 2/C"
_symmetry_group_IT_number 15
_symmetry_cell_setting 'monoclinic'
loop_
_space_group_symop_operation_xyz
x,y,z
-x,y,1/2-z
-x,-y,-z
x,-y,1/2+z
1/2+x,1/2+y,z
1/2-x,1/2+y,1/2-z
1/2-x,1/2-y,-z
1/2+x,1/2-y,1/2+z
loop_
_atom_site_type_symbol
_atom_site_label
_atom_site_fract_x
_atom_site_fract_y
_atom_site_fract_z
Si Si1 0.135984 0.737001 0.088848
Si Si2 0.023432 0.253674 0.071894
Si Si3 0.956139 0.928991 0.908582
Si Si4 0.266514 0.614235 0.991197
Si Si5 0.775654 0.956479 0.825236
Si Si6 0.179794 0.694559 0.431345
O O1 0.191564 0.674562 0.996182
O O2 0.149639 0.731346 0.270023
O O3 0.154284 0.830562 0.035764
O O4 0.046402 0.712083 0.039314
O O5 0.038177 0.160588 0.014785
O O6 0.000000 0.261016 0.250000
O O7 0.104387 0.306273 0.046227
O O8 0.863033 0.948748 0.898347
O O9 0.000000 0.922932 0.750000
O O10 0.000000 0.000000 0.000000
O O11 0.278795 0.561881 0.145356
O O12 0.249636 0.550840 0.851927
O O13 0.712662 0.897226 0.909718
O O14 0.250000 0.750000 0.500000
#
# Coordination Sequence:
#
# PCOD8148176 Si02
#       6
#     8   8   8   8   8   8
#     4  10  23  42  64  92 129 167 217 258 320 378
#     4  11  23  40  64  91 124 164 212 265 317 376
#     4  11  22  35  55  86 126 157 201 250 312 372
#     4  10  23  39  65  91 128 170 209 261 316 372
#     4  11  22  40  60  93 125 166 212 258 312 380
#     4  11  24  41  64  92 125 171 214 257 315 384
#
# _framework density 20.304026
#
# number of rings (size 3 to 8) (size 9 to 14) (size 15 to 20)
#    0.000    1.333    1.667    4.500    7.000    2.667 
#    0.000    0.833    0.000    0.000    0.000    0.000 
#    0.000    0.000    0.000    0.000    0.000    0.000 
#
# Total GULP energy -297641.169099 kJ/mol
# GULP energy per Si atom -12401.715379 kJ/mol
# Density = 2.025781 g / cm^3
# Si number density = 20.304026 Si / 1000 Ang^3
#
#
#
# Elastic Constant Matrix: (Units=GPa)
#
#
# Indices 1 2 3 4 5 6 
#
# 1 139.3246 43.4936 45.1802 0.0000 -0.1876 0.0000
# 2 43.4936 105.9320 44.4262 0.0000 -5.2669 0.0000
# 3 45.1802 44.4262 84.6238 0.0000 3.2002 0.0000
# 4 0.0000 0.0000 0.0000 35.8837 0.0000 -1.8841
# 5 -0.1876 -5.2669 3.2002 0.0000 39.7724 0.0000
# 6 0.0000 0.0000 0.0000 -1.8841 0.0000 22.4741
#
#
#
# Elastic Compliance Matrix: (Units=1/GPa)
#
#
# Indices 1 2 3 4 5 6 
#
# 1 0.009052 -0.002162 -0.003700 0.000000 0.000054 0.000000
# 2 -0.002162 0.012803 -0.005648 0.000000 0.002140 0.000000
# 3 -0.003700 -0.005648 0.016837 0.000000 -0.002120 0.000000
# 4 0.000000 0.000000 0.000000 0.027991 0.000000 0.002347
# 5 0.000054 0.002140 -0.002120 0.000000 0.025597 0.000000
# 6 0.000000 0.000000 0.000000 0.002347 0.000000 0.044692
#
#
# Mechanical properties :
#
#
# Convention : Reuss Voigt Hill
#
# Bulk Modulus (GPa) = 63.80489 66.23117 65.01803
# Shear Modulus (GPa) = 30.26318 32.74476 31.50397
#
# Velocity S-wave (km/s) = 3.86489 4.02023 3.94332
# Velocity P-wave (km/s) = 7.17004 7.36479 7.26807
#
# Compressibility (1/GPa) = 0.01567278
#
# Stress axis : x y z
#
# Youngs Moduli (GPa) = 110.46817 78.10802 59.39141
#
# Poissons Ratio (x) = 0.16890 0.21974
# Poissons Ratio (y) = 0.23888 0.33542
# Poissons Ratio (z) = 0.40871 0.44113
#
# Static dielectric constant tensor:
#      x y z
#    x 3.791230 0.000000 -0.117720 
#    y 0.000000 2.876390 0.000000 
#    z -0.117720 0.000000 3.743470 
# 
# 
# High freq. dielectric constant tensor:
#      x y z
#    x 1.801150 0.000000 -0.003450 
#    y 0.000000 1.788630 0.000000 
#    z -0.003450 0.000000 1.796300 
# 
# From -- ./inp_files/47482.got.cif
#   From: 2010.06.25/outbox.cif.g09.slc.cpg/sg15_24_cif.got.tgz:47482.got - 2010.06.28 07:06:18.
