data_PCOD8148080
_publ_section_title
;
Structure prediction by ZEFSAII (Michael W. Deem and Ramdas Pophale) SiO2 
 PCOD8148080
Probable space group: C 2/C
;
_chemical_formula_sum "Si O2"
_cell_formula_units_Z 64
_cell_length_a 11.355026
_cell_length_b 15.441099
_cell_length_c 26.866579
_cell_angle_alpha 90.000000
_cell_angle_beta 140.554974
_cell_angle_gamma 90.000000
_cell_volume 2992.838272
_symmetry_space_group_name_H-M "C 2/C"
_symmetry_group_IT_number 15
_symmetry_cell_setting 'monoclinic'
loop_
_space_group_symop_operation_xyz
x,y,z
-x,y,1/2-z
-x,-y,-z
x,-y,1/2+z
1/2+x,1/2+y,z
1/2-x,1/2+y,1/2-z
1/2-x,1/2-y,-z
1/2+x,1/2-y,1/2+z
loop_
_atom_site_type_symbol
_atom_site_label
_atom_site_fract_x
_atom_site_fract_y
_atom_site_fract_z
Si Si1 0.484452 0.764573 0.633199
Si Si2 0.933720 0.581106 0.617017
Si Si3 0.395527 0.921100 0.991511
Si Si4 0.597600 0.775323 0.003370
Si Si5 0.395909 0.774265 0.268234
Si Si6 0.026948 0.888807 0.638458
Si Si7 0.979517 0.100896 0.008699
Si Si8 0.071674 0.429064 0.719136
O O1 0.423315 0.806093 0.560418
O O2 0.309388 0.702886 0.590761
O O3 0.678027 0.718077 0.686162
O O4 0.517717 0.830996 0.689005
O O5 0.976020 0.584327 0.572860
O O6 0.735736 0.622322 0.563105
O O7 0.075154 0.633972 0.696772
O O8 0.954983 0.482435 0.640898
O O9 0.446478 0.828879 0.984573
O O10 0.171738 0.934668 0.915854
O O11 0.500000 0.000000 0.000000
O O12 0.572328 0.670543 0.001737
O O13 0.500000 0.761128 0.250000
O O14 0.463922 0.701604 0.329244
O O15 0.205839 0.944852 0.714511
O O16 0.056488 0.878062 0.588924
O O17 0.000000 0.000000 0.000000
O O18 0.000000 0.454397 0.750000
#
# Coordination Sequence:
#
# PCOD8148080 Si02
#       8
#     8   8   8   8   8   8   8   8
#     4  10  23  38  61  89 117 157 204 240 299 366
#     4  11  23  37  60  90 119 152 204 252 298 357
#     4  11  24  42  62  87 122 164 204 246 296 359
#     4  11  22  41  63  87 123 160 199 252 299 349
#     4  11  22  39  61  89 122 158 199 249 303 361
#     4  10  23  40  62  87 119 160 204 241 298 366
#     4  11  22  39  64  91 118 156 201 251 302 353
#     4  11  22  40  61  87 123 158 196 251 303 351
#
# _framework density 21.384383
#
# number of rings (size 3 to 8) (size 9 to 14) (size 15 to 20)
#    0.000    1.250    0.000    6.375    0.000    9.000 
#    0.000    1.250    0.000    0.000    0.000    0.000 
#    0.000    0.000    0.000    0.000    0.000    0.000 
#
# Total GULP energy -396604.271705 kJ/mol
# GULP energy per Si atom -12393.883491 kJ/mol
# Density = 2.133571 g / cm^3
# Si number density = 21.384383 Si / 1000 Ang^3
#
#
#
# Elastic Constant Matrix: (Units=GPa)
#
#
# Indices 1 2 3 4 5 6 
#
# 1 108.0543 30.8065 37.5922 0.0000 -1.5331 0.0000
# 2 30.8065 71.5668 15.0045 0.0000 -7.1786 0.0000
# 3 37.5922 15.0045 114.4270 0.0000 7.5421 0.0000
# 4 0.0000 0.0000 0.0000 27.1928 0.0000 -7.8002
# 5 -1.5331 -7.1786 7.5421 0.0000 39.8446 0.0000
# 6 0.0000 0.0000 0.0000 -7.8002 0.0000 25.4886
#
#
#
# Elastic Compliance Matrix: (Units=1/GPa)
#
#
# Indices 1 2 3 4 5 6 
#
# 1 0.011620 -0.004286 -0.003275 0.000000 0.000295 0.000000
# 2 -0.004286 0.016307 -0.000925 0.000000 0.002948 0.000000
# 3 -0.003275 -0.000925 0.010081 0.000000 -0.002201 0.000000
# 4 0.000000 0.000000 0.000000 0.040313 0.000000 0.012337
# 5 0.000295 0.002948 -0.002201 0.000000 0.026057 0.000000
# 6 0.000000 0.000000 0.000000 0.012337 0.000000 0.043009
#
#
# Mechanical properties :
#
#
# Convention : Reuss Voigt Hill
#
# Bulk Modulus (GPa) = 47.53283 51.20606 49.36945
# Shear Modulus (GPa) = 29.17654 32.54821 30.86238
#
# Velocity S-wave (km/s) = 3.69777 3.90558 3.80310
# Velocity P-wave (km/s) = 6.36454 6.65850 6.51318
#
# Compressibility (1/GPa) = 0.02103809
#
# Stress axis : x y z
#
# Youngs Moduli (GPa) = 86.05846 61.32198 99.19247
#
# Poissons Ratio (x) = 0.26281 0.32485
# Poissons Ratio (y) = 0.36882 0.09172
# Poissons Ratio (z) = 0.28184 0.05670
#
# Static dielectric constant tensor:
#      x y z
#    x 3.879500 0.000000 0.210820 
#    y 0.000000 3.555170 0.000000 
#    z 0.210820 0.000000 4.166650 
# 
# 
# High freq. dielectric constant tensor:
#      x y z
#    x 1.850710 0.000000 0.008650 
#    y 0.000000 1.816610 0.000000 
#    z 0.008650 0.000000 1.860970 
# 
# From -- ./inp_files/293114.got.cif
#   From: 2010.06.25/outbox.cif.g09.slc.cpg/sg15_147_cif.got.tgz:293114.got - 2010.06.28 07:06:18.
