data_PCOD8148243
_publ_section_title
;
Structure prediction by ZEFSAII (Michael W. Deem and Ramdas Pophale) SiO2 
 PCOD8148243
Probable space group: C 2/C
;
_chemical_formula_sum "Si O2"
_cell_formula_units_Z 48
_cell_length_a 26.039091
_cell_length_b 10.321768
_cell_length_c 9.038455
_cell_angle_alpha 90.000000
_cell_angle_beta 109.904114
_cell_angle_gamma 90.000000
_cell_volume 2284.145555
_symmetry_space_group_name_H-M "C 2/C"
_symmetry_group_IT_number 15
_symmetry_cell_setting 'monoclinic'
loop_
_space_group_symop_operation_xyz
x,y,z
-x,y,1/2-z
-x,-y,-z
x,-y,1/2+z
1/2+x,1/2+y,z
1/2-x,1/2+y,1/2-z
1/2-x,1/2-y,-z
1/2+x,1/2-y,1/2+z
loop_
_atom_site_type_symbol
_atom_site_label
_atom_site_fract_x
_atom_site_fract_y
_atom_site_fract_z
Si Si1 0.628567 0.009883 0.427578
Si Si2 0.818257 0.665085 0.761235
Si Si3 0.352074 0.433008 0.685964
Si Si4 0.036563 0.076974 0.648402
Si Si5 0.692873 0.351675 0.170081
Si Si6 0.401725 0.825989 0.861732
O O1 0.664789 0.100224 0.568602
O O2 0.590311 0.096703 0.284223
O O3 0.668788 0.924148 0.366851
O O4 0.588801 0.919814 0.488074
O O5 0.849737 0.801100 0.778416
O O6 0.753921 0.692350 0.696304
O O7 0.413041 0.488987 0.750795
O O8 0.337504 0.407227 0.502913
O O9 0.308999 0.536645 0.707870
O O10 0.056323 0.207910 0.587512
O O11 0.000000 0.118450 0.750000
O O12 0.000000 0.000000 0.500000
O O13 0.660975 0.224394 0.195122
#
# Coordination Sequence:
#
# PCOD8148243 Si02
#       6
#     8   8   8   8   8   8
#     4  10  23  40  63  90 133 174 208 255 324 382
#     4  11  23  38  64  90 138 175 213 256 326 386
#     4  11  24  40  65  94 130 165 222 267 322 384
#     4  11  25  45  73  94 123 165 221 282 331 369
#     4  11  23  38  61  98 131 172 218 263 316 392
#     4  10  23  43  64  95 130 167 220 264 319 391
#
# _framework density 21.014423000000001
#
# number of rings (size 3 to 8) (size 9 to 14) (size 15 to 20)
#    0.000    1.333    1.667    3.500   11.667    0.667 
#    0.000    0.833    0.000    0.000    0.000    0.000 
#    0.000    0.000    0.000    0.000    0.000    0.000 
#
# Total GULP energy -297712.298457 kJ/mol
# GULP energy per Si atom -12404.679102 kJ/mol
# Density = 2.096659 g / cm^3
# Si number density = 21.014423 Si / 1000 Ang^3
#
#
#
# Elastic Constant Matrix: (Units=GPa)
#
#
# Indices 1 2 3 4 5 6 
#
# 1 106.3204 47.4364 40.2180 0.0000 -0.1457 0.0000
# 2 47.4364 130.2791 46.3869 0.0000 -6.5426 0.0000
# 3 40.2180 46.3869 104.2314 0.0000 -17.7195 0.0000
# 4 0.0000 0.0000 0.0000 27.8679 0.0000 -8.3501
# 5 -0.1457 -6.5426 -17.7195 0.0000 31.5014 0.0000
# 6 0.0000 0.0000 0.0000 -8.3501 0.0000 28.0941
#
#
#
# Elastic Compliance Matrix: (Units=1/GPa)
#
#
# Indices 1 2 3 4 5 6 
#
# 1 0.012279 -0.003275 -0.003745 0.000000 -0.002730 0.000000
# 2 -0.003275 0.010000 -0.003136 0.000000 0.000298 0.000000
# 3 -0.003745 -0.003136 0.013624 0.000000 0.006995 0.000000
# 4 0.000000 0.000000 0.000000 0.039392 0.000000 0.011708
# 5 -0.002730 0.000298 0.006995 0.000000 0.035728 0.000000
# 6 0.000000 0.000000 0.000000 0.011708 0.000000 0.039075
#
#
# Mechanical properties :
#
#
# Convention : Reuss Voigt Hill
#
# Bulk Modulus (GPa) = 64.13659 67.65706 65.89682
# Shear Modulus (GPa) = 28.47281 31.27863 29.87572
#
# Velocity S-wave (km/s) = 3.68491 3.86221 3.77460
# Velocity P-wave (km/s) = 6.97792 7.22180 7.10090
#
# Compressibility (1/GPa) = 0.01559172
#
# Stress axis : x y z
#
# Youngs Moduli (GPa) = 81.43704 100.00174 73.40142
#
# Poissons Ratio (x) = 0.32749 0.27486
# Poissons Ratio (y) = 0.26670 0.23019
# Poissons Ratio (z) = 0.30496 0.31361
#
# Static dielectric constant tensor:
#      x y z
#    x 3.774450 0.000000 -0.260020 
#    y 0.000000 4.079880 0.000000 
#    z -0.260020 0.000000 3.741670 
# 
# 
# High freq. dielectric constant tensor:
#      x y z
#    x 1.816140 0.000000 -0.025430 
#    y 0.000000 1.841320 0.000000 
#    z -0.025430 0.000000 1.822460 
# 
# From -- ./inp_files/60668.got.cif
#   From: 2010.06.25/outbox.cif.g09.slc.cpg/sg15_31_cif.got.tgz:60668.got - 2010.06.28 07:06:18.
