data_PCOD8148139
_publ_section_title
;
Structure prediction by ZEFSAII (Michael W. Deem and Ramdas Pophale) SiO2 
 PCOD8148139
Probable space group: C 2/C
;
_chemical_formula_sum "Si O2"
_cell_formula_units_Z 44
_cell_length_a 6.739522
_cell_length_b 13.733596
_cell_length_c 22.326910
_cell_angle_alpha 90.000000
_cell_angle_beta 107.443512
_cell_angle_gamma 90.000000
_cell_volume 1971.497616
_symmetry_space_group_name_H-M "C 2/C"
_symmetry_group_IT_number 15
_symmetry_cell_setting 'monoclinic'
loop_
_space_group_symop_operation_xyz
x,y,z
-x,y,1/2-z
-x,-y,-z
x,-y,1/2+z
1/2+x,1/2+y,z
1/2-x,1/2+y,1/2-z
1/2-x,1/2-y,-z
1/2+x,1/2-y,1/2+z
loop_
_atom_site_type_symbol
_atom_site_label
_atom_site_fract_x
_atom_site_fract_y
_atom_site_fract_z
Si Si1 0.330422 0.113515 0.656272
Si Si2 0.500000 0.274118 0.750000
Si Si3 0.825307 0.618032 0.023827
Si Si4 0.865249 0.534024 0.899558
Si Si5 0.452314 0.461934 0.809417
Si Si6 0.917174 0.797220 0.471558
O O1 0.331556 0.203862 0.702805
O O2 0.565844 0.094558 0.653366
O O3 0.244454 0.015581 0.679520
O O4 0.188254 0.136050 0.586986
O O5 0.400572 0.346686 0.791982
O O6 0.928896 0.529741 0.068085
O O7 0.956800 0.713632 0.051410
O O8 0.824811 0.603961 0.951877
O O9 0.584899 0.634889 0.022733
O O10 0.659660 0.470518 0.869059
O O11 0.500000 0.513505 0.750000
O O12 0.750000 0.750000 0.500000
#
# Coordination Sequence:
#
# PCOD8148139 Si02
#       6
#     8   4   8   8   8   8
#     4  12  23  44  71  98 137 180 233 290 347 422
#     4  10  26  46  70  96 134 182 242 292 344 416
#     4  10  23  39  62 103 139 176 221 280 348 425
#     4  11  22  41  68  97 137 176 229 284 349 423
#     4  10  24  47  65  97 134 180 235 293 348 411
#     4  11  22  41  65 101 137 183 227 275 353 428
#
# _framework density 22.318059000000002
#
# number of rings (size 3 to 8) (size 9 to 14) (size 15 to 20)
#    0.545    0.727    3.636    2.182    0.000    3.636 
#    0.000    3.636    0.000    0.000    0.000    0.000 
#    0.000    0.000    0.000    0.000    0.000    0.000 
#
# Total GULP energy -272647.286108 kJ/mol
# GULP energy per Si atom -12393.058459 kJ/mol
# Density = 2.226726 g / cm^3
# Si number density = 22.318059 Si / 1000 Ang^3
#
#
#
# Elastic Constant Matrix: (Units=GPa)
#
#
# Indices 1 2 3 4 5 6 
#
# 1 101.7267 42.1991 27.7181 0.0000 -5.4624 0.0000
# 2 42.1991 116.7820 25.6136 0.0000 2.2128 0.0000
# 3 27.7181 25.6136 63.3032 0.0000 -1.1951 0.0000
# 4 0.0000 0.0000 0.0000 36.9665 0.0000 3.4282
# 5 -5.4624 2.2128 -1.1951 0.0000 25.3241 0.0000
# 6 0.0000 0.0000 0.0000 3.4282 0.0000 42.9337
#
#
#
# Elastic Compliance Matrix: (Units=1/GPa)
#
#
# Indices 1 2 3 4 5 6 
#
# 1 0.012615 -0.003745 -0.003954 0.000000 0.002862 0.000000
# 2 -0.003745 0.010534 -0.002657 0.000000 -0.001854 0.000000
# 3 -0.003954 -0.002657 0.018608 0.000000 0.000257 0.000000
# 4 0.000000 0.000000 0.000000 0.027253 0.000000 -0.002176
# 5 0.002862 -0.001854 0.000257 0.000000 0.040279 0.000000
# 6 0.000000 0.000000 0.000000 -0.002176 0.000000 0.023466
#
#
# Mechanical properties :
#
#
# Convention : Reuss Voigt Hill
#
# Bulk Modulus (GPa) = 47.51972 52.54150 50.03061
# Shear Modulus (GPa) = 31.15561 33.46359 32.30960
#
# Velocity S-wave (km/s) = 3.74034 3.87640 3.80898
# Velocity P-wave (km/s) = 6.32390 6.60519 6.46608
#
# Compressibility (1/GPa) = 0.02104389
#
# Stress axis : x y z
#
# Youngs Moduli (GPa) = 79.27042 94.92773 53.73896
#
# Poissons Ratio (x) = 0.35554 0.21249
# Poissons Ratio (y) = 0.29690 0.14281
# Poissons Ratio (z) = 0.31345 0.25226
#
# Static dielectric constant tensor:
#      x y z
#    x 4.048940 0.000000 0.010390 
#    y 0.000000 4.026120 0.000000 
#    z 0.010390 0.000000 4.201520 
# 
# 
# High freq. dielectric constant tensor:
#      x y z
#    x 1.868780 0.000000 0.009560 
#    y 0.000000 1.882070 0.000000 
#    z 0.009560 0.000000 1.875820 
# 
# From -- ./inp_files/260411.got.cif
#   From: 2010.06.25/outbox.cif.g09.slc.cpg/sg15_131_cif.got.tgz:260411.got - 2010.06.28 07:06:18.
