data_PCOD8148336
_publ_section_title
;
Structure prediction by ZEFSAII (Michael W. Deem and Ramdas Pophale) SiO2 
 PCOD8148336
Probable space group: C 2/C
;
_chemical_formula_sum "Si O2"
_cell_formula_units_Z 40
_cell_length_a 28.174717
_cell_length_b 7.287877
_cell_length_c 18.515557
_cell_angle_alpha 90.000000
_cell_angle_beta 150.618974
_cell_angle_gamma 90.000000
_cell_volume 1865.255770
_symmetry_space_group_name_H-M "C 2/C"
_symmetry_group_IT_number 15
_symmetry_cell_setting 'monoclinic'
loop_
_space_group_symop_operation_xyz
x,y,z
-x,y,1/2-z
-x,-y,-z
x,-y,1/2+z
1/2+x,1/2+y,z
1/2-x,1/2+y,1/2-z
1/2-x,1/2-y,-z
1/2+x,1/2-y,1/2+z
loop_
_atom_site_type_symbol
_atom_site_label
_atom_site_fract_x
_atom_site_fract_y
_atom_site_fract_z
Si Si1 0.233208 0.833235 0.055549
Si Si2 0.909999 0.035664 0.432020
Si Si3 0.390369 0.942723 0.367773
Si Si4 0.594763 0.369193 0.418078
Si Si5 0.705085 0.988192 0.117959
O O1 0.329493 0.938423 0.212868
O O2 0.198848 0.665883 0.059517
O O3 0.250000 0.750000 0.000000
O O4 0.153276 0.992211 0.944097
O O5 0.881974 0.245120 0.390816
O O6 0.932226 0.009348 0.546361
O O7 0.816241 0.922979 0.280280
O O8 0.000000 0.000000 0.500000
O O9 0.342144 0.060234 0.368647
O O10 0.500000 0.000000 0.500000
O O11 0.500000 0.306654 0.250000
O O12 0.653154 0.183005 0.511139
#
# Coordination Sequence:
#
# PCOD8148336 Si02
#       5
#     8   8   8   8   8
#     4  11  26  43  68 103 141 182 224 293 354 396
#     4  10  23  40  69  98 128 180 230 275 337 413
#     4  10  23  40  70  99 127 184 230 271 342 411
#     4  11  26  43  68 101 139 181 228 287 350 402
#     4  10  24  48  67  96 141 182 230 283 339 416
#
# _framework density 21.444780999999999
#
# number of rings (size 3 to 8) (size 9 to 14) (size 15 to 20)
#    0.000    1.600    2.000    0.000   11.200    4.800 
#    0.000    0.000    0.000    0.000    0.000    0.000 
#    0.000    0.000    0.000    0.000    0.000    0.000 
#
# Total GULP energy -247870.082172 kJ/mol
# GULP energy per Si atom -12393.504109 kJ/mol
# Density = 2.139597 g / cm^3
# Si number density = 21.444781 Si / 1000 Ang^3
#
#
#
# Elastic Constant Matrix: (Units=GPa)
#
#
# Indices 1 2 3 4 5 6 
#
# 1 141.0648 34.8918 81.6328 -0.0001 11.6009 0.0000
# 2 34.8918 82.6672 59.1522 0.0002 -2.9171 0.0001
# 3 81.6328 59.1522 188.2887 0.0000 8.3481 0.0000
# 4 -0.0001 0.0002 0.0000 35.2336 0.0000 0.7488
# 5 11.6009 -2.9171 8.3481 0.0000 41.3924 0.0000
# 6 0.0000 0.0001 0.0000 0.7488 0.0000 35.6327
#
#
#
# Elastic Compliance Matrix: (Units=1/GPa)
#
#
# Indices 1 2 3 4 5 6 
#
# 1 0.009762 -0.001591 -0.003639 0.000000 -0.002114 0.000000
# 2 -0.001591 0.016048 -0.004462 0.000000 0.002477 0.000000
# 3 -0.003639 -0.004462 0.008333 0.000000 -0.000975 0.000000
# 4 0.000000 0.000000 0.000000 0.028395 0.000000 -0.000597
# 5 -0.002114 0.002477 -0.000975 0.000000 0.025123 0.000000
# 6 0.000000 0.000000 0.000000 -0.000597 0.000000 0.028077
#
#
# Mechanical properties :
#
#
# Convention : Reuss Voigt Hill
#
# Bulk Modulus (GPa) = 67.74787 84.81936 76.28361
# Shear Modulus (GPa) = 35.70379 38.20801 36.95590
#
# Velocity S-wave (km/s) = 4.08477 4.22559 4.15577
# Velocity P-wave (km/s) = 7.34217 7.96529 7.66007
#
# Compressibility (1/GPa) = 0.01476061
#
# Stress axis : x y z
#
# Youngs Moduli (GPa) = 102.43689 62.31236 119.99851
#
# Poissons Ratio (x) = 0.09916 0.43664
# Poissons Ratio (y) = 0.16301 0.53538
# Poissons Ratio (z) = 0.37274 0.27801
#
# Static dielectric constant tensor:
#      x y z
#    x 4.179360 0.000000 -0.147130 
#    y 0.000000 3.960940 0.000000 
#    z -0.147130 0.000000 3.929150 
# 
# 
# High freq. dielectric constant tensor:
#      x y z
#    x 1.846210 0.000000 0.000840 
#    y 0.000000 1.846810 0.000000 
#    z 0.000840 0.000000 1.844070 
# 
# From -- ./inp_files/221956.got.cif
#   From: 2010.06.25/outbox.cif.g09.slc.cpg/sg15_111_cif.got.tgz:221956.got - 2010.06.28 07:06:18.
