data_PCOD8148403
_publ_section_title
;
Structure prediction by ZEFSAII (Michael W. Deem and Ramdas Pophale) SiO2 
 PCOD8148403
Probable space group: C 2/C
;
_chemical_formula_sum "Si O2"
_cell_formula_units_Z 24
_cell_length_a 25.470623
_cell_length_b 7.218302
_cell_length_c 16.589332
_cell_angle_alpha 90.000000
_cell_angle_beta 165.159245
_cell_angle_gamma 90.000000
_cell_volume 781.213491
_symmetry_space_group_name_H-M "C 2/C"
_symmetry_group_IT_number 15
_symmetry_cell_setting 'monoclinic'
loop_
_space_group_symop_operation_xyz
x,y,z
-x,y,1/2-z
-x,-y,-z
x,-y,1/2+z
1/2+x,1/2+y,z
1/2-x,1/2+y,1/2-z
1/2-x,1/2-y,-z
1/2+x,1/2-y,1/2+z
loop_
_atom_site_type_symbol
_atom_site_label
_atom_site_fract_x
_atom_site_fract_y
_atom_site_fract_z
Si Si1 0.380778 0.791252 0.340652
Si Si2 0.860444 0.094356 0.613495
Si Si3 0.298136 0.417771 0.269957
O O1 0.243583 0.601381 0.135986
O O2 0.618227 0.745500 0.665985
O O3 0.384337 0.850416 0.441853
O O4 0.303468 0.949706 0.167631
O O5 0.750000 0.250000 0.500000
O O6 0.000000 0.190370 0.750000
O O7 0.005153 0.966218 0.882969
#
# Coordination Sequence:
#
# PCOD8148403 Si02
#       3
#     8   8   8
#     4  10  23  41  63  94 128 172 223 272 334 398
#     4  10  23  41  63  94 131 173 220 276 338 399
#     4  10  23  41  64  94 131 174 220 277 336 400
#
# _framework density 30.721433999999999
#
# number of rings (size 3 to 8) (size 9 to 14) (size 15 to 20)
#    0.000    2.000    0.000    1.000    0.000   18.667 
#    0.000    0.000    0.000    0.000    0.000    0.000 
#    0.000    0.000    0.000    0.000    0.000    0.000 
#
# Total GULP energy -148770.192606 kJ/mol
# GULP energy per Si atom -12397.516050 kJ/mol
# Density = 3.065151 g / cm^3
# Si number density = 30.721434 Si / 1000 Ang^3
#
#
#
# Elastic Constant Matrix: (Units=GPa)
#
#
# Indices 1 2 3 4 5 6 
#
# 1 242.5182 126.4255 81.2157 0.0000 36.8861 0.0000
# 2 126.4255 258.9947 43.8628 0.0000 36.3534 0.0000
# 3 81.2157 43.8628 116.5920 0.0000 33.7287 0.0000
# 4 0.0000 0.0000 0.0000 19.7935 0.0000 19.7820
# 5 36.8861 36.3534 33.7287 0.0000 66.9711 0.0000
# 6 0.0000 0.0000 0.0000 19.7820 0.0000 88.0075
#
#
#
# Elastic Compliance Matrix: (Units=1/GPa)
#
#
# Indices 1 2 3 4 5 6 
#
# 1 0.006768 -0.002627 -0.003582 0.000000 -0.000497 0.000000
# 2 -0.002627 0.005317 0.000288 0.000000 -0.001584 0.000000
# 3 -0.003582 0.000288 0.012219 0.000000 -0.004337 0.000000
# 4 0.000000 0.000000 0.000000 0.065159 0.000000 -0.014646
# 5 -0.000497 -0.001584 -0.004337 0.000000 0.018250 0.000000
# 6 0.000000 0.000000 0.000000 -0.014646 0.000000 0.014655
#
#
# Mechanical properties :
#
#
# Convention : Reuss Voigt Hill
#
# Bulk Modulus (GPa) = 80.25103 124.56809 102.40956
# Shear Modulus (GPa) = 36.13624 59.39447 47.76535
#
# Velocity S-wave (km/s) = 3.43338 4.40173 3.94736
# Velocity P-wave (km/s) = 6.47274 8.15287 7.36090
#
# Compressibility (1/GPa) = 0.01246090
#
# Stress axis : x y z
#
# Youngs Moduli (GPa) = 147.74479 188.06897 81.84269
#
# Poissons Ratio (x) = 0.49413 0.29319
# Poissons Ratio (y) = 0.38818 -0.02358
# Poissons Ratio (z) = 0.52928 -0.05419
#
# Static dielectric constant tensor:
#      x y z
#    x 6.878780 0.000000 -0.232930 
#    y 0.000000 6.304870 0.000000 
#    z -0.232930 0.000000 7.335980 
# 
# 
# High freq. dielectric constant tensor:
#      x y z
#    x 2.298970 0.000000 0.008890 
#    y 0.000000 2.293730 0.000000 
#    z 0.008890 0.000000 2.257940 
# 
# From -- ./inp_files/92835.got.cif
#   From: 2010.06.25/outbox.cif.g09.slc.cpg/sg15_47_cif.got.tgz:92835.got - 2010.06.28 07:06:18.
