data_PCOD8148460
_publ_section_title
;
Structure prediction by ZEFSAII (Michael W. Deem and Ramdas Pophale) SiO2 
 PCOD8148460
Probable space group: C 2/C
;
_chemical_formula_sum "Si O2"
_cell_formula_units_Z 60
_cell_length_a 17.135458
_cell_length_b 14.721129
_cell_length_c 10.835325
_cell_angle_alpha 90.000000
_cell_angle_beta 83.150726
_cell_angle_gamma 90.000000
_cell_volume 2713.740034
_symmetry_space_group_name_H-M "C 2/C"
_symmetry_group_IT_number 15
_symmetry_cell_setting 'monoclinic'
loop_
_space_group_symop_operation_xyz
x,y,z
-x,y,1/2-z
-x,-y,-z
x,-y,1/2+z
1/2+x,1/2+y,z
1/2-x,1/2+y,1/2-z
1/2-x,1/2-y,-z
1/2+x,1/2-y,1/2+z
loop_
_atom_site_type_symbol
_atom_site_label
_atom_site_fract_x
_atom_site_fract_y
_atom_site_fract_z
Si Si1 0.129896 0.744206 0.021736
Si Si2 0.333717 0.290710 0.753671
Si Si3 0.265841 0.522075 0.296763
Si Si4 0.536918 0.766200 0.872289
Si Si5 0.177748 0.541374 0.062061
Si Si6 0.813470 0.174515 0.739826
Si Si7 0.046208 0.417303 0.042233
Si Si8 0.000000 0.292248 0.250000
O O1 0.136367 0.634831 0.027471
O O2 0.178569 0.789649 0.122482
O O3 0.037407 0.772744 0.036809
O O4 0.167542 0.788691 0.894226
O O5 0.321988 0.391572 0.811403
O O6 0.263483 0.221529 0.808942
O O7 0.419562 0.262706 0.788785
O O8 0.215677 0.557710 0.188746
O O9 0.226632 0.494459 0.434148
O O10 0.310265 0.433886 0.237719
O O11 0.500000 0.796685 0.750000
O O12 0.606877 0.694009 0.850834
O O13 0.576497 0.855569 0.923486
O O14 0.118447 0.458902 0.104214
O O15 0.987236 0.356910 0.135171
O O16 0.000000 0.500000 0.000000
#
# Coordination Sequence:
#
# PCOD8148460 Si02
#       8
#     8   8   8   8   8   8   8   4
#     4  11  21  46  74  95 141 195 232 282 357 443
#     4  12  23  47  71  95 146 185 238 287 349 429
#     4  12  27  45  73 107 135 192 241 292 352 422
#     4  10  23  41  66 104 136 178 227 286 352 411
#     4  12  25  43  72 108 139 179 240 290 363 427
#     4  11  23  43  74 101 138 179 244 288 345 425
#     4  12  25  38  68 100 144 171 228 288 361 431
#     4  12  28  44  64 102 142 194 222 292 370 410
#
# _framework density 22.109708999999999
#
# number of rings (size 3 to 8) (size 9 to 14) (size 15 to 20)
#    0.000    0.533    5.333    2.800    4.667    1.067 
#    3.600    3.333    0.000    0.000    0.000    0.000 
#    0.000    0.000    0.000    0.000    0.000    0.000 
#
# Total GULP energy -371788.269122 kJ/mol
# GULP energy per Si atom -12392.942304 kJ/mol
# Density = 2.205939 g / cm^3
# Si number density = 22.109709 Si / 1000 Ang^3
#
#
#
# Elastic Constant Matrix: (Units=GPa)
#
#
# Indices 1 2 3 4 5 6 
#
# 1 124.5774 44.2524 16.2954 0.0000 -9.6576 0.0000
# 2 44.2524 137.0701 12.2046 0.0000 -12.0368 0.0000
# 3 16.2954 12.2046 65.8918 0.0000 -12.9745 0.0000
# 4 0.0000 0.0000 0.0000 34.5201 0.0000 2.3375
# 5 -9.6576 -12.0368 -12.9745 0.0000 32.5757 0.0000
# 6 0.0000 0.0000 0.0000 2.3375 0.0000 26.7686
#
#
#
# Elastic Compliance Matrix: (Units=1/GPa)
#
#
# Indices 1 2 3 4 5 6 
#
# 1 0.009301 -0.002765 -0.001569 0.000000 0.001111 0.000000
# 2 -0.002765 0.008414 -0.000460 0.000000 0.002106 0.000000
# 3 -0.001569 -0.000460 0.016846 0.000000 0.006074 0.000000
# 4 0.000000 0.000000 0.000000 0.029141 0.000000 -0.002545
# 5 0.001111 0.002106 0.006074 0.000000 0.034224 0.000000
# 6 0.000000 0.000000 0.000000 -0.002545 0.000000 0.037579
#
#
# Mechanical properties :
#
#
# Convention : Reuss Voigt Hill
#
# Bulk Modulus (GPa) = 40.04552 52.56045 46.30299
# Shear Modulus (GPa) = 32.59055 35.75869 34.17462
#
# Velocity S-wave (km/s) = 3.84349 4.02597 3.93578
# Velocity P-wave (km/s) = 6.15207 6.74058 6.45304
#
# Compressibility (1/GPa) = 0.02497158
#
# Stress axis : x y z
#
# Youngs Moduli (GPa) = 107.51697 118.84598 59.36221
#
# Poissons Ratio (x) = 0.32867 0.09315
# Poissons Ratio (y) = 0.29734 0.02730
# Poissons Ratio (z) = 0.16872 0.05466
#
# Static dielectric constant tensor:
#      x y z
#    x 1.743780 0.000000 -0.118510 
#    y 0.000000 4.069230 0.000000 
#    z -0.118510 0.000000 4.137450 
# 
# 
# High freq. dielectric constant tensor:
#      x y z
#    x 1.873450 0.000000 -0.001830 
#    y 0.000000 1.865770 0.000000 
#    z -0.001830 0.000000 1.874480 
# 
# From -- ./inp_files/105341.got.cif
#   From: 2010.06.25/outbox.cif.g09.slc.cpg/sg15_53_cif.got.tgz:105341.got - 2010.06.28 07:06:18.
