data_PCOD8148723
_publ_section_title
;
Structure prediction by ZEFSAII (Michael W. Deem and Ramdas Pophale) SiO2 
 PCOD8148723
Probable space group: C 2/C
;
_chemical_formula_sum "Si O2"
_cell_formula_units_Z 48
_cell_length_a 22.569664
_cell_length_b 6.657940
_cell_length_c 21.356387
_cell_angle_alpha 90.000000
_cell_angle_beta 133.502979
_cell_angle_gamma 90.000000
_cell_volume 2327.734968
_symmetry_space_group_name_H-M "C 2/C"
_symmetry_group_IT_number 15
_symmetry_cell_setting 'monoclinic'
loop_
_space_group_symop_operation_xyz
x,y,z
-x,y,1/2-z
-x,-y,-z
x,-y,1/2+z
1/2+x,1/2+y,z
1/2-x,1/2+y,1/2-z
1/2-x,1/2-y,-z
1/2+x,1/2-y,1/2+z
loop_
_atom_site_type_symbol
_atom_site_label
_atom_site_fract_x
_atom_site_fract_y
_atom_site_fract_z
Si Si1 0.565269 0.081786 0.596066
Si Si2 0.790315 0.333275 0.848110
Si Si3 0.622726 0.238240 0.376045
Si Si4 0.548496 0.804186 0.693252
Si Si5 0.635031 0.515010 0.168602
Si Si6 0.758632 0.444576 0.965674
O O1 0.568370 0.324642 0.594735
O O2 0.500000 0.000000 0.500000
O O3 0.654352 0.001222 0.643808
O O4 0.539711 0.008864 0.647005
O O5 0.701062 0.352673 0.753637
O O6 0.825316 0.109113 0.860234
O O7 0.788978 0.373793 0.920436
O O8 0.539291 0.285757 0.351944
O O9 0.602174 0.141992 0.293440
O O10 0.671590 0.443954 0.399813
O O11 0.673775 0.085696 0.454696
O O12 0.593009 0.637161 0.685059
O O13 0.750000 0.250000 0.000000
#
# Coordination Sequence:
#
# PCOD8148723 Si02
#       6
#     8   8   8   8   8   8
#     4  11  25  42  66  96 130 168 219 278 331 389
#     4  11  23  41  66  99 127 172 219 268 332 393
#     4  10  23  43  63  97 134 171 216 273 320 399
#     4  10  23  42  68  93 131 175 216 267 335 392
#     4  11  23  41  70  95 131 173 222 273 329 407
#     4  11  25  40  67  96 132 172 219 268 327 390
#
# _framework density 20.620903999999999
#
# number of rings (size 3 to 8) (size 9 to 14) (size 15 to 20)
#    0.000    1.333    3.333    1.000    2.333    9.333 
#    0.000    3.333    0.000    0.000    0.000    0.000 
#    0.000    0.000    0.000    0.000    0.000    0.000 
#
# Total GULP energy -297670.779590 kJ/mol
# GULP energy per Si atom -12402.949150 kJ/mol
# Density = 2.057397 g / cm^3
# Si number density = 20.620904 Si / 1000 Ang^3
#
#
#
# Elastic Constant Matrix: (Units=GPa)
#
#
# Indices 1 2 3 4 5 6 
#
# 1 121.3436 51.8834 56.5654 0.0000 -16.1229 0.0001
# 2 51.8834 128.9841 48.3105 0.0001 -13.8276 -0.0001
# 3 56.5654 48.3105 118.7543 -0.0001 -14.3753 0.0000
# 4 0.0000 0.0001 -0.0001 33.0478 0.0000 -0.1581
# 5 -16.1229 -13.8276 -14.3753 0.0000 37.5849 0.0001
# 6 0.0001 -0.0001 0.0000 -0.1581 0.0001 28.8741
#
#
#
# Elastic Compliance Matrix: (Units=1/GPa)
#
#
# Indices 1 2 3 4 5 6 
#
# 1 0.011721 -0.002921 -0.004106 0.000000 0.002383 0.000000
# 2 -0.002921 0.010026 -0.002508 0.000000 0.001476 0.000000
# 3 -0.004106 -0.002508 0.011610 0.000000 0.001756 0.000000
# 4 0.000000 0.000000 0.000000 0.030260 0.000000 0.000166
# 5 0.002383 0.001476 0.001756 0.000000 0.028843 0.000000
# 6 0.000000 0.000000 0.000000 0.000166 0.000000 0.034634
#
#
# Mechanical properties :
#
#
# Convention : Reuss Voigt Hill
#
# Bulk Modulus (GPa) = 70.00566 75.84454 72.92510
# Shear Modulus (GPa) = 33.12873 34.05621 33.59247
#
# Velocity S-wave (km/s) = 4.01254 4.06832 4.04053
# Velocity P-wave (km/s) = 7.44915 7.67649 7.56368
#
# Compressibility (1/GPa) = 0.01428456
#
# Stress axis : x y z
#
# Youngs Moduli (GPa) = 85.31850 99.74341 86.13575
#
# Poissons Ratio (x) = 0.29138 0.35368
# Poissons Ratio (y) = 0.24924 0.21606
# Poissons Ratio (z) = 0.35032 0.25020
#
# Static dielectric constant tensor:
#      x y z
#    x 4.044060 -0.000010 0.088360 
#    y -0.000010 3.275160 0.000000 
#    z 0.088360 0.000000 3.831540 
# 
# 
# High freq. dielectric constant tensor:
#      x y z
#    x 1.818190 0.000000 0.000270 
#    y 0.000000 1.803140 0.000000 
#    z 0.000270 0.000000 1.817580 
# 
# From -- ./inp_files/254235.got.cif
#   From: 2010.06.25/outbox.cif.g09.slc.cpg/sg15_128_cif.got.tgz:254235.got - 2010.06.28 07:06:18.
