data_PCOD8148319
_publ_section_title
;
Structure prediction by ZEFSAII (Michael W. Deem and Ramdas Pophale) SiO2 
 PCOD8148319
Probable space group: C 2/C
;
_chemical_formula_sum "Si O2"
_cell_formula_units_Z 32
_cell_length_a 7.762820
_cell_length_b 34.734981
_cell_length_c 5.066573
_cell_angle_alpha 90.000000
_cell_angle_beta 97.552795
_cell_angle_gamma 90.000000
_cell_volume 1354.305307
_symmetry_space_group_name_H-M "C 2/C"
_symmetry_group_IT_number 15
_symmetry_cell_setting 'monoclinic'
loop_
_space_group_symop_operation_xyz
x,y,z
-x,y,1/2-z
-x,-y,-z
x,-y,1/2+z
1/2+x,1/2+y,z
1/2-x,1/2+y,1/2-z
1/2-x,1/2-y,-z
1/2+x,1/2-y,1/2+z
loop_
_atom_site_type_symbol
_atom_site_label
_atom_site_fract_x
_atom_site_fract_y
_atom_site_fract_z
Si Si1 0.193092 0.484311 0.615330
Si Si2 0.607665 0.718935 0.534973
Si Si3 0.206159 0.098737 0.266183
Si Si4 0.193727 0.354895 0.231491
O O1 0.287715 0.487440 0.350194
O O2 0.201505 0.442420 0.753609
O O3 0.000000 0.500000 0.500000
O O4 0.500000 0.738627 0.750000
O O5 0.750000 0.750000 0.500000
O O6 0.679297 0.679979 0.677092
O O7 0.500000 0.708780 0.250000
O O8 0.273854 0.110537 0.564819
O O9 0.000000 0.095003 0.250000
O O10 0.269725 0.129223 0.056823
O O11 0.000000 0.339545 0.250000
#
# Coordination Sequence:
#
# PCOD8148319 Si02
#       4
#     8   8   8   8
#     4  10  23  40  67  97 138 181 244 292 378 426
#     4  12  26  48  77 110 154 191 242 298 357 434
#     4  12  26  45  71 104 144 188 243 312 368 429
#     4  12  27  45  73 105 145 195 245 292 368 432
#
# _framework density 23.628352
#
# number of rings (size 3 to 8) (size 9 to 14) (size 15 to 20)
#    0.000    0.500    0.000    8.250   10.500    3.000 
#    0.000    0.000    0.000    0.000    0.000    0.000 
#    0.000    0.000    0.000    0.000    0.000    0.000 
#
# Total GULP energy -198237.512464 kJ/mol
# GULP energy per Si atom -12389.844529 kJ/mol
# Density = 2.357457 g / cm^3
# Si number density = 23.628352 Si / 1000 Ang^3
#
#
#
# Elastic Constant Matrix: (Units=GPa)
#
#
# Indices 1 2 3 4 5 6 
#
# 1 128.5669 32.9968 39.6557 0.0000 -11.4466 0.0000
# 2 32.9968 125.5373 44.3911 0.0000 -2.9685 0.0000
# 3 39.6557 44.3911 174.0313 0.0000 -9.1075 0.0000
# 4 0.0000 0.0000 0.0000 42.9955 0.0000 -7.8959
# 5 -11.4466 -2.9685 -9.1075 0.0000 38.1037 0.0000
# 6 0.0000 0.0000 0.0000 -7.8959 0.0000 13.8511
#
#
#
# Elastic Compliance Matrix: (Units=1/GPa)
#
#
# Indices 1 2 3 4 5 6 
#
# 1 0.008875 -0.001766 -0.001458 0.000000 0.002180 0.000000
# 2 -0.001766 0.009108 -0.001936 0.000000 -0.000284 0.000000
# 3 -0.001458 -0.001936 0.006624 0.000000 0.000995 0.000000
# 4 0.000000 0.000000 0.000000 0.025978 0.000000 0.014809
# 5 0.002180 -0.000284 0.000995 0.000000 0.027115 0.000000
# 6 0.000000 0.000000 0.000000 0.014809 0.000000 0.080638
#
#
# Mechanical properties :
#
#
# Convention : Reuss Voigt Hill
#
# Bulk Modulus (GPa) = 69.98698 73.58028 71.78363
# Shear Modulus (GPa) = 28.83198 39.72951 34.28075
#
# Velocity S-wave (km/s) = 3.49697 4.10498 3.81311
# Velocity P-wave (km/s) = 6.78154 7.32640 7.05922
#
# Compressibility (1/GPa) = 0.01428837
#
# Stress axis : x y z
#
# Youngs Moduli (GPa) = 112.67642 109.79826 150.96486
#
# Poissons Ratio (x) = 0.19387 0.22008
# Poissons Ratio (y) = 0.19895 0.29221
# Poissons Ratio (z) = 0.16426 0.21253
#
# Static dielectric constant tensor:
#      x y z
#    x 4.004770 0.000000 1.612820 
#    y 0.000000 4.180270 0.000000 
#    z 1.612820 0.000000 0.159410 
# 
# 
# High freq. dielectric constant tensor:
#      x y z
#    x 1.935080 0.000000 -0.002340 
#    y 0.000000 1.936770 0.000000 
#    z -0.002340 0.000000 1.974010 
# 
# From -- ./inp_files/2650.got.cif
#   From: 2010.06.25/outbox.cif.g09.slc.cpg/sg15_2_cif.got.tgz:2650.got - 2010.06.28 07:06:18.
