data_PCOD8148957
_publ_section_title
;
Structure prediction by ZEFSAII (Michael W. Deem and Ramdas Pophale) SiO2 
 PCOD8148957
Probable space group: C 2/C
;
_chemical_formula_sum "Si O2"
_cell_formula_units_Z 56
_cell_length_a 15.392284
_cell_length_b 8.408015
_cell_length_c 19.032214
_cell_angle_alpha 90.000000
_cell_angle_beta 93.525220
_cell_angle_gamma 90.000000
_cell_volume 2458.460985
_symmetry_space_group_name_H-M "C 2/C"
_symmetry_group_IT_number 15
_symmetry_cell_setting 'monoclinic'
loop_
_space_group_symop_operation_xyz
x,y,z
-x,y,1/2-z
-x,-y,-z
x,-y,1/2+z
1/2+x,1/2+y,z
1/2-x,1/2+y,1/2-z
1/2-x,1/2-y,-z
1/2+x,1/2-y,1/2+z
loop_
_atom_site_type_symbol
_atom_site_label
_atom_site_fract_x
_atom_site_fract_y
_atom_site_fract_z
Si Si1 0.925019 0.692895 0.194093
Si Si2 0.754545 0.075113 0.314574
Si Si3 0.030356 0.652563 0.458486
Si Si4 0.823503 0.845107 0.963120
Si Si5 0.644760 0.716345 0.533045
Si Si6 0.188504 0.274456 0.387650
Si Si7 0.589035 0.549778 0.285325
O O1 0.827183 0.673430 0.221651
O O2 0.927697 0.612567 0.115941
O O3 0.000000 0.622431 0.250000
O O4 0.939938 0.880179 0.185895
O O5 0.801000 0.170228 0.379770
O O6 0.830434 0.037364 0.264069
O O7 0.702686 0.918530 0.335733
O O8 0.088030 0.756268 0.514053
O O9 0.000000 0.500000 0.500000
O O10 0.948024 0.764434 0.435167
O O11 0.830665 0.032180 0.982298
O O12 0.750000 0.750000 0.000000
O O13 0.715230 0.794175 0.589607
O O14 0.646427 0.820271 0.461134
O O15 0.121749 0.150135 0.352301
O O16 0.500000 0.628223 0.250000
#
# Coordination Sequence:
#
# PCOD8148957 Si02
#       7
#     8   8   8   8   8   8   8
#     4  11  26  46  70 102 144 183 231 285 358 424
#     4  11  24  45  67  98 137 182 228 287 344 420
#     4  12  26  44  73 107 140 181 238 293 352 422
#     4  11  24  44  68 100 138 179 233 286 347 410
#     4  10  24  41  74  96 136 179 227 288 347 411
#     4  10  23  43  68  97 130 173 233 277 345 406
#     4  11  26  42  68  98 137 182 232 280 350 422
#
# _framework density 22.778478
#
# number of rings (size 3 to 8) (size 9 to 14) (size 15 to 20)
#    0.000    1.143    1.429    3.000   16.000    0.571 
#    2.571    0.000    0.000    0.000    0.000    0.000 
#    0.000    0.000    0.000    0.000    0.000    0.000 
#
# Total GULP energy -347002.949798 kJ/mol
# GULP energy per Si atom -12392.962493 kJ/mol
# Density = 2.272663 g / cm^3
# Si number density = 22.778478 Si / 1000 Ang^3
#
#
#
# Elastic Constant Matrix: (Units=GPa)
#
#
# Indices 1 2 3 4 5 6 
#
# 1 166.0977 30.5124 37.8887 0.0000 20.5903 0.0000
# 2 30.5124 56.4842 21.5856 0.0000 10.2817 0.0000
# 3 37.8887 21.5856 92.2470 0.0000 19.8579 0.0000
# 4 0.0000 0.0000 0.0000 32.1092 0.0000 -0.8170
# 5 20.5903 10.2817 19.8579 0.0000 48.5180 0.0000
# 6 0.0000 0.0000 0.0000 -0.8170 0.0000 38.4787
#
#
#
# Elastic Compliance Matrix: (Units=1/GPa)
#
#
# Indices 1 2 3 4 5 6 
#
# 1 0.007189 -0.002844 -0.001930 0.000000 -0.001658 0.000000
# 2 -0.002844 0.020843 -0.003310 0.000000 -0.001855 0.000000
# 3 -0.001930 -0.003310 0.013248 0.000000 -0.003902 0.000000
# 4 0.000000 0.000000 0.000000 0.031161 0.000000 0.000662
# 5 -0.001658 -0.001855 -0.003902 0.000000 0.023305 0.000000
# 6 0.000000 0.000000 0.000000 0.000662 0.000000 0.026002
#
#
# Mechanical properties :
#
#
# Convention : Reuss Voigt Hill
#
# Bulk Modulus (GPa) = 39.82220 54.97805 47.40012
# Shear Modulus (GPa) = 34.17979 38.81065 36.49522
#
# Velocity S-wave (km/s) = 3.87787 4.13223 4.00707
# Velocity P-wave (km/s) = 6.12950 6.85240 6.50101
#
# Compressibility (1/GPa) = 0.02511162
#
# Stress axis : x y z
#
# Youngs Moduli (GPa) = 139.10437 47.97801 75.48516
#
# Poissons Ratio (x) = 0.13644 0.14571
# Poissons Ratio (y) = 0.39560 0.24983
# Poissons Ratio (z) = 0.26851 0.15879
#
# Static dielectric constant tensor:
#      x y z
#    x 5.291220 0.000000 1.161920 
#    y 0.000000 3.918530 0.000000 
#    z 1.161920 0.000000 5.287750 
# 
# 
# High freq. dielectric constant tensor:
#      x y z
#    x 1.926440 0.000000 0.009860 
#    y 0.000000 1.882850 0.000000 
#    z 0.009860 0.000000 1.895920 
# 
# From -- ./inp_files/242810.got.cif
#   From: 2010.06.25/outbox.cif.g09.slc.cpg/sg15_122_cif.got.tgz:242810.got - 2010.06.28 07:06:18.
