data_PCOD8148214
_publ_section_title
;
Structure prediction by ZEFSAII (Michael W. Deem and Ramdas Pophale) SiO2 
 PCOD8148214
Probable space group: C 2/C
;
_chemical_formula_sum "Si O2"
_cell_formula_units_Z 40
_cell_length_a 10.464823
_cell_length_b 9.328911
_cell_length_c 21.033002
_cell_angle_alpha 90.000000
_cell_angle_beta 106.981345
_cell_angle_gamma 90.000000
_cell_volume 1963.828786
_symmetry_space_group_name_H-M "C 2/C"
_symmetry_group_IT_number 15
_symmetry_cell_setting 'monoclinic'
loop_
_space_group_symop_operation_xyz
x,y,z
-x,y,1/2-z
-x,-y,-z
x,-y,1/2+z
1/2+x,1/2+y,z
1/2-x,1/2+y,1/2-z
1/2-x,1/2-y,-z
1/2+x,1/2-y,1/2+z
loop_
_atom_site_type_symbol
_atom_site_label
_atom_site_fract_x
_atom_site_fract_y
_atom_site_fract_z
Si Si1 0.306763 0.905059 0.994055
Si Si2 0.952973 0.950006 0.064089
Si Si3 0.978255 0.378419 0.577481
Si Si4 0.892307 0.980315 0.287616
Si Si5 0.377092 0.146694 0.276224
O O1 0.440398 0.887838 0.974960
O O2 0.189674 0.983842 0.939489
O O3 0.250000 0.750000 0.000000
O O4 0.355247 0.005867 0.060721
O O5 0.923290 0.782627 0.069993
O O6 0.055423 0.004150 0.132781
O O7 0.000000 0.000000 0.000000
O O8 0.081664 0.409005 0.648651
O O9 0.853327 0.816247 0.269994
O O10 0.000000 0.030257 0.250000
O O11 0.759858 0.074334 0.264293
O O12 0.500000 0.100236 0.250000
#
# Coordination Sequence:
#
# PCOD8148214 Si02
#       5
#     8   8   8   8   8
#     4  11  22  38  60  90 120 156 200 247 305 363
#     4  11  22  39  63  90 121 159 202 250 305 361
#     4  10  23  40  59  88 124 157 199 253 301 360
#     4  10  23  43  62  89 125 160 203 252 305 365
#     4  10  23  40  63  89 119 162 203 248 304 366
#
# _framework density 20.368376999999999
#
# number of rings (size 3 to 8) (size 9 to 14) (size 15 to 20)
#    0.000    1.600    2.000    1.800    2.800    2.400 
#    3.600    0.000    0.000    0.000    0.000    0.000 
#    0.000    0.000    0.000    0.000    0.000    0.000 
#
# Total GULP energy -247846.823166 kJ/mol
# GULP energy per Si atom -12392.341158 kJ/mol
# Density = 2.032202 g / cm^3
# Si number density = 20.368377 Si / 1000 Ang^3
#
#
#
# Elastic Constant Matrix: (Units=GPa)
#
#
# Indices 1 2 3 4 5 6 
#
# 1 103.1552 55.4365 43.5614 0.0000 23.6128 0.0000
# 2 55.4365 105.3322 65.6633 0.0000 30.3445 0.0000
# 3 43.5614 65.6633 133.7312 0.0000 17.8818 0.0000
# 4 0.0000 0.0000 0.0000 32.6989 0.0000 10.4688
# 5 23.6128 30.3445 17.8818 0.0000 40.9568 0.0000
# 6 0.0000 0.0000 0.0000 10.4688 0.0000 34.9231
#
#
#
# Elastic Compliance Matrix: (Units=1/GPa)
#
#
# Indices 1 2 3 4 5 6 
#
# 1 0.014036 -0.005543 -0.001399 0.000000 -0.003375 0.000000
# 2 -0.005543 0.018573 -0.006267 0.000000 -0.007829 0.000000
# 3 -0.001399 -0.006267 0.010920 0.000000 0.000683 0.000000
# 4 0.000000 0.000000 0.000000 0.033829 0.000000 -0.010141
# 5 -0.003375 -0.007829 0.000683 0.000000 0.031864 0.000000
# 6 0.000000 0.000000 0.000000 -0.010141 0.000000 0.031674
#
#
# Mechanical properties :
#
#
# Convention : Reuss Voigt Hill
#
# Bulk Modulus (GPa) = 58.44450 74.61568 66.53009
# Shear Modulus (GPa) = 28.89865 33.55291 31.22578
#
# Velocity S-wave (km/s) = 3.77078 4.06310 3.91967
# Velocity P-wave (km/s) = 6.90756 7.66318 7.29516
#
# Compressibility (1/GPa) = 0.01711025
#
# Stress axis : x y z
#
# Youngs Moduli (GPa) = 71.24382 53.84058 91.57876
#
# Poissons Ratio (x) = 0.29843 0.12815
# Poissons Ratio (y) = 0.39489 0.57396
# Poissons Ratio (z) = 0.09970 0.33744
#
# Static dielectric constant tensor:
#      x y z
#    x 3.523540 0.000000 -0.071400 
#    y 0.000000 3.527020 0.000000 
#    z -0.071400 0.000000 3.893000 
# 
# 
# High freq. dielectric constant tensor:
#      x y z
#    x 1.800420 0.000000 0.010690 
#    y 0.000000 1.804140 0.000000 
#    z 0.010690 0.000000 1.800740 
# 
# From -- ./inp_files/195144.got.cif
#   From: 2010.06.25/outbox.cif.g09.slc.cpg/sg15_98_cif.got.tgz:195144.got - 2010.06.28 07:06:18.
