data_PCOD8148299
_publ_section_title
;
Structure prediction by ZEFSAII (Michael W. Deem and Ramdas Pophale) SiO2 
 PCOD8148299
Probable space group: C 2/C
;
_chemical_formula_sum "Si O2"
_cell_formula_units_Z 40
_cell_length_a 6.068837
_cell_length_b 17.001648
_cell_length_c 17.755773
_cell_angle_alpha 90.000000
_cell_angle_beta 93.428804
_cell_angle_gamma 90.000000
_cell_volume 1828.765183
_symmetry_space_group_name_H-M "C 2/C"
_symmetry_group_IT_number 15
_symmetry_cell_setting 'monoclinic'
loop_
_space_group_symop_operation_xyz
x,y,z
-x,y,1/2-z
-x,-y,-z
x,-y,1/2+z
1/2+x,1/2+y,z
1/2-x,1/2+y,1/2-z
1/2-x,1/2-y,-z
1/2+x,1/2-y,1/2+z
loop_
_atom_site_type_symbol
_atom_site_label
_atom_site_fract_x
_atom_site_fract_y
_atom_site_fract_z
Si Si1 0.794226 0.956594 0.453428
Si Si2 0.842526 0.810834 0.676573
Si Si3 0.035027 0.839144 0.169705
Si Si4 0.967107 0.410013 0.910469
Si Si5 0.222436 0.766054 0.585615
O O1 0.873810 0.899319 0.389795
O O2 0.653349 0.907398 0.510993
O O3 0.621693 0.013950 0.407396
O O4 0.000000 0.000000 0.500000
O O5 0.687834 0.736371 0.689102
O O6 0.719971 0.894909 0.657723
O O7 0.000000 0.826185 0.750000
O O8 0.975650 0.788780 0.603378
O O9 0.000000 0.881713 0.250000
O O10 0.798355 0.810257 0.134196
O O11 0.118738 0.337333 0.895096
O O12 0.250000 0.750000 0.500000
#
# Coordination Sequence:
#
# PCOD8148299 Si02
#       5
#     8   8   8   8   8
#     4  11  23  44  66  95 138 177 224 275 341 413
#     4  11  22  41  67  95 133 169 223 287 338 394
#     4  11  23  41  66  99 128 172 225 281 343 409
#     4  10  23  40  66  96 127 178 223 273 330 418
#     4  11  21  39  68  96 123 171 226 278 332 394
#
# _framework density 21.872682000000001
#
# number of rings (size 3 to 8) (size 9 to 14) (size 15 to 20)
#    0.000    1.200    2.000    4.800    0.000    4.800 
#    0.000    6.000    0.000    0.000    0.000    0.000 
#    0.000    0.000    0.000    0.000    0.000    0.000 
#
# Total GULP energy -247781.935102 kJ/mol
# GULP energy per Si atom -12389.096755 kJ/mol
# Density = 2.182290 g / cm^3
# Si number density = 21.872682 Si / 1000 Ang^3
#
#
#
# Elastic Constant Matrix: (Units=GPa)
#
#
# Indices 1 2 3 4 5 6 
#
# 1 99.6403 38.1017 32.6951 0.0000 8.7735 0.0000
# 2 38.1017 96.2486 49.0866 0.0000 11.9056 0.0000
# 3 32.6951 49.0866 109.1666 0.0000 11.7422 0.0000
# 4 0.0000 0.0000 0.0000 32.0223 0.0000 4.7585
# 5 8.7735 11.9056 11.7422 0.0000 45.0215 0.0000
# 6 0.0000 0.0000 0.0000 4.7585 0.0000 27.8657
#
#
#
# Elastic Compliance Matrix: (Units=1/GPa)
#
#
# Indices 1 2 3 4 5 6 
#
# 1 0.012160 -0.003757 -0.001857 0.000000 -0.000892 0.000000
# 2 -0.003757 0.014827 -0.005349 0.000000 -0.001794 0.000000
# 3 -0.001857 -0.005349 0.012275 0.000000 -0.001425 0.000000
# 4 0.000000 0.000000 0.000000 0.032041 0.000000 -0.005472
# 5 -0.000892 -0.001794 -0.001425 0.000000 0.023231 0.000000
# 6 0.000000 0.000000 0.000000 -0.005472 0.000000 0.036821
#
#
# Mechanical properties :
#
#
# Convention : Reuss Voigt Hill
#
# Bulk Modulus (GPa) = 57.67889 60.53580 59.10735
# Shear Modulus (GPa) = 31.43490 33.32672 32.38081
#
# Velocity S-wave (km/s) = 3.79512 3.90765 3.85180
# Velocity P-wave (km/s) = 6.75511 6.93514 6.84572
#
# Compressibility (1/GPa) = 0.01733736
#
# Stress axis : x y z
#
# Youngs Moduli (GPa) = 82.23384 67.44642 81.46767
#
# Poissons Ratio (x) = 0.25337 0.15128
# Poissons Ratio (y) = 0.30892 0.43575
# Poissons Ratio (z) = 0.15270 0.36075
#
# Static dielectric constant tensor:
#      x y z
#    x 4.625800 0.000000 0.105040 
#    y 0.000000 3.943920 0.000000 
#    z 0.105040 0.000000 4.033210 
# 
# 
# High freq. dielectric constant tensor:
#      x y z
#    x 1.881570 0.000000 -0.002260 
#    y 0.000000 1.843770 0.000000 
#    z -0.002260 0.000000 1.865070 
# 
# From -- ./inp_files/184214.got.cif
#   From: 2010.06.25/outbox.cif.g09.slc.cpg/sg15_93_cif.got.tgz:184214.got - 2010.06.28 07:06:18.
