data_PCOD8148438
_publ_section_title
;
Structure prediction by ZEFSAII (Michael W. Deem and Ramdas Pophale) SiO2 
 PCOD8148438
Probable space group: C 2/C
;
_chemical_formula_sum "Si O2"
_cell_formula_units_Z 44
_cell_length_a 11.511573
_cell_length_b 13.090549
_cell_length_c 21.113624
_cell_angle_alpha 90.000000
_cell_angle_beta 41.873878
_cell_angle_gamma 90.000000
_cell_volume 2123.743803
_symmetry_space_group_name_H-M "C 2/C"
_symmetry_group_IT_number 15
_symmetry_cell_setting 'monoclinic'
loop_
_space_group_symop_operation_xyz
x,y,z
-x,y,1/2-z
-x,-y,-z
x,-y,1/2+z
1/2+x,1/2+y,z
1/2-x,1/2+y,1/2-z
1/2-x,1/2-y,-z
1/2+x,1/2-y,1/2+z
loop_
_atom_site_type_symbol
_atom_site_label
_atom_site_fract_x
_atom_site_fract_y
_atom_site_fract_z
Si Si1 0.258453 0.965614 0.914256
Si Si2 0.061378 0.053141 0.879864
Si Si3 0.240109 0.152259 0.694620
Si Si4 0.500000 0.173546 0.250000
Si Si5 0.637381 0.541492 0.150070
Si Si6 0.353282 0.853411 0.469308
O O1 0.429215 0.894963 0.837397
O O2 0.202068 0.997323 0.866469
O O3 0.309289 0.065209 0.933071
O O4 0.098016 0.902959 0.012140
O O5 0.162086 0.135890 0.796618
O O6 0.969530 0.973610 0.870801
O O7 0.443996 0.168359 0.614703
O O8 0.163355 0.259051 0.703659
O O9 0.190164 0.062646 0.665274
O O10 0.500000 0.603707 0.250000
O O11 0.805970 0.605486 0.059760
O O12 0.250000 0.750000 0.500000
#
# Coordination Sequence:
#
# PCOD8148438 Si02
#       6
#     8   8   8   4   8   8
#     4  10  23  41  65  94 132 168 207 266 322 369
#     4   9  19  41  67  89 129 165 210 259 315 376
#     4  11  22  42  66  96 130 164 218 259 317 385
#     4  12  24  40  66 100 126 166 214 260 320 382
#     4   9  19  43  66  94 127 168 211 266 315 370
#     4  11  25  44  65  95 128 171 215 261 316 380
#
# _framework density 20.718131
#
# number of rings (size 3 to 8) (size 9 to 14) (size 15 to 20)
#    0.000    1.818    2.727    1.636    7.636    0.727 
#    4.909    0.000    0.000    0.000    0.000    0.000 
#    0.000    0.000    0.000    0.000    0.000    0.000 
#
# Total GULP energy -272605.545069 kJ/mol
# GULP energy per Si atom -12391.161139 kJ/mol
# Density = 2.067098 g / cm^3
# Si number density = 20.718131 Si / 1000 Ang^3
#
#
#
# Elastic Constant Matrix: (Units=GPa)
#
#
# Indices 1 2 3 4 5 6 
#
# 1 106.8982 40.5292 59.5764 0.0000 -9.5139 0.0000
# 2 40.5292 117.7473 83.6344 -0.0001 -6.0424 0.0000
# 3 59.5764 83.6344 191.6928 -0.0003 -13.7258 0.0001
# 4 0.0000 -0.0001 -0.0003 19.6377 0.0001 7.1929
# 5 -9.5139 -6.0424 -13.7258 0.0001 43.8268 0.0000
# 6 0.0000 0.0000 0.0001 7.1929 0.0000 12.6663
#
#
#
# Elastic Compliance Matrix: (Units=1/GPa)
#
#
# Indices 1 2 3 4 5 6 
#
# 1 0.011745 -0.002100 -0.002631 0.000000 0.001436 0.000000
# 2 -0.002100 0.012682 -0.004898 0.000000 -0.000241 0.000000
# 3 -0.002631 -0.004898 0.008267 0.000000 0.001343 0.000000
# 4 0.000000 0.000000 0.000000 0.064296 0.000000 -0.036513
# 5 0.001436 -0.000241 0.001343 0.000000 0.023516 0.000000
# 6 0.000000 0.000000 0.000000 -0.036513 0.000000 0.099684
#
#
# Mechanical properties :
#
#
# Convention : Reuss Voigt Hill
#
# Bulk Modulus (GPa) = 74.42369 87.09091 80.75730
# Shear Modulus (GPa) = 20.49783 30.73271 25.61527
#
# Velocity S-wave (km/s) = 3.14883 3.85564 3.52002
# Velocity P-wave (km/s) = 7.01571 7.87074 7.45549
#
# Compressibility (1/GPa) = 0.01343658
#
# Stress axis : x y z
#
# Youngs Moduli (GPa) = 85.14148 78.85197 120.95726
#
# Poissons Ratio (x) = 0.16560 0.31826
# Poissons Ratio (y) = 0.17881 0.59241
# Poissons Ratio (z) = 0.22402 0.38619
#
# Static dielectric constant tensor:
#      x y z
#    x 3.729090 0.000000 0.042850 
#    y 0.000000 3.464960 0.000000 
#    z 0.042850 0.000000 4.615890 
# 
# 
# High freq. dielectric constant tensor:
#      x y z
#    x 1.807780 0.000000 -0.005010 
#    y 0.000000 1.778820 0.000000 
#    z -0.005010 0.000000 1.846890 
# 
# From -- ./inp_files/238618.got.cif
#   From: 2010.06.25/outbox.cif.g09.slc.cpg/sg15_120_cif.got.tgz:238618.got - 2010.06.28 07:06:18.
