data_PCOD8148766
_publ_section_title
;
Structure prediction by ZEFSAII (Michael W. Deem and Ramdas Pophale) SiO2 
 PCOD8148766
Probable space group: C 2/C
;
_chemical_formula_sum "Si O2"
_cell_formula_units_Z 48
_cell_length_a 29.293838
_cell_length_b 14.167444
_cell_length_c 13.564833
_cell_angle_alpha 90.000000
_cell_angle_beta 156.998039
_cell_angle_gamma 90.000000
_cell_volume 2199.861095
_symmetry_space_group_name_H-M "C 2/C"
_symmetry_group_IT_number 15
_symmetry_cell_setting 'monoclinic'
loop_
_space_group_symop_operation_xyz
x,y,z
-x,y,1/2-z
-x,-y,-z
x,-y,1/2+z
1/2+x,1/2+y,z
1/2-x,1/2+y,1/2-z
1/2-x,1/2-y,-z
1/2+x,1/2-y,1/2+z
loop_
_atom_site_type_symbol
_atom_site_label
_atom_site_fract_x
_atom_site_fract_y
_atom_site_fract_z
Si Si1 0.103998 0.705795 0.027440
Si Si2 0.608493 0.381369 0.165655
Si Si3 0.255125 0.723886 0.150623
Si Si4 0.459960 0.578016 0.557922
Si Si5 0.615426 0.131364 0.710226
Si Si6 0.641773 0.085104 0.278103
O O1 0.062786 0.789084 0.018558
O O2 0.215442 0.736235 0.183988
O O3 0.140092 0.612999 0.159780
O O4 0.000000 0.674880 0.750000
O O5 0.558556 0.385944 0.177559
O O6 0.748446 0.369422 0.448412
O O7 0.569006 0.469774 0.022085
O O8 0.345980 0.640081 0.314391
O O9 0.313384 0.824515 0.239504
O O10 0.142734 0.698470 0.858758
O O11 0.500000 0.588450 0.750000
O O12 0.477497 0.125574 0.410382
O O13 0.659046 0.026526 0.820049
#
# Coordination Sequence:
#
# PCOD8148766 Si02
#       6
#     8   8   8   8   8   8
#     4  12  25  40  67 102 137 178 226 278 343 410
#     4  11  25  43  69  99 139 177 228 288 339 406
#     4  11  23  43  66  97 134 179 226 275 341 415
#     4  11  24  44  69  99 136 182 231 281 346 409
#     4  10  23  42  70  92 134 179 224 279 347 401
#     4  11  22  45  67  99 133 179 227 288 338 404
#
# _framework density 21.819559000000002
#
# number of rings (size 3 to 8) (size 9 to 14) (size 15 to 20)
#    0.000    1.000    3.333    3.000    2.333    4.000 
#    0.000    0.833    0.000    0.000    0.000    0.000 
#    0.000    0.000    0.000    0.000    0.000    0.000 
#
# Total GULP energy -297639.123184 kJ/mol
# GULP energy per Si atom -12401.630133 kJ/mol
# Density = 2.176990 g / cm^3
# Si number density = 21.819559 Si / 1000 Ang^3
#
#
#
# Elastic Constant Matrix: (Units=GPa)
#
#
# Indices 1 2 3 4 5 6 
#
# 1 101.2057 35.1784 20.5133 0.0000 5.6088 0.0000
# 2 35.1784 82.9942 19.2925 0.0000 13.8757 0.0000
# 3 20.5133 19.2925 92.4806 0.0000 3.5235 0.0000
# 4 0.0000 0.0000 0.0000 26.9867 0.0000 0.1626
# 5 5.6088 13.8757 3.5235 0.0000 29.2770 0.0000
# 6 0.0000 0.0000 0.0000 0.1626 0.0000 33.5057
#
#
#
# Elastic Compliance Matrix: (Units=1/GPa)
#
#
# Indices 1 2 3 4 5 6 
#
# 1 0.011826 -0.004650 -0.001658 0.000000 0.000138 0.000000
# 2 -0.004650 0.015519 -0.001969 0.000000 -0.006227 0.000000
# 3 -0.001658 -0.001969 0.011597 0.000000 -0.000145 0.000000
# 4 0.000000 0.000000 0.000000 0.037056 0.000000 -0.000180
# 5 0.000138 -0.006227 -0.000145 0.000000 0.037099 0.000000
# 6 0.000000 0.000000 0.000000 -0.000180 0.000000 0.029847
#
#
# Mechanical properties :
#
#
# Convention : Reuss Voigt Hill
#
# Bulk Modulus (GPa) = 44.66778 47.40544 46.03661
# Shear Modulus (GPa) = 29.94726 31.40028 30.67377
#
# Velocity S-wave (km/s) = 3.70874 3.79765 3.75346
# Velocity P-wave (km/s) = 6.23342 6.40334 6.31895
#
# Compressibility (1/GPa) = 0.02238750
#
# Stress axis : x y z
#
# Youngs Moduli (GPa) = 84.56170 64.43783 86.22834
#
# Poissons Ratio (x) = 0.29964 0.14299
# Poissons Ratio (y) = 0.39322 0.16976
# Poissons Ratio (z) = 0.14023 0.12686
#
# Static dielectric constant tensor:
#      x y z
#    x 4.014140 0.000000 0.158670 
#    y 0.000000 3.865780 0.000000 
#    z 0.158670 0.000000 3.954840 
# 
# 
# High freq. dielectric constant tensor:
#      x y z
#    x 1.853200 0.000000 0.010340 
#    y 0.000000 1.861230 0.000000 
#    z 0.010340 0.000000 1.870330 
# 
# From -- ./inp_files/182534.got.cif
#   From: 2010.06.25/outbox.cif.g09.slc.cpg/sg15_92_cif.got.tgz:182534.got - 2010.06.28 07:06:18.
