data_PCOD8148852
_publ_section_title
;
Structure prediction by ZEFSAII (Michael W. Deem and Ramdas Pophale) SiO2 
 PCOD8148852
Probable space group: C 2/C
;
_chemical_formula_sum "Si O2"
_cell_formula_units_Z 64
_cell_length_a 16.315438
_cell_length_b 14.813555
_cell_length_c 17.491123
_cell_angle_alpha 90.000000
_cell_angle_beta 46.966376
_cell_angle_gamma 90.000000
_cell_volume 3090.049122
_symmetry_space_group_name_H-M "C 2/C"
_symmetry_group_IT_number 15
_symmetry_cell_setting 'monoclinic'
loop_
_space_group_symop_operation_xyz
x,y,z
-x,y,1/2-z
-x,-y,-z
x,-y,1/2+z
1/2+x,1/2+y,z
1/2-x,1/2+y,1/2-z
1/2-x,1/2-y,-z
1/2+x,1/2-y,1/2+z
loop_
_atom_site_type_symbol
_atom_site_label
_atom_site_fract_x
_atom_site_fract_y
_atom_site_fract_z
Si Si1 0.340295 0.805292 0.898218
Si Si2 0.659146 0.794032 0.896144
Si Si3 0.649399 0.392613 0.813169
Si Si4 0.060310 0.768436 0.309370
Si Si5 0.498807 0.218500 0.875153
Si Si6 0.279945 0.472883 0.569715
Si Si7 0.331294 0.165207 0.847266
Si Si8 0.999052 0.971785 0.335526
O O1 0.344492 0.760902 0.811034
O O2 0.459317 0.803020 0.865415
O O3 0.304444 0.908848 0.921957
O O4 0.250000 0.750000 0.000000
O O5 0.739226 0.869352 0.807526
O O6 0.609437 0.731001 0.862115
O O7 0.723647 0.729223 0.913491
O O8 0.555423 0.829693 0.014969
O O9 0.548482 0.318616 0.866681
O O10 0.682872 0.415823 0.878874
O O11 0.605915 0.487895 0.810219
O O12 0.009556 0.865024 0.323035
O O13 0.406917 0.210061 0.865585
O O14 0.606449 0.165556 0.774904
O O15 0.207150 0.562666 0.622846
O O16 0.386951 0.498733 0.451337
O O17 0.000000 0.013784 0.250000
#
# Coordination Sequence:
#
# PCOD8148852 Si02
#       8
#     8   8   8   8   8   8   8   8
#     4  11  22  41  65  90 127 171 216 261 332 388
#     4  11  22  41  69  95 133 173 218 271 327 396
#     4  11  25  40  67  98 130 174 221 271 325 396
#     4  11  22  41  62  97 125 166 216 272 322 395
#     4  10  23  43  64  97 134 177 220 266 334 401
#     4  12  23  45  67  94 131 175 216 276 334 390
#     4  10  24  41  67  96 133 175 220 268 336 397
#     4  12  24  38  66  98 130 161 221 275 321 382
#
# _framework density 20.711644
#
# number of rings (size 3 to 8) (size 9 to 14) (size 15 to 20)
#    0.000    1.000    3.750    3.000    5.250    2.000 
#    0.000    1.875    0.000    0.000    0.000    0.000 
#    0.000    0.000    0.000    0.000    0.000    0.000 
#
# Total GULP energy -396532.145347 kJ/mol
# GULP energy per Si atom -12391.629542 kJ/mol
# Density = 2.066450 g / cm^3
# Si number density = 20.711644 Si / 1000 Ang^3
#
#
#
# Elastic Constant Matrix: (Units=GPa)
#
#
# Indices 1 2 3 4 5 6 
#
# 1 85.3448 26.0971 19.1683 0.0000 2.8671 0.0000
# 2 26.0971 78.3888 21.8093 0.0000 -4.9377 0.0000
# 3 19.1683 21.8093 155.7486 0.0000 4.3517 0.0000
# 4 0.0000 0.0000 0.0000 20.2197 0.0000 -7.4764
# 5 2.8671 -4.9377 4.3517 0.0000 20.7726 0.0000
# 6 0.0000 0.0000 0.0000 -7.4764 0.0000 36.8126
#
#
#
# Elastic Compliance Matrix: (Units=1/GPa)
#
#
# Indices 1 2 3 4 5 6 
#
# 1 0.013352 -0.004346 -0.000960 0.000000 -0.002675 0.000000
# 2 -0.004346 0.014957 -0.001685 0.000000 0.004508 0.000000
# 3 -0.000960 -0.001685 0.006822 0.000000 -0.001697 0.000000
# 4 0.000000 0.000000 0.000000 0.053472 0.000000 0.010860
# 5 -0.002675 0.004508 -0.001697 0.000000 0.049937 0.000000
# 6 0.000000 0.000000 0.000000 0.010860 0.000000 0.029370
#
#
# Mechanical properties :
#
#
# Convention : Reuss Voigt Hill
#
# Bulk Modulus (GPa) = 47.28757 50.40351 48.84554
# Shear Modulus (GPa) = 26.46312 32.38816 29.42564
#
# Velocity S-wave (km/s) = 3.57836 3.95874 3.77335
# Velocity P-wave (km/s) = 6.32091 6.72935 6.52832
#
# Compressibility (1/GPa) = 0.02114721
#
# Stress axis : x y z
#
# Youngs Moduli (GPa) = 74.89679 66.85905 146.58103
#
# Poissons Ratio (x) = 0.29060 0.14070
# Poissons Ratio (y) = 0.32554 0.24705
# Poissons Ratio (z) = 0.07189 0.11269
#
# Static dielectric constant tensor:
#      x y z
#    x 3.855900 0.000000 -0.015140 
#    y 0.000000 3.440990 0.000000 
#    z -0.015140 0.000000 4.042220 
# 
# 
# High freq. dielectric constant tensor:
#      x y z
#    x 1.816860 0.000000 -0.002070 
#    y 0.000000 1.792620 0.000000 
#    z -0.002070 0.000000 1.832600 
# 
# From -- ./inp_files/211390.got.cif
#   From: 2010.06.25/outbox.cif.g09.slc.cpg/sg15_106_cif.got.tgz:211390.got - 2010.06.28 07:06:18.
