data_PCOD8148842
_publ_section_title
;
Structure prediction by ZEFSAII (Michael W. Deem and Ramdas Pophale) SiO2 
 PCOD8148842
Probable space group: C 2/C
;
_chemical_formula_sum "Si O2"
_cell_formula_units_Z 40
_cell_length_a 10.138345
_cell_length_b 20.809799
_cell_length_c 9.095201
_cell_angle_alpha 90.000000
_cell_angle_beta 89.186682
_cell_angle_gamma 90.000000
_cell_volume 1918.684185
_symmetry_space_group_name_H-M "C 2/C"
_symmetry_group_IT_number 15
_symmetry_cell_setting 'monoclinic'
loop_
_space_group_symop_operation_xyz
x,y,z
-x,y,1/2-z
-x,-y,-z
x,-y,1/2+z
1/2+x,1/2+y,z
1/2-x,1/2+y,1/2-z
1/2-x,1/2-y,-z
1/2+x,1/2-y,1/2+z
loop_
_atom_site_type_symbol
_atom_site_label
_atom_site_fract_x
_atom_site_fract_y
_atom_site_fract_z
Si Si1 0.981380 0.598269 0.414019
Si Si2 0.399614 0.212426 0.618637
Si Si3 0.297449 0.975942 0.440868
Si Si4 0.629683 0.455175 0.170627
Si Si5 0.105783 0.809395 0.128173
O O1 0.122886 0.580916 0.481190
O O2 0.000000 0.626052 0.250000
O O3 0.909671 0.650962 0.512969
O O4 0.890637 0.535802 0.406084
O O5 0.500000 0.207390 0.750000
O O6 0.249921 0.213761 0.680893
O O7 0.430313 0.276913 0.526855
O O8 0.247361 0.947980 0.287145
O O9 0.172875 0.996229 0.542104
O O10 0.500000 0.484569 0.250000
O O11 0.597772 0.385714 0.103259
O O12 0.000000 0.786617 0.250000
#
# Coordination Sequence:
#
# PCOD8148842 Si02
#       5
#     8   8   8   8   8
#     4  11  22  37  64  94 129 157 208 272 317 372
#     4  11  23  42  69  95 123 172 219 266 317 375
#     4  11  22  38  62  96 123 167 210 258 324 368
#     4  11  22  41  62  91 133 172 207 256 315 391
#     4  10  23  43  64  92 134 168 212 266 315 382
#
# _framework density 20.847621
#
# number of rings (size 3 to 8) (size 9 to 14) (size 15 to 20)
#    0.000    1.200    4.000    2.400    0.000    0.800 
#    0.000   13.000    0.000    0.000    0.000    0.000 
#    0.000    0.000    0.000    0.000    0.000    0.000 
#
# Total GULP energy -248127.927612 kJ/mol
# GULP energy per Si atom -12406.396381 kJ/mol
# Density = 2.080017 g / cm^3
# Si number density = 20.847621 Si / 1000 Ang^3
#
#
#
# Elastic Constant Matrix: (Units=GPa)
#
#
# Indices 1 2 3 4 5 6 
#
# 1 103.3602 22.2546 33.3302 0.0000 -20.6247 0.0000
# 2 22.2546 74.6141 29.2949 0.0000 -2.9320 0.0000
# 3 33.3302 29.2949 106.3864 0.0000 2.5858 0.0000
# 4 0.0000 0.0000 0.0000 27.8408 0.0000 1.3365
# 5 -20.6247 -2.9320 2.5858 0.0000 42.0093 0.0000
# 6 0.0000 0.0000 0.0000 1.3365 0.0000 25.2787
#
#
#
# Elastic Compliance Matrix: (Units=1/GPa)
#
#
# Indices 1 2 3 4 5 6 
#
# 1 0.012490 -0.002115 -0.003481 0.000000 0.006199 0.000000
# 2 -0.002115 0.015457 -0.003600 0.000000 0.000262 0.000000
# 3 -0.003481 -0.003600 0.011547 0.000000 -0.002671 0.000000
# 4 0.000000 0.000000 0.000000 0.036010 0.000000 -0.001904
# 5 0.006199 0.000262 -0.002671 0.000000 0.027030 0.000000
# 6 0.000000 0.000000 0.000000 -0.001904 0.000000 0.039660
#
#
# Mechanical properties :
#
#
# Convention : Reuss Voigt Hill
#
# Bulk Modulus (GPa) = 47.39145 50.45777 48.92461
# Shear Modulus (GPa) = 29.82959 32.32449 31.07704
#
# Velocity S-wave (km/s) = 3.78675 3.94193 3.86512
# Velocity P-wave (km/s) = 6.47309 6.70627 6.59071
#
# Compressibility (1/GPa) = 0.02110085
#
# Stress axis : x y z
#
# Youngs Moduli (GPa) = 80.06591 64.69645 86.60560
#
# Poissons Ratio (x) = 0.13682 0.30150
# Poissons Ratio (y) = 0.16933 0.31178
# Poissons Ratio (z) = 0.27873 0.23291
#
# Static dielectric constant tensor:
#      x y z
#    x 3.978770 0.000000 -0.126350 
#    y 0.000000 3.615270 0.000000 
#    z -0.126350 0.000000 3.758550 
# 
# 
# High freq. dielectric constant tensor:
#      x y z
#    x 1.830340 0.000000 -0.008620 
#    y 0.000000 1.806020 0.000000 
#    z -0.008620 0.000000 1.815030 
# 
# From -- ./inp_files/23762.got.cif
#   From: 2010.06.25/outbox.cif.g09.slc.cpg/sg15_12_cif.got.tgz:23762.got - 2010.06.28 07:06:18.
