data_PCOD8148647
_publ_section_title
;
Structure prediction by ZEFSAII (Michael W. Deem and Ramdas Pophale) SiO2 
 PCOD8148647
Probable space group: C 2/C
;
_chemical_formula_sum "Si O2"
_cell_formula_units_Z 60
_cell_length_a 9.374186
_cell_length_b 22.694484
_cell_length_c 20.853686
_cell_angle_alpha 90.000000
_cell_angle_beta 141.360534
_cell_angle_gamma 90.000000
_cell_volume 2770.205342
_symmetry_space_group_name_H-M "C 2/C"
_symmetry_group_IT_number 15
_symmetry_cell_setting 'monoclinic'
loop_
_space_group_symop_operation_xyz
x,y,z
-x,y,1/2-z
-x,-y,-z
x,-y,1/2+z
1/2+x,1/2+y,z
1/2-x,1/2+y,1/2-z
1/2-x,1/2-y,-z
1/2+x,1/2-y,1/2+z
loop_
_atom_site_type_symbol
_atom_site_label
_atom_site_fract_x
_atom_site_fract_y
_atom_site_fract_z
Si Si1 0.363846 0.396538 0.640365
Si Si2 0.491831 0.140893 0.097998
Si Si3 0.500000 0.263857 0.250000
Si Si4 0.151774 0.785587 0.705018
Si Si5 0.649894 0.041723 0.362833
Si Si6 0.426913 0.700987 0.582413
Si Si7 0.347408 0.824578 0.143484
Si Si8 0.156103 0.068746 0.501156
O O1 0.500000 0.421789 0.750000
O O2 0.497431 0.342530 0.654102
O O3 0.336380 0.442443 0.573062
O O4 0.116783 0.376286 0.576240
O O5 0.619715 0.201373 0.169615
O O6 0.509054 0.089179 0.156523
O O7 0.225443 0.143249 0.985517
O O8 0.733833 0.224435 0.325467
O O9 0.504370 0.301323 0.317674
O O10 0.001703 0.729168 0.671124
O O11 0.500000 0.022389 0.250000
O O12 0.895511 0.068966 0.432401
O O13 0.688819 0.982954 0.416995
O O14 0.250000 0.750000 0.500000
O O15 0.638154 0.703170 0.608611
O O16 0.500000 0.859516 0.250000
O O17 0.269527 0.868419 0.059957
#
# Coordination Sequence:
#
# PCOD8148647 Si02
#       8
#     8   8   4   8   8   8   8   8
#     4  10  23  42  65  99 138 177 231 281 348 411
#     4  11  23  42  69  95 138 184 231 282 340 413
#     4  12  26  36  64  94 142 184 226 272 350 408
#     4  11  24  41  65 102 138 182 226 280 336 418
#     4  11  24  47  73 103 132 174 247 287 337 418
#     4  12  24  40  61  96 136 183 225 277 342 411
#     4  12  23  44  63  98 148 179 222 284 346 417
#     4  11  26  43  72 103 131 186 230 292 356 394
#
# _framework density 21.659044999999999
#
# number of rings (size 3 to 8) (size 9 to 14) (size 15 to 20)
#    0.000    0.800    4.000    4.000    6.533    1.067 
#    0.000    0.000    1.467    0.000    0.000    0.000 
#    0.000    0.000    0.000    0.000    0.000    0.000 
#
# Total GULP energy -371707.006292 kJ/mol
# GULP energy per Si atom -12390.233543 kJ/mol
# Density = 2.160975 g / cm^3
# Si number density = 21.659045 Si / 1000 Ang^3
#
#
#
# Elastic Constant Matrix: (Units=GPa)
#
#
# Indices 1 2 3 4 5 6 
#
# 1 165.6029 49.5924 49.6991 0.0007 1.9975 0.0005
# 2 49.5924 84.4756 57.8197 0.0002 -8.6699 0.0003
# 3 49.6991 57.8197 123.7353 0.0018 -6.8453 0.0014
# 4 0.0007 0.0002 0.0018 28.8042 0.0010 -4.2874
# 5 1.9975 -8.6699 -6.8453 0.0010 47.6833 0.0009
# 6 0.0005 0.0003 0.0014 -4.2874 0.0009 26.4671
#
#
#
# Elastic Compliance Matrix: (Units=1/GPa)
#
#
# Indices 1 2 3 4 5 6 
#
# 1 0.007552 -0.003577 -0.001426 0.000000 -0.001172 0.000000
# 2 -0.003577 0.019293 -0.007435 0.000000 0.002590 0.000000
# 3 -0.001426 -0.007435 0.012154 -0.000001 0.000453 -0.000001
# 4 0.000000 0.000000 -0.000001 0.035575 -0.000001 0.005763
# 5 -0.001172 0.002590 0.000453 -0.000001 0.021557 -0.000001
# 6 0.000000 0.000000 -0.000001 0.005763 -0.000001 0.038716
#
#
# Mechanical properties :
#
#
# Convention : Reuss Voigt Hill
#
# Bulk Modulus (GPa) = 70.81648 76.44846 73.63247
# Shear Modulus (GPa) = 30.40779 35.03776 32.72277
#
# Velocity S-wave (km/s) = 3.75097 4.02642 3.89113
# Velocity P-wave (km/s) = 7.17821 7.54911 7.36600
#
# Compressibility (1/GPa) = 0.01412101
#
# Stress axis : x y z
#
# Youngs Moduli (GPa) = 132.41362 51.83317 82.27723
#
# Poissons Ratio (x) = 0.18543 0.11737
# Poissons Ratio (y) = 0.47370 0.61173
# Poissons Ratio (z) = 0.18889 0.38538
#
# Static dielectric constant tensor:
#      x y z
#    x 4.300130 0.000000 0.654730 
#    y 0.000000 3.804780 0.000000 
#    z 0.654730 0.000000 6.304020 
# 
# 
# High freq. dielectric constant tensor:
#      x y z
#    x 1.868410 0.000000 0.012110 
#    y 0.000000 1.819750 0.000000 
#    z 0.012110 0.000000 1.864150 
# 
# From -- ./inp_files/234601.got.cif
#   From: 2010.06.25/outbox.cif.g09.slc.cpg/sg15_118_cif.got.tgz:234601.got - 2010.06.28 07:06:18.
