data_PCOD8148294
_publ_section_title
;
Structure prediction by ZEFSAII (Michael W. Deem and Ramdas Pophale) SiO2 
 PCOD8148294
Probable space group: C 2/C
;
_chemical_formula_sum "Si O2"
_cell_formula_units_Z 56
_cell_length_a 17.648769
_cell_length_b 9.110938
_cell_length_c 25.070160
_cell_angle_alpha 90.000000
_cell_angle_beta 40.125088
_cell_angle_gamma 90.000000
_cell_volume 2597.942734
_symmetry_space_group_name_H-M "C 2/C"
_symmetry_group_IT_number 15
_symmetry_cell_setting 'monoclinic'
loop_
_space_group_symop_operation_xyz
x,y,z
-x,y,1/2-z
-x,-y,-z
x,-y,1/2+z
1/2+x,1/2+y,z
1/2-x,1/2+y,1/2-z
1/2-x,1/2-y,-z
1/2+x,1/2-y,1/2+z
loop_
_atom_site_type_symbol
_atom_site_label
_atom_site_fract_x
_atom_site_fract_y
_atom_site_fract_z
Si Si1 0.633737 0.598939 0.024599
Si Si2 0.531100 0.079572 0.038959
Si Si3 0.803388 0.833786 0.567450
Si Si4 0.361568 0.546070 0.147686
Si Si5 0.129977 0.887379 0.197902
Si Si6 0.240613 0.613681 0.436331
Si Si7 0.163738 0.739715 0.294264
O O1 0.496438 0.582274 0.086786
O O2 0.656871 0.629303 0.074514
O O3 0.701089 0.445694 0.979046
O O4 0.688539 0.723195 0.955922
O O5 0.425384 0.112105 0.137318
O O6 0.580222 0.237245 0.997313
O O7 0.500000 0.000000 0.000000
O O8 0.629456 0.983071 0.016493
O O9 0.818944 0.929128 0.611374
O O10 0.685006 0.737258 0.629890
O O11 0.287874 0.656465 0.224951
O O12 0.329782 0.374785 0.169091
O O13 0.130407 0.824245 0.257158
O O14 0.000000 0.923318 0.250000
O O15 0.206132 0.038100 0.146539
#
# Coordination Sequence:
#
# PCOD8148294 Si02
#       7
#     8   8   8   8   8   8   8
#     4  11  22  43  66  99 133 178 223 271 334 402
#     4  11  24  42  69  94 127 173 228 280 329 403
#     4  10  23  40  66  92 124 177 221 271 334 394
#     4  11  24  41  62  96 134 171 220 280 332 399
#     4  10  23  43  63  94 133 171 221 280 335 403
#     4  10  25  40  69  96 133 178 220 271 338 406
#     4  11  26  40  66  99 128 175 219 275 345 387
#
# _framework density 21.555517999999999
#
# number of rings (size 3 to 8) (size 9 to 14) (size 15 to 20)
#    0.000    1.429    1.429    2.143   12.000    1.143 
#    0.000    0.714    0.000    0.000    0.000    0.000 
#    0.000    0.000    0.000    0.000    0.000    0.000 
#
# Total GULP energy -346962.789080 kJ/mol
# GULP energy per Si atom -12391.528181 kJ/mol
# Density = 2.150646 g / cm^3
# Si number density = 21.555518 Si / 1000 Ang^3
#
#
#
# Elastic Constant Matrix: (Units=GPa)
#
#
# Indices 1 2 3 4 5 6 
#
# 1 44.3006 15.1156 19.7251 0.0000 -7.8817 -0.0006
# 2 15.1156 121.1454 42.0960 0.0000 -4.6134 -0.0013
# 3 19.7251 42.0960 97.7678 0.0000 -5.2685 0.0000
# 4 0.0000 0.0000 0.0000 49.0506 0.0000 4.9496
# 5 -7.8817 -4.6134 -5.2685 0.0000 30.1397 0.0000
# 6 -0.0006 -0.0013 0.0000 4.9496 0.0000 23.1636
#
#
#
# Elastic Compliance Matrix: (Units=1/GPa)
#
#
# Indices 1 2 3 4 5 6 
#
# 1 0.026039 -0.001541 -0.004276 0.000000 0.005826 0.000001
# 2 -0.001541 0.009815 -0.003893 0.000000 0.000419 0.000001
# 3 -0.004276 -0.003893 0.012795 0.000000 0.000523 0.000000
# 4 0.000000 0.000000 0.000000 0.020836 0.000000 -0.004452
# 5 0.005826 0.000419 0.000523 0.000000 0.034858 0.000000
# 6 0.000001 0.000001 0.000000 -0.004452 0.000000 0.044123
#
#
# Mechanical properties :
#
#
# Convention : Reuss Voigt Hill
#
# Bulk Modulus (GPa) = 34.21123 46.34301 40.27712
# Shear Modulus (GPa) = 28.14835 32.88927 30.51881
#
# Velocity S-wave (km/s) = 3.61758 3.91038 3.76683
# Velocity P-wave (km/s) = 5.77537 6.47566 6.13551
#
# Compressibility (1/GPa) = 0.02923017
#
# Stress axis : x y z
#
# Youngs Moduli (GPa) = 38.40333 101.88010 78.15393
#
# Poissons Ratio (x) = 0.15703 0.33418
# Poissons Ratio (y) = 0.05919 0.30423
# Poissons Ratio (z) = 0.16421 0.39659
#
# Static dielectric constant tensor:
#      x y z
#    x 3.623810 0.000000 0.052120 
#    y 0.000000 4.317340 0.000000 
#    z 0.052120 0.000000 4.260880 
# 
# 
# High freq. dielectric constant tensor:
#      x y z
#    x 1.832790 0.000000 -0.006290 
#    y 0.000000 1.863900 0.000000 
#    z -0.006290 0.000000 1.849040 
# 
# From -- ./inp_files/298498.got.cif
#   From: 2010.06.25/outbox.cif.g09.slc.cpg/sg15_150_cif.got.tgz:298498.got - 2010.06.28 07:06:18.
