data_PCOD8148533
_publ_section_title
;
Structure prediction by ZEFSAII (Michael W. Deem and Ramdas Pophale) SiO2 
 PCOD8148533
Probable space group: C 2/C
;
_chemical_formula_sum "Si O2"
_cell_formula_units_Z 40
_cell_length_a 13.325047
_cell_length_b 15.444625
_cell_length_c 8.672480
_cell_angle_alpha 90.000000
_cell_angle_beta 94.967456
_cell_angle_gamma 90.000000
_cell_volume 1778.095822
_symmetry_space_group_name_H-M "C 2/C"
_symmetry_group_IT_number 15
_symmetry_cell_setting 'monoclinic'
loop_
_space_group_symop_operation_xyz
x,y,z
-x,y,1/2-z
-x,-y,-z
x,-y,1/2+z
1/2+x,1/2+y,z
1/2-x,1/2+y,1/2-z
1/2-x,1/2-y,-z
1/2+x,1/2-y,1/2+z
loop_
_atom_site_type_symbol
_atom_site_label
_atom_site_fract_x
_atom_site_fract_y
_atom_site_fract_z
Si Si1 0.161122 0.288016 0.590811
Si Si2 0.301557 0.162454 0.059088
Si Si3 0.421198 0.394875 0.424776
Si Si4 0.000314 0.595287 0.932747
Si Si5 0.361462 0.458851 0.099540
O O1 0.250000 0.250000 0.500000
O O2 0.192274 0.332428 0.755320
O O3 0.087458 0.206713 0.605903
O O4 0.106033 0.361524 0.487678
O O5 0.250000 0.250000 0.000000
O O6 0.410543 0.152098 0.994297
O O7 0.236246 0.080781 0.995335
O O8 0.362590 0.446237 0.281860
O O9 0.539525 0.412303 0.455334
O O10 0.366883 0.436934 0.567790
O O11 0.000000 0.591185 0.750000
O O12 0.000000 0.500000 0.000000
#
# Coordination Sequence:
#
# PCOD8148533 Si02
#       5
#     8   8   8   8   8
#     4  12  27  45  71 107 146 192 243 301 362 449
#     4  12  24  45  76 101 144 194 245 298 374 436
#     4  10  23  44  66 102 140 178 238 292 361 424
#     4  12  29  51  75 109 147 194 249 311 375 450
#     4  10  23  41  71  97 135 181 232 295 358 425
#
# _framework density 22.495975000000001
#
# number of rings (size 3 to 8) (size 9 to 14) (size 15 to 20)
#    0.000    0.800    2.000    4.200    8.400    0.000 
#    3.600    0.000    0.000    0.000    0.000    0.000 
#    0.000    0.000    0.000    0.000    0.000    0.000 
#
# Total GULP energy -247966.986482 kJ/mol
# GULP energy per Si atom -12398.349324 kJ/mol
# Density = 2.244477 g / cm^3
# Si number density = 22.495975 Si / 1000 Ang^3
#
#
#
# Elastic Constant Matrix: (Units=GPa)
#
#
# Indices 1 2 3 4 5 6 
#
# 1 116.2118 25.8689 50.3133 0.0000 -1.2916 0.0000
# 2 25.8689 94.8085 39.3862 0.0000 6.7224 0.0000
# 3 50.3133 39.3862 173.7500 0.0000 -0.1136 0.0000
# 4 0.0000 0.0000 0.0000 39.6059 0.0000 2.3612
# 5 -1.2916 6.7224 -0.1136 0.0000 40.6686 0.0000
# 6 0.0000 0.0000 0.0000 2.3612 0.0000 34.8794
#
#
#
# Elastic Compliance Matrix: (Units=1/GPa)
#
#
# Indices 1 2 3 4 5 6 
#
# 1 0.010095 -0.001747 -0.002527 0.000000 0.000602 0.000000
# 2 -0.001747 0.012100 -0.002238 0.000000 -0.002062 0.000000
# 3 -0.002527 -0.002238 0.006995 0.000000 0.000309 0.000000
# 4 0.000000 0.000000 0.000000 0.025351 0.000000 -0.001716
# 5 0.000602 -0.002062 0.000309 0.000000 0.024950 0.000000
# 6 0.000000 0.000000 0.000000 -0.001716 0.000000 0.028786
#
#
# Mechanical properties :
#
#
# Convention : Reuss Voigt Hill
#
# Bulk Modulus (GPa) = 61.86235 68.43414 65.14824
# Shear Modulus (GPa) = 39.46648 40.97759 40.22204
#
# Velocity S-wave (km/s) = 4.19308 4.27259 4.23302
# Velocity P-wave (km/s) = 7.14153 7.40451 7.27421
#
# Compressibility (1/GPa) = 0.01616492
#
# Stress axis : x y z
#
# Youngs Moduli (GPa) = 99.06360 82.64172 142.96703
#
# Poissons Ratio (x) = 0.14441 0.36122
# Poissons Ratio (y) = 0.17311 0.32000
# Poissons Ratio (z) = 0.25029 0.18498
#
# Static dielectric constant tensor:
#      x y z
#    x 3.562930 0.000000 -0.137580 
#    y 0.000000 3.136190 0.000000 
#    z -0.137580 0.000000 4.101070 
# 
# 
# High freq. dielectric constant tensor:
#      x y z
#    x 1.892660 0.000000 0.006050 
#    y 0.000000 1.896970 0.000000 
#    z 0.006050 0.000000 1.897890 
# 
# From -- ./inp_files/38037.got.cif
#   From: 2010.06.25/outbox.cif.g09.slc.cpg/sg15_20_cif.got.tgz:38037.got - 2010.06.28 07:06:18.
