data_PCOD8148298
_publ_section_title
;
Structure prediction by ZEFSAII (Michael W. Deem and Ramdas Pophale) SiO2 
 PCOD8148298
Probable space group: C 2/C
;
_chemical_formula_sum "Si O2"
_cell_formula_units_Z 52
_cell_length_a 11.847344
_cell_length_b 16.128036
_cell_length_c 15.010046
_cell_angle_alpha 90.000000
_cell_angle_beta 59.995088
_cell_angle_gamma 90.000000
_cell_volume 2483.668560
_symmetry_space_group_name_H-M "C 2/C"
_symmetry_group_IT_number 15
_symmetry_cell_setting 'monoclinic'
loop_
_space_group_symop_operation_xyz
x,y,z
-x,y,1/2-z
-x,-y,-z
x,-y,1/2+z
1/2+x,1/2+y,z
1/2-x,1/2+y,1/2-z
1/2-x,1/2-y,-z
1/2+x,1/2-y,1/2+z
loop_
_atom_site_type_symbol
_atom_site_label
_atom_site_fract_x
_atom_site_fract_y
_atom_site_fract_z
Si Si1 0.176339 0.438356 0.114256
Si Si2 0.000000 0.573551 0.250000
Si Si3 0.000000 0.082855 0.750000
Si Si4 0.190660 0.831269 0.293834
Si Si5 0.042629 0.676410 0.880067
Si Si6 0.500000 0.689679 0.250000
Si Si7 0.300582 0.553305 0.381814
Si Si8 0.591131 0.841318 0.883574
O O1 0.130842 0.518066 0.188950
O O2 0.271809 0.379412 0.131568
O O3 0.045643 0.391997 0.133722
O O4 0.263986 0.466469 0.997386
O O5 0.003284 0.632489 0.334907
O O6 0.049363 0.139907 0.812261
O O7 0.125999 0.027778 0.680175
O O8 0.305382 0.850236 0.176570
O O9 0.184730 0.734042 0.319274
O O10 0.043922 0.757517 0.817771
O O11 0.996252 0.690975 0.999201
O O12 0.386928 0.634722 0.336894
O O13 0.169702 0.574982 0.378631
#
# Coordination Sequence:
#
# PCOD8148298 Si02
#       8
#     8   4   4   8   8   4   8   8
#     4  11  22  41  70  93 125 165 220 265 323 364
#     4  12  24  42  60  98 128 172 214 260 310 388
#     4  11  27  40  61  91 134 174 204 251 333 378
#     4  12  22  45  62  92 131 167 209 269 306 396
#     4  11  21  39  71  98 121 168 212 275 315 374
#     4  11  17  40  67 103 124 156 218 267 331 364
#     4  10  23  40  66  96 127 165 211 271 318 383
#     4  11  25  41  67  94 130 166 222 259 322 370
#
# _framework density 20.936771
#
# number of rings (size 3 to 8) (size 9 to 14) (size 15 to 20)
#    0.000    0.923    4.615    2.308    2.154    4.308 
#    2.769    1.538    0.000    0.000    0.000    0.000 
#    0.000    0.000    0.000    0.000    0.000    0.000 
#
# Total GULP energy -322326.666082 kJ/mol
# GULP energy per Si atom -12397.179465 kJ/mol
# Density = 2.088912 g / cm^3
# Si number density = 20.936771 Si / 1000 Ang^3
#
#
#
# Elastic Constant Matrix: (Units=GPa)
#
#
# Indices 1 2 3 4 5 6 
#
# 1 91.6904 27.8208 33.2089 0.0000 16.7725 0.0000
# 2 27.8208 64.4476 33.5108 0.0000 14.8601 0.0000
# 3 33.2089 33.5108 135.3976 0.0000 8.8473 0.0000
# 4 0.0000 0.0000 0.0000 12.5269 0.0000 6.8738
# 5 16.7725 14.8601 8.8473 0.0000 27.2674 0.0000
# 6 0.0000 0.0000 0.0000 6.8738 0.0000 23.7559
#
#
#
# Elastic Compliance Matrix: (Units=1/GPa)
#
#
# Indices 1 2 3 4 5 6 
#
# 1 0.013821 -0.003492 -0.002140 0.000000 -0.005904 0.000000
# 2 -0.003492 0.020827 -0.003777 0.000000 -0.007977 0.000000
# 3 -0.002140 -0.003777 0.008812 0.000000 0.000515 0.000000
# 4 0.000000 0.000000 0.000000 0.094895 0.000000 -0.027458
# 5 -0.005904 -0.007977 0.000515 0.000000 0.044485 0.000000
# 6 0.000000 0.000000 0.000000 -0.027458 0.000000 0.050040
#
#
# Mechanical properties :
#
#
# Convention : Reuss Voigt Hill
#
# Bulk Modulus (GPa) = 40.58167 53.40185 46.99176
# Shear Modulus (GPa) = 19.23727 25.84303 22.54015
#
# Velocity S-wave (km/s) = 3.03450 3.51712 3.28469
# Velocity P-wave (km/s) = 5.63051 6.48500 6.07280
#
# Compressibility (1/GPa) = 0.02464167
#
# Stress axis : x y z
#
# Youngs Moduli (GPa) = 72.35438 48.01419 113.48728
#
# Poissons Ratio (x) = 0.16768 0.24283
# Poissons Ratio (y) = 0.25269 0.42863
# Poissons Ratio (z) = 0.15482 0.18135
#
# Static dielectric constant tensor:
#      x y z
#    x 3.705820 0.000000 -0.083780 
#    y 0.000000 3.740100 0.000000 
#    z -0.083780 0.000000 3.935840 
# 
# 
# High freq. dielectric constant tensor:
#      x y z
#    x 1.811850 0.000000 -0.003450 
#    y 0.000000 1.819840 0.000000 
#    z -0.003450 0.000000 1.826860 
# 
# From -- ./inp_files/144350.got.cif
#   From: 2010.06.25/outbox.cif.g09.slc.cpg/sg15_73_cif.got.tgz:144350.got - 2010.06.28 07:06:18.
