data_PCOD8148478
_publ_section_title
;
Structure prediction by ZEFSAII (Michael W. Deem and Ramdas Pophale) SiO2 
 PCOD8148478
Probable space group: C 2/C
;
_chemical_formula_sum "Si O2"
_cell_formula_units_Z 56
_cell_length_a 9.286837
_cell_length_b 21.880636
_cell_length_c 14.631738
_cell_angle_alpha 90.000000
_cell_angle_beta 66.050733
_cell_angle_gamma 90.000000
_cell_volume 2717.220306
_symmetry_space_group_name_H-M "C 2/C"
_symmetry_group_IT_number 15
_symmetry_cell_setting 'monoclinic'
loop_
_space_group_symop_operation_xyz
x,y,z
-x,y,1/2-z
-x,-y,-z
x,-y,1/2+z
1/2+x,1/2+y,z
1/2-x,1/2+y,1/2-z
1/2-x,1/2-y,-z
1/2+x,1/2-y,1/2+z
loop_
_atom_site_type_symbol
_atom_site_label
_atom_site_fract_x
_atom_site_fract_y
_atom_site_fract_z
Si Si1 0.614907 0.751148 0.871593
Si Si2 0.360636 0.318457 0.713994
Si Si3 0.363078 0.437732 0.070553
Si Si4 0.117577 0.293169 0.429995
Si Si5 0.445413 0.641775 0.854511
Si Si6 0.123378 0.334849 0.137532
Si Si7 0.957905 0.049286 0.153607
O O1 0.691940 0.811602 0.807874
O O2 0.567188 0.698850 0.812102
O O3 0.745959 0.718997 0.903105
O O4 0.445484 0.767511 0.958111
O O5 0.500000 0.307527 0.750000
O O6 0.358060 0.265484 0.639738
O O7 0.371422 0.385391 0.667732
O O8 0.515399 0.399104 0.066946
O O9 0.202609 0.400939 0.126955
O O10 0.344105 0.498149 0.138547
O O11 0.390142 0.450466 0.954813
O O12 0.265203 0.337362 0.405616
O O13 0.974500 0.334857 0.430521
O O14 0.500000 0.603439 0.750000
O O15 0.000000 0.322106 0.250000
O O16 0.000000 0.036377 0.250000
#
# Coordination Sequence:
#
# PCOD8148478 Si02
#       7
#     8   8   8   8   8   8   8
#     4  11  21  33  54  90 128 157 201 253 312 368
#     4  11  20  35  57  92 124 157 209 254 308 365
#     4  10  23  43  66  92 118 162 221 254 305 368
#     4  12  21  34  59  94 126 163 197 255 319 371
#     4  11  21  38  60  90 127 170 203 254 306 374
#     4  11  20  37  62  90 122 160 207 264 300 367
#     4  10  23  41  67  90 122 163 212 259 306 369
#
# _framework density 20.609297000000002
#
# number of rings (size 3 to 8) (size 9 to 14) (size 15 to 20)
#    0.000    1.143    4.286    3.857    4.000    0.000 
#    0.000    0.000    9.429    4.286    0.000    0.000 
#    0.000    0.000    0.000    0.000    0.000    0.000 
#
# Total GULP energy -346901.064251 kJ/mol
# GULP energy per Si atom -12389.323723 kJ/mol
# Density = 2.056239 g / cm^3
# Si number density = 20.609297 Si / 1000 Ang^3
#
#
#
# Elastic Constant Matrix: (Units=GPa)
#
#
# Indices 1 2 3 4 5 6 
#
# 1 84.5170 34.4984 18.3028 0.0000 -5.2450 0.0000
# 2 34.4984 112.6546 22.0570 0.0000 -1.8634 0.0000
# 3 18.3028 22.0570 108.1249 0.0000 2.8606 0.0000
# 4 0.0000 0.0000 0.0000 27.2739 0.0000 -1.3225
# 5 -5.2450 -1.8634 2.8606 0.0000 34.2625 0.0000
# 6 0.0000 0.0000 0.0000 -1.3225 0.0000 23.1396
#
#
#
# Elastic Compliance Matrix: (Units=1/GPa)
#
#
# Indices 1 2 3 4 5 6 
#
# 1 0.013903 -0.003908 -0.001610 0.000000 0.002050 0.000000
# 2 -0.003908 0.010360 -0.001454 0.000000 0.000087 0.000000
# 3 -0.001610 -0.001454 0.009848 0.000000 -0.001148 0.000000
# 4 0.000000 0.000000 0.000000 0.036767 0.000000 0.002101
# 5 0.002050 0.000087 -0.001148 0.000000 0.029601 0.000000
# 6 0.000000 0.000000 0.000000 0.002101 0.000000 0.043336
#
#
# Mechanical properties :
#
#
# Convention : Reuss Voigt Hill
#
# Bulk Modulus (GPa) = 49.58984 50.55698 50.07341
# Shear Modulus (GPa) = 30.39839 32.29776 31.34807
#
# Velocity S-wave (km/s) = 3.84472 3.96301 3.90431
# Velocity P-wave (km/s) = 6.61991 6.74722 6.68387
#
# Compressibility (1/GPa) = 0.02016542
#
# Stress axis : x y z
#
# Youngs Moduli (GPa) = 71.92560 96.52804 101.54192
#
# Poissons Ratio (x) = 0.37727 0.16352
# Poissons Ratio (y) = 0.28111 0.14764
# Poissons Ratio (z) = 0.11583 0.14035
#
# Static dielectric constant tensor:
#      x y z
#    x 3.762590 0.000000 0.142020 
#    y 0.000000 3.770320 0.000000 
#    z 0.142020 0.000000 3.950850 
# 
# 
# High freq. dielectric constant tensor:
#      x y z
#    x 1.793400 0.000000 0.009250 
#    y 0.000000 1.794830 0.000000 
#    z 0.009250 0.000000 1.812790 
# 
# From -- ./inp_files/137715.got.cif
#   From: 2010.06.25/outbox.cif.g09.slc.cpg/sg15_69_cif.got.tgz:137715.got - 2010.06.28 07:06:18.
