data_PCOD8148668
_publ_section_title
;
Structure prediction by ZEFSAII (Michael W. Deem and Ramdas Pophale) SiO2 
 PCOD8148668
Probable space group: C 2/C
;
_chemical_formula_sum "Si O2"
_cell_formula_units_Z 40
_cell_length_a 11.052414
_cell_length_b 12.104295
_cell_length_c 17.918811
_cell_angle_alpha 90.000000
_cell_angle_beta 52.677711
_cell_angle_gamma 90.000000
_cell_volume 1906.350633
_symmetry_space_group_name_H-M "C 2/C"
_symmetry_group_IT_number 15
_symmetry_cell_setting 'monoclinic'
loop_
_space_group_symop_operation_xyz
x,y,z
-x,y,1/2-z
-x,-y,-z
x,-y,1/2+z
1/2+x,1/2+y,z
1/2-x,1/2+y,1/2-z
1/2-x,1/2-y,-z
1/2+x,1/2-y,1/2+z
loop_
_atom_site_type_symbol
_atom_site_label
_atom_site_fract_x
_atom_site_fract_y
_atom_site_fract_z
Si Si1 0.878278 0.724967 0.141642
Si Si2 0.851435 0.584848 0.479278
Si Si3 0.941198 0.830341 0.689875
Si Si4 0.038490 0.353943 0.040133
Si Si5 0.514367 0.452632 0.077208
O O1 0.741235 0.682947 0.244492
O O2 0.846229 0.690852 0.067090
O O3 0.035012 0.664640 0.110502
O O4 0.891291 0.857698 0.140209
O O5 0.886315 0.457275 0.445807
O O6 0.677587 0.607927 0.523677
O O7 0.882148 0.606459 0.556719
O O8 0.000000 0.804892 0.750000
O O9 0.012874 0.742391 0.607725
O O10 0.989864 0.952534 0.647177
O O11 0.500000 0.500000 0.000000
#
# Coordination Sequence:
#
# PCOD8148668 Si02
#       5
#     8   8   8   8   8
#     4  10  23  42  66  96 135 177 231 275 346 406
#     4   9  21  43  72  90 131 182 221 275 348 398
#     4  12  27  40  68 104 136 180 234 283 345 415
#     4   9  21  44  67  93 136 172 221 282 349 391
#     4  12  24  43  70  98 141 182 233 281 349 408
#
# _framework density 20.982500000000002
#
# number of rings (size 3 to 8) (size 9 to 14) (size 15 to 20)
#    1.200    0.400    2.000    1.800    5.600    1.600 
#    0.000    3.000    0.000    0.000    0.000    0.000 
#    0.000    0.000    0.000    0.000    0.000    0.000 
#
# Total GULP energy -247925.539306 kJ/mol
# GULP energy per Si atom -12396.276965 kJ/mol
# Density = 2.093474 g / cm^3
# Si number density = 20.982500 Si / 1000 Ang^3
#
#
#
# Elastic Constant Matrix: (Units=GPa)
#
#
# Indices 1 2 3 4 5 6 
#
# 1 48.1704 -12.1340 -10.7141 0.0000 -4.5897 0.0000
# 2 -12.1340 117.9535 7.4367 0.0000 -1.6923 0.0000
# 3 -10.7141 7.4367 50.0912 0.0000 -4.4600 0.0000
# 4 0.0000 0.0000 0.0000 31.5307 0.0000 -2.3054
# 5 -4.5897 -1.6923 -4.4600 0.0000 28.3699 0.0000
# 6 0.0000 0.0000 0.0000 -2.3054 0.0000 25.7383
#
#
#
# Elastic Compliance Matrix: (Units=1/GPa)
#
#
# Indices 1 2 3 4 5 6 
#
# 1 0.022836 0.002101 0.004982 0.000000 0.004603 0.000000
# 2 0.002101 0.008754 -0.000784 0.000000 0.000739 0.000000
# 3 0.004982 -0.000784 0.021514 0.000000 0.004142 0.000000
# 4 0.000000 0.000000 0.000000 0.031924 0.000000 0.002859
# 5 0.004603 0.000739 0.004142 0.000000 0.036688 0.000000
# 6 0.000000 0.000000 0.000000 0.002859 0.000000 0.039109
#
#
# Mechanical properties :
#
#
# Convention : Reuss Voigt Hill
#
# Bulk Modulus (GPa) = 15.22026 20.59913 17.90969
# Shear Modulus (GPa) = 29.38954 32.56955 30.97955
#
# Velocity S-wave (km/s) = 3.74661 3.94410 3.84662
# Velocity P-wave (km/s) = 5.09761 5.52991 5.31815
#
# Compressibility (1/GPa) = 0.06570192
#
# Stress axis : x y z
#
# Youngs Moduli (GPa) = 43.79124 114.23200 46.48031
#
# Poissons Ratio (x) = -0.24001 -0.23158
# Poissons Ratio (y) = -0.09201 0.03646
# Poissons Ratio (z) = -0.21818 0.08961
#
# Static dielectric constant tensor:
#      x y z
#    x 3.638560 0.000000 -0.111640 
#    y 0.000000 3.867770 0.000000 
#    z -0.111640 0.000000 3.527600 
# 
# 
# High freq. dielectric constant tensor:
#      x y z
#    x 1.809790 0.000000 -0.009750 
#    y 0.000000 1.842430 0.000000 
#    z -0.009750 0.000000 1.795580 
# 
# From -- ./inp_files/195900.got.cif
#   From: 2010.06.25/outbox.cif.g09.slc.cpg/sg15_98_cif.got.tgz:195900.got - 2010.06.28 07:06:18.
