data_PCOD8148414
_publ_section_title
;
Structure prediction by ZEFSAII (Michael W. Deem and Ramdas Pophale) SiO2 
 PCOD8148414
Probable space group: C 2/C
;
_chemical_formula_sum "Si O2"
_cell_formula_units_Z 64
_cell_length_a 14.722313
_cell_length_b 16.073000
_cell_length_c 15.782045
_cell_angle_alpha 90.000000
_cell_angle_beta 132.485657
_cell_angle_gamma 90.000000
_cell_volume 2754.017844
_symmetry_space_group_name_H-M "C 2/C"
_symmetry_group_IT_number 15
_symmetry_cell_setting 'monoclinic'
loop_
_space_group_symop_operation_xyz
x,y,z
-x,y,1/2-z
-x,-y,-z
x,-y,1/2+z
1/2+x,1/2+y,z
1/2-x,1/2+y,1/2-z
1/2-x,1/2-y,-z
1/2+x,1/2-y,1/2+z
loop_
_atom_site_type_symbol
_atom_site_label
_atom_site_fract_x
_atom_site_fract_y
_atom_site_fract_z
Si Si1 0.137503 0.833026 0.486400
Si Si2 0.037312 0.493719 0.427234
Si Si3 0.248445 0.796720 0.729047
Si Si4 0.811155 0.386775 0.279825
Si Si5 0.563010 0.411979 0.035515
Si Si6 0.011671 0.679785 0.353807
Si Si7 0.790362 0.963875 0.114981
Si Si8 0.434684 0.393120 0.785057
O O1 0.231375 0.836946 0.624461
O O2 0.130740 0.735345 0.455021
O O3 0.169188 0.898001 0.431894
O O4 0.000912 0.853697 0.435055
O O5 0.941626 0.425592 0.328573
O O6 0.000000 0.500000 0.500000
O O7 0.026398 0.582308 0.374341
O O8 0.183806 0.473073 0.510635
O O9 0.175275 0.712219 0.703011
O O10 0.393944 0.788670 0.833958
O O11 0.196340 0.860496 0.765612
O O12 0.708521 0.414329 0.146337
O O13 0.775056 0.414199 0.351020
O O14 0.500000 0.500000 0.000000
O O15 0.537965 0.385995 0.923045
O O16 0.000000 0.703853 0.250000
O O17 0.904741 0.015343 0.225552
O O18 0.500000 0.341781 0.750000
#
# Coordination Sequence:
#
# PCOD8148414 Si02
#       8
#     8   8   8   8   8   8   8   8
#     4  11  24  39  70 103 141 177 225 295 364 432
#     4  10  23  41  64  91 140 187 224 271 346 428
#     4  11  24  43  69 100 142 182 234 289 355 425
#     4  11  22  42  70  98 138 188 232 287 355 427
#     4  11  22  40  67 100 131 175 235 287 352 416
#     4  12  24  41  65 106 143 176 223 289 360 429
#     4  11  22  41  68 104 135 183 232 287 367 434
#     4  11  25  45  69  95 133 183 245 304 344 411
#
# _framework density 23.238775
#
# number of rings (size 3 to 8) (size 9 to 14) (size 15 to 20)
#    0.000    1.000    2.500    5.250    1.750    1.500 
#    2.250    1.250    0.000    0.000    0.000    0.000 
#    0.000    0.000    0.000    0.000    0.000    0.000 
#
# Total GULP energy -396457.457986 kJ/mol
# GULP energy per Si atom -12389.295562 kJ/mol
# Density = 2.318588 g / cm^3
# Si number density = 23.238775 Si / 1000 Ang^3
#
#
#
# Elastic Constant Matrix: (Units=GPa)
#
#
# Indices 1 2 3 4 5 6 
#
# 1 96.1431 22.3106 52.9393 0.0000 -12.2179 0.0000
# 2 22.3106 91.9776 32.9109 0.0000 -3.1203 0.0000
# 3 52.9393 32.9109 96.4561 0.0000 2.6270 0.0000
# 4 0.0000 0.0000 0.0000 38.5590 0.0000 4.5867
# 5 -12.2179 -3.1203 2.6270 0.0000 36.1371 0.0000
# 6 0.0000 0.0000 0.0000 4.5867 0.0000 31.0958
#
#
#
# Elastic Compliance Matrix: (Units=1/GPa)
#
#
# Indices 1 2 3 4 5 6 
#
# 1 0.016176 -0.000549 -0.008856 0.000000 0.006065 0.000000
# 2 -0.000549 0.012472 -0.003986 0.000000 0.001181 0.000000
# 3 -0.008856 -0.003986 0.016712 0.000000 -0.004553 0.000000
# 4 0.000000 0.000000 0.000000 0.026397 0.000000 -0.003894
# 5 0.006065 0.001181 -0.004553 0.000000 0.030156 0.000000
# 6 0.000000 0.000000 0.000000 -0.003894 0.000000 0.032733
#
#
# Mechanical properties :
#
#
# Convention : Reuss Voigt Hill
#
# Bulk Modulus (GPa) = 53.82928 55.65538 54.74233
# Shear Modulus (GPa) = 29.82937 32.91944 31.37440
#
# Velocity S-wave (km/s) = 3.58663 3.76782 3.67834
# Velocity P-wave (km/s) = 6.35340 6.55210 6.45352
#
# Compressibility (1/GPa) = 0.01857725
#
# Stress axis : x y z
#
# Youngs Moduli (GPa) = 61.82170 80.18104 59.83783
#
# Poissons Ratio (x) = 0.04404 0.52990
# Poissons Ratio (y) = 0.03395 0.23852
# Poissons Ratio (z) = 0.54747 0.31961
#
# Static dielectric constant tensor:
#      x y z
#    x 4.487910 0.000000 -0.095620 
#    y 0.000000 3.931140 0.000000 
#    z -0.095620 0.000000 4.471610 
# 
# 
# High freq. dielectric constant tensor:
#      x y z
#    x 1.921100 0.000000 0.009500 
#    y 0.000000 1.903670 0.000000 
#    z 0.009500 0.000000 1.927170 
# 
# From -- ./inp_files/155527.got.cif
#   From: 2010.06.25/outbox.cif.g09.slc.cpg/sg15_78_cif.got.tgz:155527.got - 2010.06.28 07:06:18.
