data_PCOD8148330
_publ_section_title
;
Structure prediction by ZEFSAII (Michael W. Deem and Ramdas Pophale) SiO2 
 PCOD8148330
Probable space group: C 2/C
;
_chemical_formula_sum "Si O2"
_cell_formula_units_Z 40
_cell_length_a 19.030898
_cell_length_b 11.933151
_cell_length_c 9.540177
_cell_angle_alpha 90.000000
_cell_angle_beta 59.913996
_cell_angle_gamma 90.000000
_cell_volume 1874.668383
_symmetry_space_group_name_H-M "C 2/C"
_symmetry_group_IT_number 15
_symmetry_cell_setting 'monoclinic'
loop_
_space_group_symop_operation_xyz
x,y,z
-x,y,1/2-z
-x,-y,-z
x,-y,1/2+z
1/2+x,1/2+y,z
1/2-x,1/2+y,1/2-z
1/2-x,1/2-y,-z
1/2+x,1/2-y,1/2+z
loop_
_atom_site_type_symbol
_atom_site_label
_atom_site_fract_x
_atom_site_fract_y
_atom_site_fract_z
Si Si1 0.093827 0.796032 0.998915
Si Si2 0.847163 0.401573 0.560264
Si Si3 0.808843 1.000000 0.691157
Si Si4 0.152837 0.598426 0.754592
Si Si5 0.906174 0.203966 0.686567
O O1 0.104450 0.747541 0.145551
O O2 0.000000 0.807776 0.051698
O O3 0.134388 0.918229 0.955301
O O4 0.137655 0.716164 0.844508
O O5 0.750184 0.425938 0.649355
O O6 0.890407 0.499999 0.609593
O O7 0.616960 0.100721 0.633041
O O8 0.862345 0.283833 0.619816
O O9 0.749816 0.074061 0.649724
O O10 0.865614 0.081769 0.724075
#
# Coordination Sequence:
#
# PCOD8148330 Si02
#       5
#     8   8   8   8   8
#     4  11  24  42  65  94 129 166 206 257 315 371
#     4  10  23  41  66  94 125 164 211 259 310 370
#     4  10  23  40  69  90 124 162 214 256 303 370
#     4  10  23  41  66  94 125 164 211 259 310 370
#     4  11  24  42  65  94 129 166 206 257 315 371
#
# _framework density 21.337105999999999
#
# number of rings (size 3 to 8) (size 9 to 14) (size 15 to 20)
#    1.200    0.400    0.000    4.200    0.000    8.000 
#    0.000    0.000    0.000    0.000    0.000    0.000 
#    0.000    0.000    0.000    0.000    0.000    0.000 
#
# Total GULP energy -247886.671141 kJ/mol
# GULP energy per Si atom -12394.333557 kJ/mol
# Density = 2.128854 g / cm^3
# Si number density = 21.337106 Si / 1000 Ang^3
#
#
#
# Elastic Constant Matrix: (Units=GPa)
#
#
# Indices 1 2 3 4 5 6 
#
# 1 98.8088 68.7221 72.4224 0.0000 8.9586 0.0000
# 2 68.7221 119.8071 68.6867 0.0000 -0.0962 0.0000
# 3 72.4224 68.6867 110.4454 0.0000 20.6829 0.0000
# 4 0.0000 0.0000 0.0000 26.5053 0.0000 12.1787
# 5 8.9586 -0.0962 20.6829 0.0000 44.8165 0.0000
# 6 0.0000 0.0000 0.0000 12.1787 0.0000 21.7259
#
#
#
# Elastic Compliance Matrix: (Units=1/GPa)
#
#
# Indices 1 2 3 4 5 6 
#
# 1 0.022710 -0.006915 -0.010659 0.000000 0.000365 0.000000
# 2 -0.006915 0.015806 -0.006087 0.000000 0.004225 0.000000
# 3 -0.010659 -0.006087 0.021271 0.000000 -0.007699 0.000000
# 4 0.000000 0.000000 0.000000 0.050817 0.000000 -0.028486
# 5 0.000365 0.004225 -0.007699 0.000000 0.025802 0.000000
# 6 0.000000 0.000000 0.000000 -0.028486 0.000000 0.061997
#
#
# Mechanical properties :
#
#
# Convention : Reuss Voigt Hill
#
# Bulk Modulus (GPa) = 80.22660 83.19152 81.70906
# Shear Modulus (GPa) = 20.00955 26.55822 23.28388
#
# Velocity S-wave (km/s) = 3.06564 3.53185 3.30697
# Velocity P-wave (km/s) = 7.08605 7.46363 7.27729
#
# Compressibility (1/GPa) = 0.01246469
#
# Stress axis : x y z
#
# Youngs Moduli (GPa) = 44.03412 63.26565 47.01216
#
# Poissons Ratio (x) = 0.43749 0.50111
# Poissons Ratio (y) = 0.30450 0.28616
# Poissons Ratio (z) = 0.46937 0.38509
#
# Static dielectric constant tensor:
#      x y z
#    x 3.638430 0.000000 -0.018790 
#    y 0.000000 3.690670 0.000000 
#    z -0.018790 0.000000 3.631050 
# 
# 
# High freq. dielectric constant tensor:
#      x y z
#    x 1.826810 0.000000 0.003930 
#    y 0.000000 1.837970 0.000000 
#    z 0.003930 0.000000 1.828350 
# 
# From -- ./inp_files/172582.got.cif
#   From: 2010.06.25/outbox.cif.g09.slc.cpg/sg15_87_cif.got.tgz:172582.got - 2010.06.28 07:06:18.
