data_PCOD8148256
_publ_section_title
;
Structure prediction by ZEFSAII (Michael W. Deem and Ramdas Pophale) SiO2 
 PCOD8148256
Probable space group: C 2/C
;
_chemical_formula_sum "Si O2"
_cell_formula_units_Z 48
_cell_length_a 10.307244
_cell_length_b 27.686244
_cell_length_c 8.276802
_cell_angle_alpha 90.000000
_cell_angle_beta 93.405359
_cell_angle_gamma 90.000000
_cell_volume 2357.771118
_symmetry_space_group_name_H-M "C 2/C"
_symmetry_group_IT_number 15
_symmetry_cell_setting 'monoclinic'
loop_
_space_group_symop_operation_xyz
x,y,z
-x,y,1/2-z
-x,-y,-z
x,-y,1/2+z
1/2+x,1/2+y,z
1/2-x,1/2+y,1/2-z
1/2-x,1/2-y,-z
1/2+x,1/2-y,1/2+z
loop_
_atom_site_type_symbol
_atom_site_label
_atom_site_fract_x
_atom_site_fract_y
_atom_site_fract_z
Si Si1 0.231698 0.698227 0.566306
Si Si2 0.951165 0.308883 0.069525
Si Si3 0.221765 0.126937 0.471745
Si Si4 0.387015 0.286195 0.373592
Si Si5 0.615809 0.631034 0.141952
Si Si6 0.523600 0.446479 0.062733
O O1 0.250000 0.750000 0.500000
O O2 0.251792 0.703599 0.763394
O O3 0.347873 0.668208 0.495724
O O4 0.091381 0.677757 0.500534
O O5 0.000000 0.293046 0.250000
O O6 0.861868 0.357010 0.052547
O O7 0.881342 0.264073 0.972120
O O8 0.108907 0.167263 0.508517
O O9 0.234908 0.123206 0.277771
O O10 0.168483 0.075699 0.537821
O O11 0.500000 0.284956 0.250000
O O12 0.500000 0.648713 0.250000
O O13 0.583392 0.581750 0.048651
O O14 0.500000 0.442066 0.250000
O O15 0.500000 0.500000 0.000000
#
# Coordination Sequence:
#
# PCOD8148256 Si02
#       6
#     8   8   8   8   8   8
#     4  12  24  38  58  87 127 178 228 266 318 382
#     4  12  27  38  58  85 132 183 225 262 321 385
#     4  11  23  40  61  91 129 168 215 270 328 379
#     4  12  23  38  57  87 125 176 228 273 312 371
#     4  10  23  40  64  92 126 163 210 272 325 378
#     4  11  23  43  73 102 125 154 204 271 333 385
#
# _framework density 20.358211000000001
#
# number of rings (size 3 to 8) (size 9 to 14) (size 15 to 20)
#    0.000    0.667    3.333    6.500    2.333    0.000 
#    0.000    0.000    0.000    1.000    0.000    0.000 
#    0.000    0.000    0.000    0.000    0.000    0.000 
#
# Total GULP energy -297343.460085 kJ/mol
# GULP energy per Si atom -12389.310837 kJ/mol
# Density = 2.031187 g / cm^3
# Si number density = 20.358211 Si / 1000 Ang^3
#
#
#
# Elastic Constant Matrix: (Units=GPa)
#
#
# Indices 1 2 3 4 5 6 
#
# 1 122.4955 59.3377 40.6921 0.0000 14.5835 0.0000
# 2 59.3377 137.7318 53.5836 0.0000 0.4094 0.0000
# 3 40.6921 53.5836 149.7498 0.0000 16.7524 0.0000
# 4 0.0000 0.0000 0.0000 37.1833 0.0000 3.3891
# 5 14.5835 0.4094 16.7524 0.0000 27.8488 0.0000
# 6 0.0000 0.0000 0.0000 3.3891 0.0000 33.6767
#
#
#
# Elastic Compliance Matrix: (Units=1/GPa)
#
#
# Indices 1 2 3 4 5 6 
#
# 1 0.011262 -0.004504 -0.000854 0.000000 -0.005318 0.000000
# 2 -0.004504 0.010322 -0.002912 0.000000 0.003959 0.000000
# 3 -0.000854 -0.002912 0.008467 0.000000 -0.004603 0.000000
# 4 0.000000 0.000000 0.000000 0.027143 0.000000 -0.002732
# 5 -0.005318 0.003959 -0.004603 0.000000 0.041404 0.000000
# 6 0.000000 0.000000 0.000000 -0.002732 0.000000 0.029969
#
#
# Mechanical properties :
#
#
# Convention : Reuss Voigt Hill
#
# Bulk Modulus (GPa) = 74.01529 79.68930 76.85230
# Shear Modulus (GPa) = 33.42003 36.83267 35.12635
#
# Velocity S-wave (km/s) = 4.05606 4.25812 4.15832
# Velocity P-wave (km/s) = 7.64009 7.96266 7.80304
#
# Compressibility (1/GPa) = 0.01351072
#
# Stress axis : x y z
#
# Youngs Moduli (GPa) = 88.79402 96.87861 118.10660
#
# Poissons Ratio (x) = 0.43634 0.10084
# Poissons Ratio (y) = 0.39992 0.34398
# Poissons Ratio (z) = 0.07581 0.28216
#
# Static dielectric constant tensor:
#      x y z
#    x 3.898380 0.000000 0.052900 
#    y 0.000000 3.088340 0.000000 
#    z 0.052900 0.000000 4.115640 
# 
# 
# High freq. dielectric constant tensor:
#      x y z
#    x 1.799640 0.000000 0.004890 
#    y 0.000000 1.752160 0.000000 
#    z 0.004890 0.000000 1.834000 
# 
# From -- ./inp_files/32037.got.cif
#   From: 2010.06.25/outbox.cif.g09.slc.cpg/sg15_17_cif.got.tgz:32037.got - 2010.06.28 07:06:18.
