data_PCOD8148990
_publ_section_title
;
Structure prediction by ZEFSAII (Michael W. Deem and Ramdas Pophale) SiO2 
 PCOD8148990
Probable space group: C 2/C
;
_chemical_formula_sum "Si O2"
_cell_formula_units_Z 40
_cell_length_a 14.004904
_cell_length_b 15.561825
_cell_length_c 8.405049
_cell_angle_alpha 90.000000
_cell_angle_beta 71.206525
_cell_angle_gamma 90.000000
_cell_volume 1734.150745
_symmetry_space_group_name_H-M "C 2/C"
_symmetry_group_IT_number 15
_symmetry_cell_setting 'monoclinic'
loop_
_space_group_symop_operation_xyz
x,y,z
-x,y,1/2-z
-x,-y,-z
x,-y,1/2+z
1/2+x,1/2+y,z
1/2-x,1/2+y,1/2-z
1/2-x,1/2-y,-z
1/2+x,1/2-y,1/2+z
loop_
_atom_site_type_symbol
_atom_site_label
_atom_site_fract_x
_atom_site_fract_y
_atom_site_fract_z
Si Si1 0.312725 0.617802 0.041220
Si Si2 0.862902 0.689537 0.540144
Si Si3 0.266308 0.844964 0.430573
Si Si4 0.464032 0.088615 0.947022
Si Si5 0.118550 0.041921 0.170187
O O1 0.194691 0.639294 0.071500
O O2 0.360993 0.558009 0.878207
O O3 0.369473 0.708773 0.011547
O O4 0.323248 0.568797 0.201588
O O5 0.802876 0.660363 0.730478
O O6 0.979344 0.661835 0.481147
O O7 0.250000 0.750000 0.500000
O O8 0.344611 0.894318 0.507468
O O9 0.162463 0.899069 0.502571
O O10 0.500000 0.095834 0.750000
O O11 0.500000 0.000000 0.000000
O O12 0.000000 0.059805 0.250000
#
# Coordination Sequence:
#
# PCOD8148990 Si02
#       5
#     8   8   8   8   8
#     4  11  24  44  67 100 140 184 229 291 352 428
#     4  10  23  45  70 102 143 173 235 293 351 424
#     4  11  23  43  73  99 135 186 231 289 355 418
#     4  10  23  43  70 101 134 181 226 288 349 419
#     4  12  26  44  69  98 144 186 236 288 356 429
#
# _framework density 23.066044999999999
#
# number of rings (size 3 to 8) (size 9 to 14) (size 15 to 20)
#    0.000    1.200    2.000    3.000    2.800    4.800 
#    0.000    0.000    0.000    0.000    0.000    0.000 
#    0.000    0.000    0.000    0.000    0.000    0.000 
#
# Total GULP energy -247948.564255 kJ/mol
# GULP energy per Si atom -12397.428213 kJ/mol
# Density = 2.301355 g / cm^3
# Si number density = 23.066045 Si / 1000 Ang^3
#
#
#
# Elastic Constant Matrix: (Units=GPa)
#
#
# Indices 1 2 3 4 5 6 
#
# 1 112.8022 71.4304 37.0702 0.0000 -1.0278 0.0000
# 2 71.4304 179.1594 41.3283 0.0000 2.4334 0.0000
# 3 37.0702 41.3283 55.4459 0.0000 10.9092 0.0000
# 4 0.0000 0.0000 0.0000 42.7878 0.0000 9.5624
# 5 -1.0278 2.4334 10.9092 0.0000 43.1914 0.0000
# 6 0.0000 0.0000 0.0000 9.5624 0.0000 43.9224
#
#
#
# Elastic Compliance Matrix: (Units=1/GPa)
#
#
# Indices 1 2 3 4 5 6 
#
# 1 0.013512 -0.003905 -0.006556 0.000000 0.002197 0.000000
# 2 -0.003905 0.007905 -0.003342 0.000000 0.000306 0.000000
# 3 -0.006556 -0.003342 0.026206 0.000000 -0.006587 0.000000
# 4 0.000000 0.000000 0.000000 0.024566 0.000000 -0.005348
# 5 0.002197 0.000306 -0.006587 0.000000 0.024851 0.000000
# 6 0.000000 0.000000 0.000000 -0.005348 0.000000 0.023932
#
#
# Mechanical properties :
#
#
# Convention : Reuss Voigt Hill
#
# Bulk Modulus (GPa) = 49.95492 71.89617 60.92555
# Shear Modulus (GPa) = 32.20606 39.15224 35.67915
#
# Velocity S-wave (km/s) = 3.74070 4.12442 3.93724
# Velocity P-wave (km/s) = 6.35307 7.34292 6.86586
#
# Compressibility (1/GPa) = 0.02001805
#
# Stress axis : x y z
#
# Youngs Moduli (GPa) = 74.00712 126.49874 38.15985
#
# Poissons Ratio (x) = 0.49396 0.25017
# Poissons Ratio (y) = 0.28899 0.12752
# Poissons Ratio (z) = 0.48517 0.42274
#
# Static dielectric constant tensor:
#      x y z
#    x 4.750920 0.000000 0.227300 
#    y 0.000000 4.341570 0.000000 
#    z 0.227300 0.000000 4.163270 
# 
# 
# High freq. dielectric constant tensor:
#      x y z
#    x 1.916840 0.000000 0.013860 
#    y 0.000000 1.926660 0.000000 
#    z 0.013860 0.000000 1.903840 
# 
# From -- ./inp_files/37808.got.cif
#   From: 2010.06.25/outbox.cif.g09.slc.cpg/sg15_19_cif.got.tgz:37808.got - 2010.06.28 07:06:18.
