data_PCOD8148511
_publ_section_title
;
Structure prediction by ZEFSAII (Michael W. Deem and Ramdas Pophale) SiO2 
 PCOD8148511
Probable space group: C 2/C
;
_chemical_formula_sum "Si O2"
_cell_formula_units_Z 40
_cell_length_a 14.655255
_cell_length_b 18.618021
_cell_length_c 11.097097
_cell_angle_alpha 90.000000
_cell_angle_beta 36.427889
_cell_angle_gamma 90.000000
_cell_volume 1797.977386
_symmetry_space_group_name_H-M "C 2/C"
_symmetry_group_IT_number 15
_symmetry_cell_setting 'monoclinic'
loop_
_space_group_symop_operation_xyz
x,y,z
-x,y,1/2-z
-x,-y,-z
x,-y,1/2+z
1/2+x,1/2+y,z
1/2-x,1/2+y,1/2-z
1/2-x,1/2-y,-z
1/2+x,1/2-y,1/2+z
loop_
_atom_site_type_symbol
_atom_site_label
_atom_site_fract_x
_atom_site_fract_y
_atom_site_fract_z
Si Si1 0.646575 0.663058 0.840146
Si Si2 0.839864 0.535299 0.626030
Si Si3 0.686754 0.393903 0.830177
Si Si4 0.144055 0.710067 0.521109
Si Si5 0.668202 0.860448 0.569153
O O1 0.775547 0.608388 0.763407
O O2 0.598818 0.731600 0.968027
O O3 0.718769 0.688587 0.634315
O O4 0.493058 0.619567 0.974614
O O5 0.706188 0.477981 0.787095
O O6 0.000000 0.500000 0.500000
O O7 0.851769 0.560235 0.473371
O O8 0.770059 0.356127 0.629600
O O9 0.766378 0.368393 0.867780
O O10 0.250000 0.750000 0.500000
O O11 0.000000 0.680952 0.750000
O O12 0.500000 0.823660 0.750000
#
# Coordination Sequence:
#
# PCOD8148511 Si02
#       5
#     8   8   8   8   8
#     4  10  25  46  68 106 139 184 243 286 362 419
#     4  10  23  41  69 103 142 184 235 287 354 420
#     4  12  23  46  73 103 143 183 239 299 350 433
#     4  12  28  48  71 104 141 190 239 294 364 427
#     4  10  23  41  69 101 136 180 234 280 359 405
#
# _framework density 22.247219999999999
#
# number of rings (size 3 to 8) (size 9 to 14) (size 15 to 20)
#    1.200    0.000    4.000    1.200    5.600    3.200 
#    0.000    0.000    0.000    0.000    0.000    0.000 
#    0.000    0.000    0.000    0.000    0.000    0.000 
#
# Total GULP energy -247763.609667 kJ/mol
# GULP energy per Si atom -12388.180483 kJ/mol
# Density = 2.219658 g / cm^3
# Si number density = 22.247220 Si / 1000 Ang^3
#
#
#
# Elastic Constant Matrix: (Units=GPa)
#
#
# Indices 1 2 3 4 5 6 
#
# 1 67.2014 -21.2734 20.2167 -0.0056 1.7869 0.0018
# 2 -21.2734 40.8933 10.9466 -0.0031 6.5586 0.0025
# 3 20.2167 10.9466 164.6743 -0.0076 -3.7202 0.0054
# 4 -0.0056 -0.0031 -0.0076 38.7833 0.0052 -3.1712
# 5 1.7869 6.5586 -3.7202 0.0052 45.1145 -0.0026
# 6 0.0018 0.0025 0.0054 -3.1712 -0.0026 25.5268
#
#
#
# Elastic Compliance Matrix: (Units=1/GPa)
#
#
# Indices 1 2 3 4 5 6 
#
# 1 0.019553 0.011469 -0.003224 0.000003 -0.002708 -0.000002
# 2 0.011469 0.032279 -0.003677 0.000004 -0.005450 -0.000003
# 3 -0.003224 -0.003677 0.006740 0.000000 0.001218 -0.000001
# 4 0.000003 0.000004 0.000000 0.026049 -0.000003 0.003236
# 5 -0.002708 -0.005450 0.001218 -0.000003 0.023166 0.000002
# 6 -0.000002 -0.000003 -0.000001 0.003236 0.000002 0.039577
#
#
# Mechanical properties :
#
#
# Convention : Reuss Voigt Hill
#
# Bulk Modulus (GPa) = 14.76910 32.50545 23.63728
# Shear Modulus (GPa) = 31.09516 39.41019 35.25267
#
# Velocity S-wave (km/s) = 3.74265 4.21344 3.98501
# Velocity P-wave (km/s) = 5.03285 6.18979 5.64106
#
# Compressibility (1/GPa) = 0.06770892
#
# Stress axis : x y z
#
# Youngs Moduli (GPa) = 51.14227 30.98016 148.36034
#
# Poissons Ratio (x) = -0.35532 0.47833
# Poissons Ratio (y) = -0.58656 0.54551
# Poissons Ratio (z) = 0.16489 0.11391
#
# Static dielectric constant tensor:
#      x y z
#    x 3.775020 -0.000230 -0.008980 
#    y -0.000230 6.789460 -0.000110 
#    z -0.008980 -0.000110 4.061070 
# 
# 
# High freq. dielectric constant tensor:
#      x y z
#    x 1.865210 0.000000 -0.009170 
#    y 0.000000 1.865540 0.000000 
#    z -0.009170 0.000000 1.899390 
# 
# From -- ./inp_files/106818.got.cif
#   From: 2010.06.25/outbox.cif.g09.slc.cpg/sg15_54_cif.got.tgz:106818.got - 2010.06.28 07:06:18.
