data_PCOD8148314
_publ_section_title
;
Structure prediction by ZEFSAII (Michael W. Deem and Ramdas Pophale) SiO2 
 PCOD8148314
Probable space group: C 2/C
;
_chemical_formula_sum "Si O2"
_cell_formula_units_Z 56
_cell_length_a 23.749856
_cell_length_b 15.487807
_cell_length_c 16.071542
_cell_angle_alpha 90.000000
_cell_angle_beta 26.650690
_cell_angle_gamma 90.000000
_cell_volume 2651.668903
_symmetry_space_group_name_H-M "C 2/C"
_symmetry_group_IT_number 15
_symmetry_cell_setting 'monoclinic'
loop_
_space_group_symop_operation_xyz
x,y,z
-x,y,1/2-z
-x,-y,-z
x,-y,1/2+z
1/2+x,1/2+y,z
1/2-x,1/2+y,1/2-z
1/2-x,1/2-y,-z
1/2+x,1/2-y,1/2+z
loop_
_atom_site_type_symbol
_atom_site_label
_atom_site_fract_x
_atom_site_fract_y
_atom_site_fract_z
Si Si1 0.134796 0.668465 0.097335
Si Si2 0.755116 0.511395 0.637716
Si Si3 0.634104 0.643582 0.906359
Si Si4 0.860405 0.861918 0.812936
Si Si5 0.439410 0.069799 0.019795
Si Si6 0.189350 0.674143 0.681853
Si Si7 0.182573 0.711351 0.220205
O O1 0.123510 0.694388 0.208167
O O2 0.000000 0.638259 0.250000
O O3 0.219128 0.584183 0.966766
O O4 0.178308 0.750895 0.983296
O O5 0.663649 0.550808 0.828182
O O6 0.676821 0.435381 0.701723
O O7 0.882851 0.475026 0.512180
O O8 0.759829 0.668490 0.791284
O O9 0.607051 0.715116 0.870724
O O10 0.510711 0.637863 0.126992
O O11 0.810459 0.773694 0.840620
O O12 0.790284 0.877883 0.992633
O O13 0.326360 0.122413 0.215460
O O14 0.551289 0.135273 0.848715
O O15 0.500000 0.000000 0.000000
#
# Coordination Sequence:
#
# PCOD8148314 Si02
#       7
#     8   8   8   8   8   8   8
#     4  10  23  42  65  99 133 172 215 282 332 389
#     4  11  25  39  69 100 131 172 223 280 333 391
#     4  11  22  46  66  95 131 176 221 273 335 395
#     4  11  25  42  65  95 136 174 221 270 333 399
#     4  12  23  42  69  99 130 174 227 275 326 401
#     4  11  25  43  66  95 134 179 219 273 331 396
#     4  10  23  40  67  95 129 170 222 267 336 393
#
# _framework density 21.118776
#
# number of rings (size 3 to 8) (size 9 to 14) (size 15 to 20)
#    0.000    1.143    2.857    2.571    6.000    1.143 
#    0.000    1.429    0.000    0.000    0.000    0.000 
#    0.000    0.000    0.000    0.000    0.000    0.000 
#
# Total GULP energy -347093.953077 kJ/mol
# GULP energy per Si atom -12396.212610 kJ/mol
# Density = 2.107071 g / cm^3
# Si number density = 21.118776 Si / 1000 Ang^3
#
#
#
# Elastic Constant Matrix: (Units=GPa)
#
#
# Indices 1 2 3 4 5 6 
#
# 1 77.6879 32.1317 23.2967 0.0000 5.1408 0.0000
# 2 32.1317 107.6501 22.6621 0.0000 6.3855 0.0000
# 3 23.2967 22.6621 89.4009 0.0000 8.5187 0.0001
# 4 0.0000 0.0000 0.0000 31.2088 0.0000 3.5296
# 5 5.1408 6.3855 8.5187 0.0000 31.1647 0.0000
# 6 0.0000 0.0000 0.0001 3.5296 0.0000 14.9547
#
#
#
# Elastic Compliance Matrix: (Units=1/GPa)
#
#
# Indices 1 2 3 4 5 6 
#
# 1 0.015443 -0.003935 -0.002937 0.000000 -0.000938 0.000000
# 2 -0.003935 0.010873 -0.001622 0.000000 -0.001135 0.000000
# 3 -0.002937 -0.001622 0.012613 0.000000 -0.002631 0.000000
# 4 0.000000 0.000000 0.000000 0.032921 0.000000 -0.007770
# 5 -0.000938 -0.001135 -0.002631 0.000000 0.033194 0.000000
# 6 0.000000 0.000000 0.000000 -0.007770 0.000000 0.068703
#
#
# Mechanical properties :
#
#
# Convention : Reuss Voigt Hill
#
# Bulk Modulus (GPa) = 45.58233 47.87997 46.73115
# Shear Modulus (GPa) = 25.24632 28.57553 26.91092
#
# Velocity S-wave (km/s) = 3.46127 3.68242 3.57356
# Velocity P-wave (km/s) = 6.13225 6.38759 6.26122
#
# Compressibility (1/GPa) = 0.02193832
#
# Stress axis : x y z
#
# Youngs Moduli (GPa) = 64.75614 91.97188 79.28392
#
# Poissons Ratio (x) = 0.36194 0.23287
# Poissons Ratio (y) = 0.25484 0.12864
# Poissons Ratio (z) = 0.19020 0.14922
#
# Static dielectric constant tensor:
#      x y z
#    x 3.763100 0.000000 0.193770 
#    y 0.000000 3.988300 0.000000 
#    z 0.193770 0.000000 4.021800 
# 
# 
# High freq. dielectric constant tensor:
#      x y z
#    x 1.818200 0.000000 0.012060 
#    y 0.000000 1.837590 0.000000 
#    z 0.012060 0.000000 1.831860 
# 
# From -- ./inp_files/169096.got.cif
#   From: 2010.06.25/outbox.cif.g09.slc.cpg/sg15_85_cif.got.tgz:169096.got - 2010.06.28 07:06:18.
