data_PCOD8148291
_publ_section_title
;
Structure prediction by ZEFSAII (Michael W. Deem and Ramdas Pophale) SiO2 
 PCOD8148291
Probable space group: C 2/C
;
_chemical_formula_sum "Si O2"
_cell_formula_units_Z 36
_cell_length_a 11.765240
_cell_length_b 19.662815
_cell_length_c 12.606408
_cell_angle_alpha 90.000000
_cell_angle_beta 145.977409
_cell_angle_gamma 90.000000
_cell_volume 1631.748624
_symmetry_space_group_name_H-M "C 2/C"
_symmetry_group_IT_number 15
_symmetry_cell_setting 'monoclinic'
loop_
_space_group_symop_operation_xyz
x,y,z
-x,y,1/2-z
-x,-y,-z
x,-y,1/2+z
1/2+x,1/2+y,z
1/2-x,1/2+y,1/2-z
1/2-x,1/2-y,-z
1/2+x,1/2-y,1/2+z
loop_
_atom_site_type_symbol
_atom_site_label
_atom_site_fract_x
_atom_site_fract_y
_atom_site_fract_z
Si Si1 0.281046 0.081360 0.205972
Si Si2 0.525774 0.668779 0.645812
Si Si3 0.025284 0.310439 0.992580
Si Si4 0.778050 0.117967 0.113710
Si Si5 0.000000 0.532243 0.750000
O O1 0.448837 0.142532 0.335212
O O2 0.201723 0.070071 0.265446
O O3 0.384875 0.012680 0.247994
O O4 0.094692 0.101973 0.985031
O O5 0.500000 0.681194 0.750000
O O6 0.762095 0.659557 0.800579
O O7 0.437613 0.733146 0.513114
O O8 0.859832 0.316375 0.960343
O O9 0.000000 0.143123 0.250000
O O10 0.671242 0.077481 0.937172
#
# Coordination Sequence:
#
# PCOD8148291 Si02
#       5
#     8   8   8   8   4
#     4  10  25  42  67 105 132 171 236 270 347 393
#     4  12  22  41  73 102 141 172 216 292 348 398
#     4  10  23  40  66 103 135 172 220 276 342 403
#     4  10  26  45  67  96 141 183 230 275 329 407
#     4  12  24  46  72  94 138 184 232 282 330 398
#
# _framework density 22.062221000000001
#
# number of rings (size 3 to 8) (size 9 to 14) (size 15 to 20)
#    1.333    0.000    2.222    2.667    4.667    3.556 
#    0.000    4.444    2.444    0.000    0.000    0.000 
#    0.000    0.000    0.000    0.000    0.000    0.000 
#
# Total GULP energy -223146.288300 kJ/mol
# GULP energy per Si atom -12397.016017 kJ/mol
# Density = 2.201201 g / cm^3
# Si number density = 22.062221 Si / 1000 Ang^3
#
#
#
# Elastic Constant Matrix: (Units=GPa)
#
#
# Indices 1 2 3 4 5 6 
#
# 1 83.5446 5.1017 20.2791 0.0000 6.4225 0.0000
# 2 5.1017 39.6214 20.5305 0.0000 -5.0367 0.0000
# 3 20.2791 20.5305 140.7839 0.0000 15.6588 0.0000
# 4 0.0000 0.0000 0.0000 16.3146 0.0000 3.4252
# 5 6.4225 -5.0367 15.6588 0.0000 36.2348 0.0000
# 6 0.0000 0.0000 0.0000 3.4252 0.0000 12.5027
#
#
#
# Elastic Compliance Matrix: (Units=1/GPa)
#
#
# Indices 1 2 3 4 5 6 
#
# 1 0.012522 -0.001081 -0.001452 0.000000 -0.001742 0.000000
# 2 -0.001081 0.028605 -0.004705 0.000000 0.006201 0.000000
# 3 -0.001452 -0.004705 0.008449 0.000000 -0.004048 0.000000
# 4 0.000000 0.000000 0.000000 0.065035 0.000000 -0.017817
# 5 -0.001742 0.006201 -0.004048 0.000000 0.030518 0.000000
# 6 0.000000 0.000000 0.000000 -0.017817 0.000000 0.084864
#
#
# Mechanical properties :
#
#
# Convention : Reuss Voigt Hill
#
# Bulk Modulus (GPa) = 28.49211 39.53028 34.01119
# Shear Modulus (GPa) = 19.51837 27.54634 23.53235
#
# Velocity S-wave (km/s) = 2.97761 3.53735 3.26948
# Velocity P-wave (km/s) = 4.97635 5.88560 5.44997
#
# Compressibility (1/GPa) = 0.03509744
#
# Stress axis : x y z
#
# Youngs Moduli (GPa) = 79.85860 34.95945 118.36180
#
# Poissons Ratio (x) = 0.03780 0.17189
# Poissons Ratio (y) = 0.08635 0.55694
# Poissons Ratio (z) = 0.11598 0.16450
#
# Static dielectric constant tensor:
#      x y z
#    x 3.827320 0.000000 0.032830 
#    y 0.000000 3.497600 0.000000 
#    z 0.032830 0.000000 4.088730 
# 
# 
# High freq. dielectric constant tensor:
#      x y z
#    x 1.862580 0.000000 0.003580 
#    y 0.000000 1.835940 0.000000 
#    z 0.003580 0.000000 1.887220 
# 
# From -- ./inp_files/147320.got.cif
#   From: 2010.06.25/outbox.cif.g09.slc.cpg/sg15_74_cif.got.tgz:147320.got - 2010.06.28 07:06:18.
