data_PCOD8148844
_publ_section_title
;
Structure prediction by ZEFSAII (Michael W. Deem and Ramdas Pophale) SiO2 
 PCOD8148844
Probable space group: C 2/C
;
_chemical_formula_sum "Si O2"
_cell_formula_units_Z 48
_cell_length_a 27.700228
_cell_length_b 8.477204
_cell_length_c 9.950638
_cell_angle_alpha 90.000000
_cell_angle_beta 93.520499
_cell_angle_gamma 90.000000
_cell_volume 2332.204187
_symmetry_space_group_name_H-M "C 2/C"
_symmetry_group_IT_number 15
_symmetry_cell_setting 'monoclinic'
loop_
_space_group_symop_operation_xyz
x,y,z
-x,y,1/2-z
-x,-y,-z
x,-y,1/2+z
1/2+x,1/2+y,z
1/2-x,1/2+y,1/2-z
1/2-x,1/2-y,-z
1/2+x,1/2-y,1/2+z
loop_
_atom_site_type_symbol
_atom_site_label
_atom_site_fract_x
_atom_site_fract_y
_atom_site_fract_z
Si Si1 0.031811 0.058440 0.129063
Si Si2 0.217552 0.409569 0.350567
Si Si3 0.839558 0.572796 0.390777
Si Si4 0.384509 0.648209 0.760322
Si Si5 0.309575 0.599057 0.295954
Si Si6 0.888030 0.728005 0.972533
O O1 0.065107 0.206664 0.095782
O O2 0.000000 0.113737 0.250000
O O3 0.064517 0.911235 0.176575
O O4 0.000000 0.000000 0.000000
O O5 0.182833 0.514487 0.252821
O O6 0.201118 0.420651 0.501570
O O7 0.271319 0.479040 0.354135
O O8 0.216961 0.226857 0.303580
O O9 0.861568 0.745613 0.374076
O O10 0.883357 0.457284 0.440906
O O11 0.348591 0.502957 0.718515
O O12 0.394861 0.750505 0.631400
O O13 0.337985 0.687708 0.420001
#
# Coordination Sequence:
#
# PCOD8148844 Si02
#       6
#     8   8   8   8   8   8
#     4  11  23  43  72  99 126 164 208 261 323 393
#     4  11  24  39  63  94 132 173 223 264 306 377
#     4  11  24  42  64  94 131 174 214 263 321 369
#     4  11  23  42  66  93 134 164 214 266 322 376
#     4  10  25  38  64  94 128 175 220 264 316 367
#     4  10  23  43  64  94 131 168 211 265 325 380
#
# _framework density 20.581388
#
# number of rings (size 3 to 8) (size 9 to 14) (size 15 to 20)
#    0.000    1.333    3.333    1.000    7.000    4.000 
#    0.000    1.667    0.000    0.000    0.000    0.000 
#    0.000    0.000    0.000    0.000    0.000    0.000 
#
# Total GULP energy -297700.386259 kJ/mol
# GULP energy per Si atom -12404.182761 kJ/mol
# Density = 2.053454 g / cm^3
# Si number density = 20.581388 Si / 1000 Ang^3
#
#
#
# Elastic Constant Matrix: (Units=GPa)
#
#
# Indices 1 2 3 4 5 6 
#
# 1 113.8250 45.7732 34.7436 0.0000 -9.6986 0.0000
# 2 45.7732 103.1133 23.4769 0.0000 -1.5667 0.0000
# 3 34.7436 23.4769 94.5641 0.0000 -15.8972 0.0000
# 4 0.0000 0.0000 0.0000 27.8613 0.0000 -3.6781
# 5 -9.6986 -1.5667 -15.8972 0.0000 31.2682 0.0000
# 6 0.0000 0.0000 0.0000 -3.6781 0.0000 25.5087
#
#
#
# Elastic Compliance Matrix: (Units=1/GPa)
#
#
# Indices 1 2 3 4 5 6 
#
# 1 0.011617 -0.004483 -0.002829 0.000000 0.001940 0.000000
# 2 -0.004483 0.012030 -0.001609 0.000000 -0.001606 0.000000
# 3 -0.002829 -0.001609 0.012960 0.000000 0.005631 0.000000
# 4 0.000000 0.000000 0.000000 0.036589 0.000000 0.005276
# 5 0.001940 -0.001606 0.005631 0.000000 0.035366 0.000000
# 6 0.000000 0.000000 0.000000 0.005276 0.000000 0.039963
#
#
# Mechanical properties :
#
#
# Convention : Reuss Voigt Hill
#
# Bulk Modulus (GPa) = 53.29275 57.72109 55.50692
# Shear Modulus (GPa) = 28.96469 30.76153 29.86311
#
# Velocity S-wave (km/s) = 3.75550 3.87024 3.81330
# Velocity P-wave (km/s) = 6.68991 6.93382 6.81296
#
# Compressibility (1/GPa) = 0.01876428
#
# Stress axis : x y z
#
# Youngs Moduli (GPa) = 86.07912 83.12298 77.15772
#
# Poissons Ratio (x) = 0.37268 0.21828
# Poissons Ratio (y) = 0.38593 0.12418
# Poissons Ratio (z) = 0.24352 0.13378
#
# Static dielectric constant tensor:
#      x y z
#    x 3.618150 0.000000 0.017200 
#    y 0.000000 3.879900 0.000000 
#    z 0.017200 0.000000 3.645990 
# 
# 
# High freq. dielectric constant tensor:
#      x y z
#    x 1.800610 0.000000 0.000390 
#    y 0.000000 1.808430 0.000000 
#    z 0.000390 0.000000 1.810130 
# 
# From -- ./inp_files/68573.got.cif
#   From: 2010.06.25/outbox.cif.g09.slc.cpg/sg15_35_cif.got.tgz:68573.got - 2010.06.28 07:06:18.
