data_PCOD8148303
_publ_section_title
;
Structure prediction by ZEFSAII (Michael W. Deem and Ramdas Pophale) SiO2 
 PCOD8148303
Probable space group: C 2/C
;
_chemical_formula_sum "Si O2"
_cell_formula_units_Z 48
_cell_length_a 14.368113
_cell_length_b 19.952408
_cell_length_c 13.012666
_cell_angle_alpha 90.000000
_cell_angle_beta 140.812977
_cell_angle_gamma 90.000000
_cell_volume 2357.099493
_symmetry_space_group_name_H-M "C 2/C"
_symmetry_group_IT_number 15
_symmetry_cell_setting 'monoclinic'
loop_
_space_group_symop_operation_xyz
x,y,z
-x,y,1/2-z
-x,-y,-z
x,-y,1/2+z
1/2+x,1/2+y,z
1/2-x,1/2+y,1/2-z
1/2-x,1/2-y,-z
1/2+x,1/2-y,1/2+z
loop_
_atom_site_type_symbol
_atom_site_label
_atom_site_fract_x
_atom_site_fract_y
_atom_site_fract_z
Si Si1 0.173897 0.999945 0.156996
Si Si2 0.153279 0.372896 0.662152
Si Si3 0.651864 0.186127 0.940616
Si Si4 0.171170 0.543813 0.909338
Si Si5 0.334138 0.925398 0.450734
Si Si6 0.672282 0.184891 0.392794
O O1 0.247954 0.998112 0.108796
O O2 0.225693 0.931532 0.259889
O O3 0.227899 0.068628 0.257626
O O4 0.000000 0.000000 0.000000
O O5 0.129453 0.323438 0.544740
O O6 0.215071 0.330077 0.811552
O O7 0.998546 0.407763 0.557373
O O8 0.500000 0.197301 0.750000
O O9 0.738294 0.118706 0.977793
O O10 0.750000 0.250000 0.000000
O O11 0.000000 0.556906 0.750000
O O12 0.177828 0.500737 0.017787
O O13 0.276232 0.874621 0.487485
O O14 0.500000 0.196499 0.250000
O O15 0.750000 0.250000 0.500000
#
# Coordination Sequence:
#
# PCOD8148303 Si02
#       6
#     8   8   8   8   8   8
#     4  12  25  37  63 107 136 166 214 294 352 377
#     4  11  22  44  70  94 130 183 228 269 331 412
#     4  11  26  43  66  96 133 181 225 273 332 411
#     4  11  20  41  71  94 127 176 234 272 326 413
#     4  11  20  42  71  94 129 178 233 270 329 416
#     4  10  23  40  66  97 130 171 220 278 333 396
#
# _framework density 20.36401
#
# number of rings (size 3 to 8) (size 9 to 14) (size 15 to 20)
#    0.000    1.000    5.000    3.000    0.000    7.333 
#    0.000    0.000    0.000    0.000    0.000    0.000 
#    0.000    0.000    0.000    0.000    0.000    0.000 
#
# Total GULP energy -297441.544538 kJ/mol
# GULP energy per Si atom -12393.397689 kJ/mol
# Density = 2.031766 g / cm^3
# Si number density = 20.364010 Si / 1000 Ang^3
#
#
#
# Elastic Constant Matrix: (Units=GPa)
#
#
# Indices 1 2 3 4 5 6 
#
# 1 100.1653 53.1482 58.2672 0.0000 -15.4352 0.0000
# 2 53.1482 143.3950 62.3132 0.0000 1.0644 0.0000
# 3 58.2672 62.3132 124.9602 0.0000 -11.9470 0.0000
# 4 0.0000 0.0000 0.0000 45.2600 0.0000 -0.7553
# 5 -15.4352 1.0644 -11.9470 0.0000 32.8042 0.0000
# 6 0.0000 0.0000 0.0000 -0.7553 0.0000 53.7273
#
#
#
# Elastic Compliance Matrix: (Units=1/GPa)
#
#
# Indices 1 2 3 4 5 6 
#
# 1 0.015702 -0.003725 -0.004917 0.000000 0.005718 0.000000
# 2 -0.003725 0.009912 -0.003527 0.000000 -0.003359 0.000000
# 3 -0.004917 -0.003527 0.012271 0.000000 0.002270 0.000000
# 4 0.000000 0.000000 0.000000 0.022100 0.000000 0.000311
# 5 0.005718 -0.003359 0.002270 0.000000 0.034110 0.000000
# 6 0.000000 0.000000 0.000000 0.000311 0.000000 0.018617
#
#
# Mechanical properties :
#
#
# Convention : Reuss Voigt Hill
#
# Bulk Modulus (GPa) = 73.82155 79.55308 76.68732
# Shear Modulus (GPa) = 35.31938 39.34444 37.33191
#
# Velocity S-wave (km/s) = 4.16913 4.40029 4.28627
# Velocity P-wave (km/s) = 7.71396 8.06021 7.88899
#
# Compressibility (1/GPa) = 0.01354618
#
# Stress axis : x y z
#
# Youngs Moduli (GPa) = 63.68755 100.88717 81.49283
#
# Poissons Ratio (x) = 0.37584 0.40071
# Poissons Ratio (y) = 0.23726 0.28741
# Poissons Ratio (z) = 0.31316 0.35581
#
# Static dielectric constant tensor:
#      x y z
#    x 2.365070 0.000000 -0.185310 
#    y 0.000000 3.938980 0.000000 
#    z -0.185310 0.000000 3.850210 
# 
# 
# High freq. dielectric constant tensor:
#      x y z
#    x 1.783020 0.000000 -0.026430 
#    y 0.000000 1.798000 0.000000 
#    z -0.026430 0.000000 1.802720 
# 
# From -- ./inp_files/100055.got.cif
#   From: 2010.06.25/outbox.cif.g09.slc.cpg/sg15_51_cif.got.tgz:100055.got - 2010.06.28 07:06:18.
