data_PCOD8148903
_publ_section_title
;
Structure prediction by ZEFSAII (Michael W. Deem and Ramdas Pophale) SiO2 
 PCOD8148903
Probable space group: C 2/C
;
_chemical_formula_sum "Si O2"
_cell_formula_units_Z 44
_cell_length_a 12.063082
_cell_length_b 13.447438
_cell_length_c 12.724072
_cell_angle_alpha 90.000000
_cell_angle_beta 105.523126
_cell_angle_gamma 90.000000
_cell_volume 1988.775742
_symmetry_space_group_name_H-M "C 2/C"
_symmetry_group_IT_number 15
_symmetry_cell_setting 'monoclinic'
loop_
_space_group_symop_operation_xyz
x,y,z
-x,y,1/2-z
-x,-y,-z
x,-y,1/2+z
1/2+x,1/2+y,z
1/2-x,1/2+y,1/2-z
1/2-x,1/2-y,-z
1/2+x,1/2-y,1/2+z
loop_
_atom_site_type_symbol
_atom_site_label
_atom_site_fract_x
_atom_site_fract_y
_atom_site_fract_z
Si Si1 0.126904 0.487732 0.574792
Si Si2 0.500000 0.229280 0.750000
Si Si3 0.779391 0.630765 0.737899
Si Si4 0.016436 0.160378 0.039283
Si Si5 0.585662 0.213258 0.174579
Si Si6 0.176989 0.992033 0.039574
O O1 0.167570 0.588716 0.641425
O O2 0.133230 0.394811 0.655550
O O3 0.209497 0.474198 0.497822
O O4 0.000000 0.500000 0.500000
O O5 0.387120 0.164541 0.692209
O O6 0.462803 0.290785 0.842737
O O7 0.694178 0.722103 0.739663
O O8 0.705787 0.544175 0.664275
O O9 0.978815 0.239517 0.942134
O O10 0.921226 0.076516 0.035548
O O11 0.134403 0.106285 0.032110
O O12 0.500000 0.202345 0.250000
#
# Coordination Sequence:
#
# PCOD8148903 Si02
#       6
#     8   4   8   8   8   8
#     4  12  26  42  68 100 140 179 225 286 341 408
#     4  12  24  42  68 100 136 178 230 274 350 398
#     4  11  25  42  66  99 134 181 221 283 333 411
#     4  10  23  43  70 100 131 180 223 290 327 411
#     4  11  25  45  69 100 139 181 231 277 342 407
#     4  10  23  43  66  99 134 172 233 272 345 394
#
# _framework density 22.124162999999999
#
# number of rings (size 3 to 8) (size 9 to 14) (size 15 to 20)
#    0.000    1.091    0.000    5.455    8.909    2.909 
#    3.273    3.636    0.000    0.000    0.000    0.000 
#    0.000    0.000    0.000    0.000    0.000    0.000 
#
# Total GULP energy -272874.109770 kJ/mol
# GULP energy per Si atom -12403.368626 kJ/mol
# Density = 2.207381 g / cm^3
# Si number density = 22.124163 Si / 1000 Ang^3
#
#
#
# Elastic Constant Matrix: (Units=GPa)
#
#
# Indices 1 2 3 4 5 6 
#
# 1 133.7215 40.1157 34.2236 0.0000 -1.1208 0.0000
# 2 40.1157 104.8695 43.6583 0.0000 4.7149 0.0000
# 3 34.2236 43.6583 103.1188 0.0000 3.0327 0.0000
# 4 0.0000 0.0000 0.0000 30.3245 0.0000 5.5858
# 5 -1.1208 4.7149 3.0327 0.0000 42.0478 0.0000
# 6 0.0000 0.0000 0.0000 5.5858 0.0000 37.6446
#
#
#
# Elastic Compliance Matrix: (Units=1/GPa)
#
#
# Indices 1 2 3 4 5 6 
#
# 1 0.008732 -0.002616 -0.001810 0.000000 0.000657 0.000000
# 2 -0.002616 0.012398 -0.004347 0.000000 -0.001146 0.000000
# 3 -0.001810 -0.004347 0.012151 0.000000 -0.000437 0.000000
# 4 0.000000 0.000000 0.000000 0.033903 0.000000 -0.005031
# 5 0.000657 -0.001146 -0.000437 0.000000 0.023960 0.000000
# 6 0.000000 0.000000 0.000000 -0.005031 0.000000 0.027311
#
#
# Mechanical properties :
#
#
# Convention : Reuss Voigt Hill
#
# Bulk Modulus (GPa) = 63.55157 64.18944 63.87050
# Shear Modulus (GPa) = 35.39939 36.91752 36.15846
#
# Velocity S-wave (km/s) = 4.00438 4.08935 4.04709
# Velocity P-wave (km/s) = 7.08289 7.16751 7.12533
#
# Compressibility (1/GPa) = 0.01573525
#
# Stress axis : x y z
#
# Youngs Moduli (GPa) = 114.52473 80.66025 82.29538
#
# Poissons Ratio (x) = 0.21103 0.14892
# Poissons Ratio (y) = 0.29964 0.35773
# Poissons Ratio (z) = 0.20724 0.35062
#
# Static dielectric constant tensor:
#      x y z
#    x 4.142810 0.000000 0.101920 
#    y 0.000000 4.229740 0.000000 
#    z 0.101920 0.000000 3.799670 
# 
# 
# High freq. dielectric constant tensor:
#      x y z
#    x 1.884590 0.000000 0.009730 
#    y 0.000000 1.879160 0.000000 
#    z 0.009730 0.000000 1.869490 
# 
# From -- ./inp_files/86162.got.cif
#   From: 2010.06.25/outbox.cif.g09.slc.cpg/sg15_44_cif.got.tgz:86162.got - 2010.06.28 07:06:18.
