data_PCOD8148678
_publ_section_title
;
Structure prediction by ZEFSAII (Michael W. Deem and Ramdas Pophale) SiO2 
 PCOD8148678
Probable space group: C 2/C
;
_chemical_formula_sum "Si O2"
_cell_formula_units_Z 40
_cell_length_a 14.038539
_cell_length_b 6.336149
_cell_length_c 20.423061
_cell_angle_alpha 90.000000
_cell_angle_beta 114.469937
_cell_angle_gamma 90.000000
_cell_volume 1653.464265
_symmetry_space_group_name_H-M "C 2/C"
_symmetry_group_IT_number 15
_symmetry_cell_setting 'monoclinic'
loop_
_space_group_symop_operation_xyz
x,y,z
-x,y,1/2-z
-x,-y,-z
x,-y,1/2+z
1/2+x,1/2+y,z
1/2-x,1/2+y,1/2-z
1/2-x,1/2-y,-z
1/2+x,1/2-y,1/2+z
loop_
_atom_site_type_symbol
_atom_site_label
_atom_site_fract_x
_atom_site_fract_y
_atom_site_fract_z
Si Si1 0.325318 0.550536 0.536805
Si Si2 0.438236 0.775045 0.671342
Si Si3 0.258770 0.580184 0.312106
Si Si4 0.177823 0.742862 0.076365
Si Si5 0.607011 0.962234 0.158833
O O1 0.250000 0.750000 0.500000
O O2 0.429985 0.624150 0.605483
O O3 0.269269 0.378298 0.565580
O O4 0.367080 0.427139 0.483970
O O5 0.500000 0.667953 0.750000
O O6 0.319167 0.814774 0.657395
O O7 0.499643 0.990870 0.667954
O O8 0.282330 0.349378 0.345543
O O9 0.205615 0.561114 0.226311
O O10 0.367331 0.713953 0.339774
O O11 0.097254 0.568743 0.083270
#
# Coordination Sequence:
#
# PCOD8148678 Si02
#       5
#     8   8   8   8   8
#     4  11  22  43  70  93 140 183 223 287 346 419
#     4  10  23  42  67 100 135 172 236 290 340 416
#     4  11  21  43  65  98 137 176 226 288 346 412
#     4  11  22  39  71  95 128 190 223 268 361 406
#     4  11  22  40  68  98 135 176 229 286 348 414
#
# _framework density 24.191631999999998
#
# number of rings (size 3 to 8) (size 9 to 14) (size 15 to 20)
#    0.000    1.200    6.000    0.000    0.000    0.800 
#    3.600    5.000    0.000    0.000    0.000    0.000 
#    0.000    0.000    0.000    0.000    0.000    0.000 
#
# Total GULP energy -247765.793236 kJ/mol
# GULP energy per Si atom -12388.289662 kJ/mol
# Density = 2.413657 g / cm^3
# Si number density = 24.191632 Si / 1000 Ang^3
#
#
#
# Elastic Constant Matrix: (Units=GPa)
#
#
# Indices 1 2 3 4 5 6 
#
# 1 46.7734 15.4473 23.7469 0.0000 -2.0133 0.0000
# 2 15.4473 104.4276 47.2334 0.0000 -2.5436 0.0000
# 3 23.7469 47.2334 108.4196 0.0000 -7.5301 0.0000
# 4 0.0000 0.0000 0.0000 43.9385 0.0000 -11.6831
# 5 -2.0133 -2.5436 -7.5301 0.0000 30.9353 0.0000
# 6 0.0000 0.0000 0.0000 -11.6831 0.0000 35.6735
#
#
#
# Elastic Compliance Matrix: (Units=1/GPa)
#
#
# Indices 1 2 3 4 5 6 
#
# 1 0.024239 -0.001478 -0.004643 0.000000 0.000326 0.000000
# 2 -0.001478 0.012019 -0.004934 0.000000 -0.000309 0.000000
# 3 -0.004643 -0.004934 0.012553 0.000000 0.002348 0.000000
# 4 0.000000 0.000000 0.000000 0.024930 0.000000 0.008165
# 5 0.000326 -0.000309 0.002348 0.000000 0.032893 0.000000
# 6 0.000000 0.000000 0.000000 0.008165 0.000000 0.030706
#
#
# Mechanical properties :
#
#
# Convention : Reuss Voigt Hill
#
# Bulk Modulus (GPa) = 37.45019 48.05284 42.75152
# Shear Modulus (GPa) = 29.70043 33.65565 31.67804
#
# Velocity S-wave (km/s) = 3.50768 3.73394 3.62258
# Velocity P-wave (km/s) = 5.64972 6.20454 5.93362
#
# Compressibility (1/GPa) = 0.02670214
#
# Stress axis : x y z
#
# Youngs Moduli (GPa) = 41.25622 83.20397 79.66384
#
# Poissons Ratio (x) = 0.12295 0.36984
# Poissons Ratio (y) = 0.06096 0.39304
# Poissons Ratio (z) = 0.19153 0.41051
#
# Static dielectric constant tensor:
#      x y z
#    x 3.993550 0.000000 -0.344980 
#    y 0.000000 4.500930 0.000000 
#    z -0.344980 0.000000 4.646850 
# 
# 
# High freq. dielectric constant tensor:
#      x y z
#    x 1.928320 0.000000 -0.030720 
#    y 0.000000 1.956960 0.000000 
#    z -0.030720 0.000000 1.973600 
# 
# From -- ./inp_files/271978.got.cif
#   From: 2010.06.25/outbox.cif.g09.slc.cpg/sg15_136_cif.got.tgz:271978.got - 2010.06.28 07:06:18.
