data_PCOD8148412
_publ_section_title
;
Structure prediction by ZEFSAII (Michael W. Deem and Ramdas Pophale) SiO2 
 PCOD8148412
Probable space group: C 2/C
;
_chemical_formula_sum "Si O2"
_cell_formula_units_Z 60
_cell_length_a 5.243347
_cell_length_b 17.751798
_cell_length_c 29.403995
_cell_angle_alpha 90.000000
_cell_angle_beta 92.417392
_cell_angle_gamma 90.000000
_cell_volume 2734.454019
_symmetry_space_group_name_H-M "C 2/C"
_symmetry_group_IT_number 15
_symmetry_cell_setting 'monoclinic'
loop_
_space_group_symop_operation_xyz
x,y,z
-x,y,1/2-z
-x,-y,-z
x,-y,1/2+z
1/2+x,1/2+y,z
1/2-x,1/2+y,1/2-z
1/2-x,1/2-y,-z
1/2+x,1/2-y,1/2+z
loop_
_atom_site_type_symbol
_atom_site_label
_atom_site_fract_x
_atom_site_fract_y
_atom_site_fract_z
Si Si1 0.500000 0.399077 0.250000
Si Si2 0.821815 0.853496 0.790143
Si Si3 0.722307 0.493354 0.360510
Si Si4 0.282632 0.224399 0.551310
Si Si5 0.295921 0.662962 0.130503
Si Si6 0.817696 0.492551 0.196470
Si Si7 0.778677 0.151978 0.587607
Si Si8 0.925529 0.223343 0.678163
O O1 0.757492 0.449970 0.244425
O O2 0.483328 0.352117 0.296639
O O3 0.710142 0.770078 0.782108
O O4 0.000000 0.875162 0.750000
O O5 0.938977 0.848260 0.841659
O O6 0.612552 0.920238 0.791404
O O7 0.810325 0.577407 0.376958
O O8 0.455817 0.491776 0.331713
O O9 0.703800 0.437960 0.403860
O O10 0.950616 0.458476 0.330824
O O11 0.250000 0.250000 0.500000
O O12 0.326728 0.299709 0.581391
O O13 0.530123 0.170697 0.556031
O O14 0.035555 0.177646 0.564497
O O15 0.137462 0.719334 0.161350
O O16 0.748503 0.196779 0.635109
#
# Coordination Sequence:
#
# PCOD8148412 Si02
#       8
#     4   8   8   8   8   8   8   8
#     4  12  24  40  58  96 130 178 226 270 314 376
#     4  11  21  38  60  89 124 173 219 264 313 382
#     4  11  23  43  67  89 128 172 214 268 324 383
#     4  11  24  45  71  99 132 165 209 271 333 395
#     4  10  23  41  64  90 128 169 216 259 329 384
#     4  11  24  41  58  91 129 176 217 265 320 372
#     4  11  23  42  67  98 128 164 216 258 329 384
#     4  11  22  40  58  92 124 171 215 269 310 380
#
# _framework density 21.942222999999998
#
# number of rings (size 3 to 8) (size 9 to 14) (size 15 to 20)
#    0.000    1.067    4.667    2.000    1.867    1.600 
#    2.400    1.333    0.000    0.000    0.000    0.000 
#    0.000    0.000    0.000    0.000    0.000    0.000 
#
# Total GULP energy -371723.742238 kJ/mol
# GULP energy per Si atom -12390.791408 kJ/mol
# Density = 2.189228 g / cm^3
# Si number density = 21.942223 Si / 1000 Ang^3
#
#
#
# Elastic Constant Matrix: (Units=GPa)
#
#
# Indices 1 2 3 4 5 6 
#
# 1 98.4987 13.4432 21.5812 0.0000 -1.7390 0.0000
# 2 13.4432 129.6723 35.1038 0.0000 -9.2421 0.0000
# 3 21.5812 35.1038 107.9716 0.0000 2.4126 0.0000
# 4 0.0000 0.0000 0.0000 21.5179 0.0000 -8.7482
# 5 -1.7390 -9.2421 2.4126 0.0000 26.3336 0.0000
# 6 0.0000 0.0000 0.0000 -8.7482 0.0000 17.3965
#
#
#
# Elastic Compliance Matrix: (Units=1/GPa)
#
#
# Indices 1 2 3 4 5 6 
#
# 1 0.010669 -0.000520 -0.001979 0.000000 0.000703 0.000000
# 2 -0.000520 0.008764 -0.002819 0.000000 0.003300 0.000000
# 3 -0.001979 -0.002819 0.010621 0.000000 -0.002093 0.000000
# 4 0.000000 0.000000 0.000000 0.058416 0.000000 0.029376
# 5 0.000703 0.003300 -0.002093 0.000000 0.039371 0.000000
# 6 0.000000 0.000000 0.000000 0.029376 0.000000 0.072255
#
#
# Mechanical properties :
#
#
# Convention : Reuss Voigt Hill
#
# Bulk Modulus (GPa) = 51.50096 52.93321 52.21709
# Shear Modulus (GPa) = 23.01973 30.78390 26.90181
#
# Velocity S-wave (km/s) = 3.24251 3.74966 3.50527
# Velocity P-wave (km/s) = 6.12704 6.55156 6.34285
#
# Compressibility (1/GPa) = 0.01941711
#
# Stress axis : x y z
#
# Youngs Moduli (GPa) = 93.72539 114.10275 94.15646
#
# Poissons Ratio (x) = 0.05936 0.18635
# Poissons Ratio (y) = 0.04875 0.26544
# Poissons Ratio (z) = 0.18550 0.32167
#
# Static dielectric constant tensor:
#      x y z
#    x 3.907580 0.000000 -0.006030 
#    y 0.000000 4.592400 0.000000 
#    z -0.006030 0.000000 3.690320 
# 
# 
# High freq. dielectric constant tensor:
#      x y z
#    x 1.864450 0.000000 0.000380 
#    y 0.000000 1.888120 0.000000 
#    z 0.000380 0.000000 1.829720 
# 
# From -- ./inp_files/286093.got.cif
#   From: 2010.06.25/outbox.cif.g09.slc.cpg/sg15_144_cif.got.tgz:286093.got - 2010.06.28 07:06:18.
