data_PCOD8148713
_publ_section_title
;
Structure prediction by ZEFSAII (Michael W. Deem and Ramdas Pophale) SiO2 
 PCOD8148713
Probable space group: C 2/C
;
_chemical_formula_sum "Si O2"
_cell_formula_units_Z 40
_cell_length_a 12.338113
_cell_length_b 29.352780
_cell_length_c 5.225482
_cell_angle_alpha 90.000000
_cell_angle_beta 76.934745
_cell_angle_gamma 90.000000
_cell_volume 1843.460270
_symmetry_space_group_name_H-M "C 2/C"
_symmetry_group_IT_number 15
_symmetry_cell_setting 'monoclinic'
loop_
_space_group_symop_operation_xyz
x,y,z
-x,y,1/2-z
-x,-y,-z
x,-y,1/2+z
1/2+x,1/2+y,z
1/2-x,1/2+y,1/2-z
1/2-x,1/2-y,-z
1/2+x,1/2-y,1/2+z
loop_
_atom_site_type_symbol
_atom_site_label
_atom_site_fract_x
_atom_site_fract_y
_atom_site_fract_z
Si Si1 0.873393 0.019644 0.572814
Si Si2 0.627845 0.131102 0.242333
Si Si3 0.818027 0.736442 0.213720
Si Si4 0.062540 0.179703 0.953676
Si Si5 0.255046 0.611217 0.660728
O O1 0.855104 0.073888 0.596013
O O2 0.812058 0.001847 0.351108
O O3 0.000000 0.000000 0.500000
O O4 0.500000 0.120877 0.250000
O O5 0.645960 0.184365 0.284358
O O6 0.665303 0.104377 0.480497
O O7 0.697737 0.111650 0.967425
O O8 0.750000 0.750000 0.500000
O O9 0.928735 0.767156 0.127972
O O10 0.750000 0.750000 0.000000
O O11 0.185727 0.159436 0.918719
O O12 0.000000 0.154772 0.750000
O O13 0.000000 0.171834 0.250000
#
# Coordination Sequence:
#
# PCOD8148713 Si02
#       5
#     8   8   8   8   8
#     4  10  23  42  68 102 137 176 205 273 365 447
#     4  12  25  45  71  96 137 194 241 291 331 400
#     4  12  22  43  61  92 138 185 233 283 345 378
#     4  12  25  38  64  96 137 183 221 281 341 411
#     4  12  25  44  70 102 140 176 233 286 343 421
#
# _framework density 21.698324
#
# number of rings (size 3 to 8) (size 9 to 14) (size 15 to 20)
#    0.000    0.400    4.000    4.800    5.600    1.600 
#    0.000    0.000    0.000   12.000    0.000    0.000 
#    0.000    0.000    0.000    0.000    0.000    0.000 
#
# Total GULP energy -247842.964620 kJ/mol
# GULP energy per Si atom -12392.148231 kJ/mol
# Density = 2.164894 g / cm^3
# Si number density = 21.698324 Si / 1000 Ang^3
#
#
#
# Elastic Constant Matrix: (Units=GPa)
#
#
# Indices 1 2 3 4 5 6 
#
# 1 112.2650 35.7180 49.5491 0.0000 11.1737 0.0000
# 2 35.7180 103.9017 33.0579 0.0000 0.2212 0.0000
# 3 49.5491 33.0579 195.3301 0.0000 28.3862 0.0000
# 4 0.0000 0.0000 0.0000 66.0707 0.0000 -35.3921
# 5 11.1737 0.2212 28.3862 0.0000 38.0619 0.0000
# 6 0.0000 0.0000 0.0000 -35.3921 0.0000 63.1069
#
#
#
# Elastic Compliance Matrix: (Units=1/GPa)
#
#
# Indices 1 2 3 4 5 6 
#
# 1 0.010955 -0.003125 -0.002002 0.000000 -0.001705 0.000000
# 2 -0.003125 0.011128 -0.001362 0.000000 0.001869 0.000000
# 3 -0.002002 -0.001362 0.006473 0.000000 -0.004232 0.000000
# 4 0.000000 0.000000 0.000000 0.021635 0.000000 0.012133
# 5 -0.001705 0.001869 -0.004232 0.000000 0.029919 0.000000
# 6 0.000000 0.000000 0.000000 0.012133 0.000000 0.022651
#
#
# Mechanical properties :
#
#
# Convention : Reuss Voigt Hill
#
# Bulk Modulus (GPa) = 64.19777 72.01630 68.10704
# Shear Modulus (GPa) = 41.34534 52.99269 47.16902
#
# Velocity S-wave (km/s) = 4.36990 4.94727 4.66752
# Velocity P-wave (km/s) = 7.42375 8.11763 7.77843
#
# Compressibility (1/GPa) = 0.01557686
#
# Stress axis : x y z
#
# Youngs Moduli (GPa) = 91.28038 89.86118 154.48856
#
# Poissons Ratio (x) = 0.28085 0.30934
# Poissons Ratio (y) = 0.28528 0.21043
# Poissons Ratio (z) = 0.18278 0.12240
#
# Static dielectric constant tensor:
#      x y z
#    x 3.991380 0.000000 0.517330 
#    y 0.000000 3.943050 0.000000 
#    z 0.517330 0.000000 4.752090 
# 
# 
# High freq. dielectric constant tensor:
#      x y z
#    x 1.843570 0.000000 0.025460 
#    y 0.000000 1.837450 0.000000 
#    z 0.025460 0.000000 1.880070 
# 
# From -- ./inp_files/5707.got.cif
#   From: 2010.06.25/outbox.cif.g09.slc.cpg/sg15_3_cif.got.tgz:5707.got - 2010.06.28 07:06:18.
