data_PCOD8148568
_publ_section_title
;
Structure prediction by ZEFSAII (Michael W. Deem and Ramdas Pophale) SiO2 
 PCOD8148568
Probable space group: C 2/C
;
_chemical_formula_sum "Si O2"
_cell_formula_units_Z 36
_cell_length_a 12.266978
_cell_length_b 16.747685
_cell_length_c 9.394291
_cell_angle_alpha 90.000000
_cell_angle_beta 59.771640
_cell_angle_gamma 90.000000
_cell_volume 1667.566057
_symmetry_space_group_name_H-M "C 2/C"
_symmetry_group_IT_number 15
_symmetry_cell_setting 'monoclinic'
loop_
_space_group_symop_operation_xyz
x,y,z
-x,y,1/2-z
-x,-y,-z
x,-y,1/2+z
1/2+x,1/2+y,z
1/2-x,1/2+y,1/2-z
1/2-x,1/2-y,-z
1/2+x,1/2-y,1/2+z
loop_
_atom_site_type_symbol
_atom_site_label
_atom_site_fract_x
_atom_site_fract_y
_atom_site_fract_z
Si Si1 0.807245 0.988561 0.514315
Si Si2 0.889220 0.313041 0.408554
Si Si3 0.361731 0.337059 0.075582
Si Si4 0.137490 0.460949 0.887837
Si Si5 0.000000 0.877972 0.250000
O O1 0.691721 0.962542 0.692547
O O2 0.922519 0.927321 0.420860
O O3 0.871692 0.072291 0.514885
O O4 0.741842 0.989116 0.404130
O O5 0.779253 0.304124 0.362409
O O6 0.941513 0.227106 0.430255
O O7 0.856089 0.369791 0.562917
O O8 0.000000 0.356751 0.250000
O O9 0.403323 0.327576 0.214408
O O10 0.000000 0.500000 0.000000
#
# Coordination Sequence:
#
# PCOD8148568 Si02
#       5
#     8   8   8   8   4
#     4  11  23  40  68  96 134 173 220 278 325 394
#     4  10  23  43  69  90 132 180 220 269 340 402
#     4  10  23  42  62  97 128 173 218 275 330 394
#     4  11  22  42  66  97 130 176 226 273 327 393
#     4  12  24  40  66 102 134 170 226 272 336 398
#
# _framework density 21.588350999999999
#
# number of rings (size 3 to 8) (size 9 to 14) (size 15 to 20)
#    0.000    1.333    2.222    4.000    1.556    3.556 
#    4.000    2.222    0.000    0.000    0.000    0.000 
#    0.000    0.000    0.000    0.000    0.000    0.000 
#
# Total GULP energy -222988.574634 kJ/mol
# GULP energy per Si atom -12388.254146 kJ/mol
# Density = 2.153921 g / cm^3
# Si number density = 21.588351 Si / 1000 Ang^3
#
#
#
# Elastic Constant Matrix: (Units=GPa)
#
#
# Indices 1 2 3 4 5 6 
#
# 1 105.6648 34.2150 33.6722 0.0000 25.6090 0.0000
# 2 34.2150 93.8260 36.0391 0.0000 3.6804 0.0000
# 3 33.6722 36.0391 106.9563 0.0000 -9.6881 0.0000
# 4 0.0000 0.0000 0.0000 19.6292 0.0000 0.2091
# 5 25.6090 3.6804 -9.6881 0.0000 46.4302 0.0000
# 6 0.0000 0.0000 0.0000 0.2091 0.0000 23.0198
#
#
#
# Elastic Compliance Matrix: (Units=1/GPa)
#
#
# Indices 1 2 3 4 5 6 
#
# 1 0.013738 -0.003152 -0.004002 0.000000 -0.008163 0.000000
# 2 -0.003152 0.013127 -0.003432 0.000000 -0.000018 0.000000
# 3 -0.004002 -0.003432 0.012222 0.000000 0.005030 0.000000
# 4 0.000000 0.000000 0.000000 0.050949 0.000000 -0.000463
# 5 -0.008163 -0.000018 0.005030 0.000000 0.027091 0.000000
# 6 0.000000 0.000000 0.000000 -0.000463 0.000000 0.043445
#
#
# Mechanical properties :
#
#
# Convention : Reuss Voigt Hill
#
# Bulk Modulus (GPa) = 55.82581 57.14441 56.48511
# Shear Modulus (GPa) = 26.63584 31.31723 28.97653
#
# Velocity S-wave (km/s) = 3.51637 3.81288 3.66762
# Velocity P-wave (km/s) = 6.51167 6.77580 6.64505
#
# Compressibility (1/GPa) = 0.01791286
#
# Stress axis : x y z
#
# Youngs Moduli (GPa) = 72.78857 76.18094 81.82145
#
# Poissons Ratio (x) = 0.24015 0.32748
# Poissons Ratio (y) = 0.22946 0.28083
# Poissons Ratio (z) = 0.29132 0.26147
#
# Static dielectric constant tensor:
#      x y z
#    x 4.047270 0.000000 0.110370 
#    y 0.000000 3.807250 0.000000 
#    z 0.110370 0.000000 3.782350 
# 
# 
# High freq. dielectric constant tensor:
#      x y z
#    x 1.864390 0.000000 0.004700 
#    y 0.000000 1.835260 0.000000 
#    z 0.004700 0.000000 1.838300 
# 
# From -- ./inp_files/28956.got.cif
#   From: 2010.06.25/outbox.cif.g09.slc.cpg/sg15_15_cif.got.tgz:28956.got - 2010.06.28 07:06:18.
