data_PCOD8148522
_publ_section_title
;
Structure prediction by ZEFSAII (Michael W. Deem and Ramdas Pophale) SiO2 
 PCOD8148522
Probable space group: C 2/C
;
_chemical_formula_sum "Si O2"
_cell_formula_units_Z 36
_cell_length_a 18.618424
_cell_length_b 14.735263
_cell_length_c 12.705843
_cell_angle_alpha 90.000000
_cell_angle_beta 151.367713
_cell_angle_gamma 90.000000
_cell_volume 1670.355462
_symmetry_space_group_name_H-M "C 2/C"
_symmetry_group_IT_number 15
_symmetry_cell_setting 'monoclinic'
loop_
_space_group_symop_operation_xyz
x,y,z
-x,y,1/2-z
-x,-y,-z
x,-y,1/2+z
1/2+x,1/2+y,z
1/2-x,1/2+y,1/2-z
1/2-x,1/2-y,-z
1/2+x,1/2-y,1/2+z
loop_
_atom_site_type_symbol
_atom_site_label
_atom_site_fract_x
_atom_site_fract_y
_atom_site_fract_z
Si Si1 0.031863 0.216368 0.678311
Si Si2 0.264455 0.946452 0.205106
Si Si3 0.500000 0.544114 0.750000
Si Si4 0.450508 0.087110 0.569685
Si Si5 0.710975 0.253732 0.215653
O O1 0.881179 0.224590 0.416248
O O2 0.000000 0.267511 0.750000
O O3 0.064224 0.109609 0.739973
O O4 0.164424 0.261610 0.779802
O O5 0.406546 0.916375 0.320964
O O6 0.187881 0.859269 0.160393
O O7 0.319072 0.019143 0.362097
O O8 0.138120 0.985177 0.966412
O O9 0.500000 0.059958 0.750000
O O10 0.388810 0.190110 0.487810
#
# Coordination Sequence:
#
# PCOD8148522 Si02
#       5
#     8   8   4   8   8
#     4  10  23  41  69  97 137 173 226 279 328 396
#     4  11  26  45  68 102 135 179 223 281 337 397
#     4  10  24  44  66  98 138 172 234 270 336 390
#     4  11  26  46  67 100 140 176 224 276 343 401
#     4  12  23  45  68 101 135 177 229 273 336 404
#
# _framework density 21.552298
#
# number of rings (size 3 to 8) (size 9 to 14) (size 15 to 20)
#    0.667    0.444    4.444    0.667    4.667    4.444 
#    0.000    0.000    0.000    0.000    0.000    0.000 
#    0.000    0.000    0.000    0.000    0.000    0.000 
#
# Total GULP energy -223135.850709 kJ/mol
# GULP energy per Si atom -12396.436151 kJ/mol
# Density = 2.150324 g / cm^3
# Si number density = 21.552298 Si / 1000 Ang^3
#
#
#
# Elastic Constant Matrix: (Units=GPa)
#
#
# Indices 1 2 3 4 5 6 
#
# 1 62.9192 24.6256 16.8542 0.0000 -2.9539 0.0000
# 2 24.6256 129.5751 61.2120 0.0000 0.1042 0.0000
# 3 16.8542 61.2120 134.5883 0.0000 1.8101 0.0000
# 4 0.0000 0.0000 0.0000 15.5991 0.0000 -4.8588
# 5 -2.9539 0.1042 1.8101 0.0000 25.9919 0.0000
# 6 0.0000 0.0000 0.0000 -4.8588 0.0000 24.9847
#
#
#
# Elastic Compliance Matrix: (Units=1/GPa)
#
#
# Indices 1 2 3 4 5 6 
#
# 1 0.017355 -0.002879 -0.000892 0.000000 0.002046 0.000000
# 2 -0.002879 0.010309 -0.004327 0.000000 -0.000067 0.000000
# 3 -0.000892 -0.004327 0.009520 0.000000 -0.000747 0.000000
# 4 0.000000 0.000000 0.000000 0.068240 0.000000 0.013271
# 5 0.002046 -0.000067 -0.000747 0.000000 0.038758 0.000000
# 6 0.000000 0.000000 0.000000 0.013271 0.000000 0.042605
#
#
# Mechanical properties :
#
#
# Convention : Reuss Voigt Hill
#
# Bulk Modulus (GPa) = 47.64473 59.16291 53.40382
# Shear Modulus (GPa) = 23.81200 28.27453 26.04326
#
# Velocity S-wave (km/s) = 3.32753 3.62595 3.47994
# Velocity P-wave (km/s) = 6.07600 6.71122 6.40150
#
# Compressibility (1/GPa) = 0.02098868
#
# Stress axis : x y z
#
# Youngs Moduli (GPa) = 57.62034 97.00384 105.04432
#
# Poissons Ratio (x) = 0.27925 0.09365
# Poissons Ratio (y) = 0.16588 0.45454
# Poissons Ratio (z) = 0.05137 0.41975
#
# Static dielectric constant tensor:
#      x y z
#    x 3.897000 0.000000 0.078220 
#    y 0.000000 3.884630 0.000000 
#    z 0.078220 0.000000 3.869870 
# 
# 
# High freq. dielectric constant tensor:
#      x y z
#    x 1.836270 0.000000 0.011090 
#    y 0.000000 1.841780 0.000000 
#    z 0.011090 0.000000 1.853360 
# 
# From -- ./inp_files/85835.got.cif
#   From: 2010.06.25/outbox.cif.g09.slc.cpg/sg15_43_cif.got.tgz:85835.got - 2010.06.28 07:06:18.
