data_PCOD8148154
_publ_section_title
;
Structure prediction by ZEFSAII (Michael W. Deem and Ramdas Pophale) SiO2 
 PCOD8148154
Probable space group: C 2/C
;
_chemical_formula_sum "Si O2"
_cell_formula_units_Z 36
_cell_length_a 22.893000
_cell_length_b 13.748313
_cell_length_c 5.137364
_cell_angle_alpha 90.000000
_cell_angle_beta 109.636778
_cell_angle_gamma 90.000000
_cell_volume 1522.896820
_symmetry_space_group_name_H-M "C 2/C"
_symmetry_group_IT_number 15
_symmetry_cell_setting 'monoclinic'
loop_
_space_group_symop_operation_xyz
x,y,z
-x,y,1/2-z
-x,-y,-z
x,-y,1/2+z
1/2+x,1/2+y,z
1/2-x,1/2+y,1/2-z
1/2-x,1/2-y,-z
1/2+x,1/2-y,1/2+z
loop_
_atom_site_type_symbol
_atom_site_label
_atom_site_fract_x
_atom_site_fract_y
_atom_site_fract_z
Si Si1 0.000000 0.568113 0.750000
Si Si2 0.125781 0.322604 0.545981
Si Si3 0.647708 0.700761 0.085026
Si Si4 0.243333 0.439318 0.771102
Si Si5 0.472801 0.391100 0.961889
O O1 0.000000 0.500000 0.500000
O O2 0.940318 0.636905 0.641996
O O3 0.156301 0.275534 0.334313
O O4 0.171708 0.409324 0.698732
O O5 0.120111 0.249623 0.782480
O O6 0.713595 0.654277 0.115042
O O7 0.601372 0.615631 0.124374
O O8 0.258310 0.479987 0.508611
O O9 0.500000 0.335900 0.750000
O O10 0.500000 0.333961 0.250000
O O11 0.500000 0.500000 0.000000
#
# Coordination Sequence:
#
# PCOD8148154 Si02
#       5
#     4   8   8   8   8
#     4  12  26  48  74 100 136 182 238 288 348 408
#     4  12  26  47  71 105 139 181 237 295 349 404
#     4  12  26  43  72 103 145 182 229 288 355 411
#     4  12  26  46  74 102 140 187 235 284 349 420
#     4  10  23  39  63  93 144 178 227 270 333 408
#
# _framework density 23.63916
#
# number of rings (size 3 to 8) (size 9 to 14) (size 15 to 20)
#    0.000    0.444    0.000    8.000   10.889    0.000 
#    0.000    0.000    0.000    0.000    0.000    0.000 
#    0.000    0.000    0.000    0.000    0.000    0.000 
#
# Total GULP energy -223181.473620 kJ/mol
# GULP energy per Si atom -12398.970757 kJ/mol
# Density = 2.358536 g / cm^3
# Si number density = 23.639160 Si / 1000 Ang^3
#
#
#
# Elastic Constant Matrix: (Units=GPa)
#
#
# Indices 1 2 3 4 5 6 
#
# 1 121.8994 43.2620 60.3061 0.0000 6.0823 0.0000
# 2 43.2620 91.7128 48.4054 0.0000 6.3794 0.0000
# 3 60.3061 48.4054 172.3408 0.0000 -15.6553 0.0000
# 4 0.0000 0.0000 0.0000 40.5257 0.0000 -5.3398
# 5 6.0823 6.3794 -15.6553 0.0000 50.2856 0.0000
# 6 0.0000 0.0000 0.0000 -5.3398 0.0000 46.5877
#
#
#
# Elastic Compliance Matrix: (Units=1/GPa)
#
#
# Indices 1 2 3 4 5 6 
#
# 1 0.011038 -0.003465 -0.003057 0.000000 -0.001847 0.000000
# 2 -0.003465 0.014290 -0.003013 0.000000 -0.002332 0.000000
# 3 -0.003057 -0.003013 0.008013 0.000000 0.003247 0.000000
# 4 0.000000 0.000000 0.000000 0.025054 0.000000 0.002872
# 5 -0.001847 -0.002332 0.003247 0.000000 0.021417 0.000000
# 6 0.000000 0.000000 0.000000 0.002872 0.000000 0.021794
#
#
# Mechanical properties :
#
#
# Convention : Reuss Voigt Hill
#
# Bulk Modulus (GPa) = 70.06832 76.65556 73.36194
# Shear Modulus (GPa) = 39.86184 43.07841 41.47013
#
# Velocity S-wave (km/s) = 4.11087 4.27351 4.19298
# Velocity P-wave (km/s) = 7.22755 7.53978 7.38531
#
# Compressibility (1/GPa) = 0.01427178
#
# Stress axis : x y z
#
# Youngs Moduli (GPa) = 90.59940 69.97661 124.79009
#
# Poissons Ratio (x) = 0.24244 0.38149
# Poissons Ratio (y) = 0.31389 0.37603
# Poissons Ratio (z) = 0.27696 0.21086
#
# Static dielectric constant tensor:
#      x y z
#    x 3.712390 0.000000 0.923010 
#    y 0.000000 6.657490 0.000000 
#    z 0.923010 0.000000 2.723670 
# 
# 
# High freq. dielectric constant tensor:
#      x y z
#    x 1.946500 0.000000 -0.006230 
#    y 0.000000 1.924380 0.000000 
#    z -0.006230 0.000000 1.966680 
# 
# From -- ./inp_files/15068.got.cif
#   From: 2010.06.25/outbox.cif.g09.slc.cpg/sg15_8_cif.got.tgz:15068.got - 2010.06.28 07:06:18.
