data_PCOD8148868
_publ_section_title
;
Structure prediction by ZEFSAII (Michael W. Deem and Ramdas Pophale) SiO2 
 PCOD8148868
Probable space group: C 2/C
;
_chemical_formula_sum "Si O2"
_cell_formula_units_Z 56
_cell_length_a 17.672137
_cell_length_b 6.528051
_cell_length_c 27.639920
_cell_angle_alpha 90.000000
_cell_angle_beta 122.620964
_cell_angle_gamma 90.000000
_cell_volume 2685.672769
_symmetry_space_group_name_H-M "C 2/C"
_symmetry_group_IT_number 15
_symmetry_cell_setting 'monoclinic'
loop_
_space_group_symop_operation_xyz
x,y,z
-x,y,1/2-z
-x,-y,-z
x,-y,1/2+z
1/2+x,1/2+y,z
1/2-x,1/2+y,1/2-z
1/2-x,1/2-y,-z
1/2+x,1/2-y,1/2+z
loop_
_atom_site_type_symbol
_atom_site_label
_atom_site_fract_x
_atom_site_fract_y
_atom_site_fract_z
Si Si1 0.396875 0.540842 0.220335
Si Si2 0.687466 0.839751 0.377256
Si Si3 0.518357 0.806156 0.972037
Si Si4 0.186035 0.361317 0.787982
Si Si5 0.641786 0.795927 0.201864
Si Si6 0.620430 0.587874 0.519885
Si Si7 0.543627 0.865673 0.407833
O O1 0.500000 0.611547 0.250000
O O2 0.337718 0.619125 0.154310
O O3 0.356120 0.626710 0.255799
O O4 0.390254 0.296867 0.221247
O O5 0.702989 0.992321 0.338627
O O6 0.777025 0.841718 0.440215
O O7 0.606536 0.904252 0.383790
O O8 0.431980 0.659773 0.949465
O O9 0.529033 0.903869 0.923029
O O10 0.606128 0.659978 0.011546
O O11 0.500000 0.000000 0.000000
O O12 0.277522 0.242288 0.807506
O O13 0.149990 0.479792 0.728493
O O14 0.551093 0.773874 0.140510
O O15 0.584022 0.702564 0.459593
#
# Coordination Sequence:
#
# PCOD8148868 Si02
#       7
#     8   8   8   8   8   8   8
#     4  11  24  45  67  95 134 168 212 268 331 385
#     4  11  26  42  66  97 131 166 218 273 322 389
#     4   9  22  40  64  93 125 167 213 263 309 385
#     4  11  26  40  68  95 129 171 216 267 326 392
#     4  11  24  44  64 100 128 168 218 267 320 395
#     4  10  23  43  65  94 130 174 217 264 329 378
#     4  11  24  41  67  94 134 167 216 269 323 389
#
# _framework density 20.851388
#
# number of rings (size 3 to 8) (size 9 to 14) (size 15 to 20)
#    0.000    1.429    2.857    0.429   10.000    4.000 
#    0.000    0.000    0.000    0.000    0.000    0.000 
#    0.000    0.000    0.000    0.000    0.000    0.000 
#
# Total GULP energy -347128.256373 kJ/mol
# GULP energy per Si atom -12397.437728 kJ/mol
# Density = 2.080393 g / cm^3
# Si number density = 20.851388 Si / 1000 Ang^3
#
#
#
# Elastic Constant Matrix: (Units=GPa)
#
#
# Indices 1 2 3 4 5 6 
#
# 1 100.0875 34.6324 41.8630 0.0000 -3.6420 0.0000
# 2 34.6324 96.7300 40.2632 0.0001 -3.3962 0.0000
# 3 41.8630 40.2632 118.8838 0.0000 12.7782 0.0000
# 4 0.0000 0.0001 0.0000 21.0944 0.0000 1.2743
# 5 -3.6420 -3.3962 12.7782 0.0000 41.7625 0.0000
# 6 0.0000 0.0000 0.0000 1.2743 0.0000 28.7981
#
#
#
# Elastic Compliance Matrix: (Units=1/GPa)
#
#
# Indices 1 2 3 4 5 6 
#
# 1 0.012606 -0.002919 -0.003664 0.000000 0.001983 0.000000
# 2 -0.002919 0.012928 -0.003553 0.000000 0.001884 0.000000
# 3 -0.003664 -0.003553 0.011343 0.000000 -0.004079 0.000000
# 4 0.000000 0.000000 0.000000 0.047533 0.000000 -0.002103
# 5 0.001983 0.001884 -0.004079 0.000000 0.025519 0.000000
# 6 0.000000 0.000000 0.000000 -0.002103 0.000000 0.034818
#
#
# Mechanical properties :
#
#
# Convention : Reuss Voigt Hill
#
# Bulk Modulus (GPa) = 60.21746 61.02428 60.62087
# Shear Modulus (GPa) = 29.31632 31.59383 30.45508
#
# Velocity S-wave (km/s) = 3.75369 3.89677 3.82590
# Velocity P-wave (km/s) = 6.90861 7.04104 6.97514
#
# Compressibility (1/GPa) = 0.01660648
#
# Stress axis : x y z
#
# Youngs Moduli (GPa) = 79.32945 77.35042 88.15641
#
# Poissons Ratio (x) = 0.22576 0.32296
# Poissons Ratio (y) = 0.23154 0.31324
# Poissons Ratio (z) = 0.29063 0.27484
#
# Static dielectric constant tensor:
#      x y z
#    x 3.902590 0.000000 -0.125110 
#    y 0.000000 3.913210 0.000000 
#    z -0.125110 0.000000 3.709620 
# 
# 
# High freq. dielectric constant tensor:
#      x y z
#    x 1.828820 0.000000 -0.006710 
#    y 0.000000 1.820340 0.000000 
#    z -0.006710 0.000000 1.806600 
# 
# From -- ./inp_files/315137.got.cif
#   From: 2010.06.25/outbox.cif.g09.slc.cpg/sg15_158_cif.got.tgz:315137.got - 2010.06.28 07:06:18.
