data_PCOD8148802
_publ_section_title
;
Structure prediction by ZEFSAII (Michael W. Deem and Ramdas Pophale) SiO2 
 PCOD8148802
Probable space group: C 2/C
;
_chemical_formula_sum "Si O2"
_cell_formula_units_Z 48
_cell_length_a 10.316785
_cell_length_b 14.549369
_cell_length_c 14.409547
_cell_angle_alpha 90.000000
_cell_angle_beta 110.722643
_cell_angle_gamma 90.000000
_cell_volume 2022.980897
_symmetry_space_group_name_H-M "C 2/C"
_symmetry_group_IT_number 15
_symmetry_cell_setting 'monoclinic'
loop_
_space_group_symop_operation_xyz
x,y,z
-x,y,1/2-z
-x,-y,-z
x,-y,1/2+z
1/2+x,1/2+y,z
1/2-x,1/2+y,1/2-z
1/2-x,1/2-y,-z
1/2+x,1/2-y,1/2+z
loop_
_atom_site_type_symbol
_atom_site_label
_atom_site_fract_x
_atom_site_fract_y
_atom_site_fract_z
Si Si1 0.275984 0.533641 0.777747
Si Si2 0.770266 0.891068 0.473267
Si Si3 0.257714 0.176730 0.888911
Si Si4 0.142215 0.657318 0.244795
Si Si5 0.443511 0.225813 0.472394
Si Si6 0.063951 0.039553 0.920527
O O1 0.219781 0.561567 0.864953
O O2 0.215123 0.600754 0.683720
O O3 0.239258 0.428568 0.748535
O O4 0.443466 0.539287 0.813585
O O5 0.641941 0.831762 0.473675
O O6 0.911891 0.832752 0.486783
O O7 0.810954 0.965634 0.563537
O O8 0.210939 0.272807 0.834326
O O9 0.140135 0.139733 0.932481
O O10 0.397314 0.195865 0.981275
O O11 0.117083 0.711799 0.144345
O O12 0.000000 0.618365 0.250000
O O13 0.000000 0.000000 0.000000
#
# Coordination Sequence:
#
# PCOD8148802 Si02
#       6
#     8   8   8   8   8   8
#     4  11  24  45  72 107 149 193 243 304 369 441
#     4  10  23  48  70 107 146 194 248 302 367 449
#     4  12  26  47  76 106 151 194 245 311 369 443
#     4  12  28  45  72 112 144 192 252 305 370 440
#     4  11  26  46  74 105 149 193 249 303 375 439
#     4  10  23  42  72  99 142 192 242 295 366 428
#
# _framework density 23.727360999999998
#
# number of rings (size 3 to 8) (size 9 to 14) (size 15 to 20)
#    0.000    1.000    1.667    3.500    9.333    2.000 
#    0.000    1.667    0.000    0.000    0.000    0.000 
#    0.000    0.000    0.000    0.000    0.000    0.000 
#
# Total GULP energy -297531.063011 kJ/mol
# GULP energy per Si atom -12397.127625 kJ/mol
# Density = 2.367336 g / cm^3
# Si number density = 23.727361 Si / 1000 Ang^3
#
#
#
# Elastic Constant Matrix: (Units=GPa)
#
#
# Indices 1 2 3 4 5 6 
#
# 1 89.9817 10.1492 25.4747 0.0000 11.4548 0.0000
# 2 10.1492 114.4563 27.9007 0.0000 18.7501 0.0000
# 3 25.4747 27.9007 76.1732 0.0000 12.7348 0.0000
# 4 0.0000 0.0000 0.0000 27.7589 0.0000 -4.1399
# 5 11.4548 18.7501 12.7348 0.0000 41.5914 0.0000
# 6 0.0000 0.0000 0.0000 -4.1399 0.0000 35.2846
#
#
#
# Elastic Compliance Matrix: (Units=1/GPa)
#
#
# Indices 1 2 3 4 5 6 
#
# 1 0.012481 0.000220 -0.003861 0.000000 -0.002355 0.000000
# 2 0.000220 0.010084 -0.003159 0.000000 -0.003639 0.000000
# 3 -0.003861 -0.003159 0.015978 0.000000 -0.002405 0.000000
# 4 0.000000 0.000000 0.000000 0.036666 0.000000 0.004302
# 5 -0.002355 -0.003639 -0.002405 0.000000 0.027069 0.000000
# 6 0.000000 0.000000 0.000000 0.004302 0.000000 0.028846
#
#
# Mechanical properties :
#
#
# Convention : Reuss Voigt Hill
#
# Bulk Modulus (GPa) = 40.08973 45.29563 42.69268
# Shear Modulus (GPa) = 32.67162 35.39942 34.03552
#
# Velocity S-wave (km/s) = 3.71477 3.86673 3.79151
# Velocity P-wave (km/s) = 5.94407 6.25036 6.09914
#
# Compressibility (1/GPa) = 0.02494404
#
# Stress axis : x y z
#
# Youngs Moduli (GPa) = 80.11911 99.17095 62.58495
#
# Poissons Ratio (x) = -0.02184 0.24165
# Poissons Ratio (y) = -0.01764 0.19768
# Poissons Ratio (z) = 0.30936 0.31324
#
# Static dielectric constant tensor:
#      x y z
#    x 4.433010 0.000000 0.047890 
#    y 0.000000 4.762450 0.000000 
#    z 0.047890 0.000000 4.239680 
# 
# 
# High freq. dielectric constant tensor:
#      x y z
#    x 1.944170 0.000000 -0.007430 
#    y 0.000000 1.963760 0.000000 
#    z -0.007430 0.000000 1.941950 
# 
# From -- ./inp_files/144376.got.cif
#   From: 2010.06.25/outbox.cif.g09.slc.cpg/sg15_73_cif.got.tgz:144376.got - 2010.06.28 07:06:18.
