data_PCOD8148775
_publ_section_title
;
Structure prediction by ZEFSAII (Michael W. Deem and Ramdas Pophale) SiO2 
 PCOD8148775
Probable space group: C 2/C
;
_chemical_formula_sum "Si O2"
_cell_formula_units_Z 56
_cell_length_a 29.037890
_cell_length_b 11.790038
_cell_length_c 8.489603
_cell_angle_alpha 90.000000
_cell_angle_beta 61.579539
_cell_angle_gamma 90.000000
_cell_volume 2556.188939
_symmetry_space_group_name_H-M "C 2/C"
_symmetry_group_IT_number 15
_symmetry_cell_setting 'monoclinic'
loop_
_space_group_symop_operation_xyz
x,y,z
-x,y,1/2-z
-x,-y,-z
x,-y,1/2+z
1/2+x,1/2+y,z
1/2-x,1/2+y,1/2-z
1/2-x,1/2-y,-z
1/2+x,1/2-y,1/2+z
loop_
_atom_site_type_symbol
_atom_site_label
_atom_site_fract_x
_atom_site_fract_y
_atom_site_fract_z
Si Si1 0.210516 0.061631 0.447672
Si Si2 0.386168 0.302058 0.274083
Si Si3 0.985037 0.879783 0.953725
Si Si4 0.645043 0.128149 0.793652
Si Si5 0.954978 0.288981 0.928578
Si Si6 0.295532 0.335669 0.884213
Si Si7 0.320468 0.091854 0.419976
O O1 0.161460 0.114832 0.616053
O O2 0.214612 0.093131 0.258130
O O3 0.262718 0.108829 0.446073
O O4 0.202294 0.925995 0.477191
O O5 0.421508 0.296072 0.373562
O O6 0.361623 0.178650 0.271466
O O7 0.422944 0.351726 0.075480
O O8 0.000000 0.881819 0.750000
O O9 0.018987 0.781404 0.975763
O O10 0.000000 0.000000 0.000000
O O11 0.653006 0.256513 0.714771
O O12 0.660016 0.036127 0.639670
O O13 0.583623 0.115525 0.937246
O O14 0.681454 0.111844 0.888963
O O15 0.000000 0.349578 0.750000
O O16 0.250000 0.250000 0.000000
#
# Coordination Sequence:
#
# PCOD8148775 Si02
#       7
#     8   8   8   8   8   8   8
#     4  12  25  45  68 101 141 186 228 287 341 414
#     4  10  23  42  70  98 132 183 229 274 354 405
#     4  11  24  43  65  98 133 173 229 294 349 405
#     4  11  24  45  66 102 139 184 231 283 348 410
#     4   9  20  44  67  91 133 173 225 290 332 409
#     4  12  27  44  66 101 140 183 237 279 347 412
#     4  11  23  44  69  97 144 182 227 284 339 414
#
# _framework density 21.907615
#
# number of rings (size 3 to 8) (size 9 to 14) (size 15 to 20)
#    0.000    1.143    4.286    2.571    2.000    2.286 
#    0.000    7.143    0.000    0.000    0.000    0.000 
#    0.000    0.000    0.000    0.000    0.000    0.000 
#
# Total GULP energy -347183.163672 kJ/mol
# GULP energy per Si atom -12399.398703 kJ/mol
# Density = 2.185775 g / cm^3
# Si number density = 21.907615 Si / 1000 Ang^3
#
#
#
# Elastic Constant Matrix: (Units=GPa)
#
#
# Indices 1 2 3 4 5 6 
#
# 1 89.5840 31.2045 47.6739 0.0000 -26.5550 0.0000
# 2 31.2045 130.5103 57.0231 0.0000 -5.5628 0.0000
# 3 47.6739 57.0231 143.1787 0.0000 -16.4964 0.0000
# 4 0.0000 0.0000 0.0000 49.1856 0.0000 -5.6931
# 5 -26.5550 -5.5628 -16.4964 0.0000 30.9010 0.0000
# 6 0.0000 0.0000 0.0000 -5.6931 0.0000 24.2736
#
#
#
# Elastic Compliance Matrix: (Units=1/GPa)
#
#
# Indices 1 2 3 4 5 6 
#
# 1 0.017588 -0.002113 -0.003534 0.000000 0.012847 0.000000
# 2 -0.002113 0.009533 -0.003308 0.000000 -0.001866 0.000000
# 3 -0.003534 -0.003308 0.009654 0.000000 0.001521 0.000000
# 4 0.000000 0.000000 0.000000 0.020898 0.000000 0.004902
# 5 0.012847 -0.001866 0.001521 0.000000 0.043878 0.000000
# 6 0.000000 0.000000 0.000000 0.004902 0.000000 0.042347
#
#
# Mechanical properties :
#
#
# Convention : Reuss Voigt Hill
#
# Bulk Modulus (GPa) = 53.01254 70.56401 61.78828
# Shear Modulus (GPa) = 29.74468 36.03015 32.88741
#
# Velocity S-wave (km/s) = 3.68874 4.05982 3.87872
# Velocity P-wave (km/s) = 6.51100 7.36586 6.95158
#
# Compressibility (1/GPa) = 0.01886346
#
# Stress axis : x y z
#
# Youngs Moduli (GPa) = 56.85722 104.89444 103.58564
#
# Poissons Ratio (x) = 0.22168 0.36611
# Poissons Ratio (y) = 0.12016 0.34267
# Poissons Ratio (z) = 0.20095 0.34700
#
# Static dielectric constant tensor:
#      x y z
#    x 4.180860 0.000000 -0.349530 
#    y 0.000000 4.165380 0.000000 
#    z -0.349530 0.000000 4.390340 
# 
# 
# High freq. dielectric constant tensor:
#      x y z
#    x 1.855960 0.000000 -0.018630 
#    y 0.000000 1.857010 0.000000 
#    z -0.018630 0.000000 1.875490 
# 
# From -- ./inp_files/69279.got.cif
#   From: 2010.06.25/outbox.cif.g09.slc.cpg/sg15_35_cif.got.tgz:69279.got - 2010.06.28 07:06:18.
