data_PCOD8148519
_publ_section_title
;
Structure prediction by ZEFSAII (Michael W. Deem and Ramdas Pophale) SiO2 
 PCOD8148519
Probable space group: C 2/C
;
_chemical_formula_sum "Si O2"
_cell_formula_units_Z 56
_cell_length_a 13.380495
_cell_length_b 19.163971
_cell_length_c 18.613259
_cell_angle_alpha 90.000000
_cell_angle_beta 30.735752
_cell_angle_gamma 90.000000
_cell_volume 2439.318143
_symmetry_space_group_name_H-M "C 2/C"
_symmetry_group_IT_number 15
_symmetry_cell_setting 'monoclinic'
loop_
_space_group_symop_operation_xyz
x,y,z
-x,y,1/2-z
-x,-y,-z
x,-y,1/2+z
1/2+x,1/2+y,z
1/2-x,1/2+y,1/2-z
1/2-x,1/2-y,-z
1/2+x,1/2-y,1/2+z
loop_
_atom_site_type_symbol
_atom_site_label
_atom_site_fract_x
_atom_site_fract_y
_atom_site_fract_z
Si Si1 0.628491 0.773004 0.353441
Si Si2 0.182670 0.546898 0.590449
Si Si3 0.817888 0.171580 0.605351
Si Si4 0.568324 0.103421 0.992976
Si Si5 0.413184 0.157159 0.226893
Si Si6 0.733652 0.460228 0.616510
Si Si7 0.903936 0.936480 0.519212
O O1 0.638646 0.796393 0.262566
O O2 0.427325 0.733431 0.495700
O O3 0.654262 0.839266 0.387442
O O4 0.812495 0.723831 0.253879
O O5 0.258796 0.616964 0.580979
O O6 0.147148 0.563610 0.529072
O O7 0.323614 0.477598 0.498713
O O8 0.000000 0.521089 0.750000
O O9 0.951353 0.129367 0.581952
O O10 0.576689 0.131701 0.069524
O O11 0.340125 0.085531 0.112774
O O12 0.719535 0.039764 0.892584
O O13 0.500000 0.179327 0.250000
O O14 0.269887 0.091854 0.323999
O O15 0.500000 0.445755 0.750000
O O16 0.000000 0.000000 0.500000
#
# Coordination Sequence:
#
# PCOD8148519 Si02
#       7
#     8   8   8   8   8   8   8
#     4  11  23  44  68  97 139 186 225 280 357 413
#     4  11  22  43  66  99 133 173 238 281 347 414
#     4  10  23  41  69  95 134 182 226 280 338 415
#     4  11  25  47  69  99 151 176 231 306 358 410
#     4  11  23  42  67  97 135 181 232 287 355 428
#     4  11  27  42  72 107 137 184 234 297 359 420
#     4   9  20  35  66  92 127 172 223 277 341 403
#
# _framework density 22.957234
#
# number of rings (size 3 to 8) (size 9 to 14) (size 15 to 20)
#    0.000    1.429    1.429    3.000    8.000    3.429 
#    0.000    3.571    0.000    0.000    0.000    0.000 
#    0.000    0.000    0.000    0.000    0.000    0.000 
#
# Total GULP energy -346914.317388 kJ/mol
# GULP energy per Si atom -12389.797050 kJ/mol
# Density = 2.290498 g / cm^3
# Si number density = 22.957234 Si / 1000 Ang^3
#
#
#
# Elastic Constant Matrix: (Units=GPa)
#
#
# Indices 1 2 3 4 5 6 
#
# 1 72.9156 19.1385 14.3296 0.0403 13.6879 -0.0231
# 2 19.1385 113.1315 24.6709 0.1273 17.2552 -0.0329
# 3 14.3296 24.6709 72.3293 0.2992 10.5498 -0.0309
# 4 0.0403 0.1273 0.2992 28.7403 -0.0828 2.5776
# 5 13.6879 17.2552 10.5498 -0.0828 36.7000 -0.0144
# 6 -0.0231 -0.0329 -0.0309 2.5776 -0.0144 24.2891
#
#
#
# Elastic Compliance Matrix: (Units=1/GPa)
#
#
# Indices 1 2 3 4 5 6 
#
# 1 0.015315 -0.001501 -0.001870 -0.000009 -0.004468 0.000008
# 2 -0.001501 0.010206 -0.002678 -0.000026 -0.003469 0.000010
# 3 -0.001870 -0.002678 0.015474 -0.000156 -0.002492 0.000029
# 4 -0.000009 -0.000026 -0.000156 0.035131 0.000138 -0.003728
# 5 -0.004468 -0.003469 -0.002492 0.000138 0.031262 -0.000008
# 6 0.000008 0.000010 0.000029 -0.003728 -0.000008 0.041566
#
#
# Mechanical properties :
#
#
# Convention : Reuss Voigt Hill
#
# Bulk Modulus (GPa) = 34.60663 41.62825 38.11744
# Shear Modulus (GPa) = 29.29367 31.29504 30.29436
#
# Velocity S-wave (km/s) = 3.57600 3.69614 3.63657
# Velocity P-wave (km/s) = 5.67076 6.03222 5.85428
#
# Compressibility (1/GPa) = 0.02889620
#
# Stress axis : x y z
#
# Youngs Moduli (GPa) = 65.29569 97.97821 64.62606
#
# Poissons Ratio (x) = 0.14711 0.12086
# Poissons Ratio (y) = 0.09804 0.17305
# Poissons Ratio (z) = 0.12212 0.26236
#
# Static dielectric constant tensor:
#      x y z
#    x 4.667730 0.011970 -0.166170 
#    y 0.011970 12.060780 -0.015520 
#    z -0.166170 -0.015520 4.092120 
# 
# 
# High freq. dielectric constant tensor:
#      x y z
#    x 1.898200 0.000000 0.006580 
#    y 0.000000 1.924780 0.000010 
#    z 0.006580 0.000010 1.894910 
# 
# From -- ./inp_files/245132.got.cif
#   From: 2010.06.25/outbox.cif.g09.slc.cpg/sg15_123_cif.got.tgz:245132.got - 2010.06.28 07:06:18.
