data_PCOD8148333
_publ_section_title
;
Structure prediction by ZEFSAII (Michael W. Deem and Ramdas Pophale) SiO2 
 PCOD8148333
Probable space group: C 2/C
;
_chemical_formula_sum "Si O2"
_cell_formula_units_Z 40
_cell_length_a 17.773525
_cell_length_b 11.880958
_cell_length_c 8.787444
_cell_angle_alpha 90.000000
_cell_angle_beta 102.253183
_cell_angle_gamma 90.000000
_cell_volume 1813.341680
_symmetry_space_group_name_H-M "C 2/C"
_symmetry_group_IT_number 15
_symmetry_cell_setting 'monoclinic'
loop_
_space_group_symop_operation_xyz
x,y,z
-x,y,1/2-z
-x,-y,-z
x,-y,1/2+z
1/2+x,1/2+y,z
1/2-x,1/2+y,1/2-z
1/2-x,1/2-y,-z
1/2+x,1/2-y,1/2+z
loop_
_atom_site_type_symbol
_atom_site_label
_atom_site_fract_x
_atom_site_fract_y
_atom_site_fract_z
Si Si1 0.573767 0.051782 0.390338
Si Si2 0.430833 0.589539 0.974744
Si Si3 0.261119 0.873266 0.571323
Si Si4 0.826760 0.975943 0.697132
Si Si5 0.981964 0.678614 0.576639
O O1 0.500000 0.069180 0.250000
O O2 0.650651 0.100266 0.347166
O O3 0.558399 0.121020 0.538926
O O4 0.583138 0.919273 0.436476
O O5 0.388015 0.587842 0.118414
O O6 0.459005 0.716868 0.960414
O O7 0.500000 0.500000 0.000000
O O8 0.371822 0.569127 0.813296
O O9 0.250000 0.750000 0.500000
O O10 0.211691 0.886065 0.704521
O O11 0.236621 0.962392 0.432229
O O12 0.000000 0.728645 0.750000
#
# Coordination Sequence:
#
# PCOD8148333 Si02
#       5
#     8   8   8   8   8
#     4  10  25  43  67  97 127 178 232 276 340 414
#     4  11  23  42  71 100 140 180 236 280 340 417
#     4  11  27  45  71  97 148 180 232 291 360 421
#     4  10  26  44  63 107 133 185 227 283 352 411
#     4  10  23  40  69  95 129 170 231 280 334 392
#
# _framework density 22.058723000000001
#
# number of rings (size 3 to 8) (size 9 to 14) (size 15 to 20)
#    0.000    1.600    0.000    1.800   19.600    0.000 
#    0.000    4.000    0.000    0.000    0.000    0.000 
#    0.000    0.000    0.000    0.000    0.000    0.000 
#
# Total GULP energy -248002.292600 kJ/mol
# GULP energy per Si atom -12400.114630 kJ/mol
# Density = 2.200852 g / cm^3
# Si number density = 22.058723 Si / 1000 Ang^3
#
#
#
# Elastic Constant Matrix: (Units=GPa)
#
#
# Indices 1 2 3 4 5 6 
#
# 1 129.6172 51.1432 37.4530 0.0000 4.1811 0.0000
# 2 51.1432 142.2044 20.1748 0.0000 2.9166 0.0000
# 3 37.4530 20.1748 95.0240 0.0000 -6.8951 0.0000
# 4 0.0000 0.0000 0.0000 27.1622 0.0000 -0.2289
# 5 4.1811 2.9166 -6.8951 0.0000 32.4471 0.0000
# 6 0.0000 0.0000 0.0000 -0.2289 0.0000 18.7126
#
#
#
# Elastic Compliance Matrix: (Units=1/GPa)
#
#
# Indices 1 2 3 4 5 6 
#
# 1 0.009963 -0.003065 -0.003402 0.000000 -0.001731 0.000000
# 2 -0.003065 0.008225 -0.000572 0.000000 -0.000466 0.000000
# 3 -0.003402 -0.000572 0.012210 0.000000 0.003084 0.000000
# 4 0.000000 0.000000 0.000000 0.036820 0.000000 0.000450
# 5 -0.001731 -0.000466 0.003084 0.000000 0.031740 0.000000
# 6 0.000000 0.000000 0.000000 0.000450 0.000000 0.053446
#
#
# Mechanical properties :
#
#
# Convention : Reuss Voigt Hill
#
# Bulk Modulus (GPa) = 61.27351 64.93196 63.10274
# Shear Modulus (GPa) = 29.08311 32.86934 30.97623
#
# Velocity S-wave (km/s) = 3.63497 3.86435 3.75141
# Velocity P-wave (km/s) = 6.74204 7.02928 6.88716
#
# Compressibility (1/GPa) = 0.01632027
#
# Stress axis : x y z
#
# Youngs Moduli (GPa) = 100.36910 121.57764 81.90205
#
# Poissons Ratio (x) = 0.37265 0.27861
# Poissons Ratio (y) = 0.30764 0.04685
# Poissons Ratio (z) = 0.34143 0.06955
#
# Static dielectric constant tensor:
#      x y z
#    x 4.027370 0.000000 -0.181630 
#    y 0.000000 3.881860 0.000000 
#    z -0.181630 0.000000 4.102400 
# 
# 
# High freq. dielectric constant tensor:
#      x y z
#    x 1.861000 0.000000 -0.010410 
#    y 0.000000 1.869280 0.000000 
#    z -0.010410 0.000000 1.879610 
# 
# From -- ./inp_files/46243.got.cif
#   From: 2010.06.25/outbox.cif.g09.slc.cpg/sg15_24_cif.got.tgz:46243.got - 2010.06.28 07:06:18.
