data_PCOD8148400
_publ_section_title
;
Structure prediction by ZEFSAII (Michael W. Deem and Ramdas Pophale) SiO2 
 PCOD8148400
Probable space group: C 2/C
;
_chemical_formula_sum "Si O2"
_cell_formula_units_Z 64
_cell_length_a 14.669747
_cell_length_b 15.962413
_cell_length_c 18.633868
_cell_angle_alpha 90.000000
_cell_angle_beta 135.228814
_cell_angle_gamma 90.000000
_cell_volume 3073.037494
_symmetry_space_group_name_H-M "C 2/C"
_symmetry_group_IT_number 15
_symmetry_cell_setting 'monoclinic'
loop_
_space_group_symop_operation_xyz
x,y,z
-x,y,1/2-z
-x,-y,-z
x,-y,1/2+z
1/2+x,1/2+y,z
1/2-x,1/2+y,1/2-z
1/2-x,1/2-y,-z
1/2+x,1/2-y,1/2+z
loop_
_atom_site_type_symbol
_atom_site_label
_atom_site_fract_x
_atom_site_fract_y
_atom_site_fract_z
Si Si1 0.648287 0.750249 0.153916
Si Si2 0.107470 0.926853 0.692775
Si Si3 0.145865 0.037318 0.959237
Si Si4 0.694010 0.970456 0.812364
Si Si5 0.454582 0.075969 0.878364
Si Si6 0.623947 0.273801 0.474076
Si Si7 0.705191 0.012623 0.087828
Si Si8 0.581455 0.789016 0.730001
O O1 0.596275 0.670905 0.168712
O O2 0.575311 0.826872 0.149922
O O3 0.803161 0.765135 0.240513
O O4 0.623335 0.739610 0.056893
O O5 0.187760 0.974412 0.676556
O O6 0.185007 0.931668 0.811517
O O7 0.966785 0.969183 0.615519
O O8 0.086568 0.128637 0.941952
O O9 0.224098 0.047664 0.929050
O O10 0.246347 0.004934 0.077135
O O11 0.634886 0.877710 0.786584
O O12 0.579539 0.029726 0.716608
O O13 0.367085 0.043009 0.894317
O O14 0.604277 0.068202 0.985133
O O15 0.750000 0.250000 0.500000
O O16 0.517854 0.205927 0.390604
O O17 0.500000 0.745742 0.750000
#
# Coordination Sequence:
#
# PCOD8148400 Si02
#       8
#     8   8   8   8   8   8   8   8
#     4  11  24  41  62  93 128 174 211 266 327 384
#     4  10  23  44  62  94 128 174 215 268 322 384
#     4  12  23  42  70  95 129 171 222 268 325 392
#     4  10  23  41  63  92 131 171 212 260 324 389
#     4  10  24  41  65  92 128 172 217 260 335 396
#     4  12  24  37  63 101 135 160 208 263 340 397
#     4  10  24  42  66  94 128 169 218 276 324 386
#     4  11  23  37  60  94 135 161 198 269 324 391
#
# _framework density 20.8263
#
# number of rings (size 3 to 8) (size 9 to 14) (size 15 to 20)
#    0.000    1.250    3.750    1.500   14.000    0.000 
#    0.000    0.625    2.750    0.000    0.000    0.000 
#    0.000    0.000    0.000    0.000    0.000    0.000 
#
# Total GULP energy -396566.000653 kJ/mol
# GULP energy per Si atom -12392.687520 kJ/mol
# Density = 2.077890 g / cm^3
# Si number density = 20.826300 Si / 1000 Ang^3
#
#
#
# Elastic Constant Matrix: (Units=GPa)
#
#
# Indices 1 2 3 4 5 6 
#
# 1 35.8887 -10.6837 25.6099 0.0000 0.0769 0.0000
# 2 -10.6837 59.5145 35.3591 0.0000 7.0757 0.0000
# 3 25.6099 35.3591 170.0450 0.0000 9.7220 0.0000
# 4 0.0000 0.0000 0.0000 11.2424 0.0000 -22.4091
# 5 0.0769 7.0757 9.7220 0.0000 35.9089 0.0000
# 6 0.0000 0.0000 0.0000 -22.4091 0.0000 -8.5723
#
#
#
# Elastic Compliance Matrix: (Units=1/GPa)
#
#
# Indices 1 2 3 4 5 6 
#
# 1 0.036877 0.011335 -0.007901 0.000000 -0.000173 0.000000
# 2 0.011335 0.022924 -0.006312 0.000000 -0.002832 0.000000
# 3 -0.007901 -0.006312 0.008442 0.000000 -0.001025 0.000000
# 4 0.000000 0.000000 0.000000 0.014322 0.000000 -0.037440
# 5 -0.000173 -0.002832 -0.001025 0.000000 0.028684 0.000000
# 6 0.000000 0.000000 0.000000 -0.037440 0.000000 -0.018783
#
#
# Mechanical properties :
#
#
# Convention : Reuss Voigt Hill
#
# Bulk Modulus (GPa) = 16.00356 40.66876 28.33616
# Shear Modulus (GPa) = 41.99883 22.05999 32.02941
#
# Velocity S-wave (km/s) = 4.49556 3.25812 3.92590
# Velocity P-wave (km/s) = 5.88623 5.80722 5.84686
#
# Compressibility (1/GPa) = 0.06248610
#
# Stress axis : x y z
#
# Youngs Moduli (GPa) = 27.11751 43.62201 118.45779
#
# Poissons Ratio (x) = -0.49444 0.93592
# Poissons Ratio (y) = -0.30737 0.74770
# Poissons Ratio (z) = 0.21425 0.27534
#
# Static dielectric constant tensor:
#      x y z
#    x 3.656560 0.000000 0.053250 
#    y 0.000000 3.682970 0.000000 
#    z 0.053250 0.000000 4.273640 
# 
# 
# High freq. dielectric constant tensor:
#      x y z
#    x 1.805420 0.000000 0.001140 
#    y 0.000000 1.790700 0.000000 
#    z 0.001140 0.000000 1.839030 
# 
# From -- ./inp_files/206488.got.cif
#   From: 2010.06.25/outbox.cif.g09.slc.cpg/sg15_104_cif.got.tgz:206488.got - 2010.06.28 07:06:18.
