data_PCOD8148357
_publ_section_title
;
Structure prediction by ZEFSAII (Michael W. Deem and Ramdas Pophale) SiO2 
 PCOD8148357
Probable space group: C 2/C
;
_chemical_formula_sum "Si O2"
_cell_formula_units_Z 48
_cell_length_a 14.757634
_cell_length_b 27.375018
_cell_length_c 9.583566
_cell_angle_alpha 90.000000
_cell_angle_beta 38.009590
_cell_angle_gamma 90.000000
_cell_volume 2384.148429
_symmetry_space_group_name_H-M "C 2/C"
_symmetry_group_IT_number 15
_symmetry_cell_setting 'monoclinic'
loop_
_space_group_symop_operation_xyz
x,y,z
-x,y,1/2-z
-x,-y,-z
x,-y,1/2+z
1/2+x,1/2+y,z
1/2-x,1/2+y,1/2-z
1/2-x,1/2-y,-z
1/2+x,1/2-y,1/2+z
loop_
_atom_site_type_symbol
_atom_site_label
_atom_site_fract_x
_atom_site_fract_y
_atom_site_fract_z
Si Si1 0.423322 0.092595 0.485869
Si Si2 0.903103 0.723111 0.156633
Si Si3 0.635451 0.443247 0.764486
Si Si4 0.196447 0.695408 0.922655
Si Si5 0.320630 0.470501 0.091791
Si Si6 0.118416 0.631581 0.485294
O O1 0.312695 0.138744 0.605977
O O2 0.329269 0.048528 0.659487
O O3 0.557989 0.104175 0.423462
O O4 0.500000 0.076746 0.250000
O O5 0.823125 0.699573 0.387891
O O6 0.849555 0.778703 0.193680
O O7 0.863435 0.689066 0.071874
O O8 0.075450 0.725321 0.980496
O O9 0.693634 0.473135 0.558455
O O10 0.659493 0.474795 0.874994
O O11 0.723463 0.391944 0.666372
O O12 0.459313 0.435364 0.963467
O O13 0.000000 0.624523 0.750000
#
# Coordination Sequence:
#
# PCOD8148357 Si02
#       6
#     8   8   8   8   8   8
#     4  11  21  38  59  88 119 154 194 239 288 342
#     4   9  18  33  55  80 112 146 189 235 280 333
#     4  10  23  41  60  85 117 154 193 238 291 345
#     4   9  17  34  55  80 110 149 189 233 279 334
#     4  10  23  41  60  84 119 153 192 240 288 349
#     4  11  21  38  59  87 119 151 193 239 291 342
#
# _framework density 20.132977
#
# number of rings (size 3 to 8) (size 9 to 14) (size 15 to 20)
#    0.000    2.000    5.000    0.000    2.333    2.667 
#    0.000    3.333    3.667    0.000    0.000    0.000 
#    0.000    0.000    0.000    0.000    0.000    0.000 
#
# Total GULP energy -297501.053977 kJ/mol
# GULP energy per Si atom -12395.877249 kJ/mol
# Density = 2.008715 g / cm^3
# Si number density = 20.132977 Si / 1000 Ang^3
#
#
#
# Elastic Constant Matrix: (Units=GPa)
#
#
# Indices 1 2 3 4 5 6 
#
# 1 46.7895 6.2409 13.0888 0.0000 15.3876 0.0000
# 2 6.2409 28.3000 7.1301 0.0000 -2.8346 0.0000
# 3 13.0888 7.1301 75.3636 0.0000 6.9551 0.0000
# 4 0.0000 0.0000 0.0000 31.1326 0.0000 -6.0209
# 5 15.3876 -2.8346 6.9551 0.0000 30.9003 0.0000
# 6 0.0000 0.0000 0.0000 -6.0209 0.0000 27.4528
#
#
#
# Elastic Compliance Matrix: (Units=1/GPa)
#
#
# Indices 1 2 3 4 5 6 
#
# 1 0.027585 -0.006728 -0.002890 0.000000 -0.013703 0.000000
# 2 -0.006728 0.038375 -0.003162 0.000000 0.007582 0.000000
# 3 -0.002890 -0.003162 0.014260 0.000000 -0.002061 0.000000
# 4 0.000000 0.000000 0.000000 0.033543 0.000000 0.007357
# 5 -0.013703 0.007582 -0.002061 0.000000 0.040345 0.000000
# 6 0.000000 0.000000 0.000000 0.007357 0.000000 0.038040
#
#
# Mechanical properties :
#
#
# Convention : Reuss Voigt Hill
#
# Bulk Modulus (GPa) = 18.29438 22.59698 20.44568
# Shear Modulus (GPa) = 21.19294 26.16334 23.67814
#
# Velocity S-wave (km/s) = 3.24797 3.60881 3.43313
# Velocity P-wave (km/s) = 4.81376 5.34910 5.08847
#
# Compressibility (1/GPa) = 0.05466160
#
# Stress axis : x y z
#
# Youngs Moduli (GPa) = 36.25221 26.05839 70.12521
#
# Poissons Ratio (x) = 0.17531 0.20264
# Poissons Ratio (y) = 0.24389 0.22173
# Poissons Ratio (z) = 0.10476 0.08240
#
# Static dielectric constant tensor:
#      x y z
#    x 3.824640 0.000000 0.017520 
#    y 0.000000 3.468720 0.000000 
#    z 0.017520 0.000000 3.628660 
# 
# 
# High freq. dielectric constant tensor:
#      x y z
#    x 1.789220 0.000000 0.003960 
#    y 0.000000 1.760570 0.000000 
#    z 0.003960 0.000000 1.778060 
# 
# From -- ./inp_files/43931.got.cif
#   From: 2010.06.25/outbox.cif.g09.slc.cpg/sg15_22_cif.got.tgz:43931.got - 2010.06.28 07:06:18.
