data_PCOD8148793
_publ_section_title
;
Structure prediction by ZEFSAII (Michael W. Deem and Ramdas Pophale) SiO2 
 PCOD8148793
Probable space group: C 2/C
;
_chemical_formula_sum "Si O2"
_cell_formula_units_Z 40
_cell_length_a 14.977063
_cell_length_b 8.499825
_cell_length_c 29.793855
_cell_angle_alpha 90.000000
_cell_angle_beta 152.322921
_cell_angle_gamma 90.000000
_cell_volume 1761.723150
_symmetry_space_group_name_H-M "C 2/C"
_symmetry_group_IT_number 15
_symmetry_cell_setting 'monoclinic'
loop_
_space_group_symop_operation_xyz
x,y,z
-x,y,1/2-z
-x,-y,-z
x,-y,1/2+z
1/2+x,1/2+y,z
1/2-x,1/2+y,1/2-z
1/2-x,1/2-y,-z
1/2+x,1/2-y,1/2+z
loop_
_atom_site_type_symbol
_atom_site_label
_atom_site_fract_x
_atom_site_fract_y
_atom_site_fract_z
Si Si1 0.654463 0.549307 0.699528
Si Si2 0.234672 0.098434 0.463029
Si Si3 0.041572 0.375356 0.616567
Si Si4 0.226878 0.548021 0.347156
Si Si5 0.930674 0.246570 0.969998
O O1 0.486994 0.437303 0.643383
O O2 0.823255 0.523672 0.810499
O O3 0.586830 0.730959 0.670181
O O4 0.720315 0.496759 0.679804
O O5 0.250000 0.250000 0.500000
O O6 0.345773 0.124696 0.465963
O O7 0.326826 0.943830 0.528148
O O8 0.071483 0.325746 0.579083
O O9 0.352708 0.698040 0.419011
O O10 0.287295 0.403847 0.406615
O O11 0.000000 0.585123 0.250000
#
# Coordination Sequence:
#
# PCOD8148793 Si02
#       5
#     8   8   8   8   8
#     4  11  25  43  70 106 137 189 235 289 360 414
#     4  12  24  44  73 101 146 181 233 296 346 423
#     4  11  26  46  69 105 144 182 240 288 352 425
#     4  10  23  42  72 100 146 185 237 288 358 420
#     4  10  24  45  69 107 137 192 234 292 353 417
#
# _framework density 22.705044000000001
#
# number of rings (size 3 to 8) (size 9 to 14) (size 15 to 20)
#    0.000    1.200    2.000    2.400    8.400    1.600 
#    0.000    0.000    0.000    0.000    0.000    0.000 
#    0.000    0.000    0.000    0.000    0.000    0.000 
#
# Total GULP energy -248040.951822 kJ/mol
# GULP energy per Si atom -12402.047591 kJ/mol
# Density = 2.265337 g / cm^3
# Si number density = 22.705044 Si / 1000 Ang^3
#
#
#
# Elastic Constant Matrix: (Units=GPa)
#
#
# Indices 1 2 3 4 5 6 
#
# 1 64.7510 33.5535 34.9710 -0.0001 11.9381 0.0000
# 2 33.5535 78.4894 14.8275 -0.0002 -4.1987 0.0000
# 3 34.9710 14.8275 117.5643 -0.0009 14.2105 0.0000
# 4 -0.0001 -0.0002 -0.0009 49.7334 -0.0001 -0.5143
# 5 11.9381 -4.1987 14.2105 -0.0001 33.1828 0.0000
# 6 0.0000 0.0000 0.0000 -0.5143 0.0000 33.1197
#
#
#
# Elastic Compliance Matrix: (Units=1/GPa)
#
#
# Indices 1 2 3 4 5 6 
#
# 1 0.024972 -0.010128 -0.005178 0.000000 -0.008048 0.000000
# 2 -0.010128 0.017356 0.000124 0.000000 0.005787 0.000000
# 3 -0.005178 0.000124 0.010339 0.000000 -0.002549 0.000000
# 4 0.000000 0.000000 0.000000 0.020110 0.000000 0.000312
# 5 -0.008048 0.005787 -0.002549 0.000000 0.034855 0.000000
# 6 0.000000 0.000000 0.000000 0.000312 0.000000 0.030198
#
#
# Mechanical properties :
#
#
# Convention : Reuss Voigt Hill
#
# Bulk Modulus (GPa) = 44.83550 47.50094 46.16822
# Shear Modulus (GPa) = 28.46897 35.03737 31.75317
#
# Velocity S-wave (km/s) = 3.54483 3.93256 3.74372
# Velocity P-wave (km/s) = 6.04518 6.44875 6.25022
#
# Compressibility (1/GPa) = 0.02230376
#
# Stress axis : x y z
#
# Youngs Moduli (GPa) = 40.04409 57.61622 96.72360
#
# Poissons Ratio (x) = 0.58353 0.50085
# Poissons Ratio (y) = 0.40556 -0.01201
# Poissons Ratio (z) = 0.20736 -0.00716
#
# Static dielectric constant tensor:
#      x y z
#    x 3.746260 0.000000 -0.004320 
#    y 0.000000 4.528720 0.000000 
#    z -0.004320 0.000000 4.327450 
# 
# 
# High freq. dielectric constant tensor:
#      x y z
#    x 1.885270 0.000000 -0.001510 
#    y 0.000000 1.904770 0.000000 
#    z -0.001510 0.000000 1.909280 
# 
# From -- ./inp_files/150594.got.cif
#   From: 2010.06.25/outbox.cif.g09.slc.cpg/sg15_76_cif.got.tgz:150594.got - 2010.06.28 07:06:18.
