data_PCOD8148432
_publ_section_title
;
Structure prediction by ZEFSAII (Michael W. Deem and Ramdas Pophale) SiO2 
 PCOD8148432
Probable space group: C 2/C
;
_chemical_formula_sum "Si O2"
_cell_formula_units_Z 56
_cell_length_a 22.878833
_cell_length_b 12.564703
_cell_length_c 27.025614
_cell_angle_alpha 90.000000
_cell_angle_beta 159.512707
_cell_angle_gamma 90.000000
_cell_volume 2719.125551
_symmetry_space_group_name_H-M "C 2/C"
_symmetry_group_IT_number 15
_symmetry_cell_setting 'monoclinic'
loop_
_space_group_symop_operation_xyz
x,y,z
-x,y,1/2-z
-x,-y,-z
x,-y,1/2+z
1/2+x,1/2+y,z
1/2-x,1/2+y,1/2-z
1/2-x,1/2-y,-z
1/2+x,1/2-y,1/2+z
loop_
_atom_site_type_symbol
_atom_site_label
_atom_site_fract_x
_atom_site_fract_y
_atom_site_fract_z
Si Si1 0.439907 0.717339 0.647840
Si Si2 0.995236 0.499162 0.075475
Si Si3 0.460301 0.344629 0.637665
Si Si4 0.474387 0.553325 0.592554
Si Si5 0.265628 0.855755 0.949743
Si Si6 0.712189 0.146657 0.309044
Si Si7 0.173982 0.635394 0.640268
O O1 0.500000 0.692749 0.750000
O O2 0.250000 0.750000 0.500000
O O3 0.457585 0.608635 0.632232
O O4 0.550553 0.807542 0.708985
O O5 0.155785 0.556921 0.225735
O O6 0.050294 0.395920 0.086903
O O7 0.869590 0.460448 0.018231
O O8 0.894479 0.585720 0.964420
O O9 0.471228 0.428121 0.601385
O O10 0.398553 0.237230 0.563444
O O11 0.639237 0.324278 0.805272
O O12 0.329109 0.383808 0.574842
O O13 0.327497 0.588802 0.440124
O O14 0.647710 0.585265 0.704374
O O15 0.811863 0.237839 0.357536
#
# Coordination Sequence:
#
# PCOD8148432 Si02
#       7
#     8   8   8   8   8   8   8
#     4  11  23  38  61 100 137 175 209 259 327 394
#     4  11  24  43  70  91 126 176 213 269 330 384
#     4  10  23  41  65  91 130 166 213 269 316 389
#     4  11  23  40  64  94 130 172 214 267 328 384
#     4  10  23  43  63  93 126 169 215 264 323 381
#     4  11  25  41  64 100 133 164 219 269 314 397
#     4  10  23  45  63  92 129 167 218 265 325 384
#
# _framework density 20.594857000000001
#
# number of rings (size 3 to 8) (size 9 to 14) (size 15 to 20)
#    0.000    1.429    2.857    1.714    8.000    1.714 
#    2.571    0.000    0.000    0.000    0.000    0.000 
#    0.000    0.000    0.000    0.000    0.000    0.000 
#
# Total GULP energy -347299.152507 kJ/mol
# GULP energy per Si atom -12403.541161 kJ/mol
# Density = 2.054798 g / cm^3
# Si number density = 20.594857 Si / 1000 Ang^3
#
#
#
# Elastic Constant Matrix: (Units=GPa)
#
#
# Indices 1 2 3 4 5 6 
#
# 1 56.7069 33.5743 22.2914 0.0083 -11.4891 -0.0029
# 2 33.5743 81.8073 38.3785 -0.0225 -20.5359 0.0000
# 3 22.2914 38.3785 116.2851 -0.0456 -20.2739 0.0066
# 4 0.0083 -0.0225 -0.0456 41.0260 -0.0118 2.8017
# 5 -11.4891 -20.5359 -20.2739 -0.0118 30.5580 0.0014
# 6 -0.0029 0.0000 0.0066 2.8017 0.0014 25.8604
#
#
#
# Elastic Compliance Matrix: (Units=1/GPa)
#
#
# Indices 1 2 3 4 5 6 
#
# 1 0.023661 -0.008512 -0.001326 -0.000011 0.002296 0.000004
# 2 -0.008512 0.019179 -0.003402 0.000011 0.007431 -0.000002
# 3 -0.001326 -0.003402 0.010733 0.000012 0.004335 -0.000004
# 4 -0.000011 0.000011 0.000012 0.024556 0.000021 -0.002660
# 5 0.002296 0.007431 0.004335 0.000021 0.041458 -0.000005
# 6 0.000004 -0.000002 -0.000004 -0.002660 -0.000005 0.038957
#
#
# Mechanical properties :
#
#
# Convention : Reuss Voigt Hill
#
# Bulk Modulus (GPa) = 36.91285 49.25418 43.08352
# Shear Modulus (GPa) = 25.76581 30.19256 27.97918
#
# Velocity S-wave (km/s) = 3.54090 3.83302 3.68985
# Velocity P-wave (km/s) = 5.88893 6.59978 6.25446
#
# Compressibility (1/GPa) = 0.02709083
#
# Stress axis : x y z
#
# Youngs Moduli (GPa) = 42.26423 52.14075 93.17428
#
# Poissons Ratio (x) = 0.44383 0.12356
# Poissons Ratio (y) = 0.35976 0.31702
# Poissons Ratio (z) = 0.05605 0.17741
#
# Static dielectric constant tensor:
#      x y z
#    x 3.622160 0.000010 -0.072510 
#    y 0.000010 3.626580 0.000060 
#    z -0.072510 0.000060 3.136960 
# 
# 
# High freq. dielectric constant tensor:
#      x y z
#    x 1.801730 0.000000 -0.001920 
#    y 0.000000 1.801380 0.000000 
#    z -0.001920 0.000000 1.821110 
# 
# From -- ./inp_files/318806.got.cif
#   From: 2010.06.25/outbox.cif.g09.slc.cpg/sg15_160_cif.got.tgz:318806.got - 2010.06.28 07:06:18.
