data_PCOD8148508
_publ_section_title
;
Structure prediction by ZEFSAII (Michael W. Deem and Ramdas Pophale) SiO2 
 PCOD8148508
Probable space group: C 2/C
;
_chemical_formula_sum "Si O2"
_cell_formula_units_Z 56
_cell_length_a 16.750013
_cell_length_b 19.376724
_cell_length_c 9.018083
_cell_angle_alpha 90.000000
_cell_angle_beta 122.529303
_cell_angle_gamma 90.000000
_cell_volume 2467.728292
_symmetry_space_group_name_H-M "C 2/C"
_symmetry_group_IT_number 15
_symmetry_cell_setting 'monoclinic'
loop_
_space_group_symop_operation_xyz
x,y,z
-x,y,1/2-z
-x,-y,-z
x,-y,1/2+z
1/2+x,1/2+y,z
1/2-x,1/2+y,1/2-z
1/2-x,1/2-y,-z
1/2+x,1/2-y,1/2+z
loop_
_atom_site_type_symbol
_atom_site_label
_atom_site_fract_x
_atom_site_fract_y
_atom_site_fract_z
Si Si1 0.109920 0.815129 0.325997
Si Si2 0.732643 0.828124 0.530961
Si Si3 0.650515 0.547790 0.702085
Si Si4 0.858118 0.558107 0.021309
Si Si5 0.296360 0.823799 0.672651
Si Si6 0.911889 0.576290 0.753487
Si Si7 0.602487 0.577198 0.332561
O O1 0.107416 0.880112 0.213771
O O2 0.181223 0.829930 0.535889
O O3 0.162927 0.752784 0.299149
O O4 0.000000 0.797172 0.250000
O O5 0.750000 0.750000 0.500000
O O6 0.679118 0.840869 0.633041
O O7 0.674953 0.869892 0.348611
O O8 0.835527 0.859630 0.659741
O O9 0.647673 0.543357 0.523460
O O10 0.589678 0.483973 0.701164
O O11 0.757601 0.534981 0.858167
O O12 0.851763 0.627554 0.112377
O O13 0.894666 0.498429 0.164593
O O14 0.927681 0.569069 0.947871
O O15 0.000000 0.608560 0.750000
O O16 0.500000 0.610486 0.250000
#
# Coordination Sequence:
#
# PCOD8148508 Si02
#       7
#     8   8   8   8   8   8   8
#     4  10  23  41  68  98 136 174 227 276 334 405
#     4  12  27  47  68  96 142 183 229 284 344 404
#     4  11  22  42  67  98 136 176 219 273 340 409
#     4  11  22  45  73  97 141 178 222 283 346 407
#     4  10  25  43  69  98 134 185 226 277 348 402
#     4  12  26  45  72 105 135 179 232 283 339 409
#     4  12  26  41  69 102 134 176 225 278 342 402
#
# _framework density 22.692937000000001
#
# number of rings (size 3 to 8) (size 9 to 14) (size 15 to 20)
#    0.000    0.857    2.857    3.000   10.000    2.286 
#    0.000    0.000    0.000    0.000    0.000    0.000 
#    0.000    0.000    0.000    0.000    0.000    0.000 
#
# Total GULP energy -347155.861975 kJ/mol
# GULP energy per Si atom -12398.423642 kJ/mol
# Density = 2.264129 g / cm^3
# Si number density = 22.692937 Si / 1000 Ang^3
#
#
#
# Elastic Constant Matrix: (Units=GPa)
#
#
# Indices 1 2 3 4 5 6 
#
# 1 116.2297 40.3884 26.6023 0.0000 -8.5332 0.0000
# 2 40.3884 143.1238 33.1194 0.0000 -10.8486 0.0000
# 3 26.6023 33.1194 80.9312 0.0000 -29.5925 0.0000
# 4 0.0000 0.0000 0.0000 13.7757 0.0000 -6.3255
# 5 -8.5332 -10.8486 -29.5925 0.0000 47.6251 0.0000
# 6 0.0000 0.0000 0.0000 -6.3255 0.0000 24.8280
#
#
#
# Elastic Compliance Matrix: (Units=1/GPa)
#
#
# Indices 1 2 3 4 5 6 
#
# 1 0.009926 -0.002258 -0.002428 0.000000 -0.000245 0.000000
# 2 -0.002258 0.008234 -0.002704 0.000000 -0.000209 0.000000
# 3 -0.002428 -0.002704 0.017956 0.000000 0.010106 0.000000
# 4 0.000000 0.000000 0.000000 0.082209 0.000000 0.020945
# 5 -0.000245 -0.000209 0.010106 0.000000 0.027186 0.000000
# 6 0.000000 0.000000 0.000000 0.020945 0.000000 0.045613
#
#
# Mechanical properties :
#
#
# Convention : Reuss Voigt Hill
#
# Bulk Modulus (GPa) = 46.86789 60.05611 53.46200
# Shear Modulus (GPa) = 23.47250 33.25742 28.36496
#
# Velocity S-wave (km/s) = 3.21962 3.83239 3.53929
# Velocity P-wave (km/s) = 5.87531 6.79007 6.34919
#
# Compressibility (1/GPa) = 0.02133657
#
# Stress axis : x y z
#
# Youngs Moduli (GPa) = 100.74578 121.44915 55.69096
#
# Poissons Ratio (x) = 0.27419 0.13523
# Poissons Ratio (y) = 0.22745 0.15058
# Poissons Ratio (z) = 0.24463 0.32838
#
# Static dielectric constant tensor:
#      x y z
#    x 4.291520 0.000000 0.037690 
#    y 0.000000 3.948160 0.000000 
#    z 0.037690 0.000000 4.331100 
# 
# 
# High freq. dielectric constant tensor:
#      x y z
#    x 1.899710 0.000000 -0.005360 
#    y 0.000000 1.896550 0.000000 
#    z -0.005360 0.000000 1.898450 
# 
# From -- ./inp_files/50326.got.cif
#   From: 2010.06.25/outbox.cif.g09.slc.cpg/sg15_26_cif.got.tgz:50326.got - 2010.06.28 07:06:18.
