data_PCOD8148295
_publ_section_title
;
Structure prediction by ZEFSAII (Michael W. Deem and Ramdas Pophale) SiO2 
 PCOD8148295
Probable space group: C 2/C
;
_chemical_formula_sum "Si O2"
_cell_formula_units_Z 48
_cell_length_a 11.612281
_cell_length_b 18.484220
_cell_length_c 11.892007
_cell_angle_alpha 90.000000
_cell_angle_beta 71.393463
_cell_angle_gamma 90.000000
_cell_volume 2419.130920
_symmetry_space_group_name_H-M "C 2/C"
_symmetry_group_IT_number 15
_symmetry_cell_setting 'monoclinic'
loop_
_space_group_symop_operation_xyz
x,y,z
-x,y,1/2-z
-x,-y,-z
x,-y,1/2+z
1/2+x,1/2+y,z
1/2-x,1/2+y,1/2-z
1/2-x,1/2-y,-z
1/2+x,1/2-y,1/2+z
loop_
_atom_site_type_symbol
_atom_site_label
_atom_site_fract_x
_atom_site_fract_y
_atom_site_fract_z
Si Si1 0.539939 0.077701 0.860978
Si Si2 0.592471 0.307432 0.122662
Si Si3 0.630554 0.372240 0.760949
Si Si4 0.860566 0.730440 0.615529
Si Si5 0.613402 0.548822 0.493799
Si Si6 0.192339 0.534720 0.432408
O O1 0.500000 0.054744 0.750000
O O2 0.572474 0.161407 0.856421
O O3 0.656092 0.028287 0.855953
O O4 0.430028 0.067176 0.980508
O O5 0.500000 0.284792 0.250000
O O6 0.725434 0.290423 0.124824
O O7 0.578114 0.392754 0.100472
O O8 0.567768 0.261473 0.016277
O O9 0.500000 0.393484 0.750000
O O10 0.640168 0.286820 0.780592
O O11 0.735536 0.398691 0.645092
O O12 0.657346 0.410685 0.869792
O O13 0.500000 0.500000 0.500000
O O14 0.724739 0.499346 0.496867
#
# Coordination Sequence:
#
# PCOD8148295 Si02
#       6
#     8   8   8   8   8   8
#     4  11  24  45  66  94 133 168 216 267 320 388
#     4  10  23  40  66  93 128 176 213 263 326 386
#     4  11  23  41  63  97 132 166 216 272 322 380
#     4  10  23  44  61  95 132 168 221 263 315 392
#     4  11  22  39  65  98 133 162 214 271 322 385
#     4  11  24  42  68  98 125 176 212 264 331 384
#
# _framework density 19.841835
#
# number of rings (size 3 to 8) (size 9 to 14) (size 15 to 20)
#    0.000    1.333    3.333    1.500    4.667    1.333 
#    0.000    1.667    0.000    0.000    0.000    0.000 
#    0.000    0.000    0.000    0.000    0.000    0.000 
#
# Total GULP energy -297667.341969 kJ/mol
# GULP energy per Si atom -12402.805915 kJ/mol
# Density = 1.979667 g / cm^3
# Si number density = 19.841835 Si / 1000 Ang^3
#
#
#
# Elastic Constant Matrix: (Units=GPa)
#
#
# Indices 1 2 3 4 5 6 
#
# 1 105.3326 46.6889 31.6548 0.0000 7.1299 0.0000
# 2 46.6889 125.0417 39.1957 0.0000 -1.1892 0.0000
# 3 31.6548 39.1957 90.8848 0.0000 -1.6922 0.0000
# 4 0.0000 0.0000 0.0000 29.9170 0.0000 8.5690
# 5 7.1299 -1.1892 -1.6922 0.0000 32.6693 0.0000
# 6 0.0000 0.0000 0.0000 8.5690 0.0000 34.5981
#
#
#
# Elastic Compliance Matrix: (Units=1/GPa)
#
#
# Indices 1 2 3 4 5 6 
#
# 1 0.012148 -0.003724 -0.002680 0.000000 -0.002925 0.000000
# 2 -0.003724 0.010389 -0.003165 0.000000 0.001027 0.000000
# 3 -0.002680 -0.003165 0.013323 0.000000 0.001160 0.000000
# 4 0.000000 0.000000 0.000000 0.035978 0.000000 -0.008911
# 5 -0.002925 0.001027 0.001160 0.000000 0.031346 0.000000
# 6 0.000000 0.000000 0.000000 -0.008911 0.000000 0.031110
#
#
# Mechanical properties :
#
#
# Convention : Reuss Voigt Hill
#
# Bulk Modulus (GPa) = 59.79406 61.81534 60.80470
# Shear Modulus (GPa) = 31.44579 33.01819 32.23199
#
# Velocity S-wave (km/s) = 3.98530 4.08373 4.03481
# Velocity P-wave (km/s) = 7.16782 7.31146 7.23999
#
# Compressibility (1/GPa) = 0.01672407
#
# Stress axis : x y z
#
# Youngs Moduli (GPa) = 82.32130 96.25169 75.06046
#
# Poissons Ratio (x) = 0.35840 0.20113
# Poissons Ratio (y) = 0.30653 0.23754
# Poissons Ratio (z) = 0.22058 0.30460
#
# Static dielectric constant tensor:
#      x y z
#    x 3.532840 0.000000 0.207230 
#    y 0.000000 3.870270 0.000000 
#    z 0.207230 0.000000 3.605510 
# 
# 
# High freq. dielectric constant tensor:
#      x y z
#    x 1.782440 0.000000 0.011280 
#    y 0.000000 1.783640 0.000000 
#    z 0.011280 0.000000 1.770900 
# 
# From -- ./inp_files/87454.got.cif
#   From: 2010.06.25/outbox.cif.g09.slc.cpg/sg15_44_cif.got.tgz:87454.got - 2010.06.28 07:06:18.
