data_PCOD8148695
_publ_section_title
;
Structure prediction by ZEFSAII (Michael W. Deem and Ramdas Pophale) SiO2 
 PCOD8148695
Probable space group: C 2/C
;
_chemical_formula_sum "Si O2"
_cell_formula_units_Z 40
_cell_length_a 8.013218
_cell_length_b 22.032904
_cell_length_c 12.714949
_cell_angle_alpha 90.000000
_cell_angle_beta 54.012391
_cell_angle_gamma 90.000000
_cell_volume 1816.432192
_symmetry_space_group_name_H-M "C 2/C"
_symmetry_group_IT_number 15
_symmetry_cell_setting 'monoclinic'
loop_
_space_group_symop_operation_xyz
x,y,z
-x,y,1/2-z
-x,-y,-z
x,-y,1/2+z
1/2+x,1/2+y,z
1/2-x,1/2+y,1/2-z
1/2-x,1/2-y,-z
1/2+x,1/2-y,1/2+z
loop_
_atom_site_type_symbol
_atom_site_label
_atom_site_fract_x
_atom_site_fract_y
_atom_site_fract_z
Si Si1 0.881976 0.412645 0.554228
Si Si2 0.440631 0.330156 0.389416
Si Si3 0.740171 0.533653 0.688729
Si Si4 0.879006 0.936481 0.054737
Si Si5 0.494947 0.801569 0.628763
O O1 0.815498 0.464549 0.659462
O O2 0.739840 0.418591 0.505357
O O3 0.841369 0.348201 0.625894
O O4 0.125587 0.423466 0.438484
O O5 0.500000 0.355401 0.250000
O O6 0.475863 0.380257 0.466321
O O7 0.577916 0.268568 0.356577
O O8 0.206655 0.309477 0.486693
O O9 0.500000 0.537412 0.750000
O O10 0.783995 0.555977 0.790575
O O11 0.000000 0.000000 0.000000
O O12 0.500000 0.819147 0.750000
#
# Coordination Sequence:
#
# PCOD8148695 Si02
#       5
#     8   8   8   8   8
#     4  11  25  38  66  98 125 176 217 274 324 388
#     4  10  23  44  67  90 132 180 216 264 333 396
#     4  11  23  41  60  91 136 171 215 264 331 392
#     4  12  24  39  64  96 131 174 210 271 327 390
#     4  10  23  42  67  96 126 173 225 271 322 390
#
# _framework density 22.021191999999999
#
# number of rings (size 3 to 8) (size 9 to 14) (size 15 to 20)
#    0.000    1.200    2.000    3.600    5.600    0.800 
#    0.000    0.000    0.000    7.200    0.000    0.000 
#    0.000    0.000    0.000    0.000    0.000    0.000 
#
# Total GULP energy -247867.265583 kJ/mol
# GULP energy per Si atom -12393.363279 kJ/mol
# Density = 2.197107 g / cm^3
# Si number density = 22.021192 Si / 1000 Ang^3
#
#
#
# Elastic Constant Matrix: (Units=GPa)
#
#
# Indices 1 2 3 4 5 6 
#
# 1 82.3793 42.5287 28.9906 0.0000 12.0932 0.0000
# 2 42.5287 173.7348 27.4821 0.0000 20.4992 0.0000
# 3 28.9906 27.4821 81.3921 0.0000 6.4891 0.0000
# 4 0.0000 0.0000 0.0000 33.9168 0.0000 17.7738
# 5 12.0932 20.4992 6.4891 0.0000 35.7049 0.0000
# 6 0.0000 0.0000 0.0000 17.7738 0.0000 28.4639
#
#
#
# Elastic Compliance Matrix: (Units=1/GPa)
#
#
# Indices 1 2 3 4 5 6 
#
# 1 0.015528 -0.002771 -0.004366 0.000000 -0.002875 0.000000
# 2 -0.002771 0.006949 -0.001132 0.000000 -0.002845 0.000000
# 3 -0.004366 -0.001132 0.014261 0.000000 -0.000463 0.000000
# 4 0.000000 0.000000 0.000000 0.043825 0.000000 -0.027366
# 5 -0.002875 -0.002845 -0.000463 0.000000 0.030699 0.000000
# 6 0.000000 0.000000 0.000000 -0.027366 0.000000 0.052220
#
#
# Mechanical properties :
#
#
# Convention : Reuss Voigt Hill
#
# Bulk Modulus (GPa) = 49.50880 59.50100 54.50490
# Shear Modulus (GPa) = 26.77325 35.51745 31.14535
#
# Velocity S-wave (km/s) = 3.49061 4.02042 3.76484
# Velocity P-wave (km/s) = 6.22711 6.97354 6.61087
#
# Compressibility (1/GPa) = 0.02019843
#
# Stress axis : x y z
#
# Youngs Moduli (GPa) = 64.39921 143.90264 70.12352
#
# Poissons Ratio (x) = 0.39880 0.30615
# Poissons Ratio (y) = 0.17847 0.07941
# Poissons Ratio (z) = 0.28116 0.16296
#
# Static dielectric constant tensor:
#      x y z
#    x 3.674780 0.000000 0.208750 
#    y 0.000000 4.647730 0.000000 
#    z 0.208750 0.000000 4.414720 
# 
# 
# High freq. dielectric constant tensor:
#      x y z
#    x 1.831020 0.000000 0.010260 
#    y 0.000000 1.894570 0.000000 
#    z 0.010260 0.000000 1.879380 
# 
# From -- ./inp_files/135768.got.cif
#   From: 2010.06.25/outbox.cif.g09.slc.cpg/sg15_68_cif.got.tgz:135768.got - 2010.06.28 07:06:18.
