data_PCOD8148241
_publ_section_title
;
Structure prediction by ZEFSAII (Michael W. Deem and Ramdas Pophale) SiO2 
 PCOD8148241
Probable space group: C 2/C
;
_chemical_formula_sum "Si O2"
_cell_formula_units_Z 48
_cell_length_a 22.768970
_cell_length_b 15.416374
_cell_length_c 13.884945
_cell_angle_alpha 90.000000
_cell_angle_beta 27.854982
_cell_angle_gamma 90.000000
_cell_volume 2277.222250
_symmetry_space_group_name_H-M "C 2/C"
_symmetry_group_IT_number 15
_symmetry_cell_setting 'monoclinic'
loop_
_space_group_symop_operation_xyz
x,y,z
-x,y,1/2-z
-x,-y,-z
x,-y,1/2+z
1/2+x,1/2+y,z
1/2-x,1/2+y,1/2-z
1/2-x,1/2-y,-z
1/2+x,1/2-y,1/2+z
loop_
_atom_site_type_symbol
_atom_site_label
_atom_site_fract_x
_atom_site_fract_y
_atom_site_fract_z
Si Si1 0.928421 0.462905 0.254231
Si Si2 0.708588 0.396999 0.341415
Si Si3 0.503035 0.880812 0.538082
Si Si4 0.839902 0.888359 0.872414
Si Si5 0.971913 0.042238 0.897656
Si Si6 0.019413 0.810288 0.479539
O O1 0.006079 0.413223 0.058785
O O2 0.797430 0.415364 0.463024
O O3 0.000000 0.460885 0.250000
O O4 0.911082 0.562038 0.239978
O O5 0.857869 0.391743 0.118748
O O6 0.657611 0.363807 0.518834
O O7 0.666421 0.498005 0.392047
O O8 0.647846 0.336251 0.347693
O O9 0.459071 0.781747 0.602686
O O10 0.898552 0.806947 0.727901
O O11 0.931062 0.967507 0.712698
O O12 0.000000 0.075699 0.750000
O O13 0.983855 0.123678 0.947849
#
# Coordination Sequence:
#
# PCOD8148241 Si02
#       6
#     8   8   8   8   8   8
#     4  10  23  40  63  78 124 168 197 234 312 371
#     4   9  19  38  59  84 123 151 201 253 295 364
#     4  10  24  41  54  96 123 154 204 253 296 371
#     4   9  19  37  61  88 110 158 207 247 291 367
#     4   9  19  36  60  86 112 154 202 246 296 357
#     4  11  21  35  64  90 119 153 205 254 307 340
#
# _framework density 21.078310999999999
#
# number of rings (size 3 to 8) (size 9 to 14) (size 15 to 20)
#    0.000    2.333    0.000    3.500    4.667    6.000 
#    9.000    0.833    0.000    0.000    0.000    0.000 
#    0.000    0.000    0.000    0.000    0.000    0.000 
#
# Total GULP energy -297550.690830 kJ/mol
# GULP energy per Si atom -12397.945451 kJ/mol
# Density = 2.103034 g / cm^3
# Si number density = 21.078311 Si / 1000 Ang^3
#
#
#
# Elastic Constant Matrix: (Units=GPa)
#
#
# Indices 1 2 3 4 5 6 
#
# 1 134.8822 44.0183 11.0930 0.0000 0.4084 0.0000
# 2 44.0183 84.6487 -4.5763 0.0000 -5.7397 0.0000
# 3 11.0930 -4.5763 22.1063 0.0000 -0.0776 0.0000
# 4 0.0000 0.0000 0.0000 14.9098 0.0000 2.1641
# 5 0.4084 -5.7397 -0.0776 0.0000 7.6432 0.0000
# 6 0.0000 0.0000 0.0000 2.1641 0.0000 21.8266
#
#
#
# Elastic Compliance Matrix: (Units=1/GPa)
#
#
# Indices 1 2 3 4 5 6 
#
# 1 0.009817 -0.005770 -0.006138 0.000000 -0.004920 0.000000
# 2 -0.005770 0.015991 0.006249 0.000000 0.012381 0.000000
# 3 -0.006138 0.006249 0.049629 0.000000 0.005525 0.000000
# 4 0.000000 0.000000 0.000000 0.068049 0.000000 -0.006747
# 5 -0.004920 0.012381 0.005525 0.000000 0.140452 0.000000
# 6 0.000000 0.000000 0.000000 -0.006747 0.000000 0.046485
#
#
# Mechanical properties :
#
#
# Convention : Reuss Voigt Hill
#
# Bulk Modulus (GPa) = 15.59577 38.07858 26.83718
# Shear Modulus (GPa) = 13.76982 21.61607 17.69294
#
# Velocity S-wave (km/s) = 2.55869 3.20584 2.90037
# Velocity P-wave (km/s) = 4.01798 5.63983 4.89652
#
# Compressibility (1/GPa) = 0.06411993
#
# Stress axis : x y z
#
# Youngs Moduli (GPa) = 101.86794 62.53351 20.14947
#
# Poissons Ratio (x) = 0.36083 0.12367
# Poissons Ratio (y) = 0.58780 -0.12592
# Poissons Ratio (z) = 0.62524 -0.39079
#
# Static dielectric constant tensor:
#      x y z
#    x 3.934550 0.000000 0.023640 
#    y 0.000000 3.732380 0.000000 
#    z 0.023640 0.000000 3.881430 
# 
# 
# High freq. dielectric constant tensor:
#      x y z
#    x 1.840140 0.000000 0.001720 
#    y 0.000000 1.805360 0.000000 
#    z 0.001720 0.000000 1.809500 
# 
# From -- ./inp_files/97207.got.cif
#   From: 2010.06.25/outbox.cif.g09.slc.cpg/sg15_49_cif.got.tgz:97207.got - 2010.06.28 07:06:18.
