data_PCOD8148978
_publ_section_title
;
Structure prediction by ZEFSAII (Michael W. Deem and Ramdas Pophale) SiO2 
 PCOD8148978
Probable space group: C 2/C
;
_chemical_formula_sum "Si O2"
_cell_formula_units_Z 56
_cell_length_a 9.678002
_cell_length_b 26.900151
_cell_length_c 11.175716
_cell_angle_alpha 90.000000
_cell_angle_beta 61.209049
_cell_angle_gamma 90.000000
_cell_volume 2549.820482
_symmetry_space_group_name_H-M "C 2/C"
_symmetry_group_IT_number 15
_symmetry_cell_setting 'monoclinic'
loop_
_space_group_symop_operation_xyz
x,y,z
-x,y,1/2-z
-x,-y,-z
x,-y,1/2+z
1/2+x,1/2+y,z
1/2-x,1/2+y,1/2-z
1/2-x,1/2-y,-z
1/2+x,1/2-y,1/2+z
loop_
_atom_site_type_symbol
_atom_site_label
_atom_site_fract_x
_atom_site_fract_y
_atom_site_fract_z
Si Si1 0.635048 0.772854 0.774733
Si Si2 0.500000 0.535351 0.750000
Si Si3 0.737941 0.962399 0.776513
Si Si4 0.289232 0.304143 0.936439
Si Si5 0.931194 0.794766 0.531072
Si Si6 0.000000 0.475585 0.250000
Si Si7 0.747876 0.409091 0.481160
Si Si8 0.091669 0.905918 0.988952
O O1 0.500000 0.798943 0.750000
O O2 0.720764 0.810491 0.830821
O O3 0.781428 0.758317 0.623706
O O4 0.550882 0.727723 0.881210
O O5 0.375996 0.502407 0.730328
O O6 0.405378 0.569657 0.881956
O O7 0.732381 0.926442 0.891516
O O8 0.767533 0.929508 0.646207
O O9 0.570800 0.990313 0.826659
O O10 0.478088 0.306305 0.880026
O O11 0.211749 0.349968 0.042662
O O12 0.250000 0.250000 0.000000
O O13 0.872513 0.847539 0.505665
O O14 0.861481 0.440239 0.351224
O O15 0.570739 0.417640 0.511603
#
# Coordination Sequence:
#
# PCOD8148978 Si02
#       8
#     8   4   8   8   8   4   8   8
#     4  11  22  42  64  99 133 175 217 287 338 398
#     4  12  22  40  68  95 125 174 224 278 324 408
#     4  12  23  43  70  93 136 177 226 280 337 406
#     4   9  21  44  67  94 129 178 227 273 337 411
#     4  10  23  43  69  94 133 177 229 270 339 413
#     4  12  26  42  62 107 143 172 224 290 354 390
#     4  11  22  44  68  98 134 180 226 283 340 415
#     4  11  23  43  70  96 128 179 233 265 336 419
#
# _framework density 21.962333000000001
#
# number of rings (size 3 to 8) (size 9 to 14) (size 15 to 20)
#    0.000    1.143    2.857    3.429    1.000    2.286 
#   23.143    0.000    0.000    0.000    0.000    0.000 
#    0.000    0.000    0.000    0.000    0.000    0.000 
#
# Total GULP energy -346942.009787 kJ/mol
# GULP energy per Si atom -12390.786064 kJ/mol
# Density = 2.191235 g / cm^3
# Si number density = 21.962333 Si / 1000 Ang^3
#
#
#
# Elastic Constant Matrix: (Units=GPa)
#
#
# Indices 1 2 3 4 5 6 
#
# 1 93.8109 28.2470 23.9868 0.0000 -10.7696 0.0000
# 2 28.2470 122.0284 44.1365 0.0000 -9.4547 0.0000
# 3 23.9868 44.1365 103.1921 0.0000 0.0990 0.0000
# 4 0.0000 0.0000 0.0000 -28.6854 0.0000 -65.5490
# 5 -10.7696 -9.4547 0.0990 0.0000 31.5468 0.0000
# 6 0.0000 0.0000 0.0000 -65.5490 0.0000 -52.8227
#
#
#
# Elastic Compliance Matrix: (Units=1/GPa)
#
#
# Indices 1 2 3 4 5 6 
#
# 1 0.012139 -0.001784 -0.002062 0.000000 0.003616 0.000000
# 2 -0.001784 0.010233 -0.003965 0.000000 0.002470 0.000000
# 3 -0.002062 -0.003965 0.011868 0.000000 -0.001929 0.000000
# 4 0.000000 0.000000 0.000000 0.018991 0.000000 -0.023567
# 5 0.003616 0.002470 -0.001929 0.000000 0.033680 0.000000
# 6 0.000000 0.000000 0.000000 -0.023567 0.000000 0.010313
#
#
# Mechanical properties :
#
#
# Convention : Reuss Voigt Hill
#
# Bulk Modulus (GPa) = 53.70970 56.86354 55.28662
# Shear Modulus (GPa) = 41.99855 4.85179 23.42517
#
# Velocity S-wave (km/s) = 4.37773 1.48793 3.26944
# Velocity P-wave (km/s) = 7.07539 5.37583 6.28334
#
# Compressibility (1/GPa) = 0.01861861
#
# Stress axis : x y z
#
# Youngs Moduli (GPa) = 82.37693 97.72222 84.26342
#
# Poissons Ratio (x) = 0.17433 0.17377
# Poissons Ratio (y) = 0.14696 0.33406
# Poissons Ratio (z) = 0.16988 0.38742
#
# Static dielectric constant tensor:
#      x y z
#    x 4.458900 0.000000 0.088060 
#    y 0.000000 3.973080 0.000000 
#    z 0.088060 0.000000 4.032840 
# 
# 
# High freq. dielectric constant tensor:
#      x y z
#    x 1.873830 0.000000 0.008530 
#    y 0.000000 1.858570 0.000000 
#    z 0.008530 0.000000 1.854910 
# 
# From -- ./inp_files/82497.got.cif
#   From: 2010.06.25/outbox.cif.g09.slc.cpg/sg15_42_cif.got.tgz:82497.got - 2010.06.28 07:06:18.
