data_PCOD8148856
_publ_section_title
;
Structure prediction by ZEFSAII (Michael W. Deem and Ramdas Pophale) SiO2 
 PCOD8148856
Probable space group: C 2/C
;
_chemical_formula_sum "Si O2"
_cell_formula_units_Z 52
_cell_length_a 11.558564
_cell_length_b 23.347314
_cell_length_c 10.827204
_cell_angle_alpha 90.000000
_cell_angle_beta 127.124570
_cell_angle_gamma 90.000000
_cell_volume 2329.660345
_symmetry_space_group_name_H-M "C 2/C"
_symmetry_group_IT_number 15
_symmetry_cell_setting 'monoclinic'
loop_
_space_group_symop_operation_xyz
x,y,z
-x,y,1/2-z
-x,-y,-z
x,-y,1/2+z
1/2+x,1/2+y,z
1/2-x,1/2+y,1/2-z
1/2-x,1/2-y,-z
1/2+x,1/2-y,1/2+z
loop_
_atom_site_type_symbol
_atom_site_label
_atom_site_fract_x
_atom_site_fract_y
_atom_site_fract_z
Si Si1 0.903566 0.885684 0.077427
Si Si2 0.108712 0.550158 0.427431
Si Si3 0.000000 0.664155 0.750000
Si Si4 0.891934 0.877593 0.793716
Si Si5 0.696469 0.246250 0.733247
Si Si6 0.024001 0.757302 0.395082
Si Si7 0.389122 0.927189 0.993227
O O1 0.000000 0.913815 0.250000
O O2 0.904311 0.817622 0.095732
O O3 0.744684 0.909306 0.996885
O O4 0.956825 0.898010 0.969489
O O5 0.150258 0.482830 0.449664
O O6 0.000000 0.566458 0.250000
O O7 0.036047 0.562631 0.512179
O O8 0.129941 0.703600 0.788339
O O9 0.081593 0.626813 0.903068
O O10 0.855553 0.810560 0.774988
O O11 0.745851 0.913844 0.682244
O O12 0.000000 0.890997 0.750000
O O13 0.868078 0.238374 0.860712
O O14 0.637801 0.226460 0.559726
O O15 0.000000 0.722635 0.250000
#
# Coordination Sequence:
#
# PCOD8148856 Si02
#       7
#     8   8   4   8   8   8   8
#     4  10  24  45  73 100 140 185 232 290 357 415
#     4  11  23  51  72 103 136 179 239 298 353 415
#     4  12  26  40  70 104 138 186 228 290 344 428
#     4  11  24  45  69 107 145 188 233 288 356 426
#     4  11  24  43  67  98 144 181 226 284 351 415
#     4  10  23  43  65 100 132 184 232 285 342 418
#     4  11  26  42  76 105 134 184 236 294 352 420
#
# _framework density 22.32085
#
# number of rings (size 3 to 8) (size 9 to 14) (size 15 to 20)
#    0.000    1.231    3.077    1.385    8.615    1.846 
#    5.538    1.538    0.000    0.000    0.000    0.000 
#    0.000    0.000    0.000    0.000    0.000    0.000 
#
# Total GULP energy -322345.652504 kJ/mol
# GULP energy per Si atom -12397.909712 kJ/mol
# Density = 2.227005 g / cm^3
# Si number density = 22.320850 Si / 1000 Ang^3
#
#
#
# Elastic Constant Matrix: (Units=GPa)
#
#
# Indices 1 2 3 4 5 6 
#
# 1 116.2877 50.5655 39.1843 0.0000 -4.4209 0.0000
# 2 50.5655 75.9187 31.5152 0.0000 11.4867 0.0000
# 3 39.1843 31.5152 138.9185 0.0000 1.6589 0.0000
# 4 0.0000 0.0000 0.0000 38.2562 0.0000 7.5028
# 5 -4.4209 11.4867 1.6589 0.0000 34.7129 0.0000
# 6 0.0000 0.0000 0.0000 7.5028 0.0000 28.0536
#
#
#
# Elastic Compliance Matrix: (Units=1/GPa)
#
#
# Indices 1 2 3 4 5 6 
#
# 1 0.013180 -0.008740 -0.001791 0.000000 0.004656 0.000000
# 2 -0.008740 0.021130 -0.002233 0.000000 -0.007998 0.000000
# 3 -0.001791 -0.002233 0.008209 0.000000 0.000119 0.000000
# 4 0.000000 0.000000 0.000000 0.027586 0.000000 -0.007378
# 5 0.004656 -0.007998 0.000119 0.000000 0.032042 0.000000
# 6 0.000000 0.000000 0.000000 -0.007378 0.000000 0.037619
#
#
# Mechanical properties :
#
#
# Convention : Reuss Voigt Hill
#
# Bulk Modulus (GPa) = 58.84953 63.73943 61.29448
# Shear Modulus (GPa) = 29.24717 34.19522 31.72120
#
# Velocity S-wave (km/s) = 3.62374 3.91831 3.77390
# Velocity P-wave (km/s) = 6.62806 7.00634 6.81982
#
# Compressibility (1/GPa) = 0.01699249
#
# Stress axis : x y z
#
# Youngs Moduli (GPa) = 75.87248 47.32571 121.82250
#
# Poissons Ratio (x) = 0.41361 0.21813
# Poissons Ratio (y) = 0.66310 0.27202
# Poissons Ratio (z) = 0.13585 0.10567
#
# Static dielectric constant tensor:
#      x y z
#    x 3.928490 0.000000 -0.192750 
#    y 0.000000 3.904770 0.000000 
#    z -0.192750 0.000000 4.629370 
# 
# 
# High freq. dielectric constant tensor:
#      x y z
#    x 1.880300 0.000000 -0.008330 
#    y 0.000000 1.863150 0.000000 
#    z -0.008330 0.000000 1.899450 
# 
# From -- ./inp_files/91306.got.cif
#   From: 2010.06.25/outbox.cif.g09.slc.cpg/sg15_46_cif.got.tgz:91306.got - 2010.06.28 07:06:18.
