data_PCOD8148733
_publ_section_title
;
Structure prediction by ZEFSAII (Michael W. Deem and Ramdas Pophale) SiO2 
 PCOD8148733
Probable space group: C 2/C
;
_chemical_formula_sum "Si O2"
_cell_formula_units_Z 32
_cell_length_a 15.061131
_cell_length_b 12.562461
_cell_length_c 9.392160
_cell_angle_alpha 90.000000
_cell_angle_beta 125.694639
_cell_angle_gamma 90.000000
_cell_volume 1443.203896
_symmetry_space_group_name_H-M "C 2/C"
_symmetry_group_IT_number 15
_symmetry_cell_setting 'monoclinic'
loop_
_space_group_symop_operation_xyz
x,y,z
-x,y,1/2-z
-x,-y,-z
x,-y,1/2+z
1/2+x,1/2+y,z
1/2-x,1/2+y,1/2-z
1/2-x,1/2-y,-z
1/2+x,1/2-y,1/2+z
loop_
_atom_site_type_symbol
_atom_site_label
_atom_site_fract_x
_atom_site_fract_y
_atom_site_fract_z
Si Si1 0.126234 0.384505 0.907753
Si Si2 0.270810 0.747659 0.733686
Si Si3 0.764310 0.075065 0.101842
Si Si4 0.885933 0.051582 0.932371
O O1 0.199935 0.337572 0.851588
O O2 0.000000 0.372618 0.750000
O O3 0.160815 0.317219 0.082252
O O4 0.155878 0.510300 0.950292
O O5 0.255428 0.800949 0.876192
O O6 0.372548 0.666321 0.844217
O O7 0.862140 0.062966 0.078623
O O8 0.796907 0.026216 0.283407
O O9 0.000000 0.000000 0.000000
#
# Coordination Sequence:
#
# PCOD8148733 Si02
#       4
#     8   8   8   8
#     4  10  23  42  69  95 137 183 224 279 353 410
#     4  10  23  42  68  99 139 180 230 287 341 417
#     4  11  22  45  64 101 138 175 233 290 334 419
#     4  11  24  41  69  99 139 180 231 286 350 412
#
# _framework density 22.172889999999999
#
# number of rings (size 3 to 8) (size 9 to 14) (size 15 to 20)
#    0.000    1.500    2.500    1.500    3.500    1.000 
#    0.000    2.500    0.000    0.000    0.000    0.000 
#    0.000    0.000    0.000    0.000    0.000    0.000 
#
# Total GULP energy -198219.442311 kJ/mol
# GULP energy per Si atom -12388.715144 kJ/mol
# Density = 2.212242 g / cm^3
# Si number density = 22.172890 Si / 1000 Ang^3
#
#
#
# Elastic Constant Matrix: (Units=GPa)
#
#
# Indices 1 2 3 4 5 6 
#
# 1 101.1831 50.1028 60.8561 0.0000 0.9377 0.0000
# 2 50.1028 104.1190 78.8906 0.0000 9.5204 0.0000
# 3 60.8561 78.8906 116.1684 0.0000 12.9563 0.0000
# 4 0.0000 0.0000 0.0000 39.6372 0.0000 -9.9496
# 5 0.9377 9.5204 12.9563 0.0000 40.3700 0.0000
# 6 0.0000 0.0000 0.0000 -9.9496 0.0000 39.0617
#
#
#
# Elastic Compliance Matrix: (Units=1/GPa)
#
#
# Indices 1 2 3 4 5 6 
#
# 1 0.014956 -0.002629 -0.006305 0.000000 0.002296 0.000000
# 2 -0.002629 0.020252 -0.012290 0.000000 -0.000771 0.000000
# 3 -0.006305 -0.012290 0.020657 0.000000 -0.003585 0.000000
# 4 0.000000 0.000000 0.000000 0.026952 0.000000 0.006865
# 5 0.002296 -0.000771 -0.003585 0.000000 0.026050 0.000000
# 6 0.000000 0.000000 0.000000 0.006865 0.000000 0.027349
#
#
# Mechanical properties :
#
#
# Convention : Reuss Voigt Hill
#
# Bulk Modulus (GPa) = 74.53712 77.90775 76.22244
# Shear Modulus (GPa) = 27.30170 32.58850 29.94510
#
# Velocity S-wave (km/s) = 3.51281 3.83789 3.67894
# Velocity P-wave (km/s) = 7.08113 7.40621 7.24549
#
# Compressibility (1/GPa) = 0.01341613
#
# Stress axis : x y z
#
# Youngs Moduli (GPa) = 66.86205 49.37723 48.40865
#
# Poissons Ratio (x) = 0.12983 0.30524
# Poissons Ratio (y) = 0.17580 0.59494
# Poissons Ratio (z) = 0.42160 0.60685
#
# Static dielectric constant tensor:
#      x y z
#    x 3.574080 0.000000 -0.308140 
#    y 0.000000 4.843980 0.000000 
#    z -0.308140 0.000000 4.202550 
# 
# 
# High freq. dielectric constant tensor:
#      x y z
#    x 1.849500 0.000000 -0.024160 
#    y 0.000000 1.889540 0.000000 
#    z -0.024160 0.000000 1.870710 
# 
# From -- ./inp_files/45841.got.cif
#   From: 2010.06.25/outbox.cif.g09.slc.cpg/sg15_23_cif.got.tgz:45841.got - 2010.06.28 07:06:18.
