data_PCOD8148286
_publ_section_title
;
Structure prediction by ZEFSAII (Michael W. Deem and Ramdas Pophale) SiO2 
 PCOD8148286
Probable space group: C 2/C
;
_chemical_formula_sum "Si O2"
_cell_formula_units_Z 48
_cell_length_a 22.043191
_cell_length_b 7.546861
_cell_length_c 19.584446
_cell_angle_alpha 90.000000
_cell_angle_beta 41.558201
_cell_angle_gamma 90.000000
_cell_volume 2161.298757
_symmetry_space_group_name_H-M "C 2/C"
_symmetry_group_IT_number 15
_symmetry_cell_setting 'monoclinic'
loop_
_space_group_symop_operation_xyz
x,y,z
-x,y,1/2-z
-x,-y,-z
x,-y,1/2+z
1/2+x,1/2+y,z
1/2-x,1/2+y,1/2-z
1/2-x,1/2-y,-z
1/2+x,1/2-y,1/2+z
loop_
_atom_site_type_symbol
_atom_site_label
_atom_site_fract_x
_atom_site_fract_y
_atom_site_fract_z
Si Si1 0.550152 0.393766 0.640435
Si Si2 0.610549 0.969833 0.021439
Si Si3 0.971876 0.185223 0.941187
Si Si4 0.729893 0.557383 0.357501
Si Si5 0.245227 0.958817 0.493490
Si Si6 0.847765 0.722934 0.143252
O O1 0.500000 0.329534 0.750000
O O2 0.572534 0.218308 0.578875
O O3 0.495359 0.532199 0.639177
O O4 0.638627 0.506174 0.590125
O O5 0.692696 0.046397 0.999990
O O6 0.531699 0.118725 0.089983
O O7 0.645672 0.943206 0.914240
O O8 0.050822 0.193247 0.931945
O O9 0.870304 0.148952 0.056565
O O10 0.776152 0.527541 0.392847
O O11 0.802880 0.667765 0.252636
O O12 0.718894 0.364848 0.334288
O O13 0.250000 0.750000 0.500000
#
# Coordination Sequence:
#
# PCOD8148286 Si02
#       6
#     8   8   8   8   8   8
#     4  10  23  40  65  98 131 181 222 275 345 390
#     4  11  23  44  68  95 137 178 225 281 334 402
#     4  11  25  44  65 100 142 172 226 284 330 410
#     4  11  24  43  70 100 134 183 226 275 346 398
#     4   9  19  43  65  91 134 172 227 275 323 402
#     4  12  24  44  68 103 137 179 226 280 343 404
#
# _framework density 22.208867999999999
#
# number of rings (size 3 to 8) (size 9 to 14) (size 15 to 20)
#    0.000    1.333    5.000    2.000    0.000   10.000 
#    0.000    0.000    0.000    0.000    0.000    0.000 
#    0.000    0.000    0.000    0.000    0.000    0.000 
#
# Total GULP energy -297487.933985 kJ/mol
# GULP energy per Si atom -12395.330583 kJ/mol
# Density = 2.215832 g / cm^3
# Si number density = 22.208868 Si / 1000 Ang^3
#
#
#
# Elastic Constant Matrix: (Units=GPa)
#
#
# Indices 1 2 3 4 5 6 
#
# 1 120.6916 16.0883 26.5775 -0.0127 20.0625 0.0072
# 2 16.0883 80.9474 17.6789 -0.0258 4.4740 0.0196
# 3 26.5775 17.6789 121.1479 -0.0128 21.2402 0.0109
# 4 -0.0127 -0.0258 -0.0128 25.6665 0.0050 0.5754
# 5 20.0625 4.4740 21.2402 0.0050 23.8652 -0.0029
# 6 0.0072 0.0196 0.0109 0.5754 -0.0029 17.9493
#
#
#
# Elastic Compliance Matrix: (Units=1/GPa)
#
#
# Indices 1 2 3 4 5 6 
#
# 1 0.009853 -0.001405 -0.000652 0.000005 -0.007439 -0.000003
# 2 -0.001405 0.012976 -0.001618 0.000012 0.000189 -0.000013
# 3 -0.000652 -0.001618 0.010053 0.000005 -0.008095 -0.000006
# 4 0.000005 0.000012 0.000005 0.038989 -0.000019 -0.001250
# 5 -0.007439 0.000189 -0.008095 -0.000019 0.055325 0.000017
# 6 -0.000003 -0.000013 -0.000006 -0.001250 0.000017 0.055753
#
#
# Mechanical properties :
#
#
# Convention : Reuss Voigt Hill
#
# Bulk Modulus (GPa) = 39.16800 49.27517 44.22159
# Shear Modulus (GPa) = 25.14956 30.99235 28.07096
#
# Velocity S-wave (km/s) = 3.36878 3.73968 3.55907
# Velocity P-wave (km/s) = 5.72766 6.39393 6.06994
#
# Compressibility (1/GPa) = 0.02553104
#
# Stress axis : x y z
#
# Youngs Moduli (GPa) = 101.49098 77.06579 99.47296
#
# Poissons Ratio (x) = 0.10825 0.06489
# Poissons Ratio (y) = 0.14256 0.16100
# Poissons Ratio (z) = 0.06621 0.12473
#
# Static dielectric constant tensor:
#      x y z
#    x 4.652550 -0.000020 0.168520 
#    y -0.000020 3.986540 0.000030 
#    z 0.168520 0.000030 3.882850 
# 
# 
# High freq. dielectric constant tensor:
#      x y z
#    x 1.883820 0.000000 0.011950 
#    y 0.000000 1.881850 0.000000 
#    z 0.011950 0.000000 1.852140 
# 
# From -- ./inp_files/213749.got.cif
#   From: 2010.06.25/outbox.cif.g09.slc.cpg/sg15_107_cif.got.tgz:213749.got - 2010.06.28 07:06:18.
