data_PCOD8148822
_publ_section_title
;
Structure prediction by ZEFSAII (Michael W. Deem and Ramdas Pophale) SiO2 
 PCOD8148822
Probable space group: C 2/C
;
_chemical_formula_sum "Si O2"
_cell_formula_units_Z 48
_cell_length_a 10.370826
_cell_length_b 9.597719
_cell_length_c 24.245186
_cell_angle_alpha 90.000000
_cell_angle_beta 98.533976
_cell_angle_gamma 90.000000
_cell_volume 2386.555780
_symmetry_space_group_name_H-M "C 2/C"
_symmetry_group_IT_number 15
_symmetry_cell_setting 'monoclinic'
loop_
_space_group_symop_operation_xyz
x,y,z
-x,y,1/2-z
-x,-y,-z
x,-y,1/2+z
1/2+x,1/2+y,z
1/2-x,1/2+y,1/2-z
1/2-x,1/2-y,-z
1/2+x,1/2-y,1/2+z
loop_
_atom_site_type_symbol
_atom_site_label
_atom_site_fract_x
_atom_site_fract_y
_atom_site_fract_z
Si Si1 0.382004 0.410324 0.468066
Si Si2 0.128311 0.413863 0.520664
Si Si3 0.704742 0.891003 0.643915
Si Si4 0.256299 0.406565 0.349260
Si Si5 0.141575 0.909133 0.267169
Si Si6 0.552012 0.880824 0.808551
O O1 0.500000 0.500000 0.500000
O O2 0.242091 0.451741 0.484835
O O3 0.410232 0.248836 0.482598
O O4 0.370289 0.439860 0.401311
O O5 0.181319 0.461630 0.583622
O O6 0.000000 0.500000 0.500000
O O7 0.793079 0.751747 0.641929
O O8 0.568364 0.835514 0.660839
O O9 0.771841 0.002086 0.686647
O O10 0.296556 0.413421 0.288682
O O11 0.139768 0.515991 0.350400
O O12 0.131187 0.754673 0.292409
O O13 0.000000 0.977555 0.250000
O O14 0.500000 0.958967 0.750000
#
# Coordination Sequence:
#
# PCOD8148822 Si02
#       6
#     8   8   8   8   8   8
#     4  10  24  41  62  89 121 156 203 251 295 349
#     4  10  23  43  62  88 120 158 204 247 295 353
#     4  11  23  40  62  86 120 156 193 245 292 350
#     4  11  21  40  61  85 121 155 190 246 294 345
#     4  11  22  38  59  89 120 152 194 238 294 355
#     4  11  21  39  58  87 122 150 194 239 290 354
#
# _framework density 20.112665
#
# number of rings (size 3 to 8) (size 9 to 14) (size 15 to 20)
#    0.000    1.333    5.000    1.000    2.333    2.667 
#    3.000    0.000    0.000    0.000    0.000    0.000 
#    0.000    0.000    0.000    0.000    0.000    0.000 
#
# Total GULP energy -297502.129496 kJ/mol
# GULP energy per Si atom -12395.922062 kJ/mol
# Density = 2.006689 g / cm^3
# Si number density = 20.112665 Si / 1000 Ang^3
#
#
#
# Elastic Constant Matrix: (Units=GPa)
#
#
# Indices 1 2 3 4 5 6 
#
# 1 95.0354 66.9685 40.9541 0.0000 15.3438 0.0000
# 2 66.9685 106.7972 71.3048 0.0000 25.9531 0.0000
# 3 40.9541 71.3048 152.1222 0.0000 19.6062 0.0000
# 4 0.0000 0.0000 0.0000 33.2460 0.0000 9.1807
# 5 15.3438 25.9531 19.6062 0.0000 32.7842 0.0000
# 6 0.0000 0.0000 0.0000 9.1807 0.0000 28.1785
#
#
#
# Elastic Compliance Matrix: (Units=1/GPa)
#
#
# Indices 1 2 3 4 5 6 
#
# 1 0.018911 -0.012451 0.000667 0.000000 0.000607 0.000000
# 2 -0.012451 0.023802 -0.006639 0.000000 -0.009044 0.000000
# 3 0.000667 -0.006639 0.009610 0.000000 -0.000803 0.000000
# 4 0.000000 0.000000 0.000000 0.033053 0.000000 -0.010769
# 5 0.000607 -0.009044 -0.000803 0.000000 0.037859 0.000000
# 6 0.000000 0.000000 0.000000 -0.010769 0.000000 0.038997
#
#
# Mechanical properties :
#
#
# Convention : Reuss Voigt Hill
#
# Bulk Modulus (GPa) = 64.61694 79.15663 71.88678
# Shear Modulus (GPa) = 24.48164 30.49021 27.48592
#
# Velocity S-wave (km/s) = 3.49266 3.89777 3.70076
# Velocity P-wave (km/s) = 6.96147 7.72650 7.35394
#
# Compressibility (1/GPa) = 0.01547582
#
# Stress axis : x y z
#
# Youngs Moduli (GPa) = 52.87958 42.01399 104.06321
#
# Poissons Ratio (x) = 0.52312 -0.06939
# Poissons Ratio (y) = 0.65841 0.69086
# Poissons Ratio (z) = -0.03526 0.27892
#
# Static dielectric constant tensor:
#      x y z
#    x 2.866810 0.000000 -0.935420 
#    y 0.000000 3.678550 0.000000 
#    z -0.935420 0.000000 3.021200 
# 
# 
# High freq. dielectric constant tensor:
#      x y z
#    x 1.773890 0.000000 -0.005980 
#    y 0.000000 1.776750 0.000000 
#    z -0.005980 0.000000 1.808210 
# 
# From -- ./inp_files/267641.got.cif
#   From: 2010.06.25/outbox.cif.g09.slc.cpg/sg15_134_cif.got.tgz:267641.got - 2010.06.28 07:06:18.
