data_PCOD8148115
_publ_section_title
;
Structure prediction by ZEFSAII (Michael W. Deem and Ramdas Pophale) SiO2 
 PCOD8148115
Probable space group: C 2/C
;
_chemical_formula_sum "Si O2"
_cell_formula_units_Z 56
_cell_length_a 8.054492
_cell_length_b 18.688085
_cell_length_c 21.024701
_cell_angle_alpha 90.000000
_cell_angle_beta 50.432433
_cell_angle_gamma 90.000000
_cell_volume 2439.586090
_symmetry_space_group_name_H-M "C 2/C"
_symmetry_group_IT_number 15
_symmetry_cell_setting 'monoclinic'
loop_
_space_group_symop_operation_xyz
x,y,z
-x,y,1/2-z
-x,-y,-z
x,-y,1/2+z
1/2+x,1/2+y,z
1/2-x,1/2+y,1/2-z
1/2-x,1/2-y,-z
1/2+x,1/2-y,1/2+z
loop_
_atom_site_type_symbol
_atom_site_label
_atom_site_fract_x
_atom_site_fract_y
_atom_site_fract_z
Si Si1 0.139126 0.991965 0.569472
Si Si2 0.737925 0.044026 0.589803
Si Si3 0.500000 0.024230 0.250000
Si Si4 0.136982 0.132711 0.651307
Si Si5 0.625537 0.306215 0.398911
Si Si6 0.007683 0.252747 0.448639
Si Si7 0.500000 0.278257 0.750000
Si Si8 0.113233 0.869951 0.831815
O O1 0.314953 0.982602 0.469763
O O2 0.110082 0.916521 0.613796
O O3 0.189224 0.055918 0.606244
O O4 0.921736 0.999353 0.581123
O O5 0.810761 0.125966 0.573530
O O6 0.522836 0.028447 0.683261
O O7 0.697938 0.074371 0.213531
O O8 0.364819 0.174840 0.604881
O O9 0.000000 0.123582 0.750000
O O10 0.987737 0.177211 0.639876
O O11 0.468888 0.256969 0.480566
O O12 0.851568 0.268205 0.331853
O O13 0.750000 0.250000 0.500000
O O14 0.123148 0.185559 0.387458
O O15 0.645863 0.327208 0.758971
#
# Coordination Sequence:
#
# PCOD8148115 Si02
#       8
#     8   8   4   8   8   8   4   8
#     4   9  20  41  67  94 134 176 223 292 348 424
#     4   9  18  40  66  99 125 171 228 283 351 419
#     4  10  23  38  72  97 128 174 236 294 344 427
#     4  11  26  44  71 106 140 186 248 297 356 437
#     4  11  23  43  72 100 136 188 235 291 363 435
#     4  12  25  47  68 100 146 188 236 301 370 432
#     4  12  25  38  64  99 140 174 226 290 360 409
#     4  11  24  43  65  97 140 182 229 299 356 431
#
# _framework density 22.954713999999999
#
# number of rings (size 3 to 8) (size 9 to 14) (size 15 to 20)
#    0.000    1.429    2.857    1.714    6.000    1.143 
#    0.000    0.714    0.000    0.000    0.000    0.000 
#    0.000    0.000    0.000    0.000    0.000    0.000 
#
# Total GULP energy -346951.026947 kJ/mol
# GULP energy per Si atom -12391.108105 kJ/mol
# Density = 2.290247 g / cm^3
# Si number density = 22.954714 Si / 1000 Ang^3
#
#
#
# Elastic Constant Matrix: (Units=GPa)
#
#
# Indices 1 2 3 4 5 6 
#
# 1 57.2768 18.1711 30.0794 -0.0004 6.1078 0.0002
# 2 18.1711 84.3482 41.2217 0.0000 4.4573 -0.0002
# 3 30.0794 41.2217 171.7335 0.0002 18.8614 0.0000
# 4 -0.0004 0.0000 0.0002 54.0372 0.0001 -0.1456
# 5 6.1078 4.4573 18.8614 0.0001 30.1827 -0.0002
# 6 0.0002 -0.0002 0.0000 -0.1456 -0.0002 24.1930
#
#
#
# Elastic Compliance Matrix: (Units=1/GPa)
#
#
# Indices 1 2 3 4 5 6 
#
# 1 0.019954 -0.002937 -0.002571 0.000000 -0.001998 0.000000
# 2 -0.002937 0.013863 -0.002849 0.000000 0.000328 0.000000
# 3 -0.002571 -0.002849 0.007359 0.000000 -0.003658 0.000000
# 4 0.000000 0.000000 0.000000 0.018506 0.000000 0.000111
# 5 -0.001998 0.000328 -0.003658 0.000000 0.035773 0.000000
# 6 0.000000 0.000000 0.000000 0.000111 0.000000 0.041335
#
#
# Mechanical properties :
#
#
# Convention : Reuss Voigt Hill
#
# Bulk Modulus (GPa) = 40.87845 54.70031 47.78938
# Shear Modulus (GPa) = 30.92951 36.60832 33.76892
#
# Velocity S-wave (km/s) = 3.67470 3.99784 3.83967
# Velocity P-wave (km/s) = 5.98761 6.72247 6.36566
#
# Compressibility (1/GPa) = 0.02446277
#
# Stress axis : x y z
#
# Youngs Moduli (GPa) = 50.11580 72.13218 135.89069
#
# Poissons Ratio (x) = 0.21184 0.34932
# Poissons Ratio (y) = 0.14718 0.38719
# Poissons Ratio (z) = 0.12883 0.20552
#
# Static dielectric constant tensor:
#      x y z
#    x 3.641990 0.000000 0.354470 
#    y 0.000000 4.353100 0.000000 
#    z 0.354470 0.000000 4.465440 
# 
# 
# High freq. dielectric constant tensor:
#      x y z
#    x 1.870990 0.000000 0.011890 
#    y 0.000000 1.917920 0.000000 
#    z 0.011890 0.000000 1.932370 
# 
# From -- ./inp_files/233791.got.cif
#   From: 2010.06.25/outbox.cif.g09.slc.cpg/sg15_117_cif.got.tgz:233791.got - 2010.06.28 07:06:18.
