data_PCOD8148475
_publ_section_title
;
Structure prediction by ZEFSAII (Michael W. Deem and Ramdas Pophale) SiO2 
 PCOD8148475
Probable space group: C 2/C
;
_chemical_formula_sum "Si O2"
_cell_formula_units_Z 56
_cell_length_a 19.876043
_cell_length_b 8.273224
_cell_length_c 18.372226
_cell_angle_alpha 90.000000
_cell_angle_beta 52.074880
_cell_angle_gamma 90.000000
_cell_volume 2383.095682
_symmetry_space_group_name_H-M "C 2/C"
_symmetry_group_IT_number 15
_symmetry_cell_setting 'monoclinic'
loop_
_space_group_symop_operation_xyz
x,y,z
-x,y,1/2-z
-x,-y,-z
x,-y,1/2+z
1/2+x,1/2+y,z
1/2-x,1/2+y,1/2-z
1/2-x,1/2-y,-z
1/2+x,1/2-y,1/2+z
loop_
_atom_site_type_symbol
_atom_site_label
_atom_site_fract_x
_atom_site_fract_y
_atom_site_fract_z
Si Si1 0.710140 0.601811 0.073138
Si Si2 0.554988 0.401798 0.146956
Si Si3 0.339782 0.098845 0.419666
Si Si4 0.012843 0.362551 0.158977
Si Si5 0.219672 0.186844 0.233344
Si Si6 0.042145 0.928714 0.899563
Si Si7 0.843420 0.537876 0.253493
O O1 0.609164 0.569414 0.124595
O O2 0.722829 0.616156 0.150398
O O3 0.750000 0.750000 0.000000
O O4 0.752959 0.431173 0.021583
O O5 0.500000 0.336330 0.250000
O O6 0.616383 0.259323 0.079399
O O7 0.479353 0.427609 0.140741
O O8 0.394410 0.939914 0.403776
O O9 0.317888 0.107648 0.348938
O O10 0.004957 0.231250 0.100192
O O11 0.944535 0.505216 0.186739
O O12 0.000000 0.292004 0.250000
O O13 0.143777 0.105043 0.332610
O O14 0.206844 0.375549 0.232528
O O15 0.310279 0.162983 0.214040
O O16 0.000000 0.000000 0.000000
#
# Coordination Sequence:
#
# PCOD8148475 Si02
#       7
#     8   8   8   8   8   8   8
#     4  12  25  46  71 105 141 193 243 291 354 434
#     4  12  25  45  72 103 141 186 243 294 354 426
#     4  11  24  43  72 103 138 184 245 295 351 431
#     4   9  20  44  69  96 139 191 240 287 353 435
#     4  11  25  43  67 102 144 189 232 300 367 417
#     4  11  25  42  69 102 140 184 239 297 359 427
#     4  10  23  41  67 101 141 185 235 291 361 420
#
# _framework density 23.498847999999999
#
# number of rings (size 3 to 8) (size 9 to 14) (size 15 to 20)
#    0.000    1.143    2.857    3.000    6.000    4.571 
#    0.000    1.429    0.000    0.000    0.000    0.000 
#    0.000    0.000    0.000    0.000    0.000    0.000 
#
# Total GULP energy -346995.367263 kJ/mol
# GULP energy per Si atom -12392.691688 kJ/mol
# Density = 2.344536 g / cm^3
# Si number density = 23.498848 Si / 1000 Ang^3
#
#
#
# Elastic Constant Matrix: (Units=GPa)
#
#
# Indices 1 2 3 4 5 6 
#
# 1 98.7123 -2.8246 8.2853 -0.0005 7.2906 0.0008
# 2 -2.8246 49.2536 -3.2206 -0.0010 -2.8640 0.0017
# 3 8.2853 -3.2206 72.4269 -0.0005 0.6731 0.0008
# 4 -0.0005 -0.0010 -0.0005 35.3441 0.0001 -0.5783
# 5 7.2906 -2.8640 0.6731 0.0001 33.5779 -0.0002
# 6 0.0008 0.0017 0.0008 -0.5783 -0.0002 41.0372
#
#
#
# Elastic Compliance Matrix: (Units=1/GPa)
#
#
# Indices 1 2 3 4 5 6 
#
# 1 0.010401 0.000393 -0.001152 0.000000 -0.002202 0.000000
# 2 0.000393 0.020477 0.000850 0.000001 0.001644 -0.000001
# 3 -0.001152 0.000850 0.013976 0.000000 0.000042 0.000000
# 4 0.000000 0.000001 0.000000 0.028300 0.000000 0.000399
# 5 -0.002202 0.001644 0.000042 0.000000 0.030399 0.000000
# 6 0.000000 -0.000001 0.000000 0.000399 0.000000 0.024374
#
#
# Mechanical properties :
#
#
# Convention : Reuss Voigt Hill
#
# Bulk Modulus (GPa) = 22.20390 24.98588 23.59489
# Shear Modulus (GPa) = 35.02486 36.53536 35.78011
#
# Velocity S-wave (km/s) = 3.86488 3.94734 3.90633
# Velocity P-wave (km/s) = 5.42087 5.60635 5.51439
#
# Compressibility (1/GPa) = 0.04503713
#
# Stress axis : x y z
#
# Youngs Moduli (GPa) = 96.14467 48.83571 71.55012
#
# Poissons Ratio (x) = -0.01920 0.08242
# Poissons Ratio (y) = -0.03780 -0.06084
# Poissons Ratio (z) = 0.11075 -0.04153
#
# Static dielectric constant tensor:
#      x y z
#    x 4.522030 0.000000 -0.289840 
#    y 0.000000 4.201620 0.000000 
#    z -0.289840 0.000000 3.897910 
# 
# 
# High freq. dielectric constant tensor:
#      x y z
#    x 1.945640 0.000000 -0.010810 
#    y 0.000000 1.938660 0.000000 
#    z -0.010810 0.000000 1.913310 
# 
# From -- ./inp_files/213786.got.cif
#   From: 2010.06.25/outbox.cif.g09.slc.cpg/sg15_107_cif.got.tgz:213786.got - 2010.06.28 07:06:18.
