data_PCOD8148112
_publ_section_title
;
Structure prediction by ZEFSAII (Michael W. Deem and Ramdas Pophale) SiO2 
 PCOD8148112
Probable space group: C 2/C
;
_chemical_formula_sum "Si O2"
_cell_formula_units_Z 56
_cell_length_a 11.952275
_cell_length_b 29.828715
_cell_length_c 14.330119
_cell_angle_alpha 90.000000
_cell_angle_beta 29.780450
_cell_angle_gamma 90.000000
_cell_volume 2537.521335
_symmetry_space_group_name_H-M "C 2/C"
_symmetry_group_IT_number 15
_symmetry_cell_setting 'monoclinic'
loop_
_space_group_symop_operation_xyz
x,y,z
-x,y,1/2-z
-x,-y,-z
x,-y,1/2+z
1/2+x,1/2+y,z
1/2-x,1/2+y,1/2-z
1/2-x,1/2-y,-z
1/2+x,1/2-y,1/2+z
loop_
_atom_site_type_symbol
_atom_site_label
_atom_site_fract_x
_atom_site_fract_y
_atom_site_fract_z
Si Si1 0.880653 0.298313 0.593455
Si Si2 0.620853 0.068085 0.895086
Si Si3 0.071925 0.195347 0.973375
Si Si4 0.764659 0.149069 0.471929
Si Si5 0.186490 0.841477 0.192504
Si Si6 0.274074 0.060808 0.886658
Si Si7 0.648583 0.474941 0.733617
O O1 0.679781 0.312638 0.806487
O O2 0.906186 0.329657 0.480934
O O3 0.853632 0.246537 0.589238
O O4 0.117902 0.305685 0.473529
O O5 0.702807 0.109160 0.898683
O O6 0.695644 0.081113 0.737156
O O7 0.747676 0.023969 0.839006
O O8 0.349620 0.061436 0.098335
O O9 0.245640 0.176685 0.924461
O O10 0.081244 0.168483 0.870008
O O11 0.718677 0.098151 0.536290
O O12 0.000000 0.153425 0.250000
O O13 0.000000 0.835158 0.250000
O O14 0.500000 0.031020 0.750000
O O15 0.040669 0.033124 0.049803
O O16 0.500000 0.467082 0.750000
#
# Coordination Sequence:
#
# PCOD8148112 Si02
#       7
#     8   8   8   8   8   8   8
#     4  11  24  43  66 102 134 180 227 284 353 408
#     4  11  25  45  68  96 136 180 227 286 344 408
#     4  11  23  44  67 100 138 175 230 288 346 416
#     4  10  23  38  68 103 142 175 218 286 349 418
#     4  12  27  46  68  94 135 189 238 285 341 412
#     4  12  22  38  66 101 137 178 221 272 354 414
#     4  11  24  43  69 101 133 174 229 286 341 417
#
# _framework density 22.068778999999999
#
# number of rings (size 3 to 8) (size 9 to 14) (size 15 to 20)
#    0.000    0.857    4.286    2.571    4.000    1.143 
#    0.000    0.000    0.000    0.000    0.000    0.000 
#    0.000    0.000    0.000    0.000    0.000    0.000 
#
# Total GULP energy -347033.791348 kJ/mol
# GULP energy per Si atom -12394.063977 kJ/mol
# Density = 2.201855 g / cm^3
# Si number density = 22.068779 Si / 1000 Ang^3
#
#
#
# Elastic Constant Matrix: (Units=GPa)
#
#
# Indices 1 2 3 4 5 6 
#
# 1 108.3278 24.8007 39.8744 -0.0001 -18.9057 0.0001
# 2 24.8007 63.6505 34.4295 -0.0001 -7.7481 0.0000
# 3 39.8744 34.4295 108.9409 0.0000 -12.7943 0.0000
# 4 -0.0001 -0.0001 0.0000 15.9397 0.0000 9.5046
# 5 -18.9057 -7.7481 -12.7943 0.0000 38.2642 -0.0001
# 6 0.0001 0.0000 0.0000 9.5046 -0.0001 20.9723
#
#
#
# Elastic Compliance Matrix: (Units=1/GPa)
#
#
# Indices 1 2 3 4 5 6 
#
# 1 0.011625 -0.002389 -0.003000 0.000000 0.004257 0.000000
# 2 -0.002389 0.019576 -0.005189 0.000000 0.001049 0.000000
# 3 -0.003000 -0.005189 0.012095 0.000000 0.001511 0.000000
# 4 0.000000 0.000000 0.000000 0.085968 0.000000 -0.038960
# 5 0.004257 0.001049 0.001511 0.000000 0.028955 0.000000
# 6 0.000000 0.000000 0.000000 -0.038960 0.000000 0.065339
#
#
# Mechanical properties :
#
#
# Convention : Reuss Voigt Hill
#
# Bulk Modulus (GPa) = 45.16715 53.23649 49.20182
# Shear Modulus (GPa) = 19.83383 27.15623 23.49503
#
# Velocity S-wave (km/s) = 3.00113 3.51169 3.26640
# Velocity P-wave (km/s) = 5.70263 6.37323 6.04723
#
# Compressibility (1/GPa) = 0.02213998
#
# Stress axis : x y z
#
# Youngs Moduli (GPa) = 86.01842 51.08258 82.67916
#
# Poissons Ratio (x) = 0.12202 0.24806
# Poissons Ratio (y) = 0.20546 0.42905
# Poissons Ratio (z) = 0.25808 0.26509
#
# Static dielectric constant tensor:
#      x y z
#    x 3.928900 0.000000 -0.132880 
#    y 0.000000 3.828560 0.000000 
#    z -0.132880 0.000000 4.667910 
# 
# 
# High freq. dielectric constant tensor:
#      x y z
#    x 1.856050 0.000000 -0.008730 
#    y 0.000000 1.862280 0.000000 
#    z -0.008730 0.000000 1.894070 
# 
# From -- ./inp_files/149244.got.cif
#   From: 2010.06.25/outbox.cif.g09.slc.cpg/sg15_75_cif.got.tgz:149244.got - 2010.06.28 07:06:18.
