data_PCOD8148573
_publ_section_title
;
Structure prediction by ZEFSAII (Michael W. Deem and Ramdas Pophale) SiO2 
 PCOD8148573
Probable space group: C 2/C
;
_chemical_formula_sum "Si O2"
_cell_formula_units_Z 52
_cell_length_a 11.597336
_cell_length_b 22.713435
_cell_length_c 11.033626
_cell_angle_alpha 90.000000
_cell_angle_beta 69.716614
_cell_angle_gamma 90.000000
_cell_volume 2726.197354
_symmetry_space_group_name_H-M "C 2/C"
_symmetry_group_IT_number 15
_symmetry_cell_setting 'monoclinic'
loop_
_space_group_symop_operation_xyz
x,y,z
-x,y,1/2-z
-x,-y,-z
x,-y,1/2+z
1/2+x,1/2+y,z
1/2-x,1/2+y,1/2-z
1/2-x,1/2-y,-z
1/2+x,1/2-y,1/2+z
loop_
_atom_site_type_symbol
_atom_site_label
_atom_site_fract_x
_atom_site_fract_y
_atom_site_fract_z
Si Si1 0.381400 0.737983 0.508381
Si Si2 0.000000 0.828303 0.750000
Si Si3 0.225163 0.393656 0.475748
Si Si4 0.121795 0.848383 0.274450
Si Si5 0.634370 0.523811 0.735531
Si Si6 0.217655 0.901906 0.777641
Si Si7 0.531601 0.848422 0.873928
O O1 0.250000 0.750000 0.500000
O O2 0.473713 0.712876 0.374574
O O3 0.350276 0.690561 0.621443
O O4 0.446875 0.794139 0.543887
O O5 0.883759 0.869092 0.764765
O O6 0.268659 0.343216 0.364906
O O7 0.277544 0.457122 0.410345
O O8 0.286666 0.379508 0.582888
O O9 0.077718 0.390460 0.537461
O O10 0.111399 0.916826 0.323830
O O11 0.000000 0.827703 0.250000
O O12 0.500000 0.499141 0.750000
O O13 0.701433 0.472415 0.784407
O O14 0.348637 0.888965 0.669727
O O15 0.500000 0.824774 0.750000
#
# Coordination Sequence:
#
# PCOD8148573 Si02
#       7
#     8   4   8   8   8   8   8
#     4  12  25  42  61  92 129 163 212 259 316 364
#     4  12  26  36  62  94 128 162 200 274 314 362
#     4   9  21  39  65  85 123 167 205 253 307 375
#     4   9  20  42  62  91 116 164 210 250 307 376
#     4   9  20  37  64  93 123 161 204 263 312 368
#     4  11  21  40  60  97 122 163 214 257 316 370
#     4  10  23  42  63  87 126 169 214 256 307 385
#
# _framework density 19.074187999999999
#
# number of rings (size 3 to 8) (size 9 to 14) (size 15 to 20)
#    0.923    0.923    2.308    1.385    2.154    2.462 
#    0.000    3.846    0.000    0.000    0.000    0.000 
#    0.000    0.000    0.000    0.000    0.000    0.000 
#
# Total GULP energy -322217.145851 kJ/mol
# GULP energy per Si atom -12392.967148 kJ/mol
# Density = 1.903077 g / cm^3
# Si number density = 19.074188 Si / 1000 Ang^3
#
#
#
# Elastic Constant Matrix: (Units=GPa)
#
#
# Indices 1 2 3 4 5 6 
#
# 1 139.3853 52.4393 58.3719 0.0000 -7.3866 0.0000
# 2 52.4393 91.5432 46.5468 0.0000 7.6869 0.0000
# 3 58.3719 46.5468 127.3389 0.0000 -7.9128 0.0000
# 4 0.0000 0.0000 0.0000 26.2174 0.0000 3.2059
# 5 -7.3866 7.6869 -7.9128 0.0000 32.0596 0.0000
# 6 0.0000 0.0000 0.0000 3.2059 0.0000 25.3200
#
#
#
# Elastic Compliance Matrix: (Units=1/GPa)
#
#
# Indices 1 2 3 4 5 6 
#
# 1 0.010264 -0.004680 -0.002821 0.000000 0.002791 0.000000
# 2 -0.004680 0.016221 -0.004157 0.000000 -0.005994 0.000000
# 3 -0.002821 -0.004157 0.010854 0.000000 0.003026 0.000000
# 4 0.000000 0.000000 0.000000 0.038742 0.000000 -0.004905
# 5 0.002791 -0.005994 0.003026 0.000000 0.034019 0.000000
# 6 0.000000 0.000000 0.000000 -0.004905 0.000000 0.040116
#
#
# Mechanical properties :
#
#
# Convention : Reuss Voigt Hill
#
# Bulk Modulus (GPa) = 71.30511 74.77595 73.04053
# Shear Modulus (GPa) = 28.05747 30.11337 29.08542
#
# Velocity S-wave (km/s) = 3.83948 3.97766 3.90918
# Velocity P-wave (km/s) = 7.55775 7.77068 7.66496
#
# Compressibility (1/GPa) = 0.01402424
#
# Stress axis : x y z
#
# Youngs Moduli (GPa) = 97.42574 61.64730 92.13436
#
# Poissons Ratio (x) = 0.28848 0.25992
# Poissons Ratio (y) = 0.45591 0.38298
# Poissons Ratio (z) = 0.27485 0.25625
#
# Static dielectric constant tensor:
#      x y z
#    x 3.517500 0.000000 -0.040510 
#    y 0.000000 3.325890 0.000000 
#    z -0.040510 0.000000 3.564090 
# 
# 
# High freq. dielectric constant tensor:
#      x y z
#    x 1.746860 0.000000 -0.007980 
#    y 0.000000 1.729160 0.000000 
#    z -0.007980 0.000000 1.742190 
# 
# From -- ./inp_files/90296.got.cif
#   From: 2010.06.25/outbox.cif.g09.slc.cpg/sg15_46_cif.got.tgz:90296.got - 2010.06.28 07:06:18.
