data_PCOD8148840
_publ_section_title
;
Structure prediction by ZEFSAII (Michael W. Deem and Ramdas Pophale) SiO2 
 PCOD8148840
Probable space group: C 2/C
;
_chemical_formula_sum "Si O2"
_cell_formula_units_Z 52
_cell_length_a 11.867009
_cell_length_b 14.594550
_cell_length_c 15.347103
_cell_angle_alpha 90.000000
_cell_angle_beta 63.528659
_cell_angle_gamma 90.000000
_cell_volume 2379.347154
_symmetry_space_group_name_H-M "C 2/C"
_symmetry_group_IT_number 15
_symmetry_cell_setting 'monoclinic'
loop_
_space_group_symop_operation_xyz
x,y,z
-x,y,1/2-z
-x,-y,-z
x,-y,1/2+z
1/2+x,1/2+y,z
1/2-x,1/2+y,1/2-z
1/2-x,1/2-y,-z
1/2+x,1/2-y,1/2+z
loop_
_atom_site_type_symbol
_atom_site_label
_atom_site_fract_x
_atom_site_fract_y
_atom_site_fract_z
Si Si1 0.839960 0.367332 0.512383
Si Si2 0.500000 0.954084 0.750000
Si Si3 0.635983 0.751763 0.170710
Si Si4 0.255142 0.939652 0.064470
Si Si5 0.782249 0.418539 0.257109
Si Si6 0.544350 0.826820 0.572912
Si Si7 0.492808 0.371694 0.152259
O O1 0.729327 0.331497 0.615688
O O2 0.864292 0.313530 0.415387
O O3 0.808997 0.471297 0.497249
O O4 0.970469 0.367117 0.516655
O O5 0.506823 0.885560 0.668266
O O6 0.625417 0.016741 0.718134
O O7 0.500000 0.713864 0.250000
O O8 0.684893 0.812274 0.234964
O O9 0.295279 0.941931 0.151577
O O10 0.106463 0.941854 0.098045
O O11 0.309861 0.847429 0.000581
O O12 0.633458 0.425880 0.332984
O O13 0.512215 0.720068 0.589851
O O14 0.500000 0.339933 0.250000
#
# Coordination Sequence:
#
# PCOD8148840 Si02
#       7
#     8   4   8   8   8   8   8
#     4  11  24  43  65 102 133 173 227 277 323 401
#     4  12  24  38  68  96 124 168 220 266 320 384
#     4  11  23  41  69  95 136 176 222 273 337 388
#     4  11  24  41  68  95 131 173 218 273 332 389
#     4  11  22  41  65  94 129 171 217 271 323 393
#     4  12  22  42  65  97 127 169 220 268 325 396
#     4  10  23  43  64  90 135 171 210 268 333 389
#
# _framework density 21.854735000000002
#
# number of rings (size 3 to 8) (size 9 to 14) (size 15 to 20)
#    0.000    0.923    4.615    2.769    0.000    1.846 
#    0.000    3.077    0.000    0.000    0.000    0.000 
#    0.000    0.000    0.000    0.000    0.000    0.000 
#
# Total GULP energy -322279.665018 kJ/mol
# GULP energy per Si atom -12395.371731 kJ/mol
# Density = 2.180499 g / cm^3
# Si number density = 21.854735 Si / 1000 Ang^3
#
#
#
# Elastic Constant Matrix: (Units=GPa)
#
#
# Indices 1 2 3 4 5 6 
#
# 1 125.0053 18.2569 20.8254 0.0000 -6.4326 0.0000
# 2 18.2569 66.1934 15.4401 0.0000 8.2805 0.0000
# 3 20.8254 15.4401 54.3044 0.0000 -17.2852 0.0000
# 4 0.0000 0.0000 0.0000 32.1240 0.0000 -1.9668
# 5 -6.4326 8.2805 -17.2852 0.0000 25.3012 0.0000
# 6 0.0000 0.0000 0.0000 -1.9668 0.0000 26.7496
#
#
#
# Elastic Compliance Matrix: (Units=1/GPa)
#
#
# Indices 1 2 3 4 5 6 
#
# 1 0.008756 -0.002016 -0.002385 0.000000 0.001257 0.000000
# 2 -0.002016 0.019329 -0.008816 0.000000 -0.012861 0.000000
# 3 -0.002385 -0.008816 0.028831 0.000000 0.021976 0.000000
# 4 0.000000 0.000000 0.000000 0.031270 0.000000 0.002299
# 5 0.001257 -0.012861 0.021976 0.000000 0.059066 0.000000
# 6 0.000000 0.000000 0.000000 0.002299 0.000000 0.037553
#
#
# Mechanical properties :
#
#
# Convention : Reuss Voigt Hill
#
# Bulk Modulus (GPa) = 32.80674 39.39421 36.10047
# Shear Modulus (GPa) = 22.58370 29.56701 26.07535
#
# Velocity S-wave (km/s) = 3.21807 3.68215 3.45791
# Velocity P-wave (km/s) = 5.37139 6.01184 5.70062
#
# Compressibility (1/GPa) = 0.03048154
#
# Stress axis : x y z
#
# Youngs Moduli (GPa) = 114.20686 51.73661 34.68520
#
# Poissons Ratio (x) = 0.10430 0.08271
# Poissons Ratio (y) = 0.23024 0.30580
# Poissons Ratio (z) = 0.27234 0.45613
#
# Static dielectric constant tensor:
#      x y z
#    x 5.096430 0.000000 0.835690 
#    y 0.000000 3.762440 0.000000 
#    z 0.835690 0.000000 5.082990 
# 
# 
# High freq. dielectric constant tensor:
#      x y z
#    x 1.872050 0.000000 -0.006740 
#    y 0.000000 1.846470 0.000000 
#    z -0.006740 0.000000 1.863410 
# 
# From -- ./inp_files/144181.got.cif
#   From: 2010.06.25/outbox.cif.g09.slc.cpg/sg15_73_cif.got.tgz:144181.got - 2010.06.28 07:06:18.
