data_PCOD8148213
_publ_section_title
;
Structure prediction by ZEFSAII (Michael W. Deem and Ramdas Pophale) SiO2 
 PCOD8148213
Probable space group: C 2/C
;
_chemical_formula_sum "Si O2"
_cell_formula_units_Z 40
_cell_length_a 11.840976
_cell_length_b 18.329743
_cell_length_c 9.159016
_cell_angle_alpha 90.000000
_cell_angle_beta 80.875770
_cell_angle_gamma 90.000000
_cell_volume 1962.738459
_symmetry_space_group_name_H-M "C 2/C"
_symmetry_group_IT_number 15
_symmetry_cell_setting 'monoclinic'
loop_
_space_group_symop_operation_xyz
x,y,z
-x,y,1/2-z
-x,-y,-z
x,-y,1/2+z
1/2+x,1/2+y,z
1/2-x,1/2+y,1/2-z
1/2-x,1/2-y,-z
1/2+x,1/2-y,1/2+z
loop_
_atom_site_type_symbol
_atom_site_label
_atom_site_fract_x
_atom_site_fract_y
_atom_site_fract_z
Si Si1 0.213897 0.429070 0.345487
Si Si2 0.917436 0.976557 0.890074
Si Si3 0.127078 0.559840 0.184060
Si Si4 0.240591 0.150521 0.117718
Si Si5 0.631832 0.197981 0.683660
O O1 0.344348 0.453666 0.349257
O O2 0.154580 0.478685 0.234052
O O3 0.141264 0.436577 0.508006
O O4 0.209388 0.346799 0.284155
O O5 0.834688 0.910103 0.953164
O O6 0.000000 0.945558 0.750000
O O7 0.000000 0.000000 0.000000
O O8 0.211733 0.616609 0.243484
O O9 0.000000 0.582970 0.250000
O O10 0.163594 0.217415 0.187524
O O11 0.342533 0.173114 0.987789
O O12 0.500000 0.185303 0.750000
#
# Coordination Sequence:
#
# PCOD8148213 Si02
#       5
#     8   8   8   8   8
#     4  11  22  36  60  89 114 149 199 238 288 354
#     4  11  21  38  60  84 116 153 192 241 290 337
#     4  11  21  38  60  86 117 149 192 246 291 338
#     4  10  23  40  59  87 118 153 198 236 288 357
#     4  11  22  40  61  84 119 157 190 238 296 346
#
# _framework density 20.37969
#
# number of rings (size 3 to 8) (size 9 to 14) (size 15 to 20)
#    0.000    1.200    0.000    9.000    0.000    0.800 
#    0.000    5.000    0.000    0.000    0.000    0.000 
#    0.000    0.000    0.000    0.000    0.000    0.000 
#
# Total GULP energy -248054.651809 kJ/mol
# GULP energy per Si atom -12402.732590 kJ/mol
# Density = 2.033330 g / cm^3
# Si number density = 20.379690 Si / 1000 Ang^3
#
#
#
# Elastic Constant Matrix: (Units=GPa)
#
#
# Indices 1 2 3 4 5 6 
#
# 1 105.2670 51.8048 13.3738 0.0000 -2.7188 0.0000
# 2 51.8048 125.4968 29.1107 0.0000 15.9087 0.0000
# 3 13.3738 29.1107 90.7625 0.0000 -2.5903 0.0000
# 4 0.0000 0.0000 0.0000 20.7077 0.0000 -3.9478
# 5 -2.7188 15.9087 -2.5903 0.0000 40.2837 0.0000
# 6 0.0000 0.0000 0.0000 -3.9478 0.0000 19.1617
#
#
#
# Elastic Compliance Matrix: (Units=1/GPa)
#
#
# Indices 1 2 3 4 5 6 
#
# 1 0.012251 -0.005440 0.000025 0.000000 0.002977 0.000000
# 2 -0.005440 0.011574 -0.003057 0.000000 -0.005135 0.000000
# 3 0.000025 -0.003057 0.012051 0.000000 0.001984 0.000000
# 4 0.000000 0.000000 0.000000 0.050265 0.000000 0.010356
# 5 0.002977 -0.005135 0.001984 0.000000 0.027180 0.000000
# 6 0.000000 0.000000 0.000000 0.010356 0.000000 0.054321
#
#
# Mechanical properties :
#
#
# Convention : Reuss Voigt Hill
#
# Bulk Modulus (GPa) = 52.82402 56.67833 54.75117
# Shear Modulus (GPa) = 26.19198 31.17974 28.68586
#
# Velocity S-wave (km/s) = 3.58886 3.91569 3.75583
# Velocity P-wave (km/s) = 6.56882 6.95090 6.76256
#
# Compressibility (1/GPa) = 0.01893078
#
# Stress axis : x y z
#
# Youngs Moduli (GPa) = 81.62836 86.40033 82.97873
#
# Poissons Ratio (x) = 0.47003 -0.00205
# Poissons Ratio (y) = 0.44407 0.25368
# Poissons Ratio (z) = -0.00201 0.26414
#
# Static dielectric constant tensor:
#      x y z
#    x 3.728660 0.000000 -0.099630 
#    y 0.000000 3.788790 0.000000 
#    z -0.099630 0.000000 3.734080 
# 
# 
# High freq. dielectric constant tensor:
#      x y z
#    x 1.799140 0.000000 -0.010820 
#    y 0.000000 1.792740 0.000000 
#    z -0.010820 0.000000 1.807540 
# 
# From -- ./inp_files/29083.got.cif
#   From: 2010.06.25/outbox.cif.g09.slc.cpg/sg15_15_cif.got.tgz:29083.got - 2010.06.28 07:06:18.
