data_PCOD8148523
_publ_section_title
;
Structure prediction by ZEFSAII (Michael W. Deem and Ramdas Pophale) SiO2 
 PCOD8148523
Probable space group: C 2/C
;
_chemical_formula_sum "Si O2"
_cell_formula_units_Z 48
_cell_length_a 8.525792
_cell_length_b 11.852724
_cell_length_c 21.923031
_cell_angle_alpha 90.000000
_cell_angle_beta 106.451396
_cell_angle_gamma 90.000000
_cell_volume 2124.708844
_symmetry_space_group_name_H-M "C 2/C"
_symmetry_group_IT_number 15
_symmetry_cell_setting 'monoclinic'
loop_
_space_group_symop_operation_xyz
x,y,z
-x,y,1/2-z
-x,-y,-z
x,-y,1/2+z
1/2+x,1/2+y,z
1/2-x,1/2+y,1/2-z
1/2-x,1/2-y,-z
1/2+x,1/2-y,1/2+z
loop_
_atom_site_type_symbol
_atom_site_label
_atom_site_fract_x
_atom_site_fract_y
_atom_site_fract_z
Si Si1 0.118491 0.221409 0.818437
Si Si2 0.171277 0.839312 0.913302
Si Si3 0.849783 0.415996 0.271463
Si Si4 0.989216 0.412509 0.879997
Si Si5 0.429594 0.523421 0.853170
Si Si6 0.224555 0.409327 0.445075
O O1 0.291434 0.188161 0.807282
O O2 0.000000 0.251646 0.750000
O O3 0.123646 0.327175 0.865149
O O4 0.066749 0.114123 0.852420
O O5 0.346546 0.846912 0.899165
O O6 0.134554 0.706212 0.914117
O O7 0.184165 0.895358 0.981169
O O8 0.022080 0.902024 0.862485
O O9 0.909716 0.521052 0.316196
O O10 0.710003 0.469754 0.213346
O O11 0.000000 0.364413 0.250000
O O12 0.084507 0.495595 0.936216
O O13 0.357374 0.550245 0.911103
#
# Coordination Sequence:
#
# PCOD8148523 Si02
#       6
#     8   8   8   8   8   8
#     4  10  23  41  69  97 140 173 216 283 344 404
#     4  11  25  46  70  96 143 180 226 293 327 400
#     4  11  23  44  70 102 137 176 231 278 350 415
#     4  12  23  45  70 100 137 178 223 284 337 411
#     4  11  22  46  68 100 135 181 224 282 346 401
#     4  11  25  45  68 101 135 184 238 270 338 407
#
# _framework density 22.591329000000002
#
# number of rings (size 3 to 8) (size 9 to 14) (size 15 to 20)
#    0.000    1.000    5.000    1.500    0.000    1.333 
#    3.000    2.500    0.000    0.000    0.000    0.000 
#    0.000    0.000    0.000    0.000    0.000    0.000 
#
# Total GULP energy -297613.633587 kJ/mol
# GULP energy per Si atom -12400.568066 kJ/mol
# Density = 2.253991 g / cm^3
# Si number density = 22.591329 Si / 1000 Ang^3
#
#
#
# Elastic Constant Matrix: (Units=GPa)
#
#
# Indices 1 2 3 4 5 6 
#
# 1 103.4624 32.6488 22.6707 0.0000 -2.4012 0.0000
# 2 32.6488 114.8511 20.1928 0.0000 14.0095 0.0000
# 3 22.6707 20.1928 38.5575 0.0000 -6.9696 0.0000
# 4 0.0000 0.0000 0.0000 33.1411 0.0000 -0.9409
# 5 -2.4012 14.0095 -6.9696 0.0000 33.2380 0.0000
# 6 0.0000 0.0000 0.0000 -0.9409 0.0000 33.0873
#
#
#
# Elastic Compliance Matrix: (Units=1/GPa)
#
#
# Indices 1 2 3 4 5 6 
#
# 1 0.011644 -0.002444 -0.005434 0.000000 0.000732 0.000000
# 2 -0.002444 0.011092 -0.005456 0.000000 -0.005996 0.000000
# 3 -0.005434 -0.005456 0.033606 0.000000 0.008954 0.000000
# 4 0.000000 0.000000 0.000000 0.030198 0.000000 0.000859
# 5 0.000732 -0.005996 0.008954 0.000000 0.034544 0.000000
# 6 0.000000 0.000000 0.000000 0.000859 0.000000 0.030247
#
#
# Mechanical properties :
#
#
# Convention : Reuss Voigt Hill
#
# Bulk Modulus (GPa) = 33.69895 45.32172 39.51034
# Shear Modulus (GPa) = 26.61097 31.98388 29.29742
#
# Velocity S-wave (km/s) = 3.43582 3.76674 3.60508
# Velocity P-wave (km/s) = 5.53976 6.24683 5.90389
#
# Compressibility (1/GPa) = 0.02967451
#
# Stress axis : x y z
#
# Youngs Moduli (GPa) = 85.87874 90.15272 29.75625
#
# Poissons Ratio (x) = 0.22033 0.16171
# Poissons Ratio (y) = 0.20988 0.16235
# Poissons Ratio (z) = 0.46670 0.49187
#
# Static dielectric constant tensor:
#      x y z
#    x 4.803350 0.000000 -0.328200 
#    y 0.000000 4.119630 0.000000 
#    z -0.328200 0.000000 4.010710 
# 
# 
# High freq. dielectric constant tensor:
#      x y z
#    x 1.897860 0.000000 -0.016010 
#    y 0.000000 1.896610 0.000000 
#    z -0.016010 0.000000 1.883890 
# 
# From -- ./inp_files/263260.got.cif
#   From: 2010.06.25/outbox.cif.g09.slc.cpg/sg15_132_cif.got.tgz:263260.got - 2010.06.28 07:06:18.
