data_PCOD8148002
_publ_section_title
;
Structure prediction by ZEFSAII (Michael W. Deem and Ramdas Pophale) SiO2 
 PCOD8148002
Probable space group: C 2/C
;
_chemical_formula_sum "Si O2"
_cell_formula_units_Z 60
_cell_length_a 26.402012
_cell_length_b 21.968177
_cell_length_c 5.307677
_cell_angle_alpha 90.000000
_cell_angle_beta 59.988715
_cell_angle_gamma 90.000000
_cell_volume 2665.733708
_symmetry_space_group_name_H-M "C 2/C"
_symmetry_group_IT_number 15
_symmetry_cell_setting 'monoclinic'
loop_
_space_group_symop_operation_xyz
x,y,z
-x,y,1/2-z
-x,-y,-z
x,-y,1/2+z
1/2+x,1/2+y,z
1/2-x,1/2+y,1/2-z
1/2-x,1/2-y,-z
1/2+x,1/2-y,1/2+z
loop_
_atom_site_type_symbol
_atom_site_label
_atom_site_fract_x
_atom_site_fract_y
_atom_site_fract_z
Si Si1 0.813112 0.740766 0.725971
Si Si2 0.152165 0.037626 0.655072
Si Si3 0.892037 0.169171 0.774185
Si Si4 0.000000 0.774507 0.250000
Si Si5 0.416553 0.230884 0.838572
Si Si6 0.863855 0.361940 0.811894
Si Si7 0.432100 0.961882 0.899365
Si Si8 0.286818 0.962780 0.835032
O O1 0.832474 0.803496 0.542590
O O2 0.861031 0.718523 0.803702
O O3 0.813181 0.684363 0.531816
O O4 0.750000 0.750000 0.000000
O O5 0.113178 0.097862 0.760716
O O6 0.219648 0.057630 0.488943
O O7 0.136493 0.001536 0.439942
O O8 0.907163 0.202070 0.476384
O O9 0.945599 0.182108 0.827991
O O10 0.978845 0.731250 0.534778
O O11 0.415551 0.176987 0.048406
O O12 0.895631 0.399389 0.958280
O O13 0.829440 0.405151 0.701956
O O14 0.500000 0.945168 0.750000
O O15 0.415303 0.003395 0.697975
O O16 0.300894 0.008459 0.573587
#
# Coordination Sequence:
#
# PCOD8148002 Si02
#       8
#     8   8   8   4   8   8   8   8
#     4  10  25  40  65 102 139 179 227 283 347 415
#     4  10  24  42  69 106 140 180 231 273 344 421
#     4  10  23  44  70  95 139 185 218 294 344 413
#     4  10  22  48  68  96 134 182 230 284 362 400
#     4  10  24  43  67  99 133 181 229 287 350 409
#     4  11  24  40  67 102 133 183 235 283 340 421
#     4  10  23  45  68  96 136 183 233 296 349 394
#     4  10  23  40  66 101 142 186 223 285 343 408
#
# _framework density 22.507874999999999
#
# number of rings (size 3 to 8) (size 9 to 14) (size 15 to 20)
#    0.000    1.867    0.000    1.200   11.200    2.133 
#   13.200    0.667    0.000    0.000    0.000    0.000 
#    0.000    0.000    0.000    0.000    0.000    0.000 
#
# Total GULP energy -371949.748419 kJ/mol
# GULP energy per Si atom -12398.324947 kJ/mol
# Density = 2.245665 g / cm^3
# Si number density = 22.507875 Si / 1000 Ang^3
#
#
#
# Elastic Constant Matrix: (Units=GPa)
#
#
# Indices 1 2 3 4 5 6 
#
# 1 58.7252 57.0340 54.5831 0.0000 -5.5670 0.0000
# 2 57.0340 133.5064 57.5015 0.0000 -9.3195 0.0000
# 3 54.5831 57.5015 143.7148 0.0000 -7.9073 0.0000
# 4 0.0000 0.0000 0.0000 13.6500 0.0000 0.1025
# 5 -5.5670 -9.3195 -7.9073 0.0000 44.0685 0.0000
# 6 0.0000 0.0000 0.0000 0.1025 0.0000 29.3666
#
#
#
# Elastic Compliance Matrix: (Units=1/GPa)
#
#
# Indices 1 2 3 4 5 6 
#
# 1 0.037347 -0.011866 -0.009408 0.000000 0.000520 0.000000
# 2 -0.011866 0.012892 -0.000590 0.000000 0.001122 0.000000
# 3 -0.009408 -0.000590 0.010802 0.000000 0.000625 0.000000
# 4 0.000000 0.000000 0.000000 0.073262 0.000000 -0.000256
# 5 0.000520 0.001122 0.000625 0.000000 0.023107 0.000000
# 6 0.000000 0.000000 0.000000 -0.000256 0.000000 0.034053
#
#
# Mechanical properties :
#
#
# Convention : Reuss Voigt Hill
#
# Bulk Modulus (GPa) = 57.76126 74.90928 66.33527
# Shear Modulus (GPa) = 20.75032 28.53888 24.64460
#
# Velocity S-wave (km/s) = 3.03960 3.56469 3.31257
# Velocity P-wave (km/s) = 6.16744 7.09199 6.64581
#
# Compressibility (1/GPa) = 0.01731264
#
# Stress axis : x y z
#
# Youngs Moduli (GPa) = 26.77623 77.56922 92.57833
#
# Poissons Ratio (x) = 0.92045 0.87097
# Poissons Ratio (y) = 0.31773 0.05458
# Poissons Ratio (z) = 0.25191 0.04573
#
# Static dielectric constant tensor:
#      x y z
#    x 4.125760 0.000000 0.080330 
#    y 0.000000 3.873590 0.000000 
#    z 0.080330 0.000000 4.377390 
# 
# 
# High freq. dielectric constant tensor:
#      x y z
#    x 1.891850 0.000000 0.006200 
#    y 0.000000 1.877620 0.000000 
#    z 0.006200 0.000000 1.894670 
# 
# From -- ./inp_files/17514.got.cif
#   From: 2010.06.25/outbox.cif.g09.slc.cpg/sg15_9_cif.got.tgz:17514.got - 2010.06.28 07:06:18.
