data_PCOD8148360
_publ_section_title
;
Structure prediction by ZEFSAII (Michael W. Deem and Ramdas Pophale) SiO2 
 PCOD8148360
Probable space group: C 2/C
;
_chemical_formula_sum "Si O2"
_cell_formula_units_Z 28
_cell_length_a 13.506840
_cell_length_b 4.715117
_cell_length_c 29.016542
_cell_angle_alpha 90.000000
_cell_angle_beta 144.437599
_cell_angle_gamma 90.000000
_cell_volume 1074.752012
_symmetry_space_group_name_H-M "C 2/C"
_symmetry_group_IT_number 15
_symmetry_cell_setting 'monoclinic'
loop_
_space_group_symop_operation_xyz
x,y,z
-x,y,1/2-z
-x,-y,-z
x,-y,1/2+z
1/2+x,1/2+y,z
1/2-x,1/2+y,1/2-z
1/2-x,1/2-y,-z
1/2+x,1/2-y,1/2+z
loop_
_atom_site_type_symbol
_atom_site_label
_atom_site_fract_x
_atom_site_fract_y
_atom_site_fract_z
Si Si1 0.320785 0.256071 0.095476
Si Si2 0.846143 0.944670 0.392191
Si Si3 0.549255 0.943954 0.440098
Si Si4 0.000000 0.680755 0.250000
O O1 0.168924 0.058862 0.060461
O O2 0.434161 0.059755 0.105282
O O3 0.444287 0.367863 0.183853
O O4 0.232548 0.517681 0.035089
O O5 0.990470 0.118301 0.417889
O O6 0.661396 0.981433 0.297955
O O7 0.900022 0.615794 0.410863
#
# Coordination Sequence:
#
# PCOD8148360 Si02
#       4
#     8   8   8   4
#     4   9  22  41  59  98 111 163 195 255 275 384
#     4  10  23  41  60  93 116 163 188 262 277 366
#     4  11  22  40  69  80 125 155 208 227 316 331
#     4   8  22  42  56  92 126 146 206 240 304 336
#
# _framework density 26.052520000000001
#
# number of rings (size 3 to 8) (size 9 to 14) (size 15 to 20)
#    1.714    0.571    0.000    1.714    0.000   10.286 
#    0.000    0.000    0.000    0.000    0.000    0.000 
#    0.000    0.000    0.000    0.000    0.000    0.000 
#
# Total GULP energy -173520.759911 kJ/mol
# GULP energy per Si atom -12394.339994 kJ/mol
# Density = 2.599322 g / cm^3
# Si number density = 26.052520 Si / 1000 Ang^3
#
#
#
# Elastic Constant Matrix: (Units=GPa)
#
#
# Indices 1 2 3 4 5 6 
#
# 1 87.8303 -0.6065 20.7622 -0.0094 3.3613 0.0073
# 2 -0.6065 53.7886 7.6086 -0.0230 9.8298 0.0102
# 3 20.7622 7.6086 166.3593 -0.0105 -16.4408 0.0090
# 4 -0.0094 -0.0230 -0.0105 15.5480 0.0027 3.8984
# 5 3.3613 9.8298 -16.4408 0.0027 47.4754 -0.0027
# 6 0.0073 0.0102 0.0090 3.8984 -0.0027 17.8007
#
#
#
# Elastic Compliance Matrix: (Units=1/GPa)
#
#
# Indices 1 2 3 4 5 6 
#
# 1 0.011842 0.000651 -0.001661 0.000009 -0.001548 -0.000007
# 2 0.000651 0.019644 -0.001435 0.000034 -0.004611 -0.000019
# 3 -0.001661 -0.001435 0.006549 0.000001 0.002683 -0.000002
# 4 0.000009 0.000034 0.000001 0.068054 -0.000012 -0.014904
# 5 -0.001548 -0.004611 0.002683 -0.000012 0.023057 0.000008
# 6 -0.000007 -0.000019 -0.000002 -0.014904 0.000008 0.059442
#
#
# Mechanical properties :
#
#
# Convention : Reuss Voigt Hill
#
# Bulk Modulus (GPa) = 30.16961 40.38963 35.27962
# Shear Modulus (GPa) = 24.44675 34.84574 29.64624
#
# Velocity S-wave (km/s) = 3.06660 3.66118 3.37700
# Velocity P-wave (km/s) = 4.91367 5.78006 5.36438
#
# Compressibility (1/GPa) = 0.03314594
#
# Stress axis : x y z
#
# Youngs Moduli (GPa) = 84.44564 50.90540 152.69203
#
# Poissons Ratio (x) = -0.03316 0.25358
# Poissons Ratio (y) = -0.05501 0.21917
# Poissons Ratio (z) = 0.14024 0.07307
#
# Static dielectric constant tensor:
#      x y z
#    x 4.711850 0.000000 0.082040 
#    y 0.000000 3.997370 0.000010 
#    z 0.082040 0.000010 4.495190 
# 
# 
# High freq. dielectric constant tensor:
#      x y z
#    x 2.058620 0.000000 0.010060 
#    y 0.000000 2.010670 0.000000 
#    z 0.010060 0.000000 2.033250 
# 
# From -- ./inp_files/157922.got.cif
#   From: 2010.06.25/outbox.cif.g09.slc.cpg/sg15_79_cif.got.tgz:157922.got - 2010.06.28 07:06:18.
