data_PCOD8148099
_publ_section_title
;
Structure prediction by ZEFSAII (Michael W. Deem and Ramdas Pophale) SiO2 
 PCOD8148099
Probable space group: C 2/C
;
_chemical_formula_sum "Si O2"
_cell_formula_units_Z 64
_cell_length_a 13.985525
_cell_length_b 16.236791
_cell_length_c 23.577700
_cell_angle_alpha 90.000000
_cell_angle_beta 143.644523
_cell_angle_gamma 90.000000
_cell_volume 3173.829986
_symmetry_space_group_name_H-M "C 2/C"
_symmetry_group_IT_number 15
_symmetry_cell_setting 'monoclinic'
loop_
_space_group_symop_operation_xyz
x,y,z
-x,y,1/2-z
-x,-y,-z
x,-y,1/2+z
1/2+x,1/2+y,z
1/2-x,1/2+y,1/2-z
1/2-x,1/2-y,-z
1/2+x,1/2-y,1/2+z
loop_
_atom_site_type_symbol
_atom_site_label
_atom_site_fract_x
_atom_site_fract_y
_atom_site_fract_z
Si Si1 0.823752 0.674134 0.171872
Si Si2 0.101152 0.238283 0.470333
Si Si3 0.734211 0.742008 0.239680
Si Si4 0.940466 0.891580 0.340349
Si Si5 0.263503 0.350763 0.089341
Si Si6 0.393262 0.844314 0.916509
Si Si7 0.502409 0.403232 0.495803
Si Si8 0.340254 0.494008 0.701977
O O1 0.787215 0.671075 0.221353
O O2 0.815851 0.765228 0.142047
O O3 0.689552 0.619695 0.077160
O O4 0.000000 0.634404 0.250000
O O5 0.250000 0.250000 0.500000
O O6 0.102637 0.310726 0.517530
O O7 0.956984 0.252376 0.357125
O O8 0.084882 0.149524 0.495339
O O9 0.817744 0.824610 0.257149
O O10 0.787160 0.717546 0.328109
O O11 0.124782 0.868391 0.411966
O O12 0.913655 0.885819 0.394556
O O13 0.887182 0.980531 0.289125
O O14 0.294121 0.422221 0.148827
O O15 0.076231 0.349366 0.980539
O O16 0.310978 0.933537 0.874096
O O17 0.500000 0.500000 0.500000
O O18 0.500000 0.453112 0.750000
#
# Coordination Sequence:
#
# PCOD8148099 Si02
#       8
#     8   8   8   8   8   8   8   8
#     4  11  20  39  67  96 129 165 218 270 335 403
#     4  11  26  45  68  93 133 185 233 275 325 410
#     4  11  22  39  66  94 128 173 220 274 328 400
#     4  11  21  41  66  97 130 170 213 273 342 392
#     4  11  20  40  67 101 131 162 209 283 340 388
#     4  12  24  40  65 102 130 179 224 268 343 400
#     4  11  26  45  64  94 139 177 218 280 340 399
#     4  10  23  38  64  96 136 174 221 280 329 395
#
# _framework density 20.164912000000001
#
# number of rings (size 3 to 8) (size 9 to 14) (size 15 to 20)
#    0.000    1.000    6.250    0.750    7.000    2.000 
#    0.000    1.250    0.000    0.000    0.000    0.000 
#    0.000    0.000    0.000    0.000    0.000    0.000 
#
# Total GULP energy -396618.728093 kJ/mol
# GULP energy per Si atom -12394.335253 kJ/mol
# Density = 2.011902 g / cm^3
# Si number density = 20.164912 Si / 1000 Ang^3
#
#
#
# Elastic Constant Matrix: (Units=GPa)
#
#
# Indices 1 2 3 4 5 6 
#
# 1 104.9288 35.5438 52.6356 0.0000 18.0647 0.0000
# 2 35.5438 107.3983 29.0661 0.0000 11.1340 0.0000
# 3 52.6356 29.0661 122.2106 -0.0001 17.4503 0.0001
# 4 0.0000 0.0000 -0.0001 35.5923 0.0000 5.0280
# 5 18.0647 11.1340 17.4503 0.0000 36.6947 0.0000
# 6 0.0000 0.0000 0.0001 5.0280 0.0000 14.1167
#
#
#
# Elastic Compliance Matrix: (Units=1/GPa)
#
#
# Indices 1 2 3 4 5 6 
#
# 1 0.013403 -0.002824 -0.004593 0.000000 -0.003557 0.000000
# 2 -0.002824 0.010690 -0.001139 0.000000 -0.001312 0.000000
# 3 -0.004593 -0.001139 0.010792 0.000000 -0.002526 0.000000
# 4 0.000000 0.000000 0.000000 0.029584 0.000000 -0.010537
# 5 -0.003557 -0.001312 -0.002526 0.000000 0.030602 0.000000
# 6 0.000000 0.000000 0.000000 -0.010537 0.000000 0.074591
#
#
# Mechanical properties :
#
#
# Convention : Reuss Voigt Hill
#
# Bulk Modulus (GPa) = 56.26337 63.22542 59.74439
# Shear Modulus (GPa) = 25.94708 31.76689 28.85699
#
# Velocity S-wave (km/s) = 3.59101 3.97338 3.78703
# Velocity P-wave (km/s) = 6.71982 7.24380 6.98672
#
# Compressibility (1/GPa) = 0.01777355
#
# Stress axis : x y z
#
# Youngs Moduli (GPa) = 74.60792 93.54568 92.65821
#
# Poissons Ratio (x) = 0.26418 0.42560
# Poissons Ratio (y) = 0.21069 0.10552
# Poissons Ratio (z) = 0.34269 0.10654
#
# Static dielectric constant tensor:
#      x y z
#    x 3.739540 0.000000 -0.033930 
#    y 0.000000 3.618230 0.000000 
#    z -0.033930 0.000000 4.424930 
# 
# 
# High freq. dielectric constant tensor:
#      x y z
#    x 1.778370 0.000000 -0.001680 
#    y 0.000000 1.774150 0.000000 
#    z -0.001680 0.000000 1.804480 
# 
# From -- ./inp_files/274868.got.cif
#   From: 2010.06.25/outbox.cif.g09.slc.cpg/sg15_138_cif.got.tgz:274868.got - 2010.06.28 07:06:18.
