data_PCOD8148801
_publ_section_title
;
Structure prediction by ZEFSAII (Michael W. Deem and Ramdas Pophale) SiO2 
 PCOD8148801
Probable space group: C 2/C
;
_chemical_formula_sum "Si O2"
_cell_formula_units_Z 40
_cell_length_a 7.722362
_cell_length_b 25.679591
_cell_length_c 12.469477
_cell_angle_alpha 90.000000
_cell_angle_beta 49.697649
_cell_angle_gamma 90.000000
_cell_volume 1885.849783
_symmetry_space_group_name_H-M "C 2/C"
_symmetry_group_IT_number 15
_symmetry_cell_setting 'monoclinic'
loop_
_space_group_symop_operation_xyz
x,y,z
-x,y,1/2-z
-x,-y,-z
x,-y,1/2+z
1/2+x,1/2+y,z
1/2-x,1/2+y,1/2-z
1/2-x,1/2-y,-z
1/2+x,1/2-y,1/2+z
loop_
_atom_site_type_symbol
_atom_site_label
_atom_site_fract_x
_atom_site_fract_y
_atom_site_fract_z
Si Si1 0.182355 0.841757 0.435238
Si Si2 0.664476 0.097840 0.426522
Si Si3 0.000000 0.990237 0.750000
Si Si4 0.793388 0.911232 0.272341
Si Si5 0.735644 0.172553 0.205676
Si Si6 0.500000 0.751024 0.250000
O O1 0.232170 0.860149 0.535156
O O2 0.279986 0.880688 0.305137
O O3 0.302773 0.786209 0.380511
O O4 0.906959 0.840730 0.538418
O O5 0.808444 0.045079 0.381128
O O6 0.408871 0.085270 0.561214
O O7 0.682821 0.121771 0.299764
O O8 0.121979 0.029353 0.787834
O O9 0.000000 0.880969 0.250000
O O10 0.500000 0.193345 0.250000
O O11 0.867332 0.217693 0.215553
#
# Coordination Sequence:
#
# PCOD8148801 Si02
#       6
#     8   8   4   8   8   4
#     4  12  23  45  71  97 141 183 226 290 344 405
#     4  12  21  48  68  98 144 181 228 289 346 405
#     4  10  23  42  72  98 142 178 243 274 342 420
#     4  10  24  40  66 104 133 181 233 281 337 412
#     4  12  27  45  73 103 138 185 230 288 347 415
#     4  12  25  46  72 102 138 182 237 278 356 406
#
# _framework density 21.210597
#
# number of rings (size 3 to 8) (size 9 to 14) (size 15 to 20)
#    0.600    0.000    6.000    2.400    0.000    2.400 
#    0.000    0.000    0.000    0.000    0.000    0.000 
#    0.000    0.000    0.000    0.000    0.000    0.000 
#
# Total GULP energy -247870.274029 kJ/mol
# GULP energy per Si atom -12393.513701 kJ/mol
# Density = 2.116232 g / cm^3
# Si number density = 21.210597 Si / 1000 Ang^3
#
#
#
# Elastic Constant Matrix: (Units=GPa)
#
#
# Indices 1 2 3 4 5 6 
#
# 1 89.6986 35.5119 52.6202 0.0000 -24.4000 0.0000
# 2 35.5119 118.1989 52.7355 0.0000 -6.2923 0.0000
# 3 52.6202 52.7355 147.6181 0.0000 -29.3821 0.0000
# 4 0.0000 0.0000 0.0000 52.3645 0.0000 0.4521
# 5 -24.4000 -6.2923 -29.3821 0.0000 43.1955 0.0000
# 6 0.0000 0.0000 0.0000 0.4521 0.0000 25.4241
#
#
#
# Elastic Compliance Matrix: (Units=1/GPa)
#
#
# Indices 1 2 3 4 5 6 
#
# 1 0.016034 -0.002964 -0.003400 0.000000 0.006312 0.000000
# 2 -0.002964 0.010661 -0.003211 0.000000 -0.002305 0.000000
# 3 -0.003400 -0.003211 0.010014 0.000000 0.004423 0.000000
# 4 0.000000 0.000000 0.000000 0.019100 0.000000 -0.000340
# 5 0.006312 -0.002305 0.004423 0.000000 0.029389 0.000000
# 6 0.000000 0.000000 0.000000 -0.000340 0.000000 0.039339
#
#
# Mechanical properties :
#
#
# Convention : Reuss Voigt Hill
#
# Bulk Modulus (GPa) = 56.95379 70.80567 63.87973
# Shear Modulus (GPa) = 33.43629 38.50669 35.97149
#
# Velocity S-wave (km/s) = 3.97469 4.26543 4.12262
# Velocity P-wave (km/s) = 6.92633 7.59692 7.26936
#
# Compressibility (1/GPa) = 0.01755809
#
# Stress axis : x y z
#
# Youngs Moduli (GPa) = 62.36874 93.80309 99.86441
#
# Poissons Ratio (x) = 0.27805 0.33954
# Poissons Ratio (y) = 0.18487 0.32063
# Poissons Ratio (z) = 0.21205 0.30117
#
# Static dielectric constant tensor:
#      x y z
#    x 3.680590 0.000000 -0.382340 
#    y 0.000000 3.762190 0.000000 
#    z -0.382340 0.000000 4.242550 
# 
# 
# High freq. dielectric constant tensor:
#      x y z
#    x 1.818210 0.000000 -0.027030 
#    y 0.000000 1.827280 0.000000 
#    z -0.027030 0.000000 1.852710 
# 
# From -- ./inp_files/137117.got.cif
#   From: 2010.06.25/outbox.cif.g09.slc.cpg/sg15_69_cif.got.tgz:137117.got - 2010.06.28 07:06:18.
