data_PCOD8148963
_publ_section_title
;
Structure prediction by ZEFSAII (Michael W. Deem and Ramdas Pophale) SiO2 
 PCOD8148963
Probable space group: C 2/C
;
_chemical_formula_sum "Si O2"
_cell_formula_units_Z 32
_cell_length_a 6.564849
_cell_length_b 9.282631
_cell_length_c 18.888152
_cell_angle_alpha 90.000000
_cell_angle_beta 97.382280
_cell_angle_gamma 90.000000
_cell_volume 1141.485515
_symmetry_space_group_name_H-M "C 2/C"
_symmetry_group_IT_number 15
_symmetry_cell_setting 'monoclinic'
loop_
_space_group_symop_operation_xyz
x,y,z
-x,y,1/2-z
-x,-y,-z
x,-y,1/2+z
1/2+x,1/2+y,z
1/2-x,1/2+y,1/2-z
1/2-x,1/2-y,-z
1/2+x,1/2-y,1/2+z
loop_
_atom_site_type_symbol
_atom_site_label
_atom_site_fract_x
_atom_site_fract_y
_atom_site_fract_z
Si Si1 0.125655 0.599678 0.953463
Si Si2 0.320555 0.986539 0.332886
Si Si3 0.516944 0.411583 0.576706
Si Si4 0.714415 0.696256 0.221074
O O1 0.038068 0.575125 0.870297
O O2 0.088541 0.771139 0.968077
O O3 0.362083 0.533779 0.966887
O O4 0.000000 0.500000 0.000000
O O5 0.373385 0.119743 0.282958
O O6 0.175418 0.017123 0.392858
O O7 0.220436 0.862871 0.278817
O O8 0.694738 0.362318 0.639589
O O9 0.500000 0.665566 0.250000
#
# Coordination Sequence:
#
# PCOD8148963 Si02
#       4
#     8   8   8   8
#     4  11  25  46  68  99 140 185 238 293 353 428
#     4  10  23  43  68  98 138 180 221 296 353 432
#     4  10  24  43  67 101 135 176 240 285 358 424
#     4   9  21  41  62  99 131 171 226 278 354 427
#
# _framework density 28.033646000000001
#
# number of rings (size 3 to 8) (size 9 to 14) (size 15 to 20)
#    0.000    2.000    0.000    0.750   10.500    6.000 
#   18.000    0.000    0.000    0.000    0.000    0.000 
#    0.000    0.000    0.000    0.000    0.000    0.000 
#
# Total GULP energy -198318.243901 kJ/mol
# GULP energy per Si atom -12394.890244 kJ/mol
# Density = 2.796984 g / cm^3
# Si number density = 28.033646 Si / 1000 Ang^3
#
#
#
# Elastic Constant Matrix: (Units=GPa)
#
#
# Indices 1 2 3 4 5 6 
#
# 1 107.7187 56.1047 54.1639 0.0000 3.1500 0.0000
# 2 56.1047 250.9286 104.9349 0.0000 -7.1418 0.0000
# 3 54.1639 104.9349 117.2730 0.0000 -3.8677 0.0000
# 4 0.0000 0.0000 0.0000 74.0091 0.0000 -2.6652
# 5 3.1500 -7.1418 -3.8677 0.0000 60.8582 0.0000
# 6 0.0000 0.0000 0.0000 -2.6652 0.0000 29.9095
#
#
#
# Elastic Compliance Matrix: (Units=1/GPa)
#
#
# Indices 1 2 3 4 5 6 
#
# 1 0.012210 -0.000618 -0.005120 0.000000 -0.001030 0.000000
# 2 -0.000618 0.006408 -0.005434 0.000000 0.000439 0.000000
# 3 -0.005120 -0.005434 0.015775 0.000000 0.000630 0.000000
# 4 0.000000 0.000000 0.000000 0.013555 0.000000 0.001208
# 5 -0.001030 0.000439 0.000630 0.000000 0.016576 0.000000
# 6 0.000000 0.000000 0.000000 0.001208 0.000000 0.033542
#
#
# Mechanical properties :
#
#
# Convention : Reuss Voigt Hill
#
# Bulk Modulus (GPa) = 82.99766 100.70302 91.85034
# Shear Modulus (GPa) = 40.18365 50.33648 45.26007
#
# Velocity S-wave (km/s) = 3.79014 4.24202 4.02243
# Velocity P-wave (km/s) = 6.98744 7.74552 7.37623
#
# Compressibility (1/GPa) = 0.01204853
#
# Stress axis : x y z
#
# Youngs Moduli (GPa) = 81.89939 156.04500 63.39057
#
# Poissons Ratio (x) = 0.09646 0.32457
# Poissons Ratio (y) = 0.05063 0.34448
# Poissons Ratio (z) = 0.41934 0.84798
#
# Static dielectric constant tensor:
#      x y z
#    x 5.413290 0.000000 0.798300 
#    y 0.000000 5.365970 0.000000 
#    z 0.798300 0.000000 5.628480 
# 
# 
# High freq. dielectric constant tensor:
#      x y z
#    x 2.151620 0.000000 0.032110 
#    y 0.000000 2.149990 0.000000 
#    z 0.032110 0.000000 2.163260 
# 
# From -- ./inp_files/229145.got.cif
#   From: 2010.06.25/outbox.cif.g09.slc.cpg/sg15_115_cif.got.tgz:229145.got - 2010.06.28 07:06:18.
