data_PCOD8148731
_publ_section_title
;
Structure prediction by ZEFSAII (Michael W. Deem and Ramdas Pophale) SiO2 
 PCOD8148731
Probable space group: C 2/C
;
_chemical_formula_sum "Si O2"
_cell_formula_units_Z 48
_cell_length_a 5.072465
_cell_length_b 23.218319
_cell_length_c 16.081414
_cell_angle_alpha 90.000000
_cell_angle_beta 87.041215
_cell_angle_gamma 90.000000
_cell_volume 1891.449417
_symmetry_space_group_name_H-M "C 2/C"
_symmetry_group_IT_number 15
_symmetry_cell_setting 'monoclinic'
loop_
_space_group_symop_operation_xyz
x,y,z
-x,y,1/2-z
-x,-y,-z
x,-y,1/2+z
1/2+x,1/2+y,z
1/2-x,1/2+y,1/2-z
1/2-x,1/2-y,-z
1/2+x,1/2-y,1/2+z
loop_
_atom_site_type_symbol
_atom_site_label
_atom_site_fract_x
_atom_site_fract_y
_atom_site_fract_z
Si Si1 0.202033 0.816454 0.425726
Si Si2 0.250201 0.785386 0.693399
Si Si3 0.762854 0.085579 0.696165
Si Si4 0.401896 0.093759 0.159449
Si Si5 0.593465 0.979114 0.412041
Si Si6 0.210431 0.630400 0.996915
O O1 0.207299 0.751076 0.392044
O O2 0.142036 0.855428 0.346635
O O3 0.472737 0.831535 0.465876
O O4 0.966048 0.828401 0.495562
O O5 0.500000 0.781450 0.750000
O O6 0.205820 0.851445 0.663902
O O7 0.000000 0.763411 0.750000
O O8 0.500000 0.101279 0.750000
O O9 0.676282 0.036337 0.632701
O O10 0.000000 0.061197 0.750000
O O11 0.500000 0.082050 0.250000
O O12 0.258522 0.033597 0.134154
O O13 0.641931 0.107469 0.090519
O O14 0.769883 0.922127 0.428797
O O15 0.500000 0.000000 0.500000
#
# Coordination Sequence:
#
# PCOD8148731 Si02
#       6
#     8   8   8   8   8   8
#     4  11  22  41  67  96 131 167 216 277 328 381
#     4  11  24  43  67  97 134 175 217 266 326 392
#     4  11  21  37  64  97 127 164 217 272 329 386
#     4  10  23  44  66  94 134 178 219 266 327 399
#     4   9  20  43  65  95 134 174 220 272 328 392
#     4  10  23  42  68  98 128 170 221 276 328 382
#
# _framework density 25.377362000000002
#
# number of rings (size 3 to 8) (size 9 to 14) (size 15 to 20)
#    0.000    1.667    0.000    4.500    0.000    4.000 
#    0.000   50.833    0.000    0.000    0.000    0.000 
#    0.000    0.000    0.000    0.000    0.000    0.000 
#
# Total GULP energy -297420.371165 kJ/mol
# GULP energy per Si atom -12392.515465 kJ/mol
# Density = 2.531960 g / cm^3
# Si number density = 25.377362 Si / 1000 Ang^3
#
#
#
# Elastic Constant Matrix: (Units=GPa)
#
#
# Indices 1 2 3 4 5 6 
#
# 1 87.5949 24.5168 12.6965 0.0000 -18.9393 0.0000
# 2 24.5168 143.6785 44.0009 0.0000 3.3880 0.0000
# 3 12.6965 44.0009 119.3445 0.0000 1.2339 0.0000
# 4 0.0000 0.0000 0.0000 47.6407 0.0000 -6.1662
# 5 -18.9393 3.3880 1.2339 0.0000 34.6035 0.0000
# 6 0.0000 0.0000 0.0000 -6.1662 0.0000 19.5930
#
#
#
# Elastic Compliance Matrix: (Units=1/GPa)
#
#
# Indices 1 2 3 4 5 6 
#
# 1 0.013867 -0.002339 -0.000694 0.000000 0.007844 0.000000
# 2 -0.002339 0.008256 -0.002774 0.000000 -0.001989 0.000000
# 3 -0.000694 -0.002774 0.009480 0.000000 -0.000446 0.000000
# 4 0.000000 0.000000 0.000000 0.021882 0.000000 0.006887
# 5 0.007844 -0.001989 -0.000446 0.000000 0.033402 0.000000
# 6 0.000000 0.000000 0.000000 0.006887 0.000000 0.053206
#
#
# Mechanical properties :
#
#
# Convention : Reuss Voigt Hill
#
# Bulk Modulus (GPa) = 50.02755 57.00514 53.51635
# Shear Modulus (GPa) = 31.57147 38.32768 34.94958
#
# Velocity S-wave (km/s) = 3.53098 3.89049 3.71508
# Velocity P-wave (km/s) = 6.03158 6.53398 6.28780
#
# Compressibility (1/GPa) = 0.01998899
#
# Stress axis : x y z
#
# Youngs Moduli (GPa) = 72.11228 121.13002 105.48029
#
# Poissons Ratio (x) = 0.28328 0.07322
# Poissons Ratio (y) = 0.16864 0.29264
# Poissons Ratio (z) = 0.05006 0.33606
#
# Static dielectric constant tensor:
#      x y z
#    x 4.271260 0.000000 0.213920 
#    y 0.000000 6.098640 0.000000 
#    z 0.213920 0.000000 5.061440 
# 
# 
# High freq. dielectric constant tensor:
#      x y z
#    x 1.982120 0.000000 0.006700 
#    y 0.000000 2.022320 0.000000 
#    z 0.006700 0.000000 2.036930 
# 
# From -- ./inp_files/185470.got.cif
#   From: 2010.06.25/outbox.cif.g09.slc.cpg/sg15_93_cif.got.tgz:185470.got - 2010.06.28 07:06:18.
