data_PCOD8148312
_publ_section_title
;
Structure prediction by ZEFSAII (Michael W. Deem and Ramdas Pophale) SiO2 
 PCOD8148312
Probable space group: C 2/C
;
_chemical_formula_sum "Si O2"
_cell_formula_units_Z 56
_cell_length_a 18.975604
_cell_length_b 8.408694
_cell_length_c 30.574818
_cell_angle_alpha 90.000000
_cell_angle_beta 34.450381
_cell_angle_gamma 90.000000
_cell_volume 2759.740960
_symmetry_space_group_name_H-M "C 2/C"
_symmetry_group_IT_number 15
_symmetry_cell_setting 'monoclinic'
loop_
_space_group_symop_operation_xyz
x,y,z
-x,y,1/2-z
-x,-y,-z
x,-y,1/2+z
1/2+x,1/2+y,z
1/2-x,1/2+y,1/2-z
1/2-x,1/2-y,-z
1/2+x,1/2-y,1/2+z
loop_
_atom_site_type_symbol
_atom_site_label
_atom_site_fract_x
_atom_site_fract_y
_atom_site_fract_z
Si Si1 0.640157 0.555700 0.016587
Si Si2 0.511246 0.095894 0.038158
Si Si3 0.816908 0.835633 0.580339
Si Si4 0.351959 0.500229 0.154046
Si Si5 0.142759 0.970868 0.183790
Si Si6 0.225435 0.593172 0.462575
Si Si7 0.244370 0.647174 0.293667
O O1 0.498378 0.492321 0.090498
O O2 0.697633 0.538858 0.034914
O O3 0.721857 0.456101 0.939128
O O4 0.650874 0.741910 0.000596
O O5 0.389390 0.070586 0.128975
O O6 0.544969 0.274130 0.004995
O O7 0.500000 0.000000 0.000000
O O8 0.623109 0.042886 0.011631
O O9 0.832205 0.928374 0.616898
O O10 0.720715 0.691865 0.637955
O O11 0.287859 0.613325 0.222523
O O12 0.276071 0.335461 0.191955
O O13 0.000000 0.923867 0.250000
O O14 0.183596 0.095602 0.125708
O O15 0.160951 0.064107 0.220404
#
# Coordination Sequence:
#
# PCOD8148312 Si02
#       7
#     8   8   8   8   8   8   8
#     4  11  23  42  65  99 129 175 220 270 322 389
#     4  11  21  41  69  94 128 171 218 269 323 395
#     4  11  23  42  68  96 127 175 222 270 324 389
#     4  12  26  41  68  97 135 169 223 274 325 396
#     4  11  24  45  65  93 135 169 213 275 336 387
#     4  10  23  40  67  94 131 173 215 266 325 396
#     4  12  25  43  66 100 130 175 215 274 334 386
#
# _framework density 20.29176
#
# number of rings (size 3 to 8) (size 9 to 14) (size 15 to 20)
#    0.000    0.857    4.286    3.857    2.000    2.286 
#    5.143    1.429    0.000    0.000    0.000    0.000 
#    0.000    0.000    0.000    0.000    0.000    0.000 
#
# Total GULP energy -347014.335201 kJ/mol
# GULP energy per Si atom -12393.369114 kJ/mol
# Density = 2.024558 g / cm^3
# Si number density = 20.291760 Si / 1000 Ang^3
#
#
#
# Elastic Constant Matrix: (Units=GPa)
#
#
# Indices 1 2 3 4 5 6 
#
# 1 84.0378 59.1564 34.2357 0.0113 3.6133 0.0393
# 2 59.1564 111.4808 36.8905 -0.0004 8.4961 0.0138
# 3 34.2357 36.8905 87.1627 0.0018 -1.2481 0.0041
# 4 0.0113 -0.0004 0.0018 36.8301 0.0014 12.4596
# 5 3.6133 8.4961 -1.2481 0.0014 40.4044 0.0039
# 6 0.0393 0.0138 0.0041 12.4596 0.0039 27.6617
#
#
#
# Elastic Compliance Matrix: (Units=1/GPa)
#
#
# Indices 1 2 3 4 5 6 
#
# 1 0.020089 -0.009365 -0.003926 0.000002 0.000051 -0.000024
# 2 -0.009365 0.015021 -0.002714 0.000001 -0.002405 0.000006
# 3 -0.003926 -0.002714 0.014183 -0.000001 0.001360 0.000005
# 4 0.000002 0.000001 -0.000001 0.032033 0.000000 -0.014429
# 5 0.000051 -0.002405 0.001360 0.000000 0.025293 -0.000003
# 6 -0.000024 0.000006 0.000005 -0.014429 -0.000003 0.042650
#
#
# Mechanical properties :
#
#
# Convention : Reuss Voigt Hill
#
# Bulk Modulus (GPa) = 57.85862 60.36073 59.10967
# Shear Modulus (GPa) = 26.73258 31.13917 28.93587
#
# Velocity S-wave (km/s) = 3.63355 3.92161 3.78033
# Velocity P-wave (km/s) = 6.79550 7.09340 6.94605
#
# Compressibility (1/GPa) = 0.01728351
#
# Stress axis : x y z
#
# Youngs Moduli (GPa) = 49.77939 66.57530 70.50757
#
# Poissons Ratio (x) = 0.62345 0.27683
# Poissons Ratio (y) = 0.46616 0.19132
# Poissons Ratio (z) = 0.19545 0.18065
#
# Static dielectric constant tensor:
#      x y z
#    x 3.736600 -0.000130 0.141300 
#    y -0.000130 3.936380 0.000010 
#    z 0.141300 0.000010 3.878890 
# 
# 
# High freq. dielectric constant tensor:
#      x y z
#    x 1.795790 -0.000010 0.012320 
#    y -0.000010 1.804090 0.000010 
#    z 0.012320 0.000010 1.801130 
# 
# From -- ./inp_files/298497.got.cif
#   From: 2010.06.25/outbox.cif.g09.slc.cpg/sg15_150_cif.got.tgz:298497.got - 2010.06.28 07:06:18.
