data_PCOD8148010
_publ_section_title
;
Structure prediction by ZEFSAII (Michael W. Deem and Ramdas Pophale) SiO2 
 PCOD8148010
Probable space group: C 2/C
;
_chemical_formula_sum "Si O2"
_cell_formula_units_Z 36
_cell_length_a 15.644265
_cell_length_b 8.431416
_cell_length_c 20.603402
_cell_angle_alpha 90.000000
_cell_angle_beta 32.511271
_cell_angle_gamma 90.000000
_cell_volume 1460.646812
_symmetry_space_group_name_H-M "C 2/C"
_symmetry_group_IT_number 15
_symmetry_cell_setting 'monoclinic'
loop_
_space_group_symop_operation_xyz
x,y,z
-x,y,1/2-z
-x,-y,-z
x,-y,1/2+z
1/2+x,1/2+y,z
1/2-x,1/2+y,1/2-z
1/2-x,1/2-y,-z
1/2+x,1/2-y,1/2+z
loop_
_atom_site_type_symbol
_atom_site_label
_atom_site_fract_x
_atom_site_fract_y
_atom_site_fract_z
Si Si1 0.000000 0.764915 0.750000
Si Si2 0.073722 0.527610 0.809254
Si Si3 0.418607 0.365626 0.095735
Si Si4 0.088735 0.816520 0.259136
Si Si5 0.181312 0.433448 0.922084
O O1 0.009426 0.660966 0.680028
O O2 0.837099 0.863427 0.857246
O O3 0.241114 0.585594 0.728448
O O4 0.111509 0.371851 0.742236
O O5 0.951308 0.497630 0.945348
O O6 0.503476 0.354729 0.112903
O O7 0.405470 0.194996 0.068781
O O8 0.500000 0.500000 0.000000
O O9 0.000000 0.871551 0.250000
O O10 0.257502 0.908618 0.154149
#
# Coordination Sequence:
#
# PCOD8148010 Si02
#       5
#     4   8   8   8   8
#     4  10  22  48  74 116 148 200 248 316 388 450
#     4  11  26  47  76 109 153 200 252 315 377 455
#     4  11  29  49  77 107 152 203 259 304 383 458
#     4  12  27  48  74 114 150 195 254 315 381 442
#     4  11  26  48  79 106 156 198 256 308 389 452
#
# _framework density 24.646614
#
# number of rings (size 3 to 8) (size 9 to 14) (size 15 to 20)
#    0.000    0.889    2.222    2.000   12.444    6.222 
#    0.000    0.000    0.000    0.000    0.000    0.000 
#    0.000    0.000    0.000    0.000    0.000    0.000 
#
# Total GULP energy -222992.754935 kJ/mol
# GULP energy per Si atom -12388.486385 kJ/mol
# Density = 2.459052 g / cm^3
# Si number density = 24.646614 Si / 1000 Ang^3
#
#
#
# Elastic Constant Matrix: (Units=GPa)
#
#
# Indices 1 2 3 4 5 6 
#
# 1 146.6613 40.4219 44.6803 -0.0001 21.3613 -0.0001
# 2 40.4219 142.5617 55.0582 -0.0001 -7.2690 0.0000
# 3 44.6803 55.0582 125.8990 -0.0002 8.3751 -0.0001
# 4 -0.0001 -0.0001 -0.0002 48.9730 0.0001 2.1859
# 5 21.3613 -7.2690 8.3751 0.0001 29.5821 0.0001
# 6 -0.0001 0.0000 -0.0001 2.1859 0.0001 63.0111
#
#
#
# Elastic Compliance Matrix: (Units=1/GPa)
#
#
# Indices 1 2 3 4 5 6 
#
# 1 0.008897 -0.002163 -0.001782 0.000000 -0.006452 0.000000
# 2 -0.002163 0.009270 -0.003610 0.000000 0.004862 0.000000
# 3 -0.001782 -0.003610 0.010322 0.000000 -0.002522 0.000000
# 4 0.000000 0.000000 0.000000 0.020451 0.000000 -0.000709
# 5 -0.006452 0.004862 -0.002522 0.000000 0.040372 0.000000
# 6 0.000000 0.000000 0.000000 -0.000709 0.000000 0.015895
#
#
# Mechanical properties :
#
#
# Convention : Reuss Voigt Hill
#
# Bulk Modulus (GPa) = 74.74715 77.27143 76.00929
# Shear Modulus (GPa) = 40.07161 46.64403 43.35782
#
# Velocity S-wave (km/s) = 4.03655 4.35502 4.19881
# Velocity P-wave (km/s) = 7.21931 7.53048 7.37653
#
# Compressibility (1/GPa) = 0.01337844
#
# Stress axis : x y z
#
# Youngs Moduli (GPa) = 112.39262 107.87657 96.88312
#
# Poissons Ratio (x) = 0.23338 0.17268
# Poissons Ratio (y) = 0.24315 0.34971
# Poissons Ratio (z) = 0.20032 0.38939
#
# Static dielectric constant tensor:
#      x y z
#    x 4.152660 0.000000 -0.313530 
#    y 0.000000 4.802950 0.000000 
#    z -0.313530 0.000000 4.047910 
# 
# 
# High freq. dielectric constant tensor:
#      x y z
#    x 1.991890 0.000000 0.008530 
#    y 0.000000 2.004580 0.000000 
#    z 0.008530 0.000000 1.971890 
# 
# From -- ./inp_files/121720.got.cif
#   From: 2010.06.25/outbox.cif.g09.slc.cpg/sg15_61_cif.got.tgz:121720.got - 2010.06.28 07:06:18.
