data_PCOD8148564
_publ_section_title
;
Structure prediction by ZEFSAII (Michael W. Deem and Ramdas Pophale) SiO2 
 PCOD8148564
Probable space group: C 2/C
;
_chemical_formula_sum "Si O2"
_cell_formula_units_Z 64
_cell_length_a 9.432420
_cell_length_b 24.386427
_cell_length_c 13.960381
_cell_angle_alpha 90.000000
_cell_angle_beta 94.577364
_cell_angle_gamma 90.000000
_cell_volume 3200.966823
_symmetry_space_group_name_H-M "C 2/C"
_symmetry_group_IT_number 15
_symmetry_cell_setting 'monoclinic'
loop_
_space_group_symop_operation_xyz
x,y,z
-x,y,1/2-z
-x,-y,-z
x,-y,1/2+z
1/2+x,1/2+y,z
1/2-x,1/2+y,1/2-z
1/2-x,1/2-y,-z
1/2+x,1/2-y,1/2+z
loop_
_atom_site_type_symbol
_atom_site_label
_atom_site_fract_x
_atom_site_fract_y
_atom_site_fract_z
Si Si1 0.554269 0.620969 0.017046
Si Si2 0.332388 0.889261 0.644565
Si Si3 0.636416 0.115758 0.811873
Si Si4 0.715395 0.687302 0.515796
Si Si5 0.861236 0.623543 0.363113
Si Si6 0.834205 0.966432 0.583884
Si Si7 0.121736 0.505827 0.926761
Si Si8 0.369778 0.576234 0.680576
O O1 0.688960 0.634554 0.090797
O O2 0.464288 0.573149 0.064011
O O3 0.453806 0.673803 0.990967
O O4 0.625005 0.604020 0.921860
O O5 0.473853 0.866372 0.599571
O O6 0.331467 0.865499 0.750742
O O7 0.360128 0.955024 0.645152
O O8 0.500000 0.141637 0.750000
O O9 0.708702 0.160863 0.886069
O O10 0.591767 0.062437 0.870199
O O11 0.733032 0.095780 0.729938
O O12 0.750000 0.750000 0.500000
O O13 0.768696 0.663770 0.419645
O O14 0.807081 0.562512 0.382846
O O15 0.779349 0.994138 0.482886
O O16 0.879527 0.010658 0.665674
O O17 0.000000 0.500000 0.000000
O O18 0.500000 0.596564 0.750000
#
# Coordination Sequence:
#
# PCOD8148564 Si02
#       8
#     8   8   8   8   8   8   8   8
#     4  11  24  41  63  95 130 170 223 272 326 390
#     4  11  23  37  64  99 134 171 210 261 325 395
#     4  12  26  41  66 100 133 176 224 267 330 401
#     4  11  25  52  71  86 123 172 224 295 344 384
#     4  10  23  42  62  92 130 169 222 261 319 394
#     4  11  21  35  57  90 138 187 208 249 314 392
#     4  12  20  36  61  93 141 181 213 245 316 396
#     4  12  23  37  60  97 143 172 215 266 322 400
#
# _framework density 19.993960000000001
#
# number of rings (size 3 to 8) (size 9 to 14) (size 15 to 20)
#    0.000    0.750    6.250    1.875    7.000    1.500 
#    2.250    3.125    0.000    0.000    0.000    0.000 
#    0.000    0.000    0.000    0.000    0.000    0.000 
#
# Total GULP energy -396537.562189 kJ/mol
# GULP energy per Si atom -12391.798818 kJ/mol
# Density = 1.994845 g / cm^3
# Si number density = 19.993960 Si / 1000 Ang^3
#
#
#
# Elastic Constant Matrix: (Units=GPa)
#
#
# Indices 1 2 3 4 5 6 
#
# 1 138.0858 24.6412 62.9074 0.0000 10.2369 0.0000
# 2 24.6412 85.6498 31.5317 0.0000 -1.7676 0.0000
# 3 62.9074 31.5317 99.8739 0.0000 -1.8980 0.0000
# 4 0.0000 0.0000 0.0000 -251.9735 0.0000 50.3165
# 5 10.2369 -1.7676 -1.8980 0.0000 46.8322 0.0000
# 6 0.0000 0.0000 0.0000 50.3165 0.0000 9.0138
#
#
#
# Elastic Compliance Matrix: (Units=1/GPa)
#
#
# Indices 1 2 3 4 5 6 
#
# 1 0.010490 -0.000702 -0.006435 0.000000 -0.002580 0.000000
# 2 -0.000702 0.013263 -0.003735 0.000000 0.000503 0.000000
# 3 -0.006435 -0.003735 0.015281 0.000000 0.001885 0.000000
# 4 0.000000 0.000000 0.000000 -0.001877 0.000000 0.010476
# 5 -0.002580 0.000503 0.001885 0.000000 0.022012 0.000000
# 6 0.000000 0.000000 0.000000 0.010476 0.000000 0.052462
#
#
# Mechanical properties :
#
#
# Convention : Reuss Voigt Hill
#
# Bulk Modulus (GPa) = 57.84002 62.41888 60.12945
# Shear Modulus (GPa) = 35.93546 -25.59021 5.17262
#
# Velocity S-wave (km/s) = 4.24408 -3.58145 1.61019
# Velocity P-wave (km/s) = 7.28064 3.76620 5.79621
#
# Compressibility (1/GPa) = 0.01728907
#
# Stress axis : x y z
#
# Youngs Moduli (GPa) = 95.33037 75.39732 65.44211
#
# Poissons Ratio (x) = 0.05295 0.42109
# Poissons Ratio (y) = 0.06695 0.24446
# Poissons Ratio (z) = 0.61341 0.28164
#
# Static dielectric constant tensor:
#      x y z
#    x 4.475200 0.000000 0.258100 
#    y 0.000000 2.667650 0.000000 
#    z 0.258100 0.000000 3.817770 
# 
# 
# High freq. dielectric constant tensor:
#      x y z
#    x 1.801580 0.000000 -0.003530 
#    y 0.000000 1.730000 0.000000 
#    z -0.003530 0.000000 1.794670 
# 
# From -- ./inp_files/137836.got.cif
#   From: 2010.06.25/outbox.cif.g09.slc.cpg/sg15_69_cif.got.tgz:137836.got - 2010.06.28 07:06:18.
