data_PCOD8148387
_publ_section_title
;
Structure prediction by ZEFSAII (Michael W. Deem and Ramdas Pophale) SiO2 
 PCOD8148387
Probable space group: C 2/C
;
_chemical_formula_sum "Si O2"
_cell_formula_units_Z 48
_cell_length_a 19.248366
_cell_length_b 8.013706
_cell_length_c 18.736155
_cell_angle_alpha 90.000000
_cell_angle_beta 126.418017
_cell_angle_gamma 90.000000
_cell_volume 2325.656694
_symmetry_space_group_name_H-M "C 2/C"
_symmetry_group_IT_number 15
_symmetry_cell_setting 'monoclinic'
loop_
_space_group_symop_operation_xyz
x,y,z
-x,y,1/2-z
-x,-y,-z
x,-y,1/2+z
1/2+x,1/2+y,z
1/2-x,1/2+y,1/2-z
1/2-x,1/2-y,-z
1/2+x,1/2-y,1/2+z
loop_
_atom_site_type_symbol
_atom_site_label
_atom_site_fract_x
_atom_site_fract_y
_atom_site_fract_z
Si Si1 0.747224 0.076036 0.344875
Si Si2 0.672107 0.813679 0.210010
Si Si3 0.526475 0.604838 0.189733
Si Si4 0.922300 0.593595 0.414429
Si Si5 0.581923 0.429060 0.006826
Si Si6 0.574264 0.234010 0.240340
O O1 0.764195 0.176757 0.282401
O O2 0.665697 0.171502 0.330977
O O3 0.719040 0.889305 0.307533
O O4 0.836839 0.058406 0.442789
O O5 0.582449 0.735167 0.180097
O O6 0.653589 0.956337 0.139094
O O7 0.500000 0.680613 0.250000
O O8 0.578499 0.433026 0.232982
O O9 0.440245 0.579290 0.090249
O O10 0.892223 0.750801 0.443701
O O11 0.946366 0.649611 0.348393
O O12 0.000000 0.500000 0.500000
O O13 0.500000 0.500000 0.000000
O O14 0.500000 0.181254 0.250000
#
# Coordination Sequence:
#
# PCOD8148387 Si02
#       6
#     8   8   8   8   8   8
#     4  11  22  38  66  93 126 167 212 263 304 380
#     4  11  21  37  63  96 127 160 215 257 312 376
#     4  11  23  42  66  92 132 169 204 263 323 369
#     4  11  20  36  65  98 121 165 211 257 312 379
#     4  12  21  41  67  94 127 163 216 260 308 375
#     4  10  23  41  63  89 129 168 208 259 323 367
#
# _framework density 20.639330999999999
#
# number of rings (size 3 to 8) (size 9 to 14) (size 15 to 20)
#    0.000    1.000    5.000    3.000    0.000    2.667 
#    0.000    4.167    7.333    0.000    0.000    0.000 
#    0.000    0.000    0.000    0.000    0.000    0.000 
#
# Total GULP energy -297491.562676 kJ/mol
# GULP energy per Si atom -12395.481778 kJ/mol
# Density = 2.059236 g / cm^3
# Si number density = 20.639331 Si / 1000 Ang^3
#
#
#
# Elastic Constant Matrix: (Units=GPa)
#
#
# Indices 1 2 3 4 5 6 
#
# 1 101.3069 35.2998 48.9271 0.0000 10.9554 0.0000
# 2 35.2998 88.1635 27.5310 0.0000 10.0575 0.0000
# 3 48.9271 27.5310 111.2186 0.0000 12.0113 0.0000
# 4 0.0000 0.0000 0.0000 32.7317 0.0000 -3.2216
# 5 10.9554 10.0575 12.0113 0.0000 37.9535 0.0000
# 6 0.0000 0.0000 0.0000 -3.2216 0.0000 13.4465
#
#
#
# Elastic Compliance Matrix: (Units=1/GPa)
#
#
# Indices 1 2 3 4 5 6 
#
# 1 0.013736 -0.003794 -0.004953 0.000000 -0.001392 0.000000
# 2 -0.003794 0.013551 -0.001466 0.000000 -0.002032 0.000000
# 3 -0.004953 -0.001466 0.011738 0.000000 -0.001897 0.000000
# 4 0.000000 0.000000 0.000000 0.031289 0.000000 0.007496
# 5 -0.001392 -0.002032 -0.001897 0.000000 0.027889 0.000000
# 6 0.000000 0.000000 0.000000 0.007496 0.000000 0.076165
#
#
# Mechanical properties :
#
#
# Convention : Reuss Voigt Hill
#
# Bulk Modulus (GPa) = 53.76737 58.24498 56.00618
# Shear Modulus (GPa) = 24.87648 29.42175 27.14911
#
# Velocity S-wave (km/s) = 3.47550 3.77970 3.63079
# Velocity P-wave (km/s) = 6.49715 6.87967 6.69114
#
# Compressibility (1/GPa) = 0.01859864
#
# Stress axis : x y z
#
# Youngs Moduli (GPa) = 72.80303 73.79389 85.19381
#
# Poissons Ratio (x) = 0.27998 0.42197
# Poissons Ratio (y) = 0.27623 0.12489
# Poissons Ratio (z) = 0.36060 0.10818
#
# Static dielectric constant tensor:
#      x y z
#    x 3.601280 0.000000 0.125060 
#    y 0.000000 4.043010 0.000000 
#    z 0.125060 0.000000 3.889450 
# 
# 
# High freq. dielectric constant tensor:
#      x y z
#    x 1.775870 0.000000 0.017930 
#    y 0.000000 1.825190 0.000000 
#    z 0.017930 0.000000 1.810550 
# 
# From -- ./inp_files/247653.got.cif
#   From: 2010.06.25/outbox.cif.g09.slc.cpg/sg15_124_cif.got.tgz:247653.got - 2010.06.28 07:06:18.
