data_PCOD8148578
_publ_section_title
;
Structure prediction by ZEFSAII (Michael W. Deem and Ramdas Pophale) SiO2 
 PCOD8148578
Probable space group: C 2/C
;
_chemical_formula_sum "Si O2"
_cell_formula_units_Z 52
_cell_length_a 19.247826
_cell_length_b 16.355076
_cell_length_c 9.308565
_cell_angle_alpha 90.000000
_cell_angle_beta 118.921817
_cell_angle_gamma 90.000000
_cell_volume 2564.863219
_symmetry_space_group_name_H-M "C 2/C"
_symmetry_group_IT_number 15
_symmetry_cell_setting 'monoclinic'
loop_
_space_group_symop_operation_xyz
x,y,z
-x,y,1/2-z
-x,-y,-z
x,-y,1/2+z
1/2+x,1/2+y,z
1/2-x,1/2+y,1/2-z
1/2-x,1/2-y,-z
1/2+x,1/2-y,1/2+z
loop_
_atom_site_type_symbol
_atom_site_label
_atom_site_fract_x
_atom_site_fract_y
_atom_site_fract_z
Si Si1 0.000000 0.500000 0.250000
Si Si2 0.707385 0.579200 0.040553
Si Si3 0.118602 0.631070 0.957750
Si Si4 0.707385 0.420800 0.874214
Si Si5 0.076149 0.789484 0.407016
Si Si6 0.923851 0.789484 0.754718
Si Si7 0.881398 0.368930 0.720545
O O1 0.943448 0.443445 0.096236
O O2 0.943447 0.556555 0.290658
O O3 0.703638 0.558034 0.203637
O O4 0.796281 0.600081 0.079824
O O5 0.675897 0.500001 0.925895
O O6 0.651929 0.655592 0.946069
O O7 0.089748 0.698493 0.816975
O O8 0.203719 0.600080 0.987264
O O9 0.126201 0.668126 0.126201
O O10 0.651929 0.344409 0.857788
O O11 0.058982 0.784474 0.558982
O O12 0.089746 0.698492 0.362520
O O13 0.000000 0.827791 0.250000
O O14 0.000000 0.827791 0.750000
#
# Coordination Sequence:
#
# PCOD8148578 Si02
#       7
#     4   8   8   8   8   8   8
#     4  12  22  36  68  98 126 148 202 244 314 356
#     4  10  23  42  63  91 124 164 206 253 306 365
#     4  11  23  40  63  94 128 159 200 250 311 372
#     4  10  23  42  63  91 124 164 206 253 306 365
#     4  11  24  41  63  90 124 163 209 256 306 361
#     4  11  24  41  63  90 124 163 209 256 306 361
#     4  11  23  40  63  94 128 159 200 250 311 372
#
# _framework density 20.273985
#
# number of rings (size 3 to 8) (size 9 to 14) (size 15 to 20)
#    0.000    1.231    3.077    2.308    0.000    5.538 
#    0.000    3.077    0.000    0.000    0.000    0.000 
#    0.000    0.000    0.000    0.000    0.000    0.000 
#
# Total GULP energy -322507.703609 kJ/mol
# GULP energy per Si atom -12404.142446 kJ/mol
# Density = 2.022784 g / cm^3
# Si number density = 20.273985 Si / 1000 Ang^3
#
#
#
# Elastic Constant Matrix: (Units=GPa)
#
#
# Indices 1 2 3 4 5 6 
#
# 1 131.5439 63.7710 52.4675 0.0000 15.1635 0.0000
# 2 63.7710 109.7869 51.3444 0.0000 10.7624 0.0000
# 3 52.4675 51.3444 101.1406 0.0000 11.1678 0.0000
# 4 0.0000 0.0000 0.0000 29.8827 0.0000 4.8171
# 5 15.1635 10.7624 11.1678 0.0000 34.2443 0.0000
# 6 0.0000 0.0000 0.0000 4.8171 0.0000 35.4454
#
#
#
# Elastic Compliance Matrix: (Units=1/GPa)
#
#
# Indices 1 2 3 4 5 6 
#
# 1 0.011586 -0.004986 -0.003201 0.000000 -0.002520 0.000000
# 2 -0.004986 0.014203 -0.004538 0.000000 -0.000776 0.000000
# 3 -0.003201 -0.004538 0.014043 0.000000 -0.001736 0.000000
# 4 0.000000 0.000000 0.000000 0.034214 0.000000 -0.004650
# 5 -0.002520 -0.000776 -0.001736 0.000000 0.031128 0.000000
# 6 0.000000 0.000000 0.000000 -0.004650 0.000000 0.028844
#
#
# Mechanical properties :
#
#
# Convention : Reuss Voigt Hill
#
# Bulk Modulus (GPa) = 69.52951 75.29303 72.41127
# Shear Modulus (GPa) = 30.43895 31.57372 31.00634
#
# Velocity S-wave (km/s) = 3.87897 3.95061 3.91495
# Velocity P-wave (km/s) = 7.37775 7.61762 7.49865
#
# Compressibility (1/GPa) = 0.01438238
#
# Stress axis : x y z
#
# Youngs Moduli (GPa) = 86.30775 70.40694 71.20825
#
# Poissons Ratio (x) = 0.35105 0.22795
# Poissons Ratio (y) = 0.43033 0.32315
# Poissons Ratio (z) = 0.27629 0.31951
#
# Static dielectric constant tensor:
#      x y z
#    x 3.973700 0.000000 0.239570 
#    y 0.000000 3.532280 0.000000 
#    z 0.239570 0.000000 3.697080 
# 
# 
# High freq. dielectric constant tensor:
#      x y z
#    x 1.805690 0.000000 0.008690 
#    y 0.000000 1.786480 0.000000 
#    z 0.008690 0.000000 1.795650 
# 
# From -- ./inp_files/49221.got.cif
#   From: 2010.06.25/outbox.cif.g09.slc.cpg/sg15_25_cif.got.tgz:49221.got - 2010.06.28 07:06:18.
