data_PCOD8148193
_publ_section_title
;
Structure prediction by ZEFSAII (Michael W. Deem and Ramdas Pophale) SiO2 
 PCOD8148193
Probable space group: C 2/C
;
_chemical_formula_sum "Si O2"
_cell_formula_units_Z 56
_cell_length_a 11.906162
_cell_length_b 16.266936
_cell_length_c 13.076116
_cell_angle_alpha 90.000000
_cell_angle_beta 116.060387
_cell_angle_gamma 90.000000
_cell_volume 2275.060502
_symmetry_space_group_name_H-M "C 2/C"
_symmetry_group_IT_number 15
_symmetry_cell_setting 'monoclinic'
loop_
_space_group_symop_operation_xyz
x,y,z
-x,y,1/2-z
-x,-y,-z
x,-y,1/2+z
1/2+x,1/2+y,z
1/2-x,1/2+y,1/2-z
1/2-x,1/2-y,-z
1/2+x,1/2-y,1/2+z
loop_
_atom_site_type_symbol
_atom_site_label
_atom_site_fract_x
_atom_site_fract_y
_atom_site_fract_z
Si Si1 0.415061 0.429929 0.127953
Si Si2 0.202818 0.644699 0.160217
Si Si3 0.801811 0.316030 0.440780
Si Si4 0.059593 0.215446 0.169616
Si Si5 0.234651 0.558029 0.959743
Si Si6 0.977904 0.448821 0.592056
Si Si7 0.606373 0.323527 0.079788
O O1 0.500000 0.471796 0.250000
O O2 0.305827 0.378103 0.139709
O O3 0.352775 0.498591 0.031651
O O4 0.494539 0.363124 0.098205
O O5 0.342566 0.641907 0.262574
O O6 0.200108 0.614072 0.042818
O O7 0.149547 0.737524 0.144348
O O8 0.112489 0.582453 0.190351
O O9 0.750000 0.250000 0.500000
O O10 0.859911 0.281336 0.360315
O O11 0.909885 0.363392 0.542641
O O12 0.000000 0.252967 0.250000
O O13 0.944399 0.183703 0.056716
O O14 0.112375 0.505611 0.873520
O O15 0.274094 0.615802 0.881005
O O16 0.000000 0.500000 0.500000
#
# Coordination Sequence:
#
# PCOD8148193 Si02
#       7
#     8   8   8   8   8   8   8
#     4  11  24  42  67  95 138 183 228 280 353 419
#     4  11  22  42  69  95 135 180 227 283 347 411
#     4  11  21  42  66  94 133 176 226 286 335 406
#     4  12  25  38  71 105 136 174 243 292 347 405
#     4  10  23  39  67  97 137 177 220 288 352 406
#     4   9  20  40  64  92 132 179 217 273 348 411
#     4  12  23  44  69 102 136 178 238 289 341 410
#
# _framework density 24.614730000000002
#
# number of rings (size 3 to 8) (size 9 to 14) (size 15 to 20)
#    0.000    1.143    4.286    1.714    2.000    0.000 
#    0.000    0.000    0.000    5.143    0.000    0.000 
#    0.000    0.000    0.000    0.000    0.000    0.000 
#
# Total GULP energy -346998.426213 kJ/mol
# GULP energy per Si atom -12392.800936 kJ/mol
# Density = 2.455871 g / cm^3
# Si number density = 24.614730 Si / 1000 Ang^3
#
#
#
# Elastic Constant Matrix: (Units=GPa)
#
#
# Indices 1 2 3 4 5 6 
#
# 1 124.7147 37.8270 21.8196 0.0000 -2.1244 0.0000
# 2 37.8270 99.2127 5.9063 0.0000 -1.7984 0.0000
# 3 21.8196 5.9063 37.8563 0.0000 -1.7366 0.0000
# 4 0.0000 0.0000 0.0000 7.9996 0.0000 -10.0783
# 5 -2.1244 -1.7984 -1.7366 0.0000 34.4096 0.0000
# 6 0.0000 0.0000 0.0000 -10.0783 0.0000 51.6482
#
#
#
# Elastic Compliance Matrix: (Units=1/GPa)
#
#
# Indices 1 2 3 4 5 6 
#
# 1 0.009993 -0.003497 -0.005206 0.000000 0.000171 0.000000
# 2 -0.003497 0.011405 0.000254 0.000000 0.000393 0.000000
# 3 -0.005206 0.000254 0.029431 0.000000 0.001177 0.000000
# 4 0.000000 0.000000 0.000000 0.165754 0.000000 0.032344
# 5 0.000171 0.000393 0.001177 0.000000 0.029152 0.000000
# 6 0.000000 0.000000 0.000000 0.032344 0.000000 0.025673
#
#
# Mechanical properties :
#
#
# Convention : Reuss Voigt Hill
#
# Bulk Modulus (GPa) = 29.47208 43.65440 36.56324
# Shear Modulus (GPa) = 16.68806 31.89353 24.29079
#
# Velocity S-wave (km/s) = 2.60661 3.60350 3.14481
# Velocity P-wave (km/s) = 4.58896 5.92345 5.29839
#
# Compressibility (1/GPa) = 0.03393042
#
# Stress axis : x y z
#
# Youngs Moduli (GPa) = 100.07295 87.68381 33.97808
#
# Poissons Ratio (x) = 0.30662 0.17689
# Poissons Ratio (y) = 0.34995 -0.00864
# Poissons Ratio (z) = 0.52099 -0.02229
#
# Static dielectric constant tensor:
#      x y z
#    x 5.060700 0.000000 0.388980 
#    y 0.000000 4.543980 0.000000 
#    z 0.388980 0.000000 4.143340 
# 
# 
# High freq. dielectric constant tensor:
#      x y z
#    x 2.011230 0.000000 0.013280 
#    y 0.000000 1.981860 0.000000 
#    z 0.013280 0.000000 1.944930 
# 
# From -- ./inp_files/145760.got.cif
#   From: 2010.06.25/outbox.cif.g09.slc.cpg/sg15_73_cif.got.tgz:145760.got - 2010.06.28 07:06:18.
