data_PCOD8148128
_publ_section_title
;
Structure prediction by ZEFSAII (Michael W. Deem and Ramdas Pophale) SiO2 
 PCOD8148128
Probable space group: C 2/C
;
_chemical_formula_sum "Si O2"
_cell_formula_units_Z 64
_cell_length_a 14.789281
_cell_length_b 9.864097
_cell_length_c 32.417793
_cell_angle_alpha 90.000000
_cell_angle_beta 42.875097
_cell_angle_gamma 90.000000
_cell_volume 3217.760268
_symmetry_space_group_name_H-M "C 2/C"
_symmetry_group_IT_number 15
_symmetry_cell_setting 'monoclinic'
loop_
_space_group_symop_operation_xyz
x,y,z
-x,y,1/2-z
-x,-y,-z
x,-y,1/2+z
1/2+x,1/2+y,z
1/2-x,1/2+y,1/2-z
1/2-x,1/2-y,-z
1/2+x,1/2-y,1/2+z
loop_
_atom_site_type_symbol
_atom_site_label
_atom_site_fract_x
_atom_site_fract_y
_atom_site_fract_z
Si Si1 0.858878 0.727201 0.129723
Si Si2 0.264655 0.708869 0.412404
Si Si3 0.471788 0.309056 0.627485
Si Si4 0.583132 0.431167 0.508758
Si Si5 0.778146 0.570065 0.674666
Si Si6 0.293818 0.594589 0.892914
Si Si7 0.096359 0.074601 0.813049
Si Si8 0.849164 0.213835 0.001691
O O1 0.742926 0.747118 0.133840
O O2 0.845119 0.578055 0.153970
O O3 0.837212 0.836104 0.173053
O O4 0.999692 0.747622 0.059761
O O5 0.404979 0.743193 0.386186
O O6 0.152803 0.792158 0.473513
O O7 0.235574 0.549194 0.428073
O O8 0.501509 0.396887 0.576846
O O9 0.395993 0.175400 0.640384
O O10 0.387294 0.414489 0.683193
O O11 0.500000 0.500000 0.500000
O O12 0.682143 0.553544 0.485597
O O13 0.700839 0.597218 0.658121
O O14 0.671325 0.598795 0.745561
O O15 0.441871 0.617231 0.860897
O O16 0.193073 0.710783 0.942045
O O17 0.750000 0.250000 0.000000
#
# Coordination Sequence:
#
# PCOD8148128 Si02
#       8
#     8   8   8   8   8   8   8   8
#     4  11  23  41  63  92 124 165 204 253 315 372
#     4  10  23  39  60  90 125 161 200 249 309 376
#     4  11  23  40  60  91 122 162 210 250 305 371
#     4  12  22  39  60  88 129 166 195 251 315 375
#     4  11  25  38  65  90 120 160 210 261 294 364
#     4  10  23  40  64  91 122 160 204 253 314 371
#     4  11  21  46  61  86 122 164 208 250 310 366
#     4  12  22  38  63  94 127 158 199 257 317 372
#
# _framework density 19.889610000000001
#
# number of rings (size 3 to 8) (size 9 to 14) (size 15 to 20)
#    0.000    1.000    3.750    3.000    3.500    1.000 
#    0.000    1.875    0.000    0.000    0.000    0.000 
#    0.000    0.000    0.000    0.000    0.000    0.000 
#
# Total GULP energy -396685.606096 kJ/mol
# GULP energy per Si atom -12396.425191 kJ/mol
# Density = 1.984434 g / cm^3
# Si number density = 19.889610 Si / 1000 Ang^3
#
#
#
# Elastic Constant Matrix: (Units=GPa)
#
#
# Indices 1 2 3 4 5 6 
#
# 1 118.8288 38.2313 25.4872 -0.0001 15.7404 -0.0001
# 2 38.2313 100.7906 48.4931 0.0000 -2.2187 0.0000
# 3 25.4872 48.4931 80.8160 0.0001 14.1827 0.0000
# 4 -0.0001 0.0000 0.0001 29.8314 0.0000 4.8406
# 5 15.7404 -2.2187 14.1827 0.0000 23.0194 0.0000
# 6 -0.0001 0.0000 0.0000 4.8406 0.0000 36.8102
#
#
#
# Elastic Compliance Matrix: (Units=1/GPa)
#
#
# Indices 1 2 3 4 5 6 
#
# 1 0.010866 -0.004740 0.000898 0.000000 -0.008440 0.000000
# 2 -0.004740 0.017199 -0.010859 0.000000 0.011589 0.000000
# 3 0.000898 -0.010859 0.021189 0.000000 -0.014716 0.000000
# 4 0.000000 0.000000 0.000000 0.034253 0.000000 -0.004504
# 5 -0.008440 0.011589 -0.014716 0.000000 0.059397 0.000000
# 6 0.000000 0.000000 0.000000 -0.004504 0.000000 0.027759
#
#
# Mechanical properties :
#
#
# Convention : Reuss Voigt Hill
#
# Bulk Modulus (GPa) = 50.37043 58.31761 54.34402
# Shear Modulus (GPa) = 24.19191 30.48046 27.33618
#
# Velocity S-wave (km/s) = 3.49135 3.91894 3.71131
# Velocity P-wave (km/s) = 6.45234 7.06128 6.76367
#
# Compressibility (1/GPa) = 0.01985292
#
# Stress axis : x y z
#
# Youngs Moduli (GPa) = 92.03327 58.14224 47.19395
#
# Poissons Ratio (x) = 0.27557 -0.04240
# Poissons Ratio (y) = 0.43619 0.51250
# Poissons Ratio (z) = -0.08268 0.63139
#
# Static dielectric constant tensor:
#      x y z
#    x 5.051420 0.000010 -1.074770 
#    y 0.000010 2.084850 -0.000020 
#    z -1.074770 -0.000020 5.082070 
# 
# 
# High freq. dielectric constant tensor:
#      x y z
#    x 1.788460 0.000000 0.022950 
#    y 0.000000 1.789830 0.000000 
#    z 0.022950 0.000000 1.764070 
# 
# From -- ./inp_files/313114.got.cif
#   From: 2010.06.25/outbox.cif.g09.slc.cpg/sg15_157_cif.got.tgz:313114.got - 2010.06.28 07:06:18.
