data_PCOD8148738
_publ_section_title
;
Structure prediction by ZEFSAII (Michael W. Deem and Ramdas Pophale) SiO2 
 PCOD8148738
Probable space group: C 2/C
;
_chemical_formula_sum "Si O2"
_cell_formula_units_Z 28
_cell_length_a 7.228662
_cell_length_b 16.080196
_cell_length_c 11.166601
_cell_angle_alpha 90.000000
_cell_angle_beta 89.398209
_cell_angle_gamma 90.000000
_cell_volume 1297.915142
_symmetry_space_group_name_H-M "C 2/C"
_symmetry_group_IT_number 15
_symmetry_cell_setting 'monoclinic'
loop_
_space_group_symop_operation_xyz
x,y,z
-x,y,1/2-z
-x,-y,-z
x,-y,1/2+z
1/2+x,1/2+y,z
1/2-x,1/2+y,1/2-z
1/2-x,1/2-y,-z
1/2+x,1/2-y,1/2+z
loop_
_atom_site_type_symbol
_atom_site_label
_atom_site_fract_x
_atom_site_fract_y
_atom_site_fract_z
Si Si1 0.500000 0.957151 0.250000
Si Si2 0.244781 0.600736 0.331535
Si Si3 0.469677 0.842878 0.032059
Si Si4 0.106298 0.158546 0.407503
O O1 0.679912 0.012126 0.279963
O O2 0.550510 0.900738 0.135866
O O3 0.437080 0.591891 0.405319
O O4 0.286838 0.662227 0.220210
O O5 0.083066 0.640541 0.410898
O O6 0.488908 0.747260 0.067631
O O7 0.253258 0.864869 0.009748
#
# Coordination Sequence:
#
# PCOD8148738 Si02
#       4
#     4   8   8   8
#     4  12  24  40  64  92 134 162 200 252 328 358
#     4  11  22  42  64  92 127 161 203 264 302 369
#     4  11  23  44  64  92 125 167 204 261 302 370
#     4  10  23  42  69  89 121 165 220 244 307 367
#
# _framework density 21.573060000000002
#
# number of rings (size 3 to 8) (size 9 to 14) (size 15 to 20)
#    0.000    1.143    2.857    3.429    0.000    1.143 
#    5.143    0.000    0.000    0.000    0.000    0.000 
#    0.000    0.000    0.000    0.000    0.000    0.000 
#
# Total GULP energy -173578.624417 kJ/mol
# GULP energy per Si atom -12398.473173 kJ/mol
# Density = 2.152396 g / cm^3
# Si number density = 21.573060 Si / 1000 Ang^3
#
#
#
# Elastic Constant Matrix: (Units=GPa)
#
#
# Indices 1 2 3 4 5 6 
#
# 1 143.2812 59.6663 37.7091 0.0000 17.9657 0.0000
# 2 59.6663 96.6041 57.7414 0.0000 -0.8956 0.0000
# 3 37.7091 57.7414 77.4806 0.0000 1.0862 0.0000
# 4 0.0000 0.0000 0.0000 43.0333 0.0000 17.2144
# 5 17.9657 -0.8956 1.0862 0.0000 35.0406 0.0000
# 6 0.0000 0.0000 0.0000 17.2144 0.0000 23.5012
#
#
#
# Elastic Compliance Matrix: (Units=1/GPa)
#
#
# Indices 1 2 3 4 5 6 
#
# 1 0.010351 -0.006272 -0.000287 0.000000 -0.005459 0.000000
# 2 -0.006272 0.022496 -0.013771 0.000000 0.004218 0.000000
# 3 -0.000287 -0.013771 0.023322 0.000000 -0.000928 0.000000
# 4 0.000000 0.000000 0.000000 0.032869 0.000000 -0.024076
# 5 -0.005459 0.004218 -0.000928 0.000000 0.031474 0.000000
# 6 0.000000 0.000000 0.000000 -0.024076 0.000000 0.060187
#
#
# Mechanical properties :
#
#
# Convention : Reuss Voigt Hill
#
# Bulk Modulus (GPa) = 64.48264 69.73326 67.10795
# Shear Modulus (GPa) = 22.07226 31.13162 26.60194
#
# Velocity S-wave (km/s) = 3.20213 3.80291 3.51538
# Velocity P-wave (km/s) = 6.60505 7.18869 6.90304
#
# Compressibility (1/GPa) = 0.01550805
#
# Stress axis : x y z
#
# Youngs Moduli (GPa) = 96.60658 44.45243 42.87821
#
# Poissons Ratio (x) = 0.27883 0.01230
# Poissons Ratio (y) = 0.60596 0.59048
# Poissons Ratio (z) = 0.02771 0.61216
#
# Static dielectric constant tensor:
#      x y z
#    x 4.184960 0.000000 0.264470 
#    y 0.000000 3.676970 0.000000 
#    z 0.264470 0.000000 3.989010 
# 
# 
# High freq. dielectric constant tensor:
#      x y z
#    x 1.859200 0.000000 0.013800 
#    y 0.000000 1.826310 0.000000 
#    z 0.013800 0.000000 1.853030 
# 
# From -- ./inp_files/21563.got.cif
#   From: 2010.06.25/outbox.cif.g09.slc.cpg/sg15_11_cif.got.tgz:21563.got - 2010.06.28 07:06:18.
