data_PCOD8148735
_publ_section_title
;
Structure prediction by ZEFSAII (Michael W. Deem and Ramdas Pophale) SiO2 
 PCOD8148735
Probable space group: C 2/C
;
_chemical_formula_sum "Si O2"
_cell_formula_units_Z 60
_cell_length_a 17.784304
_cell_length_b 28.043170
_cell_length_c 8.708463
_cell_angle_alpha 90.000000
_cell_angle_beta 37.974170
_cell_angle_gamma 90.000000
_cell_volume 2672.371024
_symmetry_space_group_name_H-M "C 2/C"
_symmetry_group_IT_number 15
_symmetry_cell_setting 'monoclinic'
loop_
_space_group_symop_operation_xyz
x,y,z
-x,y,1/2-z
-x,-y,-z
x,-y,1/2+z
1/2+x,1/2+y,z
1/2-x,1/2+y,1/2-z
1/2-x,1/2-y,-z
1/2+x,1/2-y,1/2+z
loop_
_atom_site_type_symbol
_atom_site_label
_atom_site_fract_x
_atom_site_fract_y
_atom_site_fract_z
Si Si1 0.857667 0.823282 0.703002
Si Si2 0.500000 0.723604 0.250000
Si Si3 0.020995 0.920868 0.046483
Si Si4 0.123078 0.349101 0.484438
Si Si5 0.259894 0.254938 0.300815
Si Si6 0.240785 0.034959 0.022018
Si Si7 0.383789 0.123918 0.838286
Si Si8 0.264593 0.562015 0.824189
O O1 0.926673 0.867634 0.515450
O O2 0.841954 0.780155 0.607775
O O3 0.930146 0.808575 0.738615
O O4 0.721317 0.837905 0.964458
O O5 0.397012 0.754506 0.509936
O O6 0.000000 0.942699 0.250000
O O7 0.897455 0.918407 0.150157
O O8 0.109849 0.955892 0.810661
O O9 0.226115 0.308735 0.307703
O O10 0.079362 0.370928 0.395766
O O11 0.173904 0.393811 0.500678
O O12 0.000000 0.326404 0.750000
O O13 0.250000 0.250000 0.500000
O O14 0.278501 0.980507 0.994109
O O15 0.338772 0.070056 0.944086
O O16 0.234516 0.044251 0.851816
O O17 0.500000 0.137234 0.750000
#
# Coordination Sequence:
#
# PCOD8148735 Si02
#       8
#     8   4   8   8   8   8   8   8
#     4  11  27  44  72 107 140 199 238 298 373 428
#     4  12  26  50  76 100 152 190 254 310 362 442
#     4  11  24  39  68 103 144 183 237 300 361 437
#     4  11  27  45  68 100 141 186 238 298 367 427
#     4  12  30  47  74 110 145 193 250 307 367 442
#     4  10  23  42  69 101 137 186 242 292 371 434
#     4  10  24  45  69 101 140 186 239 292 364 442
#     4  11  23  45  68  99 140 186 239 299 367 432
#
# _framework density 22.451972000000001
#
# number of rings (size 3 to 8) (size 9 to 14) (size 15 to 20)
#    0.000    1.067    1.333    2.800   12.133    2.667 
#    0.000    2.667    0.000    0.000    0.000    0.000 
#    0.000    0.000    0.000    0.000    0.000    0.000 
#
# Total GULP energy -372008.258605 kJ/mol
# GULP energy per Si atom -12400.275287 kJ/mol
# Density = 2.240087 g / cm^3
# Si number density = 22.451972 Si / 1000 Ang^3
#
#
#
# Elastic Constant Matrix: (Units=GPa)
#
#
# Indices 1 2 3 4 5 6 
#
# 1 138.3832 38.0009 24.6506 0.0000 -12.6873 0.0000
# 2 38.0009 116.0545 10.4793 0.0000 -6.7031 0.0000
# 3 24.6506 10.4793 90.5783 0.0000 -2.0881 0.0000
# 4 0.0000 0.0000 0.0000 21.5078 0.0000 3.4451
# 5 -12.6873 -6.7031 -2.0881 0.0000 29.7660 0.0000
# 6 0.0000 0.0000 0.0000 3.4451 0.0000 33.2214
#
#
#
# Elastic Compliance Matrix: (Units=1/GPa)
#
#
# Indices 1 2 3 4 5 6 
#
# 1 0.008517 -0.002441 -0.001968 0.000000 0.002942 0.000000
# 2 -0.002441 0.009515 -0.000412 0.000000 0.001073 0.000000
# 3 -0.001968 -0.000412 0.011621 0.000000 -0.000116 0.000000
# 4 0.000000 0.000000 0.000000 0.047280 0.000000 -0.004903
# 5 0.002942 0.001073 -0.000116 0.000000 0.035083 0.000000
# 6 0.000000 0.000000 0.000000 -0.004903 0.000000 0.030610
#
#
# Mechanical properties :
#
#
# Convention : Reuss Voigt Hill
#
# Bulk Modulus (GPa) = 49.97079 54.58638 52.27859
# Shear Modulus (GPa) = 31.45901 35.02472 33.24187
#
# Velocity S-wave (km/s) = 3.74728 3.95395 3.85200
# Velocity P-wave (km/s) = 6.40530 6.72386 6.56651
#
# Compressibility (1/GPa) = 0.02001169
#
# Stress axis : x y z
#
# Youngs Moduli (GPa) = 117.41314 105.09554 86.05406
#
# Poissons Ratio (x) = 0.25656 0.16932
# Poissons Ratio (y) = 0.28663 0.03543
# Poissons Ratio (z) = 0.23102 0.04327
#
# Static dielectric constant tensor:
#      x y z
#    x 4.112210 0.000000 -0.052720 
#    y 0.000000 4.106520 0.000000 
#    z -0.052720 0.000000 4.024670 
# 
# 
# High freq. dielectric constant tensor:
#      x y z
#    x 1.894050 0.000000 0.000550 
#    y 0.000000 1.890940 0.000000 
#    z 0.000550 0.000000 1.883560 
# 
# From -- ./inp_files/52812.got.cif
#   From: 2010.06.25/outbox.cif.g09.slc.cpg/sg15_27_cif.got.tgz:52812.got - 2010.06.28 07:06:18.
