data_PCOD8148335
_publ_section_title
;
Structure prediction by ZEFSAII (Michael W. Deem and Ramdas Pophale) SiO2 
 PCOD8148335
Probable space group: C 2/C
;
_chemical_formula_sum "Si O2"
_cell_formula_units_Z 40
_cell_length_a 18.148809
_cell_length_b 7.021909
_cell_length_c 17.973892
_cell_angle_alpha 90.000000
_cell_angle_beta 121.779535
_cell_angle_gamma 90.000000
_cell_volume 1947.178168
_symmetry_space_group_name_H-M "C 2/C"
_symmetry_group_IT_number 15
_symmetry_cell_setting 'monoclinic'
loop_
_space_group_symop_operation_xyz
x,y,z
-x,y,1/2-z
-x,-y,-z
x,-y,1/2+z
1/2+x,1/2+y,z
1/2-x,1/2+y,1/2-z
1/2-x,1/2-y,-z
1/2+x,1/2-y,1/2+z
loop_
_atom_site_type_symbol
_atom_site_label
_atom_site_fract_x
_atom_site_fract_y
_atom_site_fract_z
Si Si1 0.265938 0.537342 0.033386
Si Si2 0.319151 0.440284 0.224361
Si Si3 0.633870 0.206638 0.659526
Si Si4 0.541627 0.878641 0.694706
Si Si5 0.882983 0.252602 0.520679
O O1 0.303486 0.535076 0.136267
O O2 0.174934 0.427279 0.980340
O O3 0.250000 0.750000 0.000000
O O4 0.334669 0.444981 0.013207
O O5 0.368998 0.589565 0.302297
O O6 0.229407 0.382229 0.215159
O O7 0.375420 0.251063 0.244156
O O8 0.601403 0.235110 0.558628
O O9 0.566950 0.068520 0.664625
O O10 0.500000 0.943325 0.750000
O O11 0.475037 0.757019 0.609979
#
# Coordination Sequence:
#
# PCOD8148335 Si02
#       5
#     8   8   8   8   8
#     4  10  23  40  69  96 140 178 223 272 349 401
#     4  11  24  42  68 101 129 184 225 275 336 409
#     4  11  25  42  71  94 136 179 227 275 345 398
#     4  12  25  44  68 100 142 170 229 286 333 399
#     4  10  24  43  63 102 134 177 224 285 330 403
#
# _framework density 20.542548
#
# number of rings (size 3 to 8) (size 9 to 14) (size 15 to 20)
#    0.000    1.200    4.000    0.600    5.600    3.200 
#    0.000    0.000    0.000    0.000    0.000    0.000 
#    0.000    0.000    0.000    0.000    0.000    0.000 
#
# Total GULP energy -248158.515440 kJ/mol
# GULP energy per Si atom -12407.925772 kJ/mol
# Density = 2.049579 g / cm^3
# Si number density = 20.542548 Si / 1000 Ang^3
#
#
#
# Elastic Constant Matrix: (Units=GPa)
#
#
# Indices 1 2 3 4 5 6 
#
# 1 115.8900 46.9616 46.4631 0.0000 -23.9772 0.0000
# 2 46.9616 104.4320 18.3426 0.0000 -18.9016 0.0000
# 3 46.4631 18.3426 89.1670 0.0000 -5.0825 0.0000
# 4 0.0000 0.0000 0.0000 28.8468 0.0000 -8.3539
# 5 -23.9772 -18.9016 -5.0825 0.0000 31.5652 0.0000
# 6 0.0000 0.0000 0.0000 -8.3539 0.0000 30.1551
#
#
#
# Elastic Compliance Matrix: (Units=1/GPa)
#
#
# Indices 1 2 3 4 5 6 
#
# 1 0.014266 -0.003978 -0.006190 0.000000 0.007457 0.000000
# 2 -0.003978 0.012163 -0.000188 0.000000 0.004232 0.000000
# 3 -0.006190 -0.000188 0.014336 0.000000 -0.002506 0.000000
# 4 0.000000 0.000000 0.000000 0.037690 0.000000 0.010441
# 5 0.007457 0.004232 -0.002506 0.000000 0.039476 0.000000
# 6 0.000000 0.000000 0.000000 0.010441 0.000000 0.036054
#
#
# Mechanical properties :
#
#
# Convention : Reuss Voigt Hill
#
# Bulk Modulus (GPa) = 49.86824 59.22483 54.54654
# Shear Modulus (GPa) = 27.56624 31.29487 29.43055
#
# Velocity S-wave (km/s) = 3.66718 3.90733 3.78916
# Velocity P-wave (km/s) = 6.50071 7.01778 6.76419
#
# Compressibility (1/GPa) = 0.02005284
#
# Stress axis : x y z
#
# Youngs Moduli (GPa) = 70.09904 82.21395 69.75320
#
# Poissons Ratio (x) = 0.32705 0.43178
# Poissons Ratio (y) = 0.27885 0.01312
# Poissons Ratio (z) = 0.43392 0.01546
#
# Static dielectric constant tensor:
#      x y z
#    x 3.813900 0.000000 -0.068500 
#    y 0.000000 3.569900 0.000000 
#    z -0.068500 0.000000 3.778780 
# 
# 
# High freq. dielectric constant tensor:
#      x y z
#    x 1.809880 0.000000 -0.006040 
#    y 0.000000 1.802450 0.000000 
#    z -0.006040 0.000000 1.814730 
# 
# From -- ./inp_files/251143.got.cif
#   From: 2010.06.25/outbox.cif.g09.slc.cpg/sg15_126_cif.got.tgz:251143.got - 2010.06.28 07:06:18.
