data_PCOD8148940
_publ_section_title
;
Structure prediction by ZEFSAII (Michael W. Deem and Ramdas Pophale) SiO2 
 PCOD8148940
Probable space group: C 2/C
;
_chemical_formula_sum "Si O2"
_cell_formula_units_Z 60
_cell_length_a 10.899940
_cell_length_b 27.990746
_cell_length_c 9.099739
_cell_angle_alpha 90.000000
_cell_angle_beta 104.716923
_cell_angle_gamma 90.000000
_cell_volume 2685.224207
_symmetry_space_group_name_H-M "C 2/C"
_symmetry_group_IT_number 15
_symmetry_cell_setting 'monoclinic'
loop_
_space_group_symop_operation_xyz
x,y,z
-x,y,1/2-z
-x,-y,-z
x,-y,1/2+z
1/2+x,1/2+y,z
1/2-x,1/2+y,1/2-z
1/2-x,1/2-y,-z
1/2+x,1/2-y,1/2+z
loop_
_atom_site_type_symbol
_atom_site_label
_atom_site_fract_x
_atom_site_fract_y
_atom_site_fract_z
Si Si1 0.365172 0.397864 0.650710
Si Si2 0.376703 0.693412 0.970930
Si Si3 0.705915 0.560558 0.881824
Si Si4 0.098905 0.623609 0.144502
Si Si5 0.088311 0.294270 0.412786
Si Si6 0.500000 0.362832 0.250000
Si Si7 0.859578 0.016899 0.936004
Si Si8 0.518822 0.950291 0.085978
O O1 0.500000 0.418101 0.750000
O O2 0.394361 0.345614 0.600546
O O3 0.247782 0.388283 0.731784
O O4 0.324330 0.433883 0.507957
O O5 0.449232 0.740972 0.046879
O O6 0.230269 0.704723 0.892883
O O7 0.436788 0.672919 0.842713
O O8 0.605645 0.603885 0.862239
O O9 0.664384 0.523290 0.743011
O O10 0.720752 0.528599 0.033239
O O11 0.847737 0.577765 0.893922
O O12 0.000000 0.618252 0.250000
O O13 0.077073 0.674190 0.057813
O O14 0.082538 0.585318 0.010805
O O15 0.000000 0.311247 0.250000
O O16 0.000000 0.000000 0.000000
O O17 0.500000 0.960372 0.250000
O O18 0.500000 0.000000 0.000000
#
# Coordination Sequence:
#
# PCOD8148940 Si02
#       8
#     8   8   8   8   8   4   8   8
#     4  11  22  41  68  91 133 178 222 281 344 404
#     4  10  23  43  68 100 139 169 228 288 350 419
#     4  12  24  41  64  95 137 179 226 283 338 402
#     4  11  26  44  67 102 137 175 234 284 343 420
#     4  10  23  46  74  96 132 184 225 280 358 423
#     4  12  24  40  66 104 138 170 230 290 348 410
#     4  12  22  39  60  95 129 177 225 273 333 404
#     4  12  26  44  69  94 138 186 233 284 343 409
#
# _framework density 22.344503
#
# number of rings (size 3 to 8) (size 9 to 14) (size 15 to 20)
#    0.000    0.800    2.667    4.400    4.667    3.200 
#    0.000    0.667    0.000    0.000    0.000    0.000 
#    0.000    0.000    0.000    0.000    0.000    0.000 
#
# Total GULP energy -371799.911638 kJ/mol
# GULP energy per Si atom -12393.330388 kJ/mol
# Density = 2.229365 g / cm^3
# Si number density = 22.344503 Si / 1000 Ang^3
#
#
#
# Elastic Constant Matrix: (Units=GPa)
#
#
# Indices 1 2 3 4 5 6 
#
# 1 128.1431 24.9284 31.1682 0.0000 -10.8387 0.0000
# 2 24.9284 119.4395 23.8864 0.0000 -16.4407 0.0000
# 3 31.1682 23.8864 79.5260 0.0000 -11.7261 0.0000
# 4 0.0000 0.0000 0.0000 28.4064 0.0000 -6.2268
# 5 -10.8387 -16.4407 -11.7261 0.0000 40.3388 0.0000
# 6 0.0000 0.0000 0.0000 -6.2268 0.0000 33.4295
#
#
#
# Elastic Compliance Matrix: (Units=1/GPa)
#
#
# Indices 1 2 3 4 5 6 
#
# 1 0.008831 -0.001103 -0.002974 0.000000 0.001059 0.000000
# 2 -0.001103 0.009402 -0.001954 0.000000 0.002968 0.000000
# 3 -0.002974 -0.001954 0.014723 0.000000 0.002684 0.000000
# 4 0.000000 0.000000 0.000000 0.036702 0.000000 0.006836
# 5 0.001059 0.002968 0.002684 0.000000 0.027064 0.000000
# 6 0.000000 0.000000 0.000000 0.006836 0.000000 0.031187
#
#
# Mechanical properties :
#
#
# Convention : Reuss Voigt Hill
#
# Bulk Modulus (GPa) = 47.85965 54.11943 50.98954
# Shear Modulus (GPa) = 34.02856 36.90996 35.46926
#
# Velocity S-wave (km/s) = 3.90668 4.06872 3.98852
# Velocity P-wave (km/s) = 6.46645 6.80776 6.63930
#
# Compressibility (1/GPa) = 0.02089443
#
# Stress axis : x y z
#
# Youngs Moduli (GPa) = 113.23521 106.36170 67.92192
#
# Poissons Ratio (x) = 0.11728 0.20199
# Poissons Ratio (y) = 0.12486 0.13273
# Poissons Ratio (z) = 0.33674 0.20785
#
# Static dielectric constant tensor:
#      x y z
#    x 4.407440 0.000000 0.026110 
#    y 0.000000 4.540180 0.000000 
#    z 0.026110 0.000000 3.964290 
# 
# 
# High freq. dielectric constant tensor:
#      x y z
#    x 1.897350 0.000000 0.000430 
#    y 0.000000 1.885400 0.000000 
#    z 0.000430 0.000000 1.869160 
# 
# From -- ./inp_files/35739.got.cif
#   From: 2010.06.25/outbox.cif.g09.slc.cpg/sg15_18_cif.got.tgz:35739.got - 2010.06.28 07:06:18.
