data_PCOD8148865
_publ_section_title
;
Structure prediction by ZEFSAII (Michael W. Deem and Ramdas Pophale) SiO2 
 PCOD8148865
Probable space group: C 2/C
;
_chemical_formula_sum "Si O2"
_cell_formula_units_Z 44
_cell_length_a 10.930922
_cell_length_b 9.021077
_cell_length_c 31.532909
_cell_angle_alpha 90.000000
_cell_angle_beta 44.899805
_cell_angle_gamma 90.000000
_cell_volume 2194.842849
_symmetry_space_group_name_H-M "C 2/C"
_symmetry_group_IT_number 15
_symmetry_cell_setting 'monoclinic'
loop_
_space_group_symop_operation_xyz
x,y,z
-x,y,1/2-z
-x,-y,-z
x,-y,1/2+z
1/2+x,1/2+y,z
1/2-x,1/2+y,1/2-z
1/2-x,1/2-y,-z
1/2+x,1/2-y,1/2+z
loop_
_atom_site_type_symbol
_atom_site_label
_atom_site_fract_x
_atom_site_fract_y
_atom_site_fract_z
Si Si1 0.646968 0.140027 0.804332
Si Si2 0.980314 0.740139 0.078939
Si Si3 0.000000 0.836475 0.250000
Si Si4 0.241923 0.999502 0.502732
Si Si5 0.093681 0.684877 0.306384
Si Si6 0.296791 0.246623 0.922437
O O1 0.815151 0.079694 0.790412
O O2 0.712362 0.253877 0.751901
O O3 0.503521 0.226841 0.866657
O O4 0.568545 0.989844 0.805611
O O5 0.957530 0.742541 0.134974
O O6 0.796008 0.746471 0.100464
O O7 0.077580 0.588887 0.042120
O O8 0.085410 0.884884 0.039226
O O9 0.964244 0.743854 0.301864
O O10 0.221824 0.891263 0.467441
O O11 0.237043 0.902510 0.546439
#
# Coordination Sequence:
#
# PCOD8148865 Si02
#       6
#     8   8   4   8   8   8
#     4  10  23  43  65  94 122 170 208 256 325 368
#     4  11  23  42  67  95 128 164 214 259 308 382
#     4   8  24  44  60  92 136 156 206 270 310 372
#     4  10  24  44  60  98 128 172 204 256 324 356
#     4  10  23  43  65  94 122 170 208 256 325 368
#     4  11  23  42  67  95 128 164 214 259 308 382
#
# _framework density 20.046994000000002
#
# number of rings (size 3 to 8) (size 9 to 14) (size 15 to 20)
#    1.091    0.727    1.818    1.091    2.545    6.545 
#   13.091    0.000    0.000    0.000    0.000    0.000 
#    0.000    0.000    0.000    0.000    0.000    0.000 
#
# Total GULP energy -272579.276934 kJ/mol
# GULP energy per Si atom -12389.967133 kJ/mol
# Density = 2.000137 g / cm^3
# Si number density = 20.046994 Si / 1000 Ang^3
#
#
#
# Elastic Constant Matrix: (Units=GPa)
#
#
# Indices 1 2 3 4 5 6 
#
# 1 83.5919 0.1535 18.7942 0.0000 1.7054 0.0001
# 2 0.1535 81.8017 20.3927 0.0000 5.6898 0.0001
# 3 18.7942 20.3927 107.3704 0.0000 1.4087 0.0000
# 4 0.0000 0.0000 0.0000 24.5424 0.0000 2.4149
# 5 1.7054 5.6898 1.4087 0.0000 29.4753 0.0000
# 6 0.0001 0.0001 0.0000 2.4149 0.0000 13.7663
#
#
#
# Elastic Compliance Matrix: (Units=1/GPa)
#
#
# Indices 1 2 3 4 5 6 
#
# 1 0.012492 0.000598 -0.002291 0.000000 -0.000729 0.000000
# 2 0.000598 0.013027 -0.002547 0.000000 -0.002428 0.000000
# 3 -0.002291 -0.002547 0.010196 0.000000 0.000137 0.000000
# 4 0.000000 0.000000 0.000000 0.041462 0.000000 -0.007273
# 5 -0.000729 -0.002428 0.000137 0.000000 0.034431 0.000000
# 6 0.000000 0.000000 0.000000 -0.007273 0.000000 0.073917
#
#
# Mechanical properties :
#
#
# Convention : Reuss Voigt Hill
#
# Bulk Modulus (GPa) = 36.71533 39.04942 37.88238
# Shear Modulus (GPa) = 24.62047 29.11836 26.86942
#
# Velocity S-wave (km/s) = 3.50828 3.81531 3.66501
# Velocity P-wave (km/s) = 5.89619 6.23939 6.07022
#
# Compressibility (1/GPa) = 0.02723658
#
# Stress axis : x y z
#
# Youngs Moduli (GPa) = 80.05344 76.76127 98.07296
#
# Poissons Ratio (x) = -0.04593 0.22465
# Poissons Ratio (y) = -0.04789 0.24981
# Poissons Ratio (z) = 0.18337 0.19552
#
# Static dielectric constant tensor:
#      x y z
#    x 3.397460 0.000000 -0.047710 
#    y 0.000000 3.632470 0.000000 
#    z -0.047710 0.000000 3.655830 
# 
# 
# High freq. dielectric constant tensor:
#      x y z
#    x 1.769920 0.000000 -0.000120 
#    y 0.000000 1.788320 0.000000 
#    z -0.000120 0.000000 1.787200 
# 
# From -- ./inp_files/309867.got.cif
#   From: 2010.06.25/outbox.cif.g09.slc.cpg/sg15_155_cif.got.tgz:309867.got - 2010.06.28 07:06:18.
