data_PCOD8148665
_publ_section_title
;
Structure prediction by ZEFSAII (Michael W. Deem and Ramdas Pophale) SiO2 
 PCOD8148665
Probable space group: C 2/C
;
_chemical_formula_sum "Si O2"
_cell_formula_units_Z 64
_cell_length_a 29.121090
_cell_length_b 14.443445
_cell_length_c 9.073219
_cell_angle_alpha 90.000000
_cell_angle_beta 126.460687
_cell_angle_gamma 90.000000
_cell_volume 3069.296723
_symmetry_space_group_name_H-M "C 2/C"
_symmetry_group_IT_number 15
_symmetry_cell_setting 'monoclinic'
loop_
_space_group_symop_operation_xyz
x,y,z
-x,y,1/2-z
-x,-y,-z
x,-y,1/2+z
1/2+x,1/2+y,z
1/2-x,1/2+y,1/2-z
1/2-x,1/2-y,-z
1/2+x,1/2-y,1/2+z
loop_
_atom_site_type_symbol
_atom_site_label
_atom_site_fract_x
_atom_site_fract_y
_atom_site_fract_z
Si Si1 0.936646 0.106915 0.084792
Si Si2 0.875743 0.997361 0.726702
Si Si3 0.852671 0.460158 0.744740
Si Si4 0.302989 0.435738 0.847581
Si Si5 0.605028 0.803672 0.455882
Si Si6 0.958872 0.461339 0.300761
Si Si7 0.714636 0.915562 0.159490
Si Si8 0.767163 0.265306 0.867619
O O1 0.898584 0.072736 0.147852
O O2 0.928047 0.216037 0.040224
O O3 0.000000 0.082517 0.250000
O O4 0.923478 0.053471 0.907802
O O5 0.841604 0.931882 0.774991
O O6 0.838355 0.074885 0.567432
O O7 0.898272 0.489560 0.707590
O O8 0.800938 0.427089 0.542676
O O9 0.832356 0.544606 0.812675
O O10 0.881170 0.377997 0.891358
O O11 0.274684 0.536080 0.803831
O O12 0.251800 0.363081 0.736684
O O13 0.560965 0.852773 0.254804
O O14 0.664254 0.764341 0.504032
O O15 0.000000 0.493835 0.250000
O O16 0.000000 0.500000 0.500000
O O17 0.730254 0.808487 0.206100
O O18 0.750000 0.250000 0.000000
#
# Coordination Sequence:
#
# PCOD8148665 Si02
#       8
#     8   8   8   8   8   8   8   8
#     4  11  24  44  71  92 130 173 232 284 346 390
#     4  10  23  42  66  96 128 173 217 279 337 404
#     4  12  24  43  65  98 139 177 233 277 341 417
#     4  11  21  40  62  95 135 168 216 267 333 403
#     4  12  25  42  66 103 132 179 232 280 335 417
#     4  12  23  43  70  94 133 185 231 284 344 394
#     4  12  24  41  66  97 138 183 217 276 343 416
#     4  12  24  39  66  95 137 178 218 272 339 407
#
# _framework density 20.851683000000001
#
# number of rings (size 3 to 8) (size 9 to 14) (size 15 to 20)
#    0.000    0.500    3.750    6.000    1.750    0.500 
#    0.000    0.000    0.000    0.000    0.000    0.000 
#    0.000    0.000    0.000    0.000    0.000    0.000 
#
# Total GULP energy -396428.797550 kJ/mol
# GULP energy per Si atom -12388.399923 kJ/mol
# Density = 2.080422 g / cm^3
# Si number density = 20.851683 Si / 1000 Ang^3
#
#
#
# Elastic Constant Matrix: (Units=GPa)
#
#
# Indices 1 2 3 4 5 6 
#
# 1 69.0196 5.2467 19.3917 0.0000 1.1502 0.0000
# 2 5.2467 89.8776 36.5121 0.0000 0.3064 0.0000
# 3 19.3917 36.5121 133.5417 0.0000 3.4582 0.0000
# 4 0.0000 0.0000 0.0000 39.6203 0.0000 10.6289
# 5 1.1502 0.3064 3.4582 0.0000 31.9750 0.0000
# 6 0.0000 0.0000 0.0000 10.6289 0.0000 26.4477
#
#
#
# Elastic Compliance Matrix: (Units=1/GPa)
#
#
# Indices 1 2 3 4 5 6 
#
# 1 0.015108 0.000008 -0.002188 0.000000 -0.000307 0.000000
# 2 0.000008 0.012518 -0.003430 0.000000 0.000251 0.000000
# 3 -0.002188 -0.003430 0.008766 0.000000 -0.000836 0.000000
# 4 0.000000 0.000000 0.000000 0.028290 0.000000 -0.011369
# 5 -0.000307 0.000251 -0.000836 0.000000 0.031374 0.000000
# 6 0.000000 0.000000 0.000000 -0.011369 0.000000 0.042379
#
#
# Mechanical properties :
#
#
# Convention : Reuss Voigt Hill
#
# Bulk Modulus (GPa) = 39.72814 46.08222 42.90518
# Shear Modulus (GPa) = 31.63638 35.02784 33.33211
#
# Velocity S-wave (km/s) = 3.89936 4.10305 4.00250
# Velocity P-wave (km/s) = 6.27435 6.67793 6.47928
#
# Compressibility (1/GPa) = 0.02517108
#
# Stress axis : x y z
#
# Youngs Moduli (GPa) = 66.19055 79.88188 114.08229
#
# Poissons Ratio (x) = -0.00064 0.24962
# Poissons Ratio (y) = -0.00053 0.39135
# Poissons Ratio (z) = 0.14483 0.27403
#
# Static dielectric constant tensor:
#      x y z
#    x 3.947150 0.000000 0.246110 
#    y 0.000000 3.850070 0.000000 
#    z 0.246110 0.000000 4.207820 
# 
# 
# High freq. dielectric constant tensor:
#      x y z
#    x 1.826270 0.000000 0.004210 
#    y 0.000000 1.805410 0.000000 
#    z 0.004210 0.000000 1.832030 
# 
# From -- ./inp_files/70152.got.cif
#   From: 2010.06.25/outbox.cif.g09.slc.cpg/sg15_36_cif.got.tgz:70152.got - 2010.06.28 07:06:18.
