data_PCOD8148640
_publ_section_title
;
Structure prediction by ZEFSAII (Michael W. Deem and Ramdas Pophale) SiO2 
 PCOD8148640
Probable space group: C 2/C
;
_chemical_formula_sum "Si O2"
_cell_formula_units_Z 52
_cell_length_a 24.110052
_cell_length_b 7.873637
_cell_length_c 13.283176
_cell_angle_alpha 90.000000
_cell_angle_beta 60.118245
_cell_angle_gamma 90.000000
_cell_volume 2186.363309
_symmetry_space_group_name_H-M "C 2/C"
_symmetry_group_IT_number 15
_symmetry_cell_setting 'monoclinic'
loop_
_space_group_symop_operation_xyz
x,y,z
-x,y,1/2-z
-x,-y,-z
x,-y,1/2+z
1/2+x,1/2+y,z
1/2-x,1/2+y,1/2-z
1/2-x,1/2-y,-z
1/2+x,1/2-y,1/2+z
loop_
_atom_site_type_symbol
_atom_site_label
_atom_site_fract_x
_atom_site_fract_y
_atom_site_fract_z
Si Si1 0.537472 0.253471 0.515071
Si Si2 0.253054 0.041522 0.601754
Si Si3 0.500000 0.140346 0.750000
Si Si4 0.794413 0.271409 0.249819
Si Si5 0.601107 0.042853 0.295834
Si Si6 0.351046 0.262372 0.411041
Si Si7 0.587659 0.618686 0.456255
O O1 0.542374 0.249225 0.632672
O O2 0.575761 0.096744 0.429580
O O3 0.566885 0.428823 0.450905
O O4 0.462430 0.248936 0.548930
O O5 0.245589 0.148953 0.712662
O O6 0.322166 0.093539 0.492967
O O7 0.201844 0.093517 0.563143
O O8 0.246379 0.838829 0.631497
O O9 0.456094 0.030276 0.717866
O O10 0.836597 0.422636 0.259054
O O11 0.842593 0.138733 0.154885
O O12 0.619991 0.215265 0.222354
O O13 0.406714 0.342138 0.429980
#
# Coordination Sequence:
#
# PCOD8148640 Si02
#       7
#     8   8   4   8   8   8   8
#     4  11  25  44  67 103 136 179 225 278 340 418
#     4  10  23  42  65  96 135 172 240 276 338 402
#     4  12  26  40  68 102 130 176 228 270 326 432
#     4  11  23  43  66  96 136 185 221 288 342 392
#     4  12  25  41  70  97 143 178 220 282 345 401
#     4  10  23  43  67 101 132 181 225 283 336 411
#     4  10  23  43  70  96 144 178 224 280 342 401
#
# _framework density 23.783787
#
# number of rings (size 3 to 8) (size 9 to 14) (size 15 to 20)
#    0.000    1.231    1.538    3.231    6.462    3.077 
#    0.000    0.000    0.000    0.000    0.000    0.000 
#    0.000    0.000    0.000    0.000    0.000    0.000 
#
# Total GULP energy -322352.946867 kJ/mol
# GULP energy per Si atom -12398.190264 kJ/mol
# Density = 2.372965 g / cm^3
# Si number density = 23.783787 Si / 1000 Ang^3
#
#
#
# Elastic Constant Matrix: (Units=GPa)
#
#
# Indices 1 2 3 4 5 6 
#
# 1 91.7437 30.9044 21.1349 0.0000 21.6739 0.0000
# 2 30.9044 88.8249 33.1612 0.0000 8.4760 0.0000
# 3 21.1349 33.1612 98.3832 0.0000 23.9400 0.0000
# 4 0.0000 0.0000 0.0000 36.3123 0.0000 2.0461
# 5 21.6739 8.4760 23.9400 0.0000 34.2998 0.0000
# 6 0.0000 0.0000 0.0000 2.0461 0.0000 34.5371
#
#
#
# Elastic Compliance Matrix: (Units=1/GPa)
#
#
# Indices 1 2 3 4 5 6 
#
# 1 0.014191 -0.004303 0.000392 0.000000 -0.008177 0.000000
# 2 -0.004303 0.014185 -0.004415 0.000000 0.002296 0.000000
# 3 0.000392 -0.004415 0.013688 0.000000 -0.008710 0.000000
# 4 0.000000 0.000000 0.000000 0.027631 0.000000 -0.001637
# 5 -0.008177 0.002296 -0.008710 0.000000 0.039834 0.000000
# 6 0.000000 0.000000 0.000000 -0.001637 0.000000 0.029051
#
#
# Mechanical properties :
#
#
# Convention : Reuss Voigt Hill
#
# Bulk Modulus (GPa) = 39.35486 49.92808 44.64147
# Shear Modulus (GPa) = 30.54297 33.94659 32.24478
#
# Velocity S-wave (km/s) = 3.58745 3.78206 3.68604
# Velocity P-wave (km/s) = 5.80884 6.33325 6.07670
#
# Compressibility (1/GPa) = 0.02540982
#
# Stress axis : x y z
#
# Youngs Moduli (GPa) = 70.46650 70.49877 73.05746
#
# Poissons Ratio (x) = 0.30338 -0.02862
# Poissons Ratio (y) = 0.30325 0.32257
# Poissons Ratio (z) = -0.02760 0.31127
#
# Static dielectric constant tensor:
#      x y z
#    x 4.255660 0.000000 0.128150 
#    y 0.000000 4.079210 0.000000 
#    z 0.128150 0.000000 4.538880 
# 
# 
# High freq. dielectric constant tensor:
#      x y z
#    x 1.946070 0.000000 0.010050 
#    y 0.000000 1.935160 0.000000 
#    z 0.010050 0.000000 1.936150 
# 
# From -- ./inp_files/121808.got.cif
#   From: 2010.06.25/outbox.cif.g09.slc.cpg/sg15_61_cif.got.tgz:121808.got - 2010.06.28 07:06:18.
