data_PCOD8148343
_publ_section_title
;
Structure prediction by ZEFSAII (Michael W. Deem and Ramdas Pophale) SiO2 
 PCOD8148343
Probable space group: C 2/C
;
_chemical_formula_sum "Si O2"
_cell_formula_units_Z 56
_cell_length_a 17.298157
_cell_length_b 8.880403
_cell_length_c 28.936145
_cell_angle_alpha 90.000000
_cell_angle_beta 36.496094
_cell_angle_gamma 90.000000
_cell_volume 2643.752311
_symmetry_space_group_name_H-M "C 2/C"
_symmetry_group_IT_number 15
_symmetry_cell_setting 'monoclinic'
loop_
_space_group_symop_operation_xyz
x,y,z
-x,y,1/2-z
-x,-y,-z
x,-y,1/2+z
1/2+x,1/2+y,z
1/2-x,1/2+y,1/2-z
1/2-x,1/2-y,-z
1/2+x,1/2-y,1/2+z
loop_
_atom_site_type_symbol
_atom_site_label
_atom_site_fract_x
_atom_site_fract_y
_atom_site_fract_z
Si Si1 0.857145 0.651372 0.000018
Si Si2 0.644187 0.894098 0.337866
Si Si3 0.564542 0.204364 0.169345
Si Si4 0.024770 0.875714 0.027481
Si Si5 0.305808 0.882319 0.085232
Si Si6 0.130552 0.260397 0.818324
Si Si7 0.757111 0.538013 0.954503
O O1 0.780281 0.564206 0.997090
O O2 0.003782 0.683894 0.912363
O O3 0.853348 0.545531 0.046209
O O4 0.782763 0.804011 0.050354
O O5 0.727483 0.894684 0.344882
O O6 0.723965 0.793113 0.263356
O O7 0.627697 0.062510 0.327977
O O8 0.500000 0.183056 0.250000
O O9 0.681204 0.324265 0.117117
O O10 0.467462 0.269557 0.177260
O O11 0.617956 0.038362 0.129662
O O12 0.904620 0.834420 0.118537
O O13 0.069727 0.726138 0.979613
O O14 0.137147 0.925277 0.008394
O O15 0.000000 0.000000 0.000000
#
# Coordination Sequence:
#
# PCOD8148343 Si02
#       7
#     8   8   8   8   8   8   8
#     4  11  22  43  66 100 134 176 227 288 340 401
#     4  12  26  43  68  98 139 178 218 289 338 418
#     4  11  22  47  69  97 135 183 229 284 346 425
#     4  11  24  42  71  98 133 182 237 281 335 426
#     4  11  23  43  70  96 132 179 227 277 344 404
#     4  12  27  45  68 101 138 181 225 285 355 403
#     4  10  23  40  70  96 131 177 228 284 336 409
#
# _framework density 21.182015
#
# number of rings (size 3 to 8) (size 9 to 14) (size 15 to 20)
#    0.000    0.857    4.286    2.143    6.000    2.286 
#    0.000    0.714    0.000    0.000    0.000    0.000 
#    0.000    0.000    0.000    0.000    0.000    0.000 
#
# Total GULP energy -347217.344556 kJ/mol
# GULP energy per Si atom -12400.619448 kJ/mol
# Density = 2.113380 g / cm^3
# Si number density = 21.182015 Si / 1000 Ang^3
#
#
#
# Elastic Constant Matrix: (Units=GPa)
#
#
# Indices 1 2 3 4 5 6 
#
# 1 76.2421 20.1301 21.5183 -0.0001 1.0972 -0.0012
# 2 20.1301 70.1950 39.4344 0.0000 0.0952 0.0001
# 3 21.5183 39.4344 123.2976 0.0000 0.0457 -0.0003
# 4 -0.0001 0.0000 0.0000 36.9446 0.0000 3.3230
# 5 1.0972 0.0952 0.0457 0.0000 31.7754 -0.0004
# 6 -0.0012 0.0001 -0.0003 3.3230 -0.0004 34.3672
#
#
#
# Elastic Compliance Matrix: (Units=1/GPa)
#
#
# Indices 1 2 3 4 5 6 
#
# 1 0.014409 -0.003314 -0.001454 0.000000 -0.000486 0.000001
# 2 -0.003314 0.018129 -0.005220 0.000000 0.000068 0.000000
# 3 -0.001454 -0.005220 0.010034 0.000000 0.000051 0.000000
# 4 0.000000 0.000000 0.000000 0.027305 0.000000 -0.002640
# 5 -0.000486 0.000068 0.000051 0.000000 0.031487 0.000000
# 6 0.000001 0.000000 0.000000 -0.002640 0.000000 0.029353
#
#
# Mechanical properties :
#
#
# Convention : Reuss Voigt Hill
#
# Bulk Modulus (GPa) = 44.25920 47.98890 46.12405
# Shear Modulus (GPa) = 31.60065 33.19425 32.39745
#
# Velocity S-wave (km/s) = 3.86665 3.96295 3.91510
# Velocity P-wave (km/s) = 6.39334 6.60641 6.50075
#
# Compressibility (1/GPa) = 0.02259417
#
# Stress axis : x y z
#
# Youngs Moduli (GPa) = 69.40268 55.16102 99.66399
#
# Poissons Ratio (x) = 0.18282 0.14496
# Poissons Ratio (y) = 0.23002 0.52022
# Poissons Ratio (z) = 0.10094 0.28793
#
# Static dielectric constant tensor:
#      x y z
#    x 3.996760 0.000000 -0.044770 
#    y 0.000000 3.840040 0.000000 
#    z -0.044770 0.000000 3.804200 
# 
# 
# High freq. dielectric constant tensor:
#      x y z
#    x 1.845040 0.000000 0.003100 
#    y 0.000000 1.833770 0.000000 
#    z 0.003100 0.000000 1.823860 
# 
# From -- ./inp_files/298490.got.cif
#   From: 2010.06.25/outbox.cif.g09.slc.cpg/sg15_150_cif.got.tgz:298490.got - 2010.06.28 07:06:18.
