data_PCOD8148572
_publ_section_title
;
Structure prediction by ZEFSAII (Michael W. Deem and Ramdas Pophale) SiO2 
 PCOD8148572
Probable space group: C 2/C
;
_chemical_formula_sum "Si O2"
_cell_formula_units_Z 40
_cell_length_a 16.827251
_cell_length_b 15.003394
_cell_length_c 9.198375
_cell_angle_alpha 90.000000
_cell_angle_beta 57.189451
_cell_angle_gamma 90.000000
_cell_volume 1951.795840
_symmetry_space_group_name_H-M "C 2/C"
_symmetry_group_IT_number 15
_symmetry_cell_setting 'monoclinic'
loop_
_space_group_symop_operation_xyz
x,y,z
-x,y,1/2-z
-x,-y,-z
x,-y,1/2+z
1/2+x,1/2+y,z
1/2-x,1/2+y,1/2-z
1/2-x,1/2-y,-z
1/2+x,1/2-y,1/2+z
loop_
_atom_site_type_symbol
_atom_site_label
_atom_site_fract_x
_atom_site_fract_y
_atom_site_fract_z
Si Si1 0.206712 0.561960 0.845316
Si Si2 0.091221 0.465558 0.732000
Si Si3 0.682511 0.743929 0.429557
Si Si4 0.500000 0.797649 0.750000
Si Si5 0.873638 0.935510 0.621353
Si Si6 0.000000 0.010736 0.250000
O O1 0.119724 0.518771 0.845402
O O2 0.205440 0.668013 0.811916
O O3 0.307980 0.522449 0.704485
O O4 0.183326 0.541131 0.036232
O O5 0.000000 0.514762 0.750000
O O6 0.060032 0.363188 0.798771
O O7 0.750000 0.750000 0.500000
O O8 0.572277 0.738721 0.586273
O O9 0.693181 0.652649 0.326302
O O10 0.933791 0.947706 0.414461
O O11 0.939234 0.927298 0.700035
#
# Coordination Sequence:
#
# PCOD8148572 Si02
#       6
#     8   8   8   4   8   4
#     4  11  21  39  61  91 119 158 195 252 304 356
#     4   9  19  35  60  86 118 150 193 237 310 355
#     4  11  22  37  61  93 119 162 206 246 303 368
#     4   8  19  36  59  84 118 154 199 244 295 358
#     4  11  22  41  64  87 124 160 208 253 299 363
#     4  10  23  42  63  86 118 170 205 250 303 352
#
# _framework density 20.493948
#
# number of rings (size 3 to 8) (size 9 to 14) (size 15 to 20)
#    0.600    1.200    0.000    6.000    0.000    1.600 
#    1.800    4.000    0.000    0.000    0.000    0.000 
#    0.000    0.000    0.000    0.000    0.000    0.000 
#
# Total GULP energy -247843.683321 kJ/mol
# GULP energy per Si atom -12392.184166 kJ/mol
# Density = 2.044730 g / cm^3
# Si number density = 20.493948 Si / 1000 Ang^3
#
#
#
# Elastic Constant Matrix: (Units=GPa)
#
#
# Indices 1 2 3 4 5 6 
#
# 1 97.0908 36.4290 26.5876 0.0000 3.8211 0.0000
# 2 36.4290 126.3761 32.2471 0.0000 3.4937 0.0000
# 3 26.5876 32.2471 83.9954 0.0000 -10.8594 0.0000
# 4 0.0000 0.0000 0.0000 21.4142 0.0000 -2.6057
# 5 3.8211 3.4937 -10.8594 0.0000 39.1257 0.0000
# 6 0.0000 0.0000 0.0000 -2.6057 0.0000 30.2996
#
#
#
# Elastic Compliance Matrix: (Units=1/GPa)
#
#
# Indices 1 2 3 4 5 6 
#
# 1 0.012220 -0.002690 -0.003069 0.000000 -0.001805 0.000000
# 2 -0.002690 0.009486 -0.002973 0.000000 -0.001409 0.000000
# 3 -0.003069 -0.002973 0.014616 0.000000 0.004622 0.000000
# 4 0.000000 0.000000 0.000000 0.047192 0.000000 0.004058
# 5 -0.001805 -0.001409 0.004622 0.000000 0.027144 0.000000
# 6 0.000000 0.000000 0.000000 0.004058 0.000000 0.033353
#
#
# Mechanical properties :
#
#
# Convention : Reuss Voigt Hill
#
# Bulk Modulus (GPa) = 53.02423 55.33219 54.17821
# Shear Modulus (GPa) = 29.80480 32.31446 31.05963
#
# Velocity S-wave (km/s) = 3.81769 3.97518 3.89723
# Velocity P-wave (km/s) = 6.73516 6.93738 6.83702
#
# Compressibility (1/GPa) = 0.01885930
#
# Stress axis : x y z
#
# Youngs Moduli (GPa) = 81.83150 105.42240 68.42014
#
# Poissons Ratio (x) = 0.28354 0.20998
# Poissons Ratio (y) = 0.22009 0.20338
# Poissons Ratio (z) = 0.25114 0.31337
#
# Static dielectric constant tensor:
#      x y z
#    x 3.783700 0.000000 -0.130200 
#    y 0.000000 3.690700 0.000000 
#    z -0.130200 0.000000 3.527530 
# 
# 
# High freq. dielectric constant tensor:
#      x y z
#    x 1.812120 0.000000 -0.018180 
#    y 0.000000 1.789200 0.000000 
#    z -0.018180 0.000000 1.779660 
# 
# From -- ./inp_files/46948.got.cif
#   From: 2010.06.25/outbox.cif.g09.slc.cpg/sg15_24_cif.got.tgz:46948.got - 2010.06.28 07:06:18.
