data_PCOD8148924
_publ_section_title
;
Structure prediction by ZEFSAII (Michael W. Deem and Ramdas Pophale) SiO2 
 PCOD8148924
Probable space group: C 2/C
;
_chemical_formula_sum "Si O2"
_cell_formula_units_Z 48
_cell_length_a 27.090523
_cell_length_b 8.652683
_cell_length_c 20.319266
_cell_angle_alpha 90.000000
_cell_angle_beta 150.166653
_cell_angle_gamma 90.000000
_cell_volume 2369.468226
_symmetry_space_group_name_H-M "C 2/C"
_symmetry_group_IT_number 15
_symmetry_cell_setting 'monoclinic'
loop_
_space_group_symop_operation_xyz
x,y,z
-x,y,1/2-z
-x,-y,-z
x,-y,1/2+z
1/2+x,1/2+y,z
1/2-x,1/2+y,1/2-z
1/2-x,1/2-y,-z
1/2+x,1/2-y,1/2+z
loop_
_atom_site_type_symbol
_atom_site_label
_atom_site_fract_x
_atom_site_fract_y
_atom_site_fract_z
Si Si1 0.868667 0.324961 0.927925
Si Si2 0.807151 0.668293 0.842055
Si Si3 0.743109 0.004986 0.976499
Si Si4 0.496084 0.325381 0.472997
Si Si5 0.688093 0.713324 0.831899
Si Si6 0.111151 0.740883 0.898685
O O1 0.836429 0.491874 0.864896
O O2 0.782853 0.202224 0.811707
O O3 0.968170 0.279286 0.003701
O O4 0.889462 0.326714 0.028894
O O5 0.776094 0.698536 0.881155
O O6 0.896913 0.780908 0.929548
O O7 0.654055 0.111440 0.899550
O O8 0.693192 0.880635 0.871080
O O9 0.822788 0.104972 0.028266
O O10 0.800955 0.923408 0.102941
O O11 0.500000 0.500000 0.500000
O O12 0.418692 0.303545 0.324551
O O13 0.000000 0.783566 0.750000
#
# Coordination Sequence:
#
# PCOD8148924 Si02
#       6
#     8   8   8   8   8   8
#     4  11  25  43  67  98 130 172 220 272 339 386
#     4  11  23  44  67  95 133 170 216 279 329 393
#     4  10  24  44  65  95 134 174 216 273 314 402
#     4  11  26  40  70  99 130 172 223 278 325 400
#     4  10  23  43  67  96 130 174 221 261 335 379
#     4  11  26  42  69  96 133 173 219 268 331 389
#
# _framework density 20.257708999999998
#
# number of rings (size 3 to 8) (size 9 to 14) (size 15 to 20)
#    0.000    1.333    1.667    2.500   11.667    1.333 
#    0.000    3.333    0.000    0.000    0.000    0.000 
#    0.000    0.000    0.000    0.000    0.000    0.000 
#
# Total GULP energy -297763.691903 kJ/mol
# GULP energy per Si atom -12406.820496 kJ/mol
# Density = 2.021160 g / cm^3
# Si number density = 20.257709 Si / 1000 Ang^3
#
#
#
# Elastic Constant Matrix: (Units=GPa)
#
#
# Indices 1 2 3 4 5 6 
#
# 1 68.7607 15.6892 18.6832 0.0000 -3.6605 0.0000
# 2 15.6892 95.0819 12.4673 0.0000 -9.4927 0.0000
# 3 18.6832 12.4673 73.6801 0.0000 -8.4476 0.0000
# 4 0.0000 0.0000 0.0000 28.8936 0.0000 0.9532
# 5 -3.6605 -9.4927 -8.4476 0.0000 24.9827 0.0000
# 6 0.0000 0.0000 0.0000 0.9532 0.0000 27.6137
#
#
#
# Elastic Compliance Matrix: (Units=1/GPa)
#
#
# Indices 1 2 3 4 5 6 
#
# 1 0.016044 -0.002136 -0.003673 0.000000 0.000297 0.000000
# 2 -0.002136 0.011363 -0.000959 0.000000 0.003680 0.000000
# 3 -0.003673 -0.000959 0.015150 0.000000 0.004220 0.000000
# 4 0.000000 0.000000 0.000000 0.034649 0.000000 -0.001196
# 5 0.000297 0.003680 0.004220 0.000000 0.042897 0.000000
# 6 0.000000 0.000000 0.000000 -0.001196 0.000000 0.036255
#
#
# Mechanical properties :
#
#
# Convention : Reuss Voigt Hill
#
# Bulk Modulus (GPa) = 34.45813 36.80024 35.62919
# Shear Modulus (GPa) = 27.84462 29.01018 28.42740
#
# Velocity S-wave (km/s) = 3.71147 3.78836 3.75011
# Velocity P-wave (km/s) = 5.95093 6.11073 6.03136
#
# Compressibility (1/GPa) = 0.02902073
#
# Stress axis : x y z
#
# Youngs Moduli (GPa) = 62.32705 88.00556 66.00812
#
# Poissons Ratio (x) = 0.18800 0.24244
# Poissons Ratio (y) = 0.13314 0.06331
# Poissons Ratio (z) = 0.22892 0.08440
#
# Static dielectric constant tensor:
#      x y z
#    x 3.849100 0.000000 0.042480 
#    y 0.000000 3.870160 0.000000 
#    z 0.042480 0.000000 3.627750 
# 
# 
# High freq. dielectric constant tensor:
#      x y z
#    x 1.804580 0.000000 0.000090 
#    y 0.000000 1.807940 0.000000 
#    z 0.000090 0.000000 1.790230 
# 
# From -- ./inp_files/251784.got.cif
#   From: 2010.06.25/outbox.cif.g09.slc.cpg/sg15_126_cif.got.tgz:251784.got - 2010.06.28 07:06:18.
