data_PCOD8148725
_publ_section_title
;
Structure prediction by ZEFSAII (Michael W. Deem and Ramdas Pophale) SiO2 
 PCOD8148725
Probable space group: C 2/C
;
_chemical_formula_sum "Si O2"
_cell_formula_units_Z 48
_cell_length_a 16.643596
_cell_length_b 14.614253
_cell_length_c 16.731987
_cell_angle_alpha 90.000000
_cell_angle_beta 32.960143
_cell_angle_gamma 90.000000
_cell_volume 2214.188065
_symmetry_space_group_name_H-M "C 2/C"
_symmetry_group_IT_number 15
_symmetry_cell_setting 'monoclinic'
loop_
_space_group_symop_operation_xyz
x,y,z
-x,y,1/2-z
-x,-y,-z
x,-y,1/2+z
1/2+x,1/2+y,z
1/2-x,1/2+y,1/2-z
1/2-x,1/2-y,-z
1/2+x,1/2-y,1/2+z
loop_
_atom_site_type_symbol
_atom_site_label
_atom_site_fract_x
_atom_site_fract_y
_atom_site_fract_z
Si Si1 0.500000 0.022050 0.250000
Si Si2 0.561584 0.181670 0.967595
Si Si3 0.239020 0.150047 0.261644
Si Si4 0.211475 0.651787 0.999405
Si Si5 0.000000 0.946735 0.250000
Si Si6 0.027901 0.948686 0.562035
Si Si7 0.169116 0.455770 0.245846
O O1 0.353324 0.084839 0.378985
O O2 0.530421 0.956971 0.300876
O O3 0.657787 0.274100 0.883332
O O4 0.582316 0.150807 0.041279
O O5 0.622862 0.101401 0.861172
O O6 0.385308 0.194499 0.098570
O O7 0.107694 0.121909 0.309499
O O8 0.289756 0.060291 0.266955
O O9 0.362405 0.613849 0.837032
O O10 0.250000 0.750000 0.000000
O O11 0.041021 0.998001 0.134294
O O12 0.190552 0.905167 0.413169
O O13 0.000000 0.000000 0.500000
#
# Coordination Sequence:
#
# PCOD8148725 Si02
#       7
#     4   8   8   8   4   8   8
#     4  12  23  42  65  98 138 176 230 288 340 408
#     4  12  26  42  72 100 140 183 230 283 348 418
#     4  11  24  43  68 100 135 183 232 282 346 413
#     4  12  26  40  64 101 142 177 224 284 353 418
#     4  12  25  42  69 102 132 188 232 282 354 416
#     4  10  23  42  68  94 136 181 233 277 340 412
#     4  11  23  45  68  98 139 185 228 284 343 411
#
# _framework density 21.678374999999999
#
# number of rings (size 3 to 8) (size 9 to 14) (size 15 to 20)
#    0.000    0.667    3.333    5.000    7.000    0.000 
#    0.000    0.833    0.000    4.000    0.000    0.000 
#    0.000    0.000    0.000    0.000    0.000    0.000 
#
# Total GULP energy -297318.871891 kJ/mol
# GULP energy per Si atom -12388.286329 kJ/mol
# Density = 2.162903 g / cm^3
# Si number density = 21.678375 Si / 1000 Ang^3
#
#
#
# Elastic Constant Matrix: (Units=GPa)
#
#
# Indices 1 2 3 4 5 6 
#
# 1 108.4923 37.7522 34.6682 0.0004 3.8505 -0.0001
# 2 37.7522 60.8346 34.1659 0.0003 -4.5756 -0.0003
# 3 34.6682 34.1659 154.7691 0.0007 -23.2064 -0.0001
# 4 0.0004 0.0003 0.0007 31.7129 -0.0003 -3.9706
# 5 3.8505 -4.5756 -23.2064 -0.0003 44.4570 0.0001
# 6 -0.0001 -0.0003 -0.0001 -3.9706 0.0001 20.4125
#
#
#
# Elastic Compliance Matrix: (Units=1/GPa)
#
#
# Indices 1 2 3 4 5 6 
#
# 1 0.012216 -0.006872 -0.001610 0.000000 -0.002606 0.000000
# 2 -0.006872 0.022633 -0.003275 0.000000 0.001215 0.000000
# 3 -0.001610 -0.003275 0.008153 0.000000 0.004058 0.000000
# 4 0.000000 0.000000 0.000000 0.032320 0.000000 0.006287
# 5 -0.002606 0.001215 0.004058 0.000000 0.024963 0.000000
# 6 0.000000 0.000000 0.000000 0.006287 0.000000 0.050212
#
#
# Mechanical properties :
#
#
# Convention : Reuss Voigt Hill
#
# Bulk Modulus (GPa) = 51.31336 59.69648 55.50492
# Shear Modulus (GPa) = 27.69961 33.81712 30.75836
#
# Velocity S-wave (km/s) = 3.57845 3.95390 3.77085
# Velocity P-wave (km/s) = 6.38713 6.96000 6.67971
#
# Compressibility (1/GPa) = 0.01948810
#
# Stress axis : x y z
#
# Youngs Moduli (GPa) = 81.86270 44.18236 122.64998
#
# Poissons Ratio (x) = 0.30364 0.19745
# Poissons Ratio (y) = 0.56260 0.40165
# Poissons Ratio (z) = 0.13179 0.14469
#
# Static dielectric constant tensor:
#      x y z
#    x 4.017840 0.000000 -0.449500 
#    y 0.000000 3.799670 0.000000 
#    z -0.449500 0.000000 4.178960 
# 
# 
# High freq. dielectric constant tensor:
#      x y z
#    x 1.851400 0.000000 -0.020770 
#    y 0.000000 1.824390 0.000000 
#    z -0.020770 0.000000 1.875250 
# 
# From -- ./inp_files/47509.got.cif
#   From: 2010.06.25/outbox.cif.g09.slc.cpg/sg15_24_cif.got.tgz:47509.got - 2010.06.28 07:06:18.
