data_PCOD8148700
_publ_section_title
;
Structure prediction by ZEFSAII (Michael W. Deem and Ramdas Pophale) SiO2 
 PCOD8148700
Probable space group: C 2/C
;
_chemical_formula_sum "Si O2"
_cell_formula_units_Z 32
_cell_length_a 11.512938
_cell_length_b 8.966802
_cell_length_c 27.602850
_cell_angle_alpha 90.000000
_cell_angle_beta 148.134777
_cell_angle_gamma 90.000000
_cell_volume 1504.347611
_symmetry_space_group_name_H-M "C 2/C"
_symmetry_group_IT_number 15
_symmetry_cell_setting 'monoclinic'
loop_
_space_group_symop_operation_xyz
x,y,z
-x,y,1/2-z
-x,-y,-z
x,-y,1/2+z
1/2+x,1/2+y,z
1/2-x,1/2+y,1/2-z
1/2-x,1/2-y,-z
1/2+x,1/2-y,1/2+z
loop_
_atom_site_type_symbol
_atom_site_label
_atom_site_fract_x
_atom_site_fract_y
_atom_site_fract_z
Si Si1 0.300172 0.612231 0.211072
Si Si2 0.978251 0.136254 0.040017
Si Si3 0.029226 0.663647 0.647864
Si Si4 0.952262 0.190966 0.540493
O O1 0.500000 0.544818 0.250000
O O2 0.175033 0.485009 0.196697
O O3 0.380108 0.734168 0.277602
O O4 0.145759 0.691672 0.117006
O O5 0.724998 0.128772 0.932794
O O6 0.115642 0.177948 0.040350
O O7 0.044655 0.260887 0.101087
O O8 0.031691 0.975926 0.083424
O O9 0.750000 0.250000 0.500000
#
# Coordination Sequence:
#
# PCOD8148700 Si02
#       4
#     8   8   8   8
#     4  12  25  44  65 101 135 174 218 278 330 391
#     4  10  23  42  67  97 128 174 218 271 326 396
#     4  11  24  43  65  95 134 168 222 272 328 391
#     4  11  22  43  70  95 131 174 218 267 334 392
#
# _framework density 21.27168
#
# number of rings (size 3 to 8) (size 9 to 14) (size 15 to 20)
#    0.000    1.000    5.000    1.500    0.000    5.000 
#    0.000    0.000    0.000    0.000    0.000    0.000 
#    0.000    0.000    0.000    0.000    0.000    0.000 
#
# Total GULP energy -198372.301625 kJ/mol
# GULP energy per Si atom -12398.268852 kJ/mol
# Density = 2.122326 g / cm^3
# Si number density = 21.271680 Si / 1000 Ang^3
#
#
#
# Elastic Constant Matrix: (Units=GPa)
#
#
# Indices 1 2 3 4 5 6 
#
# 1 125.2722 36.8032 15.8060 0.0000 0.2588 0.0000
# 2 36.8032 85.0339 6.2502 0.0000 -5.4301 0.0000
# 3 15.8060 6.2502 38.1997 -0.0001 -4.1946 0.0000
# 4 0.0000 0.0000 -0.0001 27.5785 0.0000 1.5273
# 5 0.2588 -5.4301 -4.1946 0.0000 21.2731 0.0000
# 6 0.0000 0.0000 0.0000 1.5273 0.0000 41.5616
#
#
#
# Elastic Compliance Matrix: (Units=1/GPa)
#
#
# Indices 1 2 3 4 5 6 
#
# 1 0.009611 -0.004018 -0.003521 0.000000 -0.001837 0.000000
# 2 -0.004018 0.013738 -0.000199 0.000000 0.003516 0.000000
# 3 -0.003521 -0.000199 0.028279 0.000000 0.005568 0.000000
# 4 0.000000 0.000000 0.000000 0.036334 0.000000 -0.001335
# 5 -0.001837 0.003516 0.005568 0.000000 0.049025 0.000000
# 6 0.000000 0.000000 0.000000 -0.001335 0.000000 0.024110
#
#
# Mechanical properties :
#
#
# Convention : Reuss Voigt Hill
#
# Bulk Modulus (GPa) = 27.66115 40.69163 34.17639
# Shear Modulus (GPa) = 26.50758 30.72575 28.61666
#
# Velocity S-wave (km/s) = 3.53391 3.80471 3.67180
# Velocity P-wave (km/s) = 5.44824 6.20259 5.83761
#
# Compressibility (1/GPa) = 0.03615179
#
# Stress axis : x y z
#
# Youngs Moduli (GPa) = 104.04531 72.78902 35.36178
#
# Poissons Ratio (x) = 0.29249 0.12451
# Poissons Ratio (y) = 0.41808 0.00704
# Poissons Ratio (z) = 0.36635 0.01449
#
# Static dielectric constant tensor:
#      x y z
#    x 3.887320 0.000000 0.119580 
#    y 0.000000 3.976820 0.000000 
#    z 0.119580 0.000000 3.883110 
# 
# 
# High freq. dielectric constant tensor:
#      x y z
#    x 1.850220 0.000000 0.000170 
#    y 0.000000 1.845140 0.000000 
#    z 0.000170 0.000000 1.822370 
# 
# From -- ./inp_files/140546.got.cif
#   From: 2010.06.25/outbox.cif.g09.slc.cpg/sg15_71_cif.got.tgz:140546.got - 2010.06.28 07:06:18.
