data_PCOD8148466
_publ_section_title
;
Structure prediction by ZEFSAII (Michael W. Deem and Ramdas Pophale) SiO2 
 PCOD8148466
Probable space group: C 2/C
;
_chemical_formula_sum "Si O2"
_cell_formula_units_Z 52
_cell_length_a 27.394707
_cell_length_b 6.673884
_cell_length_c 13.539172
_cell_angle_alpha 90.000000
_cell_angle_beta 77.058704
_cell_angle_gamma 90.000000
_cell_volume 2412.480663
_symmetry_space_group_name_H-M "C 2/C"
_symmetry_group_IT_number 15
_symmetry_cell_setting 'monoclinic'
loop_
_space_group_symop_operation_xyz
x,y,z
-x,y,1/2-z
-x,-y,-z
x,-y,1/2+z
1/2+x,1/2+y,z
1/2-x,1/2+y,1/2-z
1/2-x,1/2-y,-z
1/2+x,1/2-y,1/2+z
loop_
_atom_site_type_symbol
_atom_site_label
_atom_site_fract_x
_atom_site_fract_y
_atom_site_fract_z
Si Si1 0.647466 0.499307 0.334408
Si Si2 0.000000 0.531008 0.750000
Si Si3 0.818985 0.663888 0.042334
Si Si4 0.461840 0.639819 0.135790
Si Si5 0.850179 0.251270 0.980929
Si Si6 0.460660 0.302315 0.409814
Si Si7 0.208977 0.026522 0.111954
O O1 0.657655 0.277779 0.374130
O O2 0.589181 0.512743 0.331196
O O3 0.662639 0.667153 0.405772
O O4 0.683503 0.550590 0.228487
O O5 0.960135 0.673739 0.711917
O O6 0.973363 0.398309 0.844827
O O7 0.856311 0.490350 0.988059
O O8 0.768041 0.552606 0.098077
O O9 0.812355 0.810304 0.953765
O O10 0.507513 0.491277 0.143543
O O11 0.470095 0.728157 0.022238
O O12 0.901945 0.153940 0.917902
O O13 0.805711 0.192053 0.925173
#
# Coordination Sequence:
#
# PCOD8148466 Si02
#       7
#     8   4   8   8   8   8   8
#     4  10  24  41  66  94 129 170 211 260 333 375
#     4  12  24  36  70  96 126 174 228 252 326 390
#     4  10  23  43  65  94 128 166 217 264 318 387
#     4  10  24  44  63  92 138 170 211 278 316 381
#     4  10  23  42  66  96 128 164 211 266 321 385
#     4  10  24  43  64  95 132 169 214 268 327 385
#     4  10  23  41  66  94 129 168 210 267 319 379
#
# _framework density 21.554575
#
# number of rings (size 3 to 8) (size 9 to 14) (size 15 to 20)
#    0.000    1.846    0.000    1.385    8.615    7.385 
#    0.000    0.000    0.000    0.000    0.000    0.000 
#    0.000    0.000    0.000    0.000    0.000    0.000 
#
# Total GULP energy -322431.796076 kJ/mol
# GULP energy per Si atom -12401.222926 kJ/mol
# Density = 2.150552 g / cm^3
# Si number density = 21.554575 Si / 1000 Ang^3
#
#
#
# Elastic Constant Matrix: (Units=GPa)
#
#
# Indices 1 2 3 4 5 6 
#
# 1 102.6477 52.3382 48.1559 0.0000 -6.1555 0.0000
# 2 52.3382 120.3803 46.4280 0.0000 3.3285 0.0000
# 3 48.1559 46.4280 96.2209 0.0000 -2.6548 0.0000
# 4 0.0000 0.0000 0.0000 36.5602 0.0000 2.8710
# 5 -6.1555 3.3285 -2.6548 0.0000 17.2538 0.0000
# 6 0.0000 0.0000 0.0000 2.8710 0.0000 32.3934
#
#
#
# Elastic Compliance Matrix: (Units=1/GPa)
#
#
# Indices 1 2 3 4 5 6 
#
# 1 0.014784 -0.004645 -0.005009 0.000000 0.005400 0.000000
# 2 -0.004645 0.011796 -0.003490 0.000000 -0.004470 0.000000
# 3 -0.005009 -0.003490 0.014615 0.000000 0.001135 0.000000
# 4 0.000000 0.000000 0.000000 0.027544 0.000000 -0.002441
# 5 0.005400 -0.004470 0.001135 0.000000 0.060922 0.000000
# 6 0.000000 0.000000 0.000000 -0.002441 0.000000 0.031087
#
#
# Mechanical properties :
#
#
# Convention : Reuss Voigt Hill
#
# Bulk Modulus (GPa) = 67.08370 68.12145 67.60258
# Shear Modulus (GPa) = 26.04086 28.72993 27.38540
#
# Velocity S-wave (km/s) = 3.47960 3.65484 3.56829
# Velocity P-wave (km/s) = 6.87995 7.03443 6.95762
#
# Compressibility (1/GPa) = 0.01490675
#
# Stress axis : x y z
#
# Youngs Moduli (GPa) = 67.63975 84.77115 68.42312
#
# Poissons Ratio (x) = 0.39379 0.34271
# Poissons Ratio (y) = 0.31421 0.23883
# Poissons Ratio (z) = 0.33878 0.29589
#
# Static dielectric constant tensor:
#      x y z
#    x 3.931570 0.000000 0.069080 
#    y 0.000000 3.918590 0.000000 
#    z 0.069080 0.000000 3.897370 
# 
# 
# High freq. dielectric constant tensor:
#      x y z
#    x 1.844930 0.000000 0.002520 
#    y 0.000000 1.844610 0.000000 
#    z 0.002520 0.000000 1.855310 
# 
# From -- ./inp_files/180078.got.cif
#   From: 2010.06.25/outbox.cif.g09.slc.cpg/sg15_91_cif.got.tgz:180078.got - 2010.06.28 07:06:18.
