data_PCOD8148925
_publ_section_title
;
Structure prediction by ZEFSAII (Michael W. Deem and Ramdas Pophale) SiO2 
 PCOD8148925
Probable space group: C 2/C
;
_chemical_formula_sum "Si O2"
_cell_formula_units_Z 48
_cell_length_a 8.339267
_cell_length_b 30.223454
_cell_length_c 13.836906
_cell_angle_alpha 90.000000
_cell_angle_beta 138.735676
_cell_angle_gamma 90.000000
_cell_volume 2300.106749
_symmetry_space_group_name_H-M "C 2/C"
_symmetry_group_IT_number 15
_symmetry_cell_setting 'monoclinic'
loop_
_space_group_symop_operation_xyz
x,y,z
-x,y,1/2-z
-x,-y,-z
x,-y,1/2+z
1/2+x,1/2+y,z
1/2-x,1/2+y,1/2-z
1/2-x,1/2-y,-z
1/2+x,1/2-y,1/2+z
loop_
_atom_site_type_symbol
_atom_site_label
_atom_site_fract_x
_atom_site_fract_y
_atom_site_fract_z
Si Si1 0.778829 0.130729 0.404567
Si Si2 0.523197 0.541317 0.086818
Si Si3 0.860466 0.456136 0.924565
Si Si4 0.739602 0.121562 0.598816
Si Si5 0.090275 0.788385 0.033181
Si Si6 0.090540 0.705745 0.645533
O O1 0.500000 0.128442 0.250000
O O2 0.911436 0.084034 0.446754
O O3 0.792802 0.144522 0.521843
O O4 0.928158 0.170252 0.422073
O O5 0.281127 0.551156 0.038719
O O6 0.718815 0.535579 0.260440
O O7 0.500000 0.500000 0.000000
O O8 0.000000 0.500000 0.000000
O O9 0.045251 0.416505 0.994143
O O10 0.620532 0.157492 0.614252
O O11 0.000000 0.101928 0.750000
O O12 0.169429 0.786936 0.180931
O O13 0.339050 0.792135 0.087819
O O14 0.928828 0.744635 0.942208
#
# Coordination Sequence:
#
# PCOD8148925 Si02
#       6
#     8   8   8   8   8   8
#     4  12  25  44  66  96 134 174 220 271 327 392
#     4  11  26  46  69  96 131 172 220 271 328 393
#     4  11  26  45  70  97 129 173 219 271 330 391
#     4  12  25  44  66  97 136 173 221 272 327 392
#     4  10  23  43  67  96 132 175 221 271 327 387
#     4  10  23  43  67  97 131 175 223 269 326 391
#
# _framework density 20.868597000000001
#
# number of rings (size 3 to 8) (size 9 to 14) (size 15 to 20)
#    0.000    1.000    3.333    2.000    7.000    1.333 
#    0.000    0.000    0.000    0.000    0.000    0.000 
#    0.000    0.000    0.000    0.000    0.000    0.000 
#
# Total GULP energy -297395.200329 kJ/mol
# GULP energy per Si atom -12391.466680 kJ/mol
# Density = 2.082110 g / cm^3
# Si number density = 20.868597 Si / 1000 Ang^3
#
#
#
# Elastic Constant Matrix: (Units=GPa)
#
#
# Indices 1 2 3 4 5 6 
#
# 1 50.3241 19.2855 45.6861 0.0000 1.3117 0.0000
# 2 19.2855 131.4934 56.7338 0.0000 12.8118 0.0000
# 3 45.6861 56.7338 111.3986 0.0000 3.6063 0.0000
# 4 0.0000 0.0000 0.0000 41.4749 0.0000 2.6919
# 5 1.3117 12.8118 3.6063 0.0000 38.9726 0.0000
# 6 0.0000 0.0000 0.0000 2.6919 0.0000 45.6277
#
#
#
# Elastic Compliance Matrix: (Units=1/GPa)
#
#
# Indices 1 2 3 4 5 6 
#
# 1 0.031815 0.001258 -0.013682 0.000000 -0.000218 0.000000
# 2 0.001258 0.010100 -0.005568 0.000000 -0.002847 0.000000
# 3 -0.013682 -0.005568 0.017401 0.000000 0.000681 0.000000
# 4 0.000000 0.000000 0.000000 0.024204 0.000000 -0.001428
# 5 -0.000218 -0.002847 0.000681 0.000000 0.026539 0.000000
# 6 0.000000 0.000000 0.000000 -0.001428 0.000000 0.022001
#
#
# Mechanical properties :
#
#
# Convention : Reuss Voigt Hill
#
# Bulk Modulus (GPa) = 42.85498 59.62524 51.24011
# Shear Modulus (GPa) = 28.43800 36.64910 32.54355
#
# Velocity S-wave (km/s) = 3.69551 4.19523 3.95327
# Velocity P-wave (km/s) = 6.22810 7.21806 6.74128
#
# Compressibility (1/GPa) = 0.02333451
#
# Stress axis : x y z
#
# Youngs Moduli (GPa) = 31.43125 99.00956 57.46708
#
# Poissons Ratio (x) = -0.12456 0.78624
# Poissons Ratio (y) = -0.03954 0.31995
# Poissons Ratio (z) = 0.43003 0.55124
#
# Static dielectric constant tensor:
#      x y z
#    x 3.880090 0.000000 0.009470 
#    y 0.000000 3.664130 0.000000 
#    z 0.009470 0.000000 3.907790 
# 
# 
# High freq. dielectric constant tensor:
#      x y z
#    x 1.827400 0.000000 0.002870 
#    y 0.000000 1.824330 0.000000 
#    z 0.002870 0.000000 1.832610 
# 
# From -- ./inp_files/139054.got.cif
#   From: 2010.06.25/outbox.cif.g09.slc.cpg/sg15_70_cif.got.tgz:139054.got - 2010.06.28 07:06:18.
