data_PCOD8148224
_publ_section_title
;
Structure prediction by ZEFSAII (Michael W. Deem and Ramdas Pophale) SiO2 
 PCOD8148224
Probable space group: C 2/C
;
_chemical_formula_sum "Si O2"
_cell_formula_units_Z 48
_cell_length_a 17.653793
_cell_length_b 19.700002
_cell_length_c 13.946274
_cell_angle_alpha 90.000000
_cell_angle_beta 148.994228
_cell_angle_gamma 90.000000
_cell_volume 2498.472855
_symmetry_space_group_name_H-M "C 2/C"
_symmetry_group_IT_number 15
_symmetry_cell_setting 'monoclinic'
loop_
_space_group_symop_operation_xyz
x,y,z
-x,y,1/2-z
-x,-y,-z
x,-y,1/2+z
1/2+x,1/2+y,z
1/2-x,1/2+y,1/2-z
1/2-x,1/2-y,-z
1/2+x,1/2-y,1/2+z
loop_
_atom_site_type_symbol
_atom_site_label
_atom_site_fract_x
_atom_site_fract_y
_atom_site_fract_z
Si Si1 0.666172 0.688389 0.959956
Si Si2 0.717112 0.281181 0.729183
Si Si3 0.158324 0.816735 0.873714
Si Si4 0.619518 0.922552 0.800058
Si Si5 0.517880 0.159914 0.523766
Si Si6 0.871871 0.573146 0.687040
O O1 0.500000 0.691450 0.750000
O O2 0.750000 0.750000 0.000000
O O3 0.665339 0.685246 0.074263
O O4 0.742974 0.619230 0.008140
O O5 0.646733 0.319601 0.745102
O O6 0.666683 0.202727 0.667557
O O7 0.894430 0.286985 0.928406
O O8 0.000000 0.810491 0.750000
O O9 0.250000 0.750000 0.000000
O O10 0.234727 0.884295 0.997592
O O11 0.500000 0.933823 0.750000
O O12 0.542066 0.879379 0.632969
O O13 0.679213 0.997363 0.837126
O O14 0.555681 0.103866 0.640996
O O15 0.000000 0.571427 0.750000
#
# Coordination Sequence:
#
# PCOD8148224 Si02
#       6
#     8   8   8   8   8   8
#     4  11  22  40  65  89 123 156 205 260 313 357
#     4  11  22  35  61  93 119 153 203 253 307 361
#     4  12  23  38  60  89 125 161 203 255 310 362
#     4  10  23  40  61  88 120 163 208 251 307 366
#     4  11  21  37  61  90 123 155 206 250 310 362
#     4  11  22  40  61  84 125 168 202 248 304 375
#
# _framework density 19.211735000000001
#
# number of rings (size 3 to 8) (size 9 to 14) (size 15 to 20)
#    0.000    1.000    3.333    5.500    0.000    0.667 
#    0.000    0.000    0.000    3.000    0.000    0.000 
#    0.000    0.000    0.000    0.000    0.000    0.000 
#
# Total GULP energy -297503.726064 kJ/mol
# GULP energy per Si atom -12395.988586 kJ/mol
# Density = 1.916801 g / cm^3
# Si number density = 19.211735 Si / 1000 Ang^3
#
#
#
# Elastic Constant Matrix: (Units=GPa)
#
#
# Indices 1 2 3 4 5 6 
#
# 1 94.4814 36.1484 46.6454 0.0000 1.3840 0.0000
# 2 36.1484 165.8374 70.6582 0.0000 18.0099 0.0000
# 3 46.6454 70.6582 121.2017 0.0000 11.7754 0.0000
# 4 0.0000 0.0000 0.0000 35.2120 0.0000 -6.7740
# 5 1.3840 18.0099 11.7754 0.0000 31.5919 0.0000
# 6 0.0000 0.0000 0.0000 -6.7740 0.0000 30.0147
#
#
#
# Elastic Compliance Matrix: (Units=1/GPa)
#
#
# Indices 1 2 3 4 5 6 
#
# 1 0.013270 -0.001112 -0.004631 0.000000 0.001779 0.000000
# 2 -0.001112 0.008388 -0.004152 0.000000 -0.003185 0.000000
# 3 -0.004631 -0.004152 0.012663 0.000000 -0.002150 0.000000
# 4 0.000000 0.000000 0.000000 0.029688 0.000000 0.006700
# 5 0.001779 -0.003185 -0.002150 0.000000 0.034193 0.000000
# 6 0.000000 0.000000 0.000000 0.006700 0.000000 0.034829
#
#
# Mechanical properties :
#
#
# Convention : Reuss Voigt Hill
#
# Bulk Modulus (GPa) = 68.83155 76.49162 72.66159
# Shear Modulus (GPa) = 31.71267 34.56828 33.14047
#
# Velocity S-wave (km/s) = 4.06728 4.24645 4.15783
# Velocity P-wave (km/s) = 7.61332 7.99654 7.80728
#
# Compressibility (1/GPa) = 0.01452822
#
# Stress axis : x y z
#
# Youngs Moduli (GPa) = 75.35680 119.22495 78.97242
#
# Poissons Ratio (x) = 0.13264 0.36576
# Poissons Ratio (y) = 0.08383 0.32791
# Poissons Ratio (z) = 0.34901 0.49504
#
# Static dielectric constant tensor:
#      x y z
#    x 3.727930 0.000000 -0.022160 
#    y 0.000000 4.186340 0.000000 
#    z -0.022160 0.000000 3.668250 
# 
# 
# High freq. dielectric constant tensor:
#      x y z
#    x 1.758390 0.000000 -0.007280 
#    y 0.000000 1.744870 0.000000 
#    z -0.007280 0.000000 1.751700 
# 
# From -- ./inp_files/48705.got.cif
#   From: 2010.06.25/outbox.cif.g09.slc.cpg/sg15_25_cif.got.tgz:48705.got - 2010.06.28 07:06:18.
