data_PCOD8148060
_publ_section_title
;
Structure prediction by ZEFSAII (Michael W. Deem and Ramdas Pophale) SiO2 
 PCOD8148060
Probable space group: C 2/C
;
_chemical_formula_sum "Si O2"
_cell_formula_units_Z 48
_cell_length_a 18.467694
_cell_length_b 19.245521
_cell_length_c 12.887268
_cell_angle_alpha 90.000000
_cell_angle_beta 147.440267
_cell_angle_gamma 90.000000
_cell_volume 2465.072028
_symmetry_space_group_name_H-M "C 2/C"
_symmetry_group_IT_number 15
_symmetry_cell_setting 'monoclinic'
loop_
_space_group_symop_operation_xyz
x,y,z
-x,y,1/2-z
-x,-y,-z
x,-y,1/2+z
1/2+x,1/2+y,z
1/2-x,1/2+y,1/2-z
1/2-x,1/2-y,-z
1/2+x,1/2-y,1/2+z
loop_
_atom_site_type_symbol
_atom_site_label
_atom_site_fract_x
_atom_site_fract_y
_atom_site_fract_z
Si Si1 0.343388 0.413979 0.388531
Si Si2 0.211256 0.198936 0.819083
Si Si3 0.999448 0.690103 0.365215
Si Si4 0.954631 0.424245 0.412117
Si Si5 0.500000 0.964341 0.250000
Si Si6 0.500000 0.518465 0.250000
Si Si7 0.268911 0.552024 0.583392
O O1 0.368841 0.335585 0.375264
O O2 0.205517 0.416439 0.286558
O O3 0.467676 0.433937 0.611385
O O4 0.326093 0.465863 0.268319
O O5 0.122248 0.255821 0.769064
O O6 0.247363 0.135982 0.943906
O O7 0.354144 0.228304 0.947668
O O8 0.000000 0.658336 0.250000
O O9 0.981802 0.629975 0.429546
O O10 0.000000 0.500000 0.500000
O O11 0.009285 0.413385 0.361027
O O12 0.628749 0.013976 0.395431
O O13 0.627535 0.470719 0.380152
#
# Coordination Sequence:
#
# PCOD8148060 Si02
#       7
#     8   8   8   8   4   4   8
#     4   9  21  38  58  93 129 163 210 261 315 381
#     4   9  23  41  58  91 125 165 210 258 316 377
#     4  11  23  43  63  93 129 165 212 266 315 385
#     4  11  22  38  66  92 126 163 209 269 323 377
#     4  12  20  42  65  99 128 168 212 270 324 374
#     4  12  20  38  63  91 134 170 202 266 322 376
#     4  10  23  37  63  93 129 160 214 257 319 377
#
# _framework density 19.472048000000001
#
# number of rings (size 3 to 8) (size 9 to 14) (size 15 to 20)
#    1.000    0.667    3.333    1.000    5.833    0.000 
#    6.000    0.833    0.000    4.000    0.000    0.000 
#    0.000    0.000    0.000    0.000    0.000    0.000 
#
# Total GULP energy -297322.086098 kJ/mol
# GULP energy per Si atom -12388.420254 kJ/mol
# Density = 1.942773 g / cm^3
# Si number density = 19.472048 Si / 1000 Ang^3
#
#
#
# Elastic Constant Matrix: (Units=GPa)
#
#
# Indices 1 2 3 4 5 6 
#
# 1 138.4910 54.6762 39.2170 0.0000 -5.5642 0.0000
# 2 54.6762 80.5893 35.8072 0.0000 -0.6691 0.0000
# 3 39.2170 35.8072 81.9217 0.0000 -1.5512 0.0000
# 4 0.0000 0.0000 0.0000 28.1330 0.0000 -0.6260
# 5 -5.5642 -0.6691 -1.5512 0.0000 40.6009 0.0000
# 6 0.0000 0.0000 0.0000 -0.6260 0.0000 22.2301
#
#
#
# Elastic Compliance Matrix: (Units=1/GPa)
#
#
# Indices 1 2 3 4 5 6 
#
# 1 0.010262 -0.005932 -0.002297 0.000000 0.001221 0.000000
# 2 -0.005932 0.018828 -0.005403 0.000000 -0.000709 0.000000
# 3 -0.002297 -0.005403 0.015672 0.000000 0.000195 0.000000
# 4 0.000000 0.000000 0.000000 0.035568 0.000000 0.001002
# 5 0.001221 -0.000709 0.000195 0.000000 0.024793 0.000000
# 6 0.000000 0.000000 0.000000 0.001002 0.000000 0.045012
#
#
# Mechanical properties :
#
#
# Convention : Reuss Voigt Hill
#
# Bulk Modulus (GPa) = 57.14932 62.26699 59.70815
# Shear Modulus (GPa) = 27.28800 29.61290 28.45045
#
# Velocity S-wave (km/s) = 3.74758 3.90396 3.82657
# Velocity P-wave (km/s) = 6.93822 7.23659 7.08898
#
# Compressibility (1/GPa) = 0.01749802
#
# Stress axis : x y z
#
# Youngs Moduli (GPa) = 97.44766 53.11280 63.80928
#
# Poissons Ratio (x) = 0.31505 0.14655
# Poissons Ratio (y) = 0.57802 0.34478
# Poissons Ratio (z) = 0.22381 0.28699
#
# Static dielectric constant tensor:
#      x y z
#    x 3.952430 0.000000 -0.172990 
#    y 0.000000 3.197260 0.000000 
#    z -0.172990 0.000000 3.610910 
# 
# 
# High freq. dielectric constant tensor:
#      x y z
#    x 1.766820 0.000000 0.004420 
#    y 0.000000 1.719330 0.000000 
#    z 0.004420 0.000000 1.762170 
# 
# From -- ./inp_files/168925.got.cif
#   From: 2010.06.25/outbox.cif.g09.slc.cpg/sg15_85_cif.got.tgz:168925.got - 2010.06.28 07:06:18.
