data_PCOD8148995
_publ_section_title
;
Structure prediction by ZEFSAII (Michael W. Deem and Ramdas Pophale) SiO2 
 PCOD8148995
Probable space group: C 2/C
;
_chemical_formula_sum "Si O2"
_cell_formula_units_Z 48
_cell_length_a 13.086016
_cell_length_b 11.627699
_cell_length_c 20.406337
_cell_angle_alpha 90.000000
_cell_angle_beta 135.581641
_cell_angle_gamma 90.000000
_cell_volume 2173.188811
_symmetry_space_group_name_H-M "C 2/C"
_symmetry_group_IT_number 15
_symmetry_cell_setting 'monoclinic'
loop_
_space_group_symop_operation_xyz
x,y,z
-x,y,1/2-z
-x,-y,-z
x,-y,1/2+z
1/2+x,1/2+y,z
1/2-x,1/2+y,1/2-z
1/2-x,1/2-y,-z
1/2+x,1/2-y,1/2+z
loop_
_atom_site_type_symbol
_atom_site_label
_atom_site_fract_x
_atom_site_fract_y
_atom_site_fract_z
Si Si1 0.462283 0.308023 0.470790
Si Si2 0.469964 0.986724 0.806452
Si Si3 0.597407 0.074841 0.994648
Si Si4 0.408680 0.753237 0.601799
Si Si5 0.071962 0.993183 0.348738
Si Si6 0.144205 0.966253 0.632636
O O1 0.393894 0.209934 0.485153
O O2 0.482996 0.248539 0.410362
O O3 0.613909 0.355751 0.572153
O O4 0.356818 0.418573 0.413020
O O5 0.500000 0.047998 0.750000
O O6 0.563597 0.869571 0.846003
O O7 0.299691 0.956917 0.739085
O O8 0.524521 0.067708 0.889690
O O9 0.760904 0.029059 0.067882
O O10 0.500000 0.000000 0.000000
O O11 0.250000 0.750000 0.500000
O O12 0.435499 0.644706 0.660714
O O13 0.000000 0.045638 0.250000
O O14 0.983563 0.034310 0.371761
#
# Coordination Sequence:
#
# PCOD8148995 Si02
#       6
#     8   8   8   8   8   8
#     4  10  23  43  70  90 142 186 229 282 354 415
#     4  12  25  41  71 106 136 176 241 291 352 419
#     4  12  24  45  71 103 139 180 234 293 349 426
#     4  11  20  40  70  98 133 178 231 295 347 408
#     4  11  24  42  69 101 139 183 233 290 362 417
#     4  10  25  45  66  99 140 187 235 287 352 424
#
# _framework density 22.087357000000001
#
# number of rings (size 3 to 8) (size 9 to 14) (size 15 to 20)
#    0.000    1.000    3.333    2.500    4.667    4.667 
#    0.000    0.000    0.000    0.000    0.000    0.000 
#    0.000    0.000    0.000    0.000    0.000    0.000 
#
# Total GULP energy -297617.164050 kJ/mol
# GULP energy per Si atom -12400.715169 kJ/mol
# Density = 2.203708 g / cm^3
# Si number density = 22.087357 Si / 1000 Ang^3
#
#
#
# Elastic Constant Matrix: (Units=GPa)
#
#
# Indices 1 2 3 4 5 6 
#
# 1 108.4443 29.0699 54.9143 0.0000 3.3522 0.0000
# 2 29.0699 101.0266 24.7709 0.0000 -11.0861 0.0000
# 3 54.9143 24.7709 150.1024 0.0000 -1.6063 0.0000
# 4 0.0000 0.0000 0.0000 23.3914 0.0000 -5.9475
# 5 3.3522 -11.0861 -1.6063 0.0000 48.2859 0.0000
# 6 0.0000 0.0000 0.0000 -5.9475 0.0000 27.9736
#
#
#
# Elastic Compliance Matrix: (Units=1/GPa)
#
#
# Indices 1 2 3 4 5 6 
#
# 1 0.011988 -0.002650 -0.003965 0.000000 -0.001573 0.000000
# 2 -0.002650 0.011166 -0.000844 0.000000 0.002720 0.000000
# 3 -0.003965 -0.000844 0.008256 0.000000 0.000356 0.000000
# 4 0.000000 0.000000 0.000000 0.045194 0.000000 0.009609
# 5 -0.001573 0.002720 0.000356 0.000000 0.021455 0.000000
# 6 0.000000 0.000000 0.000000 0.009609 0.000000 0.037791
#
#
# Mechanical properties :
#
#
# Convention : Reuss Voigt Hill
#
# Bulk Modulus (GPa) = 60.63673 64.12038 62.37856
# Shear Modulus (GPa) = 31.99658 36.65140 34.32399
#
# Velocity S-wave (km/s) = 3.81023 4.07797 3.94637
# Velocity P-wave (km/s) = 6.84616 7.16006 7.00487
#
# Compressibility (1/GPa) = 0.01649165
#
# Stress axis : x y z
#
# Youngs Moduli (GPa) = 83.41487 89.55531 121.12452
#
# Poissons Ratio (x) = 0.23731 0.48031
# Poissons Ratio (y) = 0.22104 0.10225
# Poissons Ratio (z) = 0.33077 0.07560
#
# Static dielectric constant tensor:
#      x y z
#    x 3.965380 0.000000 -0.340150 
#    y 0.000000 3.980890 0.000000 
#    z -0.340150 0.000000 4.535720 
# 
# 
# High freq. dielectric constant tensor:
#      x y z
#    x 1.868280 0.000000 -0.007650 
#    y 0.000000 1.858980 0.000000 
#    z -0.007650 0.000000 1.883680 
# 
# From -- ./inp_files/243980.got.cif
#   From: 2010.06.25/outbox.cif.g09.slc.cpg/sg15_122_cif.got.tgz:243980.got - 2010.06.28 07:06:18.
