data_PCOD8148876
_publ_section_title
;
Structure prediction by ZEFSAII (Michael W. Deem and Ramdas Pophale) SiO2 
 PCOD8148876
Probable space group: C 2/C
;
_chemical_formula_sum "Si O2"
_cell_formula_units_Z 60
_cell_length_a 6.486653
_cell_length_b 26.207290
_cell_length_c 16.794941
_cell_angle_alpha 90.000000
_cell_angle_beta 88.184940
_cell_angle_gamma 90.000000
_cell_volume 2853.667110
_symmetry_space_group_name_H-M "C 2/C"
_symmetry_group_IT_number 15
_symmetry_cell_setting 'monoclinic'
loop_
_space_group_symop_operation_xyz
x,y,z
-x,y,1/2-z
-x,-y,-z
x,-y,1/2+z
1/2+x,1/2+y,z
1/2-x,1/2+y,1/2-z
1/2-x,1/2-y,-z
1/2+x,1/2-y,1/2+z
loop_
_atom_site_type_symbol
_atom_site_label
_atom_site_fract_x
_atom_site_fract_y
_atom_site_fract_z
Si Si1 0.488609 0.655897 0.665749
Si Si2 0.707091 0.774998 0.417992
Si Si3 0.114587 0.363196 0.070909
Si Si4 0.162485 0.036327 0.177368
Si Si5 0.971503 0.106845 0.455902
Si Si6 0.500000 0.108667 0.250000
Si Si7 0.736410 0.428495 0.103334
Si Si8 0.848894 0.176351 0.175254
O O1 0.500000 0.684474 0.750000
O O2 0.588373 0.691426 0.597512
O O3 0.256814 0.641754 0.646704
O O4 0.628927 0.605144 0.673164
O O5 0.750000 0.750000 0.500000
O O6 0.507967 0.810298 0.432557
O O7 0.682973 0.736203 0.343608
O O8 0.970527 0.412033 0.085100
O O9 0.250198 0.374202 0.990875
O O10 0.038275 0.063166 0.109321
O O11 0.353244 0.071908 0.200463
O O12 0.000000 0.025727 0.250000
O O13 0.248860 0.985313 0.136290
O O14 0.107956 0.082174 0.524133
O O15 0.065597 0.155404 0.409488
O O16 0.635905 0.146377 0.193619
O O17 0.000000 0.169082 0.250000
#
# Coordination Sequence:
#
# PCOD8148876 Si02
#       8
#     8   8   8   8   8   4   8   8
#     4  10  23  43  65  97 134 171 224 284 332 410
#     4  11  26  42  68 101 134 180 229 276 348 411
#     4  10  24  44  67  99 134 176 220 281 339 410
#     4  12  25  45  69 100 137 179 228 282 338 407
#     4  11  23  45  68  98 142 175 226 281 336 406
#     4  12  26  44  66 100 138 178 226 284 340 406
#     4  10  24  42  70  98 134 177 225 279 339 403
#     4  12  26  45  69 101 140 183 229 290 337 408
#
# _framework density 21.025576000000001
#
# number of rings (size 3 to 8) (size 9 to 14) (size 15 to 20)
#    0.000    1.067    2.667    3.200    6.533    7.467 
#    0.000    0.000    0.000    0.000    0.000    0.000 
#    0.000    0.000    0.000    0.000    0.000    0.000 
#
# Total GULP energy -371896.090427 kJ/mol
# GULP energy per Si atom -12396.536348 kJ/mol
# Density = 2.097772 g / cm^3
# Si number density = 21.025576 Si / 1000 Ang^3
#
#
#
# Elastic Constant Matrix: (Units=GPa)
#
#
# Indices 1 2 3 4 5 6 
#
# 1 131.4970 40.8427 45.4179 0.0000 -6.0020 0.0000
# 2 40.8427 113.6525 30.5252 0.0000 -1.5054 0.0000
# 3 45.4179 30.5252 117.5067 0.0000 0.8218 0.0000
# 4 0.0000 0.0000 0.0000 29.7265 0.0000 -6.2799
# 5 -6.0020 -1.5054 0.8218 0.0000 15.9730 0.0000
# 6 0.0000 0.0000 0.0000 -6.2799 0.0000 4.5422
#
#
#
# Elastic Compliance Matrix: (Units=1/GPa)
#
#
# Indices 1 2 3 4 5 6 
#
# 1 0.009632 -0.002589 -0.003075 0.000000 0.003534 0.000000
# 2 -0.002589 0.010171 -0.001642 0.000000 0.000070 0.000000
# 3 -0.003075 -0.001642 0.010138 0.000000 -0.001832 0.000000
# 4 0.000000 0.000000 0.000000 0.047519 0.000000 0.065698
# 5 0.003534 0.000070 -0.001832 0.000000 0.064034 0.000000
# 6 0.000000 0.000000 0.000000 0.065698 0.000000 0.310988
#
#
# Mechanical properties :
#
#
# Convention : Reuss Voigt Hill
#
# Bulk Modulus (GPa) = 65.23434 66.24752 65.74093
# Shear Modulus (GPa) = 10.58864 26.43971 18.51418
#
# Velocity S-wave (km/s) = 2.24656 3.54998 2.97063
# Velocity P-wave (km/s) = 6.15003 6.95554 6.56515
#
# Compressibility (1/GPa) = 0.01532935
#
# Stress axis : x y z
#
# Youngs Moduli (GPa) = 103.81812 98.31858 98.63739
#
# Poissons Ratio (x) = 0.25452 0.30333
# Poissons Ratio (y) = 0.26876 0.16197
# Poissons Ratio (z) = 0.31926 0.16145
#
# Static dielectric constant tensor:
#      x y z
#    x 3.514420 0.000000 -0.284840 
#    y 0.000000 4.054780 0.000000 
#    z -0.284840 0.000000 3.786210 
# 
# 
# High freq. dielectric constant tensor:
#      x y z
#    x 1.830670 0.000000 -0.003580 
#    y 0.000000 1.831910 0.000000 
#    z -0.003580 0.000000 1.836650 
# 
# From -- ./inp_files/186197.got.cif
#   From: 2010.06.25/outbox.cif.g09.slc.cpg/sg15_94_cif.got.tgz:186197.got - 2010.06.28 07:06:18.
