data_PCOD8148756
_publ_section_title
;
Structure prediction by ZEFSAII (Michael W. Deem and Ramdas Pophale) SiO2 
 PCOD8148756
Probable space group: C 2/C
;
_chemical_formula_sum "Si O2"
_cell_formula_units_Z 60
_cell_length_a 12.639523
_cell_length_b 17.009095
_cell_length_c 26.143106
_cell_angle_alpha 90.000000
_cell_angle_beta 150.910108
_cell_angle_gamma 90.000000
_cell_volume 2732.544590
_symmetry_space_group_name_H-M "C 2/C"
_symmetry_group_IT_number 15
_symmetry_cell_setting 'monoclinic'
loop_
_space_group_symop_operation_xyz
x,y,z
-x,y,1/2-z
-x,-y,-z
x,-y,1/2+z
1/2+x,1/2+y,z
1/2-x,1/2+y,1/2-z
1/2-x,1/2-y,-z
1/2+x,1/2-y,1/2+z
loop_
_atom_site_type_symbol
_atom_site_label
_atom_site_fract_x
_atom_site_fract_y
_atom_site_fract_z
Si Si1 0.465219 0.755349 0.974974
Si Si2 0.815886 0.005763 0.465437
Si Si3 0.658452 0.274630 0.191033
Si Si4 0.412814 0.150484 0.655709
Si Si5 0.940521 0.421408 0.946053
Si Si6 0.500000 0.489397 0.750000
Si Si7 0.887142 0.928584 0.096420
Si Si8 0.404206 0.165821 0.155772
O O1 0.378463 0.759950 0.880475
O O2 0.311720 0.698625 0.942999
O O3 0.443306 0.845582 0.985349
O O4 0.713726 0.729199 0.083566
O O5 0.933367 0.006911 0.571088
O O6 0.690352 0.088234 0.410014
O O7 0.640068 0.935978 0.388296
O O8 0.000000 0.000000 0.500000
O O9 0.506849 0.349075 0.134157
O O10 0.599007 0.206224 0.205920
O O11 0.907886 0.304531 0.303032
O O12 0.500000 0.141096 0.750000
O O13 0.701740 0.432791 0.821083
O O14 0.000000 0.500000 0.000000
O O15 0.129327 0.408647 0.984049
O O16 0.543788 0.542228 0.818327
O O17 0.500000 0.139380 0.250000
#
# Coordination Sequence:
#
# PCOD8148756 Si02
#       8
#     8   8   8   8   8   4   8   8
#     4  11  21  46  68  94 140 181 228 294 352 416
#     4  12  23  46  69 102 145 185 229 290 357 417
#     4  11  23  43  68 100 128 188 230 286 355 417
#     4  10  23  42  70 100 137 180 233 288 351 420
#     4  10  23  43  67 100 135 181 236 292 349 419
#     4  10  26  44  68 104 134 180 238 294 346 418
#     4  11  23  43  72  98 140 182 232 291 353 418
#     4  12  25  42  69  99 140 185 237 284 348 431
#
# _framework density 21.957556
#
# number of rings (size 3 to 8) (size 9 to 14) (size 15 to 20)
#    0.000    1.067    4.000    2.400    5.600    0.000 
#    4.800    0.667    0.000    0.000    0.000    0.000 
#    0.000    0.000    0.000    0.000    0.000    0.000 
#
# Total GULP energy -371925.757059 kJ/mol
# GULP energy per Si atom -12397.525235 kJ/mol
# Density = 2.190758 g / cm^3
# Si number density = 21.957556 Si / 1000 Ang^3
#
#
#
# Elastic Constant Matrix: (Units=GPa)
#
#
# Indices 1 2 3 4 5 6 
#
# 1 105.5795 37.7081 45.9647 -0.0007 11.9322 0.0001
# 2 37.7081 146.1413 35.1988 -0.0016 6.7774 0.0003
# 3 45.9647 35.1988 89.5032 -0.0134 13.3957 0.0020
# 4 -0.0007 -0.0016 -0.0134 36.0188 -0.0031 10.5608
# 5 11.9322 6.7774 13.3957 -0.0031 44.1823 0.0000
# 6 0.0001 0.0003 0.0020 10.5608 0.0000 30.9280
#
#
#
# Elastic Compliance Matrix: (Units=1/GPa)
#
#
# Indices 1 2 3 4 5 6 
#
# 1 0.012738 -0.001873 -0.005586 -0.000002 -0.001459 0.000001
# 2 -0.001873 0.007837 -0.002112 -0.000001 -0.000056 0.000000
# 3 -0.005586 -0.002112 0.015292 0.000006 -0.002804 -0.000003
# 4 -0.000002 -0.000001 0.000006 0.030852 0.000001 -0.010535
# 5 -0.001459 -0.000056 -0.002804 0.000001 0.023886 0.000000
# 6 0.000001 0.000000 -0.000003 -0.010535 0.000000 0.035931
#
#
# Mechanical properties :
#
#
# Convention : Reuss Voigt Hill
#
# Bulk Modulus (GPa) = 59.79522 64.32968 62.06245
# Shear Modulus (GPa) = 33.05723 37.04930 35.05327
#
# Velocity S-wave (km/s) = 3.88429 4.11215 3.99984
# Velocity P-wave (km/s) = 6.88537 7.20467 7.04683
#
# Compressibility (1/GPa) = 0.01672374
#
# Stress axis : x y z
#
# Youngs Moduli (GPa) = 78.50795 127.59508 65.39488
#
# Poissons Ratio (x) = 0.23904 0.36532
# Poissons Ratio (y) = 0.14708 0.13809
# Poissons Ratio (z) = 0.43857 0.26944
#
# Static dielectric constant tensor:
#      x y z
#    x 4.532210 0.000000 0.517870 
#    y 0.000000 4.141770 0.000000 
#    z 0.517870 0.000000 4.273110 
# 
# 
# High freq. dielectric constant tensor:
#      x y z
#    x 1.856410 0.000000 0.019220 
#    y 0.000000 1.876730 0.000000 
#    z 0.019220 0.000000 1.861680 
# 
# From -- ./inp_files/293568.got.cif
#   From: 2010.06.25/outbox.cif.g09.slc.cpg/sg15_147_cif.got.tgz:293568.got - 2010.06.28 07:06:18.
