data_PCOD8148427
_publ_section_title
;
Structure prediction by ZEFSAII (Michael W. Deem and Ramdas Pophale) SiO2 
 PCOD8148427
Probable space group: C 2/C
;
_chemical_formula_sum "Si O2"
_cell_formula_units_Z 52
_cell_length_a 13.673966
_cell_length_b 18.151851
_cell_length_c 11.031532
_cell_angle_alpha 90.000000
_cell_angle_beta 59.158224
_cell_angle_gamma 90.000000
_cell_volume 2350.905700
_symmetry_space_group_name_H-M "C 2/C"
_symmetry_group_IT_number 15
_symmetry_cell_setting 'monoclinic'
loop_
_space_group_symop_operation_xyz
x,y,z
-x,y,1/2-z
-x,-y,-z
x,-y,1/2+z
1/2+x,1/2+y,z
1/2-x,1/2+y,1/2-z
1/2-x,1/2-y,-z
1/2+x,1/2-y,1/2+z
loop_
_atom_site_type_symbol
_atom_site_label
_atom_site_fract_x
_atom_site_fract_y
_atom_site_fract_z
Si Si1 0.548656 0.295503 0.022692
Si Si2 0.500000 0.590302 0.750000
Si Si3 0.112143 0.630840 0.042274
Si Si4 0.221140 0.951209 0.234056
Si Si5 0.820064 0.835395 0.057462
Si Si6 0.139288 0.404098 0.797442
Si Si7 0.195847 0.801865 0.693992
O O1 0.613278 0.316044 0.858483
O O2 0.568427 0.358413 0.110799
O O3 0.589261 0.218117 0.051915
O O4 0.416093 0.295182 0.075698
O O5 0.403567 0.538885 0.748567
O O6 0.162089 0.611217 0.141763
O O7 0.995168 0.585764 0.092775
O O8 0.204626 0.608526 0.885394
O O9 0.203847 0.917673 0.379375
O O10 0.288074 0.026741 0.202539
O O11 0.708491 0.784213 0.149999
O O12 0.852644 0.842290 0.895321
O O13 0.181289 0.335565 0.850533
#
# Coordination Sequence:
#
# PCOD8148427 Si02
#       7
#     8   4   8   8   8   8   8
#     4  11  21  42  70 101 128 168 229 286 331 384
#     4  10  24  42  70  98 134 174 226 276 330 398
#     4  11  23  42  70  99 131 173 225 282 335 388
#     4  11  24  45  64  97 137 179 221 273 332 397
#     4  10  23  41  64  97 135 173 221 277 325 403
#     4  11  25  41  66  99 136 177 221 271 332 408
#     4  11  22  41  65  97 133 175 219 272 338 388
#
# _framework density 22.119135
#
# number of rings (size 3 to 8) (size 9 to 14) (size 15 to 20)
#    0.000    1.231    3.077    2.769    4.308    1.231 
#    2.769    2.308    0.000    0.000    0.000    0.000 
#    0.000    0.000    0.000    0.000    0.000    0.000 
#
# Total GULP energy -322395.139791 kJ/mol
# GULP energy per Si atom -12399.813069 kJ/mol
# Density = 2.206879 g / cm^3
# Si number density = 22.119135 Si / 1000 Ang^3
#
#
#
# Elastic Constant Matrix: (Units=GPa)
#
#
# Indices 1 2 3 4 5 6 
#
# 1 98.4154 42.7452 15.5770 0.0000 14.8719 0.0000
# 2 42.7452 76.2662 9.7138 0.0000 3.8615 0.0000
# 3 15.5770 9.7138 94.3769 0.0000 12.8420 0.0000
# 4 0.0000 0.0000 0.0000 18.6673 0.0000 3.1206
# 5 14.8719 3.8615 12.8420 0.0000 29.6566 0.0000
# 6 0.0000 0.0000 0.0000 3.1206 0.0000 24.9671
#
#
#
# Elastic Compliance Matrix: (Units=1/GPa)
#
#
# Indices 1 2 3 4 5 6 
#
# 1 0.014553 -0.007754 -0.000795 0.000000 -0.005944 0.000000
# 2 -0.007754 0.017459 -0.000783 0.000000 0.001954 0.000000
# 3 -0.000795 -0.000783 0.011412 0.000000 -0.004441 0.000000
# 4 0.000000 0.000000 0.000000 0.054713 0.000000 -0.006839
# 5 -0.005944 0.001954 -0.004441 0.000000 0.038369 0.000000
# 6 0.000000 0.000000 0.000000 -0.006839 0.000000 0.040907
#
#
# Mechanical properties :
#
#
# Convention : Reuss Voigt Hill
#
# Bulk Modulus (GPa) = 40.38955 45.01450 42.70203
# Shear Modulus (GPa) = 24.47016 28.05971 26.26493
#
# Velocity S-wave (km/s) = 3.32970 3.56557 3.44965
# Velocity P-wave (km/s) = 5.75171 6.11115 5.93415
#
# Compressibility (1/GPa) = 0.02475888
#
# Stress axis : x y z
#
# Youngs Moduli (GPa) = 68.71410 57.27745 87.62765
#
# Poissons Ratio (x) = 0.44415 0.06967
# Poissons Ratio (y) = 0.53284 0.06862
# Poissons Ratio (z) = 0.05463 0.04485
#
# Static dielectric constant tensor:
#      x y z
#    x 4.100170 0.000000 0.081840 
#    y 0.000000 3.633560 0.000000 
#    z 0.081840 0.000000 4.042000 
# 
# 
# High freq. dielectric constant tensor:
#      x y z
#    x 1.880180 0.000000 0.007160 
#    y 0.000000 1.854150 0.000000 
#    z 0.007160 0.000000 1.876870 
# 
# From -- ./inp_files/98205.got.cif
#   From: 2010.06.25/outbox.cif.g09.slc.cpg/sg15_50_cif.got.tgz:98205.got - 2010.06.28 07:06:18.
