data_PCOD8148259
_publ_section_title
;
Structure prediction by ZEFSAII (Michael W. Deem and Ramdas Pophale) SiO2 
 PCOD8148259
Probable space group: C 2/C
;
_chemical_formula_sum "Si O2"
_cell_formula_units_Z 48
_cell_length_a 16.409722
_cell_length_b 20.315224
_cell_length_c 12.812508
_cell_angle_alpha 90.000000
_cell_angle_beta 33.249057
_cell_angle_gamma 90.000000
_cell_volume 2341.849434
_symmetry_space_group_name_H-M "C 2/C"
_symmetry_group_IT_number 15
_symmetry_cell_setting 'monoclinic'
loop_
_space_group_symop_operation_xyz
x,y,z
-x,y,1/2-z
-x,-y,-z
x,-y,1/2+z
1/2+x,1/2+y,z
1/2-x,1/2+y,1/2-z
1/2-x,1/2-y,-z
1/2+x,1/2-y,1/2+z
loop_
_atom_site_type_symbol
_atom_site_label
_atom_site_fract_x
_atom_site_fract_y
_atom_site_fract_z
Si Si1 0.105440 0.043042 0.813188
Si Si2 0.004946 0.816015 0.366483
Si Si3 0.736710 0.256725 0.260784
Si Si4 0.172455 0.397919 0.272281
Si Si5 0.339675 0.429066 0.892779
Si Si6 0.596986 0.147966 0.541803
O O1 0.264707 0.064699 0.693357
O O2 0.011651 0.106446 0.881003
O O3 0.143139 0.002598 0.669435
O O4 0.000000 0.000000 0.000000
O O5 0.866560 0.789416 0.579992
O O6 0.000000 0.800233 0.250000
O O7 0.150916 0.779367 0.249837
O O8 0.790263 0.320295 0.267579
O O9 0.629101 0.217784 0.454612
O O10 0.993880 0.399300 0.443105
O O11 0.247331 0.435588 0.096478
O O12 0.500000 0.397705 0.750000
O O13 0.255627 0.384745 0.897413
O O14 0.500000 0.159274 0.750000
#
# Coordination Sequence:
#
# PCOD8148259 Si02
#       6
#     8   8   8   8   8   8
#     4  11  22  40  65  95 127 174 221 267 324 390
#     4  11  24  41  69  95 130 172 221 273 324 394
#     4  11  22  43  65  97 133 170 216 270 336 391
#     4  10  23  40  64  94 130 169 214 269 330 387
#     4  11  22  38  64  93 129 169 223 267 318 393
#     4  10  23  41  63  97 135 171 214 274 331 392
#
# _framework density 20.496621999999999
#
# number of rings (size 3 to 8) (size 9 to 14) (size 15 to 20)
#    0.000    1.333    3.333    2.000    2.333    4.000 
#    0.000    0.000    0.000    0.000    0.000    0.000 
#    0.000    0.000    0.000    0.000    0.000    0.000 
#
# Total GULP energy -297545.226103 kJ/mol
# GULP energy per Si atom -12397.717754 kJ/mol
# Density = 2.044997 g / cm^3
# Si number density = 20.496622 Si / 1000 Ang^3
#
#
#
# Elastic Constant Matrix: (Units=GPa)
#
#
# Indices 1 2 3 4 5 6 
#
# 1 125.7067 51.5796 42.8413 -0.0078 -20.7813 0.0007
# 2 51.5796 120.8175 51.5012 -0.0067 2.6437 0.0046
# 3 42.8413 51.5012 84.0881 -0.0093 -8.3260 -0.0011
# 4 -0.0078 -0.0067 -0.0093 32.4826 0.0043 7.3807
# 5 -20.7813 2.6437 -8.3260 0.0043 42.9492 -0.0008
# 6 0.0007 0.0046 -0.0011 7.3807 -0.0008 30.2130
#
#
#
# Elastic Compliance Matrix: (Units=1/GPa)
#
#
# Indices 1 2 3 4 5 6 
#
# 1 0.011336 -0.003662 -0.003025 0.000000 0.005124 0.000000
# 2 -0.003662 0.012566 -0.006202 0.000001 -0.003748 -0.000002
# 3 -0.003025 -0.006202 0.017460 0.000002 0.002303 0.000001
# 4 0.000000 0.000001 0.000002 0.032595 -0.000003 -0.007963
# 5 0.005124 -0.003748 0.002303 -0.000003 0.026440 0.000002
# 6 0.000000 -0.000002 0.000001 -0.007963 0.000002 0.035043
#
#
# Mechanical properties :
#
#
# Convention : Reuss Voigt Hill
#
# Bulk Modulus (GPa) = 64.16845 69.16186 66.66515
# Shear Modulus (GPa) = 30.04603 33.44164 31.74383
#
# Velocity S-wave (km/s) = 3.83286 4.04365 3.93967
# Velocity P-wave (km/s) = 7.13881 7.45773 7.30001
#
# Compressibility (1/GPa) = 0.01558398
#
# Stress axis : x y z
#
# Youngs Moduli (GPa) = 88.21742 79.58044 57.27455
#
# Poissons Ratio (x) = 0.29143 0.17326
# Poissons Ratio (y) = 0.32306 0.35519
# Poissons Ratio (z) = 0.26686 0.49352
#
# Static dielectric constant tensor:
#      x y z
#    x 4.223930 -0.000030 -0.354680 
#    y -0.000030 3.697360 0.000030 
#    z -0.354680 0.000030 3.619850 
# 
# 
# High freq. dielectric constant tensor:
#      x y z
#    x 1.826540 0.000000 -0.013870 
#    y 0.000000 1.797790 0.000000 
#    z -0.013870 0.000000 1.786880 
# 
# From -- ./inp_files/50416.got.cif
#   From: 2010.06.25/outbox.cif.g09.slc.cpg/sg15_26_cif.got.tgz:50416.got - 2010.06.28 07:06:18.
