data_PCOD8148158
_publ_section_title
;
Structure prediction by ZEFSAII (Michael W. Deem and Ramdas Pophale) SiO2 
 PCOD8148158
Probable space group: C 2/C
;
_chemical_formula_sum "Si O2"
_cell_formula_units_Z 64
_cell_length_a 19.019785
_cell_length_b 14.121551
_cell_length_c 22.799132
_cell_angle_alpha 90.000000
_cell_angle_beta 29.712709
_cell_angle_gamma 90.000000
_cell_volume 3035.167001
_symmetry_space_group_name_H-M "C 2/C"
_symmetry_group_IT_number 15
_symmetry_cell_setting 'monoclinic'
loop_
_space_group_symop_operation_xyz
x,y,z
-x,y,1/2-z
-x,-y,-z
x,-y,1/2+z
1/2+x,1/2+y,z
1/2-x,1/2+y,1/2-z
1/2-x,1/2-y,-z
1/2+x,1/2-y,1/2+z
loop_
_atom_site_type_symbol
_atom_site_label
_atom_site_fract_x
_atom_site_fract_y
_atom_site_fract_z
Si Si1 0.353356 0.486831 0.941729
Si Si2 0.851671 0.931979 0.254003
Si Si3 0.870453 0.352001 0.880423
Si Si4 0.837510 0.182651 0.363867
Si Si5 0.682945 0.800148 0.457032
Si Si6 0.091045 0.221935 0.884283
Si Si7 0.381932 0.665348 0.506480
Si Si8 0.309475 0.631899 0.252013
O O1 0.506664 0.531456 0.815793
O O2 0.314739 0.403796 0.924762
O O3 0.242740 0.569446 0.022433
O O4 0.352364 0.442261 0.007869
O O5 0.743349 0.895846 0.382986
O O6 0.882458 0.844500 0.189740
O O7 0.794875 0.018075 0.253925
O O8 0.813002 0.267039 0.881380
O O9 0.000000 0.396365 0.750000
O O10 0.912477 0.317608 0.915235
O O11 0.720684 0.265922 0.458078
O O12 0.800856 0.141330 0.327657
O O13 0.000000 0.221671 0.250000
O O14 0.575682 0.747568 0.490178
O O15 0.145085 0.172302 0.904724
O O16 0.179636 0.318946 0.812363
O O17 0.547347 0.684204 0.373151
#
# Coordination Sequence:
#
# PCOD8148158 Si02
#       8
#     8   8   8   8   8   8   8   8
#     4  11  23  41  65 100 128 172 214 269 325 396
#     4  11  22  42  68  95 125 177 219 266 320 392
#     4  11  25  42  61 100 128 165 214 269 331 379
#     4  11  20  38  68  96 129 169 216 268 321 388
#     4  11  24  42  69  89 129 170 217 275 315 387
#     4  11  23  44  62  96 131 174 216 266 327 379
#     4  10  23  39  63  95 132 170 213 265 325 386
#     4  10  23  40  65  96 127 174 221 263 325 392
#
# _framework density 21.086154000000001
#
# number of rings (size 3 to 8) (size 9 to 14) (size 15 to 20)
#    0.000    1.250    3.750    2.625    1.750    3.000 
#    6.750    0.000    0.000    0.000    0.000    0.000 
#    0.000    0.000    0.000    0.000    0.000    0.000 
#
# Total GULP energy -396659.031561 kJ/mol
# GULP energy per Si atom -12395.594736 kJ/mol
# Density = 2.103816 g / cm^3
# Si number density = 21.086154 Si / 1000 Ang^3
#
#
#
# Elastic Constant Matrix: (Units=GPa)
#
#
# Indices 1 2 3 4 5 6 
#
# 1 69.8061 31.7626 10.2144 0.0050 -3.3770 -0.0024
# 2 31.7626 96.7738 40.2544 0.0030 -3.1888 0.0004
# 3 10.2144 40.2544 74.6985 0.0094 8.6285 -0.0013
# 4 0.0050 0.0030 0.0094 109.0458 0.0054 -33.8040
# 5 -3.3770 -3.1888 8.6285 0.0054 22.8819 -0.0023
# 6 -0.0024 0.0004 -0.0013 -33.8040 -0.0023 36.0989
#
#
#
# Elastic Compliance Matrix: (Units=1/GPa)
#
#
# Indices 1 2 3 4 5 6 
#
# 1 0.016929 -0.005768 0.000625 0.000000 0.001459 0.000001
# 2 -0.005768 0.015802 -0.008242 0.000000 0.004459 0.000000
# 3 0.000625 -0.008242 0.018679 -0.000001 -0.008100 -0.000001
# 4 0.000000 0.000000 -0.000001 0.012921 -0.000001 0.012100
# 5 0.001459 0.004459 -0.008100 -0.000001 0.047594 0.000001
# 6 0.000001 0.000000 -0.000001 0.012100 0.000001 0.039032
#
#
# Mechanical properties :
#
#
# Convention : Reuss Voigt Hill
#
# Bulk Modulus (GPa) = 40.58493 45.08237 42.83365
# Shear Modulus (GPa) = 26.89034 44.20845 35.54939
#
# Velocity S-wave (km/s) = 3.57495 4.58379 4.11044
# Velocity P-wave (km/s) = 6.02738 7.03145 6.54869
#
# Compressibility (1/GPa) = 0.02463969
#
# Stress axis : x y z
#
# Youngs Moduli (GPa) = 59.06957 63.28392 53.53698
#
# Poissons Ratio (x) = 0.36504 -0.03346
# Poissons Ratio (y) = 0.34073 0.44124
# Poissons Ratio (z) = -0.03692 0.52157
#
# Static dielectric constant tensor:
#      x y z
#    x 3.901430 0.000000 -0.063950 
#    y 0.000000 4.065740 0.000020 
#    z -0.063950 0.000020 3.930280 
# 
# 
# High freq. dielectric constant tensor:
#      x y z
#    x 1.832010 0.000000 0.004770 
#    y 0.000000 1.826990 0.000000 
#    z 0.004770 0.000000 1.820470 
# 
# From -- ./inp_files/277637.got.cif
#   From: 2010.06.25/outbox.cif.g09.slc.cpg/sg15_139_cif.got.tgz:277637.got - 2010.06.28 07:06:18.
