data_PCOD8148372
_publ_section_title
;
Structure prediction by ZEFSAII (Michael W. Deem and Ramdas Pophale) SiO2 
 PCOD8148372
Probable space group: C 2/C
;
_chemical_formula_sum "Si O2"
_cell_formula_units_Z 56
_cell_length_a 20.101505
_cell_length_b 23.400629
_cell_length_c 16.595311
_cell_angle_alpha 90.000000
_cell_angle_beta 21.182758
_cell_angle_gamma 90.000000
_cell_volume 2820.735320
_symmetry_space_group_name_H-M "C 2/C"
_symmetry_group_IT_number 15
_symmetry_cell_setting 'monoclinic'
loop_
_space_group_symop_operation_xyz
x,y,z
-x,y,1/2-z
-x,-y,-z
x,-y,1/2+z
1/2+x,1/2+y,z
1/2-x,1/2+y,1/2-z
1/2-x,1/2-y,-z
1/2+x,1/2-y,1/2+z
loop_
_atom_site_type_symbol
_atom_site_label
_atom_site_fract_x
_atom_site_fract_y
_atom_site_fract_z
Si Si1 0.537860 0.201266 0.371254
Si Si2 0.500000 0.863512 0.750000
Si Si3 0.175446 0.395197 0.096694
Si Si4 0.894228 0.911233 0.294508
Si Si5 0.613574 0.313755 0.763156
Si Si6 0.085355 0.825727 0.976399
Si Si7 0.500000 0.479889 0.750000
Si Si8 0.810252 0.313573 0.284682
O O1 0.482313 0.177357 0.347284
O O2 0.543223 0.270107 0.366185
O O3 0.391010 0.181267 0.603916
O O4 0.738778 0.178352 0.164941
O O5 0.675785 0.905123 0.553887
O O6 0.099855 0.361894 0.260391
O O7 0.000000 0.423858 0.250000
O O8 0.265506 0.349179 0.935354
O O9 0.318389 0.442262 0.967217
O O10 0.000000 0.880731 0.250000
O O11 0.962007 0.880747 0.136754
O O12 0.956122 0.978358 0.222937
O O13 0.653267 0.246570 0.712970
O O14 0.656933 0.333702 0.804933
O O15 0.404565 0.325884 0.976932
#
# Coordination Sequence:
#
# PCOD8148372 Si02
#       8
#     8   4   8   8   8   8   4   8
#     4  11  22  34  61  94 127 161 198 243 311 376
#     4  12  22  39  66  90 119 164 200 250 314 360
#     4  12  23  41  66  89 121 160 205 253 305 362
#     4  10  23  41  62  83 119 161 206 252 296 349
#     4  11  21  37  61  92 128 160 197 248 306 373
#     4  11  21  39  57  93 129 160 202 250 301 369
#     4  10  24  43  62  88 117 162 214 258 294 352
#     4  11  21  38  58  95 130 158 197 244 310 373
#
# _framework density 19.852979999999999
#
# number of rings (size 3 to 8) (size 9 to 14) (size 15 to 20)
#    0.429    0.571    2.857    7.286    2.000    1.143 
#    0.000    0.714    0.000    2.571    0.000    0.000 
#    0.000    0.000    0.000    0.000    0.000    0.000 
#
# Total GULP energy -347157.460107 kJ/mol
# GULP energy per Si atom -12398.480718 kJ/mol
# Density = 1.980779 g / cm^3
# Si number density = 19.852980 Si / 1000 Ang^3
#
#
#
# Elastic Constant Matrix: (Units=GPa)
#
#
# Indices 1 2 3 4 5 6 
#
# 1 97.8010 47.4224 32.7920 0.0361 0.6589 -0.0018
# 2 47.4224 109.1974 38.4398 0.0893 14.2706 0.0068
# 3 32.7920 38.4398 97.3103 0.2572 -10.1530 -0.0103
# 4 0.0361 0.0893 0.2572 27.0642 -0.0091 -5.9068
# 5 0.6589 14.2706 -10.1530 -0.0091 36.4829 0.0688
# 6 -0.0018 0.0068 -0.0103 -5.9068 0.0688 24.8843
#
#
#
# Elastic Compliance Matrix: (Units=1/GPa)
#
#
# Indices 1 2 3 4 5 6 
#
# 1 0.013532 -0.005178 -0.002399 0.000023 0.001113 0.000004
# 2 -0.005178 0.013805 -0.004389 0.000004 -0.006528 0.000013
# 3 -0.002399 -0.004389 0.013391 -0.000116 0.005487 -0.000036
# 4 0.000023 0.000004 -0.000116 0.038969 -0.000042 0.009250
# 5 0.001113 -0.006528 0.005487 -0.000042 0.031471 -0.000093
# 6 0.000004 0.000013 -0.000036 0.009250 -0.000093 0.042382
#
#
# Mechanical properties :
#
#
# Convention : Reuss Voigt Hill
#
# Bulk Modulus (GPa) = 59.53650 60.17967 59.85809
# Shear Modulus (GPa) = 27.31035 30.06326 28.68681
#
# Velocity S-wave (km/s) = 3.71297 3.89562 3.80539
# Velocity P-wave (km/s) = 6.95955 7.11427 7.03734
#
# Compressibility (1/GPa) = 0.01679642
#
# Stress axis : x y z
#
# Youngs Moduli (GPa) = 73.89715 72.43921 74.67478
#
# Poissons Ratio (x) = 0.37509 0.17912
# Poissons Ratio (y) = 0.38264 0.32777
# Poissons Ratio (z) = 0.17725 0.31796
#
# Static dielectric constant tensor:
#      x y z
#    x 3.816110 -0.000360 -0.171380 
#    y -0.000360 3.379920 0.001460 
#    z -0.171380 0.001460 3.661890 
# 
# 
# High freq. dielectric constant tensor:
#      x y z
#    x 1.781690 -0.000040 -0.014770 
#    y -0.000040 1.746270 0.000070 
#    z -0.014770 0.000070 1.784860 
# 
# From -- ./inp_files/216898.got.cif
#   From: 2010.06.25/outbox.cif.g09.slc.cpg/sg15_109_cif.got.tgz:216898.got - 2010.06.28 07:06:18.
