data_PCOD8148288
_publ_section_title
;
Structure prediction by ZEFSAII (Michael W. Deem and Ramdas Pophale) SiO2 
 PCOD8148288
Probable space group: C 2/C
;
_chemical_formula_sum "Si O2"
_cell_formula_units_Z 48
_cell_length_a 18.713484
_cell_length_b 8.013547
_cell_length_c 14.932772
_cell_angle_alpha 90.000000
_cell_angle_beta 65.903695
_cell_angle_gamma 90.000000
_cell_volume 2044.204275
_symmetry_space_group_name_H-M "C 2/C"
_symmetry_group_IT_number 15
_symmetry_cell_setting 'monoclinic'
loop_
_space_group_symop_operation_xyz
x,y,z
-x,y,1/2-z
-x,-y,-z
x,-y,1/2+z
1/2+x,1/2+y,z
1/2-x,1/2+y,1/2-z
1/2-x,1/2-y,-z
1/2+x,1/2-y,1/2+z
loop_
_atom_site_type_symbol
_atom_site_label
_atom_site_fract_x
_atom_site_fract_y
_atom_site_fract_z
Si Si1 0.428515 0.320752 0.131935
Si Si2 0.372483 0.200257 0.980787
Si Si3 0.650811 0.330137 0.850533
Si Si4 0.691087 0.748073 0.663439
Si Si5 0.909121 0.330655 0.948676
Si Si6 0.798427 0.862537 0.860455
O O1 0.406300 0.515337 0.142181
O O2 0.372455 0.213974 0.226309
O O3 0.515654 0.275894 0.121505
O O4 0.427919 0.270789 0.028654
O O5 0.366040 0.325892 0.899621
O O6 0.414001 0.028525 0.930078
O O7 0.285778 0.194388 0.064712
O O8 0.733665 0.368347 0.858988
O O9 0.675456 0.255778 0.741018
O O10 0.606566 0.200023 0.937575
O O11 0.662225 0.773809 0.577228
O O12 0.712094 0.553985 0.661283
#
# Coordination Sequence:
#
# PCOD8148288 Si02
#       6
#     8   8   8   8   8   8
#     4  11  25  44  65  96 141 173 222 286 348 405
#     4  11  23  40  66  96 137 169 223 276 342 397
#     4  11  23  42  69  99 130 180 234 279 335 407
#     4  11  23  43  67  97 129 180 233 276 335 411
#     4  12  25  41  67  99 136 179 220 284 347 408
#     4  10  23  40  66 100 130 174 226 286 324 402
#
# _framework density 23.481020999999998
#
# number of rings (size 3 to 8) (size 9 to 14) (size 15 to 20)
#    0.000    1.000    3.333    3.000    4.667    1.333 
#    0.000    4.167    0.000    0.000    0.000    0.000 
#    0.000    0.000    0.000    0.000    0.000    0.000 
#
# Total GULP energy -297416.184176 kJ/mol
# GULP energy per Si atom -12392.341007 kJ/mol
# Density = 2.342758 g / cm^3
# Si number density = 23.481021 Si / 1000 Ang^3
#
#
#
# Elastic Constant Matrix: (Units=GPa)
#
#
# Indices 1 2 3 4 5 6 
#
# 1 94.8391 21.7890 20.1942 0.0000 -1.5258 0.0002
# 2 21.7890 60.1626 13.1714 0.0001 -0.8990 0.0003
# 3 20.1942 13.1714 96.5253 0.0000 10.6546 0.0000
# 4 0.0000 0.0001 0.0000 23.3314 0.0000 2.8361
# 5 -1.5258 -0.8990 10.6546 0.0000 37.6599 0.0001
# 6 0.0002 0.0003 0.0000 2.8361 0.0001 39.1885
#
#
#
# Elastic Compliance Matrix: (Units=1/GPa)
#
#
# Indices 1 2 3 4 5 6 
#
# 1 0.011882 -0.003835 -0.002070 0.000000 0.000976 0.000000
# 2 -0.003835 0.018416 -0.001798 0.000000 0.000793 0.000000
# 3 -0.002070 -0.001798 0.011409 0.000000 -0.003354 0.000000
# 4 0.000000 0.000000 0.000000 0.043241 0.000000 -0.003129
# 5 0.000976 0.000793 -0.003354 0.000000 0.027561 0.000000
# 6 0.000000 0.000000 0.000000 -0.003129 0.000000 0.025744
#
#
# Mechanical properties :
#
#
# Convention : Reuss Voigt Hill
#
# Bulk Modulus (GPa) = 38.02367 40.20404 39.11386
# Shear Modulus (GPa) = 30.78310 33.12745 31.95527
#
# Velocity S-wave (km/s) = 3.62467 3.76016 3.69304
# Velocity P-wave (km/s) = 5.80915 6.00090 5.90580
#
# Compressibility (1/GPa) = 0.02629941
#
# Stress axis : x y z
#
# Youngs Moduli (GPa) = 84.16196 54.30002 87.65229
#
# Poissons Ratio (x) = 0.20826 0.18145
# Poissons Ratio (y) = 0.32280 0.15761
# Poissons Ratio (z) = 0.17423 0.09764
#
# Static dielectric constant tensor:
#      x y z
#    x 4.291870 0.000000 0.102080 
#    y 0.000000 4.075760 0.000000 
#    z 0.102080 0.000000 4.802780 
# 
# 
# High freq. dielectric constant tensor:
#      x y z
#    x 1.927210 0.000000 0.008650 
#    y 0.000000 1.902770 0.000000 
#    z 0.008650 0.000000 1.947840 
# 
# From -- ./inp_files/166140.got.cif
#   From: 2010.06.25/outbox.cif.g09.slc.cpg/sg15_84_cif.got.tgz:166140.got - 2010.06.28 07:06:18.
