data_PCOD8148908
_publ_section_title
;
Structure prediction by ZEFSAII (Michael W. Deem and Ramdas Pophale) SiO2 
 PCOD8148908
Probable space group: C 2/C
;
_chemical_formula_sum "Si O2"
_cell_formula_units_Z 52
_cell_length_a 10.875932
_cell_length_b 15.361236
_cell_length_c 14.879773
_cell_angle_alpha 90.000000
_cell_angle_beta 113.185059
_cell_angle_gamma 90.000000
_cell_volume 2285.161703
_symmetry_space_group_name_H-M "C 2/C"
_symmetry_group_IT_number 15
_symmetry_cell_setting 'monoclinic'
loop_
_space_group_symop_operation_xyz
x,y,z
-x,y,1/2-z
-x,-y,-z
x,-y,1/2+z
1/2+x,1/2+y,z
1/2-x,1/2+y,1/2-z
1/2-x,1/2-y,-z
1/2+x,1/2-y,1/2+z
loop_
_atom_site_type_symbol
_atom_site_label
_atom_site_fract_x
_atom_site_fract_y
_atom_site_fract_z
Si Si1 0.254972 0.519197 0.699784
Si Si2 0.500000 0.368572 0.250000
Si Si3 0.500378 0.877784 0.146506
Si Si4 0.744503 0.586311 0.124208
Si Si5 0.107465 0.731598 0.418230
Si Si6 0.009226 0.205026 0.443979
Si Si7 0.229912 0.061301 0.486855
O O1 0.389547 0.570655 0.765752
O O2 0.138489 0.588095 0.642644
O O3 0.211748 0.461162 0.772049
O O4 0.282953 0.458331 0.622187
O O5 0.574884 0.309537 0.342588
O O6 0.500000 0.904831 0.250000
O O7 0.483683 0.773783 0.134957
O O8 0.381770 0.923431 0.058774
O O9 0.878018 0.638180 0.127673
O O10 0.624126 0.650913 0.111803
O O11 0.683829 0.522067 0.031263
O O12 0.250000 0.750000 0.500000
O O13 0.997419 0.736088 0.466259
O O14 0.140084 0.144980 0.484394
#
# Coordination Sequence:
#
# PCOD8148908 Si02
#       7
#     8   4   8   8   8   8   8
#     4  12  25  45  73 106 143 190 240 302 359 436
#     4  12  24  44  76 106 142 192 244 298 364 424
#     4  12  27  47  66  98 150 187 236 295 373 436
#     4  11  23  44  70 105 144 181 240 297 357 432
#     4  10  23  43  67 104 142 186 234 297 362 424
#     4  11  24  45  72 101 138 188 241 297 356 435
#     4  12  25  46  72 106 142 188 242 301 368 422
#
# _framework density 22.755502
#
# number of rings (size 3 to 8) (size 9 to 14) (size 15 to 20)
#    0.000    0.615    1.538    7.846    2.154    2.462 
#    0.000    0.000    0.000    0.000    0.000    0.000 
#    0.000    0.000    0.000    0.000    0.000    0.000 
#
# Total GULP energy -322470.409989 kJ/mol
# GULP energy per Si atom -12402.708076 kJ/mol
# Density = 2.270371 g / cm^3
# Si number density = 22.755502 Si / 1000 Ang^3
#
#
#
# Elastic Constant Matrix: (Units=GPa)
#
#
# Indices 1 2 3 4 5 6 
#
# 1 108.9012 50.1832 41.8569 0.0000 6.7943 0.0000
# 2 50.1832 127.1203 57.3666 0.0000 -0.2358 0.0000
# 3 41.8569 57.3666 129.9012 0.0000 -10.2565 0.0000
# 4 0.0000 0.0000 0.0000 47.4854 0.0000 9.0248
# 5 6.7943 -0.2358 -10.2565 0.0000 38.9865 0.0000
# 6 0.0000 0.0000 0.0000 9.0248 0.0000 31.6186
#
#
#
# Elastic Compliance Matrix: (Units=1/GPa)
#
#
# Indices 1 2 3 4 5 6 
#
# 1 0.011973 -0.003612 -0.002481 0.000000 -0.002761 0.000000
# 2 -0.003612 0.010961 -0.003699 0.000000 -0.000277 0.000000
# 3 -0.002481 -0.003699 0.010379 0.000000 0.003140 0.000000
# 4 0.000000 0.000000 0.000000 0.022267 0.000000 -0.006356
# 5 -0.002761 -0.000277 0.003140 0.000000 0.026956 0.000000
# 6 0.000000 0.000000 0.000000 -0.006356 0.000000 0.033441
#
#
# Mechanical properties :
#
#
# Convention : Reuss Voigt Hill
#
# Bulk Modulus (GPa) = 72.83386 73.85956 73.34671
# Shear Modulus (GPa) = 35.67961 38.05250 36.86606
#
# Velocity S-wave (km/s) = 3.96404 4.09373 4.02941
# Velocity P-wave (km/s) = 7.28204 7.40764 7.34511
#
# Compressibility (1/GPa) = 0.01372988
#
# Stress axis : x y z
#
# Youngs Moduli (GPa) = 83.52189 91.23163 96.35001
#
# Poissons Ratio (x) = 0.32954 0.23902
# Poissons Ratio (y) = 0.30169 0.35636
# Poissons Ratio (z) = 0.20720 0.33743
#
# Static dielectric constant tensor:
#      x y z
#    x 4.245930 0.000000 -0.228710 
#    y 0.000000 4.540580 0.000000 
#    z -0.228710 0.000000 4.068460 
# 
# 
# High freq. dielectric constant tensor:
#      x y z
#    x 1.899900 0.000000 -0.003240 
#    y 0.000000 1.911980 0.000000 
#    z -0.003240 0.000000 1.900180 
# 
# From -- ./inp_files/144318.got.cif
#   From: 2010.06.25/outbox.cif.g09.slc.cpg/sg15_73_cif.got.tgz:144318.got - 2010.06.28 07:06:18.
