data_PCOD8148934
_publ_section_title
;
Structure prediction by ZEFSAII (Michael W. Deem and Ramdas Pophale) SiO2 
 PCOD8148934
Probable space group: C 2/C
;
_chemical_formula_sum "Si O2"
_cell_formula_units_Z 24
_cell_length_a 8.095227
_cell_length_b 26.102548
_cell_length_c 9.382121
_cell_angle_alpha 90.000000
_cell_angle_beta 31.063718
_cell_angle_gamma 90.000000
_cell_volume 1022.951616
_symmetry_space_group_name_H-M "C 2/C"
_symmetry_group_IT_number 15
_symmetry_cell_setting 'monoclinic'
loop_
_space_group_symop_operation_xyz
x,y,z
-x,y,1/2-z
-x,-y,-z
x,-y,1/2+z
1/2+x,1/2+y,z
1/2-x,1/2+y,1/2-z
1/2-x,1/2-y,-z
1/2+x,1/2-y,1/2+z
loop_
_atom_site_type_symbol
_atom_site_label
_atom_site_fract_x
_atom_site_fract_y
_atom_site_fract_z
Si Si1 0.689270 0.716647 0.251731
Si Si2 0.688466 0.966145 0.255103
Si Si3 0.651134 0.873926 0.494241
O O1 0.500000 0.701032 0.250000
O O2 0.423734 0.734427 0.561223
O O3 0.881153 0.667397 0.159320
O O4 0.500000 0.954098 0.250000
O O5 0.729876 0.912761 0.307205
O O6 0.500000 0.000000 0.500000
O O7 0.000000 0.000000 0.000000
O O8 0.500000 0.900622 0.750000
O O9 0.000000 0.847133 0.250000
#
# Coordination Sequence:
#
# PCOD8148934 Si02
#       3
#     8   8   8
#     4  10  23  43  67  98 137 180 226 277 336 400
#     4  12  26  46  70  97 133 175 224 280 339 400
#     4  12  26  43  68 102 138 178 228 279 338 405
#
# _framework density 23.46152
#
# number of rings (size 3 to 8) (size 9 to 14) (size 15 to 20)
#    0.000    0.667    0.000    8.000    0.000   13.333 
#    0.000    0.000    0.000    0.000    0.000    0.000 
#    0.000    0.000    0.000    0.000    0.000    0.000 
#
# Total GULP energy -148661.903803 kJ/mol
# GULP energy per Si atom -12388.491984 kJ/mol
# Density = 2.340812 g / cm^3
# Si number density = 23.461520 Si / 1000 Ang^3
#
#
#
# Elastic Constant Matrix: (Units=GPa)
#
#
# Indices 1 2 3 4 5 6 
#
# 1 144.1854 64.1546 68.9498 0.0000 -3.3508 0.0000
# 2 64.1546 101.5929 30.5372 0.0000 -15.7121 0.0000
# 3 68.9498 30.5372 160.2950 0.0000 -11.0431 0.0000
# 4 0.0000 0.0000 0.0000 28.9273 0.0000 -10.4387
# 5 -3.3508 -15.7121 -11.0431 0.0000 43.2527 0.0000
# 6 0.0000 0.0000 0.0000 -10.4387 0.0000 22.1419
#
#
#
# Elastic Compliance Matrix: (Units=1/GPa)
#
#
# Indices 1 2 3 4 5 6 
#
# 1 0.011695 -0.006584 -0.003948 0.000000 -0.002494 0.000000
# 2 -0.006584 0.014646 0.000380 0.000000 0.004907 0.000000
# 3 -0.003948 0.000380 0.007993 0.000000 0.001873 0.000000
# 4 0.000000 0.000000 0.000000 0.041656 0.000000 0.019639
# 5 -0.002494 0.004907 0.001873 0.000000 0.025188 0.000000
# 6 0.000000 0.000000 0.000000 0.019639 0.000000 0.054422
#
#
# Mechanical properties :
#
#
# Convention : Reuss Voigt Hill
#
# Bulk Modulus (GPa) = 71.27643 81.48405 76.38024
# Shear Modulus (GPa) = 27.68841 35.02650 31.35745
#
# Velocity S-wave (km/s) = 3.43908 3.86804 3.65985
# Velocity P-wave (km/s) = 6.79822 7.39968 7.10532
#
# Compressibility (1/GPa) = 0.01402988
#
# Stress axis : x y z
#
# Youngs Moduli (GPa) = 85.50528 68.27902 125.10415
#
# Poissons Ratio (x) = 0.44957 0.49392
# Poissons Ratio (y) = 0.56299 -0.04756
# Poissons Ratio (z) = 0.33758 -0.02596
#
# Static dielectric constant tensor:
#      x y z
#    x 4.541990 0.000000 0.001580 
#    y 0.000000 3.072710 0.000000 
#    z 0.001580 0.000000 4.685880 
# 
# 
# High freq. dielectric constant tensor:
#      x y z
#    x 1.939280 0.000000 -0.001560 
#    y 0.000000 1.920500 0.000000 
#    z -0.001560 0.000000 1.964580 
# 
# From -- ./inp_files/25945.got.cif
#   From: 2010.06.25/outbox.cif.g09.slc.cpg/sg15_13_cif.got.tgz:25945.got - 2010.06.28 07:06:18.
