data_PCOD8148734
_publ_section_title
;
Structure prediction by ZEFSAII (Michael W. Deem and Ramdas Pophale) SiO2 
 PCOD8148734
Probable space group: C 2/C
;
_chemical_formula_sum "Si O2"
_cell_formula_units_Z 44
_cell_length_a 23.358097
_cell_length_b 9.080007
_cell_length_c 14.498017
_cell_angle_alpha 90.000000
_cell_angle_beta 137.707449
_cell_angle_gamma 90.000000
_cell_volume 2069.156432
_symmetry_space_group_name_H-M "C 2/C"
_symmetry_group_IT_number 15
_symmetry_cell_setting 'monoclinic'
loop_
_space_group_symop_operation_xyz
x,y,z
-x,y,1/2-z
-x,-y,-z
x,-y,1/2+z
1/2+x,1/2+y,z
1/2-x,1/2+y,1/2-z
1/2-x,1/2-y,-z
1/2+x,1/2-y,1/2+z
loop_
_atom_site_type_symbol
_atom_site_label
_atom_site_fract_x
_atom_site_fract_y
_atom_site_fract_z
Si Si1 0.924998 0.638637 0.816875
Si Si2 0.618250 0.558287 0.309215
Si Si3 0.066440 0.412062 0.960390
Si Si4 0.262939 0.603017 0.878681
Si Si5 0.744744 0.065057 0.178990
Si Si6 0.000000 0.176424 0.750000
O O1 0.937072 0.800587 0.787998
O O2 0.829078 0.581701 0.682498
O O3 0.990371 0.526379 0.847347
O O4 0.942033 0.648672 0.946253
O O5 0.663767 0.595794 0.459197
O O6 0.687239 0.512820 0.315350
O O7 0.555650 0.421864 0.247209
O O8 0.061708 0.275324 0.885800
O O9 0.155364 0.491223 0.049084
O O10 0.265048 0.760058 0.830690
O O11 0.278460 0.479128 0.820228
#
# Coordination Sequence:
#
# PCOD8148734 Si02
#       6
#     8   8   8   8   8   4
#     4   9  21  45  69  91 130 172 215 267 328 384
#     4  11  26  43  65  97 131 176 211 271 327 387
#     4  10  24  43  66  99 128 172 222 262 321 390
#     4  10  23  42  69 101 122 173 216 264 330 388
#     4  10  23  44  70  92 131 169 216 271 318 391
#     4  12  30  38  62 100 134 170 220 272 316 390
#
# _framework density 21.264703000000001
#
# number of rings (size 3 to 8) (size 9 to 14) (size 15 to 20)
#    0.000    1.818    0.000    2.182   15.273    5.818 
#    0.000    0.000    0.000    0.000    0.000    0.000 
#    0.000    0.000    0.000    0.000    0.000    0.000 
#
# Total GULP energy -272923.942046 kJ/mol
# GULP energy per Si atom -12405.633729 kJ/mol
# Density = 2.121630 g / cm^3
# Si number density = 21.264703 Si / 1000 Ang^3
#
#
#
# Elastic Constant Matrix: (Units=GPa)
#
#
# Indices 1 2 3 4 5 6 
#
# 1 93.4207 54.6952 22.9703 0.0000 8.7635 0.0000
# 2 54.6952 100.1472 44.5566 0.0000 11.6386 0.0000
# 3 22.9703 44.5566 83.5144 0.0000 11.2094 0.0000
# 4 0.0000 0.0000 0.0000 43.4724 0.0000 -9.8264
# 5 8.7635 11.6386 11.2094 0.0000 23.8110 0.0000
# 6 0.0000 0.0000 0.0000 -9.8264 0.0000 37.0789
#
#
#
# Elastic Compliance Matrix: (Units=1/GPa)
#
#
# Indices 1 2 3 4 5 6 
#
# 1 0.015816 -0.008653 0.000512 0.000000 -0.001833 0.000000
# 2 -0.008653 0.018078 -0.006945 0.000000 -0.002382 0.000000
# 3 0.000512 -0.006945 0.016127 0.000000 -0.004386 0.000000
# 4 0.000000 0.000000 0.000000 0.024469 0.000000 0.006485
# 5 -0.001833 -0.002382 -0.004386 0.000000 0.045901 0.000000
# 6 0.000000 0.000000 0.000000 0.006485 0.000000 0.028688
#
#
# Mechanical properties :
#
#
# Convention : Reuss Voigt Hill
#
# Bulk Modulus (GPa) = 50.37884 57.94740 54.16312
# Shear Modulus (GPa) = 26.90087 31.19648 29.04868
#
# Velocity S-wave (km/s) = 3.56061 3.83437 3.70002
# Velocity P-wave (km/s) = 6.37547 6.84930 6.61663
#
# Compressibility (1/GPa) = 0.01984960
#
# Stress axis : x y z
#
# Youngs Moduli (GPa) = 63.22587 55.31593 62.00716
#
# Poissons Ratio (x) = 0.47865 -0.03177
# Poissons Ratio (y) = 0.54709 0.43066
# Poissons Ratio (z) = -0.03239 0.38418
#
# Static dielectric constant tensor:
#      x y z
#    x 3.958280 0.000000 0.080580 
#    y 0.000000 3.848500 0.000000 
#    z 0.080580 0.000000 3.938360 
# 
# 
# High freq. dielectric constant tensor:
#      x y z
#    x 1.836940 0.000000 -0.001280 
#    y 0.000000 1.835440 0.000000 
#    z -0.001280 0.000000 1.842670 
# 
# From -- ./inp_files/176732.got.cif
#   From: 2010.06.25/outbox.cif.g09.slc.cpg/sg15_89_cif.got.tgz:176732.got - 2010.06.28 07:06:18.
