data_PCOD8148164
_publ_section_title
;
Structure prediction by ZEFSAII (Michael W. Deem and Ramdas Pophale) SiO2 
 PCOD8148164
Probable space group: C 2/C
;
_chemical_formula_sum "Si O2"
_cell_formula_units_Z 48
_cell_length_a 18.943854
_cell_length_b 13.698170
_cell_length_c 15.432880
_cell_angle_alpha 90.000000
_cell_angle_beta 152.214685
_cell_angle_gamma 90.000000
_cell_volume 1866.864451
_symmetry_space_group_name_H-M "C 2/C"
_symmetry_group_IT_number 15
_symmetry_cell_setting 'monoclinic'
loop_
_space_group_symop_operation_xyz
x,y,z
-x,y,1/2-z
-x,-y,-z
x,-y,1/2+z
1/2+x,1/2+y,z
1/2-x,1/2+y,1/2-z
1/2-x,1/2-y,-z
1/2+x,1/2-y,1/2+z
loop_
_atom_site_type_symbol
_atom_site_label
_atom_site_fract_x
_atom_site_fract_y
_atom_site_fract_z
Si Si1 0.917362 0.388030 0.961982
Si Si2 0.832391 0.538884 0.007797
Si Si3 0.396478 0.260600 0.055941
Si Si4 0.894659 0.215385 0.363206
Si Si5 0.290435 0.938644 0.649841
Si Si6 0.009555 0.028905 0.109896
O O1 0.920874 0.460255 0.046414
O O2 0.783730 0.307607 0.825443
O O3 0.893899 0.451024 0.847789
O O4 0.074833 0.327649 0.132100
O O5 0.652780 0.521248 0.810619
O O6 0.865956 0.646720 0.008759
O O7 0.882938 0.527825 0.164368
O O8 0.500000 0.285207 0.250000
O O9 0.463060 0.300412 0.035628
O O10 0.242663 0.323397 0.904736
O O11 0.972114 0.146199 0.375048
O O12 0.137261 0.000522 0.494640
O O13 0.000000 0.000000 0.000000
#
# Coordination Sequence:
#
# PCOD8148164 Si02
#       6
#     8   8   8   8   8   8
#     4  10  23  42  64  96 122 171 212 260 316 376
#     4  11  23  38  61  92 129 166 207 259 321 376
#     4  11  22  35  59  95 129 158 201 262 334 379
#     4  10  23  39  64  88 128 164 213 258 311 373
#     4  11  22  35  65  92 129 162 209 259 313 377
#     4  11  20  39  61  90 122 171 218 250 302 377
#
# _framework density 25.711561
#
# number of rings (size 3 to 8) (size 9 to 14) (size 15 to 20)
#    0.000    1.333    5.000    3.000    4.667    0.667 
#    0.000    2.500    0.000    6.000    0.000    0.000 
#    0.000    0.000    0.000    0.000    0.000    0.000 
#
# Total GULP energy -297603.178307 kJ/mol
# GULP energy per Si atom -12400.132429 kJ/mol
# Density = 2.565304 g / cm^3
# Si number density = 25.711561 Si / 1000 Ang^3
#
#
#
# Elastic Constant Matrix: (Units=GPa)
#
#
# Indices 1 2 3 4 5 6 
#
# 1 154.8405 58.8423 31.6846 -0.0001 -19.3070 -0.0001
# 2 58.8423 90.7888 61.0254 -0.0001 -24.4711 -0.0001
# 3 31.6846 61.0254 113.9934 -0.0001 -24.7908 -0.0001
# 4 -0.0001 -0.0001 -0.0001 40.3465 -0.0001 5.3765
# 5 -19.3070 -24.4711 -24.7908 -0.0001 30.4614 -0.0001
# 6 -0.0001 -0.0001 -0.0001 5.3765 -0.0001 52.1319
#
#
#
# Elastic Compliance Matrix: (Units=1/GPa)
#
#
# Indices 1 2 3 4 5 6 
#
# 1 0.008693 -0.005947 0.001126 0.000000 0.001649 0.000000
# 2 -0.005947 0.022894 -0.009020 0.000000 0.007282 0.000000
# 3 0.001126 -0.009020 0.014420 0.000000 0.005203 0.000000
# 4 0.000000 0.000000 0.000000 0.025131 0.000000 -0.002592
# 5 0.001649 0.007282 0.005203 0.000000 0.043958 0.000000
# 6 0.000000 0.000000 0.000000 -0.002592 0.000000 0.019449
#
#
# Mechanical properties :
#
#
# Convention : Reuss Voigt Hill
#
# Bulk Modulus (GPa) = 54.56636 73.63638 64.10137
# Shear Modulus (GPa) = 29.70259 38.45931 34.08095
#
# Velocity S-wave (km/s) = 3.40254 3.87175 3.64471
# Velocity P-wave (km/s) = 6.05846 6.97774 6.53429
#
# Compressibility (1/GPa) = 0.01832631
#
# Stress axis : x y z
#
# Youngs Moduli (GPa) = 115.03086 43.67894 69.34980
#
# Poissons Ratio (x) = 0.25974 -0.07807
# Poissons Ratio (y) = 0.68404 0.62551
# Poissons Ratio (z) = -0.12950 0.39397
#
# Static dielectric constant tensor:
#      x y z
#    x 4.916370 0.000000 0.065920 
#    y 0.000000 5.339980 0.000000 
#    z 0.065920 0.000000 4.717100 
# 
# 
# High freq. dielectric constant tensor:
#      x y z
#    x 2.041140 0.000000 0.007300 
#    y 0.000000 2.028370 0.000000 
#    z 0.007300 0.000000 2.028190 
# 
# From -- ./inp_files/167909.got.cif
#   From: 2010.06.25/outbox.cif.g09.slc.cpg/sg15_84_cif.got.tgz:167909.got - 2010.06.28 07:06:18.
