data_PCOD8148937
_publ_section_title
;
Structure prediction by ZEFSAII (Michael W. Deem and Ramdas Pophale) SiO2 
 PCOD8148937
Probable space group: C 2/C
;
_chemical_formula_sum "Si O2"
_cell_formula_units_Z 64
_cell_length_a 25.504282
_cell_length_b 11.707123
_cell_length_c 15.407875
_cell_angle_alpha 90.000000
_cell_angle_beta 137.786473
_cell_angle_gamma 90.000000
_cell_volume 3091.062177
_symmetry_space_group_name_H-M "C 2/C"
_symmetry_group_IT_number 15
_symmetry_cell_setting 'monoclinic'
loop_
_space_group_symop_operation_xyz
x,y,z
-x,y,1/2-z
-x,-y,-z
x,-y,1/2+z
1/2+x,1/2+y,z
1/2-x,1/2+y,1/2-z
1/2-x,1/2-y,-z
1/2+x,1/2-y,1/2+z
loop_
_atom_site_type_symbol
_atom_site_label
_atom_site_fract_x
_atom_site_fract_y
_atom_site_fract_z
Si Si1 0.418765 0.260405 0.104713
Si Si2 0.119762 0.747964 0.639386
Si Si3 0.013522 0.574400 0.597997
Si Si4 0.206382 0.941599 0.483232
Si Si5 0.192207 0.981871 0.768159
Si Si6 0.371196 0.042799 0.140837
Si Si7 0.348296 0.871888 0.974253
Si Si8 0.786122 0.868128 0.362214
O O1 0.500000 0.298643 0.250000
O O2 0.350255 0.342373 0.054411
O O3 0.399229 0.130039 0.102179
O O4 0.422322 0.262307 0.005166
O O5 0.061327 0.689030 0.635736
O O6 0.133632 0.875524 0.690921
O O7 0.197688 0.670240 0.731952
O O8 0.057036 0.482906 0.710489
O O9 0.000000 0.500000 0.500000
O O10 0.931585 0.606508 0.536652
O O11 0.296840 0.900839 0.598635
O O12 0.186361 0.972397 0.358957
O O13 0.203021 0.046856 0.544591
O O14 0.173333 0.081465 0.675449
O O15 0.277594 0.938353 0.840081
O O16 0.346022 0.920380 0.069479
O O17 0.335731 0.737945 0.956608
#
# Coordination Sequence:
#
# PCOD8148937 Si02
#       8
#     8   8   8   8   8   8   8   8
#     4  12  25  45  65 102 144 179 223 288 344 410
#     4  11  23  41  69  93 137 178 227 279 342 410
#     4  12  23  38  62  98 130 172 221 283 345 394
#     4  11  24  44  71  98 132 186 228 277 347 403
#     4  10  23  43  67  99 132 177 231 279 334 421
#     4  11  23  42  68  96 132 172 233 279 338 408
#     4  10  24  39  66  96 129 168 222 281 344 391
#     4  11  22  44  68  97 135 173 231 283 332 415
#
# _framework density 20.704855999999999
#
# number of rings (size 3 to 8) (size 9 to 14) (size 15 to 20)
#    0.000    1.000    2.500    5.250    1.750    3.500 
#    2.250    1.250    0.000    0.000    0.000    0.000 
#    0.000    0.000    0.000    0.000    0.000    0.000 
#
# Total GULP energy -396663.188256 kJ/mol
# GULP energy per Si atom -12395.724633 kJ/mol
# Density = 2.065773 g / cm^3
# Si number density = 20.704856 Si / 1000 Ang^3
#
#
#
# Elastic Constant Matrix: (Units=GPa)
#
#
# Indices 1 2 3 4 5 6 
#
# 1 81.9855 19.3387 30.2454 0.0000 6.9508 0.0000
# 2 19.3387 90.5182 36.6282 0.0000 -1.1609 0.0000
# 3 30.2454 36.6282 97.3538 0.0000 -0.2766 0.0000
# 4 0.0000 0.0000 0.0000 34.5487 0.0000 -4.1547
# 5 6.9508 -1.1609 -0.2766 0.0000 41.8812 0.0000
# 6 0.0000 0.0000 0.0000 -4.1547 0.0000 33.8033
#
#
#
# Elastic Compliance Matrix: (Units=1/GPa)
#
#
# Indices 1 2 3 4 5 6 
#
# 1 0.014176 -0.001504 -0.003845 0.000000 -0.002420 0.000000
# 2 -0.001504 0.013195 -0.004496 0.000000 0.000586 0.000000
# 3 -0.003845 -0.004496 0.013160 0.000000 0.000600 0.000000
# 4 0.000000 0.000000 0.000000 0.029379 0.000000 0.003611
# 5 -0.002420 0.000586 0.000600 0.000000 0.024299 0.000000
# 6 0.000000 0.000000 0.000000 0.003611 0.000000 0.030027
#
#
# Mechanical properties :
#
#
# Convention : Reuss Voigt Hill
#
# Bulk Modulus (GPa) = 47.98126 49.14246 48.56186
# Shear Modulus (GPa) = 33.14075 34.28965 33.71520
#
# Velocity S-wave (km/s) = 4.00512 4.07396 4.03969
# Velocity P-wave (km/s) = 6.67924 6.77612 6.72785
#
# Compressibility (1/GPa) = 0.02084147
#
# Stress axis : x y z
#
# Youngs Moduli (GPa) = 70.54361 75.78344 75.98999
#
# Poissons Ratio (x) = 0.11395 0.29219
# Poissons Ratio (y) = 0.10607 0.34164
# Poissons Ratio (z) = 0.27125 0.34071
#
# Static dielectric constant tensor:
#      x y z
#    x 3.532160 0.000000 0.144290 
#    y 0.000000 3.908070 0.000000 
#    z 0.144290 0.000000 3.932160 
# 
# 
# High freq. dielectric constant tensor:
#      x y z
#    x 1.807720 0.000000 -0.004210 
#    y 0.000000 1.816850 0.000000 
#    z -0.004210 0.000000 1.820660 
# 
# From -- ./inp_files/177844.got.cif
#   From: 2010.06.25/outbox.cif.g09.slc.cpg/sg15_89_cif.got.tgz:177844.got - 2010.06.28 07:06:18.
