data_PCOD8148274
_publ_section_title
;
Structure prediction by ZEFSAII (Michael W. Deem and Ramdas Pophale) SiO2 
 PCOD8148274
Probable space group: C 2/C
;
_chemical_formula_sum "Si O2"
_cell_formula_units_Z 48
_cell_length_a 18.578738
_cell_length_b 13.050280
_cell_length_c 10.745193
_cell_angle_alpha 90.000000
_cell_angle_beta 130.774292
_cell_angle_gamma 90.000000
_cell_volume 1972.928873
_symmetry_space_group_name_H-M "C 2/C"
_symmetry_group_IT_number 15
_symmetry_cell_setting 'monoclinic'
loop_
_space_group_symop_operation_xyz
x,y,z
-x,y,1/2-z
-x,-y,-z
x,-y,1/2+z
1/2+x,1/2+y,z
1/2-x,1/2+y,1/2-z
1/2-x,1/2-y,-z
1/2+x,1/2-y,1/2+z
loop_
_atom_site_type_symbol
_atom_site_label
_atom_site_fract_x
_atom_site_fract_y
_atom_site_fract_z
Si Si1 0.761087 0.038215 0.233403
Si Si2 0.559594 0.537181 0.444109
Si Si3 0.192883 0.329967 0.071423
Si Si4 0.833967 0.828712 0.604295
Si Si5 0.957018 0.206902 0.455461
Si Si6 0.140441 0.688405 0.250266
O O1 0.794953 0.071084 0.133798
O O2 0.683497 0.116501 0.194467
O O3 0.858308 0.044296 0.426322
O O4 0.706715 0.929356 0.173569
O O5 0.500000 0.504566 0.250000
O O6 0.623990 0.637525 0.480984
O O7 0.499095 0.585929 0.498610
O O8 0.136647 0.233618 0.069221
O O9 0.299694 0.292398 0.164001
O O10 0.139439 0.365397 0.884663
O O11 0.750000 0.750000 0.500000
O O12 0.923400 0.776357 0.776160
O O13 0.034273 0.286715 0.588279
#
# Coordination Sequence:
#
# PCOD8148274 Si02
#       6
#     8   8   8   8   8   8
#     4  12  23  46  73 103 144 192 231 302 355 424
#     4  10  23  40  65 105 138 177 245 287 354 423
#     4  11  24  44  70 103 146 184 236 289 358 422
#     4  11  23  43  69 103 139 191 230 293 356 415
#     4  11  22  45  71  97 142 188 231 296 351 416
#     4  11  24  45  67 104 142 187 232 298 352 420
#
# _framework density 24.329311000000001
#
# number of rings (size 3 to 8) (size 9 to 14) (size 15 to 20)
#    0.000    1.000    3.333    3.500    0.000    3.333 
#    6.000    1.667    0.000    0.000    0.000    0.000 
#    0.000    0.000    0.000    0.000    0.000    0.000 
#
# Total GULP energy -297380.203168 kJ/mol
# GULP energy per Si atom -12390.841799 kJ/mol
# Density = 2.427394 g / cm^3
# Si number density = 24.329311 Si / 1000 Ang^3
#
#
#
# Elastic Constant Matrix: (Units=GPa)
#
#
# Indices 1 2 3 4 5 6 
#
# 1 59.1339 6.2911 2.6342 0.0000 5.7155 0.0000
# 2 6.2911 91.4733 34.7480 0.0000 16.7404 0.0000
# 3 2.6342 34.7480 97.1365 0.0000 19.6220 0.0000
# 4 0.0000 0.0000 0.0000 38.7168 0.0000 4.1080
# 5 5.7155 16.7404 19.6220 0.0000 37.0466 0.0000
# 6 0.0000 0.0000 0.0000 4.1080 0.0000 27.1443
#
#
#
# Elastic Compliance Matrix: (Units=1/GPa)
#
#
# Indices 1 2 3 4 5 6 
#
# 1 0.017224 -0.000865 0.000336 0.000000 -0.002445 0.000000
# 2 -0.000865 0.013169 -0.003933 0.000000 -0.003734 0.000000
# 3 0.000336 -0.003933 0.012703 0.000000 -0.005003 0.000000
# 4 0.000000 0.000000 0.000000 0.026250 0.000000 -0.003973
# 5 -0.002445 -0.003734 -0.005003 0.000000 0.031707 0.000000
# 6 0.000000 0.000000 0.000000 -0.003973 0.000000 0.037441
#
#
# Mechanical properties :
#
#
# Convention : Reuss Voigt Hill
#
# Bulk Modulus (GPa) = 29.26321 37.23225 33.24773
# Shear Modulus (GPa) = 31.48417 34.18624 32.83521
#
# Velocity S-wave (km/s) = 3.60124 3.75259 3.67770
# Velocity P-wave (km/s) = 5.41719 5.84060 5.63288
#
# Compressibility (1/GPa) = 0.03417260
#
# Stress axis : x y z
#
# Youngs Moduli (GPa) = 58.05824 75.93543 78.71993
#
# Poissons Ratio (x) = 0.06568 -0.02646
# Poissons Ratio (y) = 0.05021 0.30961
# Poissons Ratio (z) = -0.01951 0.29866
#
# Static dielectric constant tensor:
#      x y z
#    x 4.621790 0.000000 -0.032150 
#    y 0.000000 4.388910 0.000000 
#    z -0.032150 0.000000 4.605920 
# 
# 
# High freq. dielectric constant tensor:
#      x y z
#    x 1.978600 0.000000 0.007510 
#    y 0.000000 1.955820 0.000000 
#    z 0.007510 0.000000 1.976200 
# 
# From -- ./inp_files/112989.got.cif
#   From: 2010.06.25/outbox.cif.g09.slc.cpg/sg15_57_cif.got.tgz:112989.got - 2010.06.28 07:06:18.
