data_PCOD8148406
_publ_section_title
;
Structure prediction by ZEFSAII (Michael W. Deem and Ramdas Pophale) SiO2 
 PCOD8148406
Probable space group: C 2/C
;
_chemical_formula_sum "Si O2"
_cell_formula_units_Z 64
_cell_length_a 16.466480
_cell_length_b 21.691797
_cell_length_c 17.131367
_cell_angle_alpha 90.000000
_cell_angle_beta 31.055794
_cell_angle_gamma 90.000000
_cell_volume 3156.681205
_symmetry_space_group_name_H-M "C 2/C"
_symmetry_group_IT_number 15
_symmetry_cell_setting 'monoclinic'
loop_
_space_group_symop_operation_xyz
x,y,z
-x,y,1/2-z
-x,-y,-z
x,-y,1/2+z
1/2+x,1/2+y,z
1/2-x,1/2+y,1/2-z
1/2-x,1/2-y,-z
1/2+x,1/2-y,1/2+z
loop_
_atom_site_type_symbol
_atom_site_label
_atom_site_fract_x
_atom_site_fract_y
_atom_site_fract_z
Si Si1 0.279140 0.995138 0.613126
Si Si2 0.343992 0.747695 0.844915
Si Si3 0.971985 0.073962 0.363558
Si Si4 0.823288 0.506149 0.402205
Si Si5 0.481960 0.093078 0.520598
Si Si6 0.312057 0.121858 0.298878
Si Si7 0.533144 0.672737 0.438980
Si Si8 0.779541 0.293689 0.211945
O O1 0.282347 0.024418 0.524580
O O2 0.392877 0.935029 0.521498
O O3 0.103220 0.975615 0.782278
O O4 0.338726 0.045022 0.626507
O O5 0.500000 0.715651 0.750000
O O6 0.376255 0.815863 0.784917
O O7 0.262236 0.706351 0.845863
O O8 0.250000 0.750000 0.000000
O O9 0.800395 0.045804 0.523372
O O10 0.000000 0.090425 0.250000
O O11 0.986107 0.136975 0.399724
O O12 0.808630 0.567677 0.364127
O O13 0.000000 0.479052 0.250000
O O14 0.568383 0.105450 0.368234
O O15 0.408375 0.153525 0.620199
O O16 0.133918 0.129558 0.414034
O O17 0.378101 0.696619 0.609560
O O18 0.643671 0.729841 0.323565
#
# Coordination Sequence:
#
# PCOD8148406 Si02
#       8
#     8   8   8   8   8   8   8   8
#     4  10  23  41  63  95 130 176 211 270 330 385
#     4  11  22  38  58  90 134 174 208 259 316 378
#     4  10  24  45  68  93 136 166 215 277 336 390
#     4  11  23  39  64  99 130 169 214 266 328 392
#     4  11  22  41  67  93 129 175 222 264 327 388
#     4  11  22  39  65  94 133 173 216 263 321 396
#     4  11  24  45  67  96 128 173 217 277 326 390
#     4  11  25  41  66  97 126 174 225 271 323 389
#
# _framework density 20.274459
#
# number of rings (size 3 to 8) (size 9 to 14) (size 15 to 20)
#    0.000    1.250    2.500    4.125    5.250    0.500 
#    0.000    0.625    0.000    0.000    0.000    0.000 
#    0.000    0.000    0.000    0.000    0.000    0.000 
#
# Total GULP energy -396826.547441 kJ/mol
# GULP energy per Si atom -12400.829608 kJ/mol
# Density = 2.022831 g / cm^3
# Si number density = 20.274459 Si / 1000 Ang^3
#
#
#
# Elastic Constant Matrix: (Units=GPa)
#
#
# Indices 1 2 3 4 5 6 
#
# 1 76.8484 40.8360 30.9590 -0.0077 -18.5624 0.0084
# 2 40.8360 85.6327 40.5352 -0.0097 -12.2827 0.0205
# 3 30.9590 40.5352 123.8717 -0.0025 -17.4145 0.0028
# 4 -0.0077 -0.0097 -0.0025 30.6128 -0.0025 3.8889
# 5 -18.5624 -12.2827 -17.4145 -0.0025 37.5485 0.0042
# 6 0.0084 0.0205 0.0028 3.8889 0.0042 28.6065
#
#
#
# Elastic Compliance Matrix: (Units=1/GPa)
#
#
# Indices 1 2 3 4 5 6 
#
# 1 0.019119 -0.007536 -0.001423 0.000003 0.006326 -0.000001
# 2 -0.007536 0.017029 -0.003669 0.000005 0.000143 -0.000010
# 3 -0.001423 -0.003669 0.010014 -0.000001 0.002741 0.000002
# 4 0.000003 0.000005 -0.000001 0.033240 0.000005 -0.004519
# 5 0.006326 0.000143 0.002741 0.000005 0.031078 -0.000007
# 6 -0.000001 -0.000010 0.000002 -0.004519 -0.000007 0.035571
#
#
# Mechanical properties :
#
#
# Convention : Reuss Voigt Hill
#
# Bulk Modulus (GPa) = 47.83266 56.77924 52.30595
# Shear Modulus (GPa) = 28.04649 30.95505 29.50077
#
# Velocity S-wave (km/s) = 3.72336 3.91167 3.81868
# Velocity P-wave (km/s) = 6.49064 6.96187 6.73038
#
# Compressibility (1/GPa) = 0.02090622
#
# Stress axis : x y z
#
# Youngs Moduli (GPa) = 52.30527 58.72399 99.85662
#
# Poissons Ratio (x) = 0.44256 0.14207
# Poissons Ratio (y) = 0.39418 0.36635
# Poissons Ratio (z) = 0.07442 0.21545
#
# Static dielectric constant tensor:
#      x y z
#    x 3.859770 -0.000110 -0.185820 
#    y -0.000110 3.538750 0.000110 
#    z -0.185820 0.000110 3.790560 
# 
# 
# High freq. dielectric constant tensor:
#      x y z
#    x 1.794520 0.000000 -0.013130 
#    y 0.000000 1.783200 0.000010 
#    z -0.013130 0.000010 1.801400 
# 
# From -- ./inp_files/211957.got.cif
#   From: 2010.06.25/outbox.cif.g09.slc.cpg/sg15_106_cif.got.tgz:211957.got - 2010.06.28 07:06:18.
