data_PCOD8148984
_publ_section_title
;
Structure prediction by ZEFSAII (Michael W. Deem and Ramdas Pophale) SiO2 
 PCOD8148984
Probable space group: C 2/C
;
_chemical_formula_sum "Si O2"
_cell_formula_units_Z 48
_cell_length_a 16.974425
_cell_length_b 22.044112
_cell_length_c 13.746200
_cell_angle_alpha 90.000000
_cell_angle_beta 155.486098
_cell_angle_gamma 90.000000
_cell_volume 2134.167237
_symmetry_space_group_name_H-M "C 2/C"
_symmetry_group_IT_number 15
_symmetry_cell_setting 'monoclinic'
loop_
_space_group_symop_operation_xyz
x,y,z
-x,y,1/2-z
-x,-y,-z
x,-y,1/2+z
1/2+x,1/2+y,z
1/2-x,1/2+y,1/2-z
1/2-x,1/2-y,-z
1/2+x,1/2-y,1/2+z
loop_
_atom_site_type_symbol
_atom_site_label
_atom_site_fract_x
_atom_site_fract_y
_atom_site_fract_z
Si Si1 0.249027 0.326446 0.696963
Si Si2 0.200868 0.047704 0.518679
Si Si3 0.500000 0.130052 0.750000
Si Si4 0.407469 0.203769 0.939879
Si Si5 0.000000 0.321662 0.750000
Si Si6 0.613821 0.599133 0.618194
Si Si7 0.306195 0.581978 0.575009
O O1 0.138540 0.328194 0.470075
O O2 0.372083 0.265048 0.840442
O O3 0.097569 0.328218 0.614280
O O4 0.389791 0.384162 0.864131
O O5 0.373392 0.090018 0.680276
O O6 0.172089 0.049698 0.602776
O O7 0.253244 0.979919 0.544996
O O8 0.000000 0.070217 0.250000
O O9 0.228133 0.160579 0.725264
O O10 0.431183 0.219304 0.082121
O O11 0.840530 0.365720 0.613680
O O12 0.672949 0.569263 0.786532
O O13 0.500000 0.607663 0.750000
#
# Coordination Sequence:
#
# PCOD8148984 Si02
#       7
#     8   8   4   8   4   8   8
#     4  12  24  43  68  98 133 176 223 270 337 391
#     4  11  23  43  68  98 130 173 223 270 338 388
#     4  12  25  42  68  98 134 174 225 280 328 394
#     4  11  24  43  67 101 132 178 223 271 333 400
#     4  10  23  46  66  96 144 170 215 280 332 394
#     4  11  23  45  67  97 140 170 219 282 324 396
#     4  10  23  43  69  99 132 175 223 269 335 391
#
# _framework density 22.491209000000001
#
# number of rings (size 3 to 8) (size 9 to 14) (size 15 to 20)
#    0.000    1.000    5.000    1.500    0.000    4.000 
#    6.000    2.500    0.000    0.000    0.000    0.000 
#    0.000    0.000    0.000    0.000    0.000    0.000 
#
# Total GULP energy -297655.086134 kJ/mol
# GULP energy per Si atom -12402.295256 kJ/mol
# Density = 2.244002 g / cm^3
# Si number density = 22.491209 Si / 1000 Ang^3
#
#
#
# Elastic Constant Matrix: (Units=GPa)
#
#
# Indices 1 2 3 4 5 6 
#
# 1 103.9730 31.9450 24.5545 0.0000 11.6615 0.0000
# 2 31.9450 82.5609 32.7164 0.0000 -5.5023 0.0000
# 3 24.5545 32.7164 87.6795 -0.0001 0.4564 0.0001
# 4 0.0000 0.0000 -0.0001 16.9272 -0.0001 -13.9371
# 5 11.6615 -5.5023 0.4564 -0.0001 44.3936 0.0000
# 6 0.0000 0.0000 0.0001 -13.9371 0.0000 40.4998
#
#
#
# Elastic Compliance Matrix: (Units=1/GPa)
#
#
# Indices 1 2 3 4 5 6 
#
# 1 0.011675 -0.004067 -0.001733 0.000000 -0.003553 0.000000
# 2 -0.004067 0.015779 -0.004765 0.000000 0.003073 0.000000
# 3 -0.001733 -0.004765 0.013670 0.000000 -0.000276 0.000000
# 4 0.000000 0.000000 0.000000 0.082433 0.000000 0.028367
# 5 -0.003553 0.003073 -0.000276 0.000000 0.023843 0.000000
# 6 0.000000 0.000000 0.000000 0.028367 0.000000 0.034453
#
#
# Mechanical properties :
#
#
# Convention : Reuss Voigt Hill
#
# Bulk Modulus (GPa) = 50.01683 50.29391 50.15537
# Shear Modulus (GPa) = 23.84938 32.69730 28.27334
#
# Velocity S-wave (km/s) = 3.25989 3.81698 3.54938
# Velocity P-wave (km/s) = 6.03787 6.46807 6.25667
#
# Compressibility (1/GPa) = 0.01999327
#
# Stress axis : x y z
#
# Youngs Moduli (GPa) = 85.64952 63.37547 73.15327
#
# Poissons Ratio (x) = 0.25778 0.12681
# Poissons Ratio (y) = 0.34837 0.34855
# Poissons Ratio (z) = 0.14847 0.30196
#
# Static dielectric constant tensor:
#      x y z
#    x 4.269710 0.000000 0.133050 
#    y 0.000000 3.620740 0.000000 
#    z 0.133050 0.000000 4.144430 
# 
# 
# High freq. dielectric constant tensor:
#      x y z
#    x 1.904210 0.000000 0.007990 
#    y 0.000000 1.862540 0.000000 
#    z 0.007990 0.000000 1.899230 
# 
# From -- ./inp_files/101416.got.cif
#   From: 2010.06.25/outbox.cif.g09.slc.cpg/sg15_51_cif.got.tgz:101416.got - 2010.06.28 07:06:18.
