data_PCOD8148311
_publ_section_title
;
Structure prediction by ZEFSAII (Michael W. Deem and Ramdas Pophale) SiO2 
 PCOD8148311
Probable space group: C 2/C
;
_chemical_formula_sum "Si O2"
_cell_formula_units_Z 36
_cell_length_a 12.155624
_cell_length_b 25.582180
_cell_length_c 5.131808
_cell_angle_alpha 90.000000
_cell_angle_beta 97.266303
_cell_angle_gamma 90.000000
_cell_volume 1583.008724
_symmetry_space_group_name_H-M "C 2/C"
_symmetry_group_IT_number 15
_symmetry_cell_setting 'monoclinic'
loop_
_space_group_symop_operation_xyz
x,y,z
-x,y,1/2-z
-x,-y,-z
x,-y,1/2+z
1/2+x,1/2+y,z
1/2-x,1/2+y,1/2-z
1/2-x,1/2-y,-z
1/2+x,1/2-y,1/2+z
loop_
_atom_site_type_symbol
_atom_site_label
_atom_site_fract_x
_atom_site_fract_y
_atom_site_fract_z
Si Si1 0.049926 0.441816 0.514356
Si Si2 0.429618 0.240381 0.987499
Si Si3 0.717058 0.399812 0.916609
Si Si4 0.225842 0.168076 0.925552
Si Si5 0.500000 0.464074 0.750000
O O1 0.183042 0.442113 0.541658
O O2 0.000000 0.411938 0.750000
O O3 0.000000 0.500000 0.500000
O O4 0.000000 0.411217 0.250000
O O5 0.500000 0.216964 0.250000
O O6 0.333586 0.200575 0.873809
O O7 0.500000 0.251613 0.750000
O O8 0.380174 0.294800 0.077876
O O9 0.699109 0.374291 0.194258
O O10 0.750265 0.357231 0.712760
O O11 0.607413 0.428030 0.785955
O O12 0.500000 0.500000 0.500000
#
# Coordination Sequence:
#
# PCOD8148311 Si02
#       5
#     8   8   8   8   4
#     4  10  23  40  67  94 130 175 222 287 361 401
#     4  11  24  44  73 101 153 184 226 290 355 420
#     4  12  26  45  73 103 142 182 250 287 347 436
#     4  11  26  44  69 111 137 187 237 286 348 419
#     4  12  30  48  74 100 144 188 240 306 352 412
#
# _framework density 22.741506999999999
#
# number of rings (size 3 to 8) (size 9 to 14) (size 15 to 20)
#    0.000    0.889    0.000    5.333   10.889    8.889 
#    0.000    0.000    0.000    0.000    0.000    0.000 
#    0.000    0.000    0.000    0.000    0.000    0.000 
#
# Total GULP energy -223237.011752 kJ/mol
# GULP energy per Si atom -12402.056208 kJ/mol
# Density = 2.268975 g / cm^3
# Si number density = 22.741507 Si / 1000 Ang^3
#
#
#
# Elastic Constant Matrix: (Units=GPa)
#
#
# Indices 1 2 3 4 5 6 
#
# 1 186.9250 50.6486 54.9313 0.0000 7.0349 0.0000
# 2 50.6486 76.9701 22.6575 0.0000 0.9569 0.0000
# 3 54.9313 22.6575 175.0469 0.0000 -10.0696 0.0000
# 4 0.0000 0.0000 0.0000 36.0610 0.0000 5.8062
# 5 7.0349 0.9569 -10.0696 0.0000 44.3777 0.0000
# 6 0.0000 0.0000 0.0000 5.8062 0.0000 18.9895
#
#
#
# Elastic Compliance Matrix: (Units=1/GPa)
#
#
# Indices 1 2 3 4 5 6 
#
# 1 0.007028 -0.004089 -0.001758 0.000000 -0.001425 0.000000
# 2 -0.004089 0.015908 -0.000768 0.000000 0.000131 0.000000
# 3 -0.001758 -0.000768 0.006465 0.000000 0.001762 0.000000
# 4 0.000000 0.000000 0.000000 0.029167 0.000000 -0.008918
# 5 -0.001425 0.000131 0.001762 0.000000 0.023157 0.000000
# 6 0.000000 0.000000 0.000000 -0.008918 0.000000 0.055387
#
#
# Mechanical properties :
#
#
# Convention : Reuss Voigt Hill
#
# Bulk Modulus (GPa) = 61.84516 77.26853 69.55685
# Shear Modulus (GPa) = 32.10622 40.59927 36.35274
#
# Velocity S-wave (km/s) = 3.76146 4.22981 4.00249
# Velocity P-wave (km/s) = 6.79107 7.60958 7.21194
#
# Compressibility (1/GPa) = 0.01616941
#
# Stress axis : x y z
#
# Youngs Moduli (GPa) = 142.28630 62.86329 154.67245
#
# Poissons Ratio (x) = 0.25708 0.27193
# Poissons Ratio (y) = 0.58187 0.11882
# Poissons Ratio (z) = 0.25016 0.04829
#
# Static dielectric constant tensor:
#      x y z
#    x 4.121770 0.000000 0.219660 
#    y 0.000000 4.008490 0.000000 
#    z 0.219660 0.000000 3.341440 
# 
# 
# High freq. dielectric constant tensor:
#      x y z
#    x 1.912210 0.000000 -0.002010 
#    y 0.000000 1.884410 0.000000 
#    z -0.002010 0.000000 1.926490 
# 
# From -- ./inp_files/4415.got.cif
#   From: 2010.06.25/outbox.cif.g09.slc.cpg/sg15_3_cif.got.tgz:4415.got - 2010.06.28 07:06:18.
