data_PCOD8148102
_publ_section_title
;
Structure prediction by ZEFSAII (Michael W. Deem and Ramdas Pophale) SiO2 
 PCOD8148102
Probable space group: C 2/C
;
_chemical_formula_sum "Si O2"
_cell_formula_units_Z 40
_cell_length_a 7.451190
_cell_length_b 26.214284
_cell_length_c 13.158711
_cell_angle_alpha 90.000000
_cell_angle_beta 47.351219
_cell_angle_gamma 90.000000
_cell_volume 1890.478704
_symmetry_space_group_name_H-M "C 2/C"
_symmetry_group_IT_number 15
_symmetry_cell_setting 'monoclinic'
loop_
_space_group_symop_operation_xyz
x,y,z
-x,y,1/2-z
-x,-y,-z
x,-y,1/2+z
1/2+x,1/2+y,z
1/2-x,1/2+y,1/2-z
1/2-x,1/2-y,-z
1/2+x,1/2-y,1/2+z
loop_
_atom_site_type_symbol
_atom_site_label
_atom_site_fract_x
_atom_site_fract_y
_atom_site_fract_z
Si Si1 0.887646 0.811993 0.893774
Si Si2 0.500000 0.473551 0.750000
Si Si3 0.382217 0.764476 0.054974
Si Si4 0.000000 0.151778 0.750000
Si Si5 0.803879 0.414961 0.473692
Si Si6 0.322115 0.565698 0.698047
O O1 0.000000 0.837170 0.750000
O O2 0.106286 0.783121 0.871016
O O3 0.670221 0.776106 0.934286
O O4 0.778012 0.856395 0.005121
O O5 0.706961 0.439593 0.615612
O O6 0.392935 0.509177 0.703848
O O7 0.238521 0.812164 0.158492
O O8 0.250000 0.750000 0.000000
O O9 0.992840 0.112841 0.849931
O O10 0.706673 0.442373 0.410117
O O11 0.093524 0.418248 0.356253
#
# Coordination Sequence:
#
# PCOD8148102 Si02
#       6
#     8   4   8   4   8   8
#     4  11  23  40  63  94 129 173 212 263 325 376
#     4  11  22  40  66  88 124 158 208 267 326 374
#     4  11  23  39  63  92 129 171 217 263 314 379
#     4  11  20  40  60  88 128 162 214 259 306 386
#     4  11  21  41  62  88 129 158 208 266 316 385
#     4  10  23  38  65  92 117 167 211 253 326 385
#
# _framework density 21.158660999999999
#
# number of rings (size 3 to 8) (size 9 to 14) (size 15 to 20)
#    0.000    1.200    3.000    3.600    0.000    1.600 
#    0.000    0.000    0.000    0.000    0.000    0.000 
#    0.000    0.000    0.000    0.000    0.000    0.000 
#
# Total GULP energy -247801.462344 kJ/mol
# GULP energy per Si atom -12390.073117 kJ/mol
# Density = 2.111050 g / cm^3
# Si number density = 21.158661 Si / 1000 Ang^3
#
#
#
# Elastic Constant Matrix: (Units=GPa)
#
#
# Indices 1 2 3 4 5 6 
#
# 1 117.1328 27.1264 14.3097 0.0000 4.5610 0.0000
# 2 27.1264 98.6132 13.2958 0.0000 1.2792 0.0000
# 3 14.3097 13.2958 75.3187 0.0000 6.6232 0.0000
# 4 0.0000 0.0000 0.0000 30.7056 0.0000 -4.3487
# 5 4.5610 1.2792 6.6232 0.0000 25.2406 0.0000
# 6 0.0000 0.0000 0.0000 -4.3487 0.0000 28.2135
#
#
#
# Elastic Compliance Matrix: (Units=1/GPa)
#
#
# Indices 1 2 3 4 5 6 
#
# 1 0.009286 -0.002371 -0.001237 0.000000 -0.001233 0.000000
# 2 -0.002371 0.010994 -0.001514 0.000000 0.000269 0.000000
# 3 -0.001237 -0.001514 0.014078 0.000000 -0.003394 0.000000
# 4 0.000000 0.000000 0.000000 0.033294 0.000000 0.005132
# 5 -0.001233 0.000269 -0.003394 0.000000 0.040718 0.000000
# 6 0.000000 0.000000 0.000000 0.005132 0.000000 0.036235
#
#
# Mechanical properties :
#
#
# Convention : Reuss Voigt Hill
#
# Bulk Modulus (GPa) = 41.47279 44.50316 42.98797
# Shear Modulus (GPa) = 30.69624 32.58748 31.64186
#
# Velocity S-wave (km/s) = 3.81302 3.92873 3.87131
# Velocity P-wave (km/s) = 6.24731 6.45435 6.35168
#
# Compressibility (1/GPa) = 0.02411220
#
# Stress axis : x y z
#
# Youngs Moduli (GPa) = 107.69279 90.96218 71.03486
#
# Poissons Ratio (x) = 0.21572 0.08788
# Poissons Ratio (y) = 0.25539 0.10753
# Poissons Ratio (z) = 0.13323 0.13769
#
# Static dielectric constant tensor:
#      x y z
#    x 3.816440 0.000000 -0.061540 
#    y 0.000000 3.773860 0.000000 
#    z -0.061540 0.000000 3.680930 
# 
# 
# High freq. dielectric constant tensor:
#      x y z
#    x 1.830920 0.000000 0.001630 
#    y 0.000000 1.838850 0.000000 
#    z 0.001630 0.000000 1.819990 
# 
# From -- ./inp_files/137111.got.cif
#   From: 2010.06.25/outbox.cif.g09.slc.cpg/sg15_69_cif.got.tgz:137111.got - 2010.06.28 07:06:18.
