data_PCOD8148407
_publ_section_title
;
Structure prediction by ZEFSAII (Michael W. Deem and Ramdas Pophale) SiO2 
 PCOD8148407
Probable space group: C 2/C
;
_chemical_formula_sum "Si O2"
_cell_formula_units_Z 56
_cell_length_a 14.604191
_cell_length_b 12.631802
_cell_length_c 28.992928
_cell_angle_alpha 90.000000
_cell_angle_beta 29.326777
_cell_angle_gamma 90.000000
_cell_volume 2619.659022
_symmetry_space_group_name_H-M "C 2/C"
_symmetry_group_IT_number 15
_symmetry_cell_setting 'monoclinic'
loop_
_space_group_symop_operation_xyz
x,y,z
-x,y,1/2-z
-x,-y,-z
x,-y,1/2+z
1/2+x,1/2+y,z
1/2-x,1/2+y,1/2-z
1/2-x,1/2-y,-z
1/2+x,1/2-y,1/2+z
loop_
_atom_site_type_symbol
_atom_site_label
_atom_site_fract_x
_atom_site_fract_y
_atom_site_fract_z
Si Si1 0.190698 0.974899 0.545514
Si Si2 0.120651 0.118707 0.800610
Si Si3 0.687810 0.271456 0.608922
Si Si4 0.982183 0.089708 0.467889
Si Si5 0.852316 0.685171 0.277481
Si Si6 0.075950 0.549929 0.336092
Si Si7 0.742012 0.263745 0.691065
O O1 0.245290 0.872992 0.552549
O O2 0.026471 0.957074 0.579879
O O3 0.369950 0.014753 0.440028
O O4 0.086631 0.070101 0.619294
O O5 0.165881 0.220843 0.750471
O O6 0.154225 0.153963 0.839844
O O7 0.277082 0.038536 0.715684
O O8 0.738202 0.292848 0.639425
O O9 0.468190 0.255314 0.696721
O O10 0.795462 0.162704 0.550519
O O11 0.163268 0.164167 0.389352
O O12 0.000000 0.000000 0.500000
O O13 0.918959 0.580075 0.220485
O O14 0.000000 0.720231 0.250000
O O15 0.131001 0.647275 0.343111
#
# Coordination Sequence:
#
# PCOD8148407 Si02
#       7
#     8   8   8   8   8   8   8
#     4  12  23  40  69  95 130 185 223 279 345 407
#     4  11  22  43  65  93 136 178 222 281 340 409
#     4  11  23  41  66  97 133 174 233 277 338 411
#     4  12  24  43  67 100 134 176 236 283 343 411
#     4  11  25  42  65  98 136 173 223 285 341 402
#     4  11  23  43  66  93 136 172 227 277 342 408
#     4  10  23  41  63  96 133 176 218 282 338 403
#
# _framework density 21.376828
#
# number of rings (size 3 to 8) (size 9 to 14) (size 15 to 20)
#    0.000    0.857    2.857    4.714    0.000    5.143 
#    0.000    0.000    0.000    0.000    0.000    0.000 
#    0.000    0.000    0.000    0.000    0.000    0.000 
#
# Total GULP energy -347025.622840 kJ/mol
# GULP energy per Si atom -12393.772244 kJ/mol
# Density = 2.132817 g / cm^3
# Si number density = 21.376828 Si / 1000 Ang^3
#
#
#
# Elastic Constant Matrix: (Units=GPa)
#
#
# Indices 1 2 3 4 5 6 
#
# 1 309.8998 203.9034 64.7837 0.0034 -42.0177 0.0037
# 2 203.9034 245.2399 76.7637 0.0017 -29.6376 0.0021
# 3 64.7837 76.7637 94.7153 -0.0014 -11.9051 -0.0030
# 4 0.0034 0.0017 -0.0014 33.7655 -0.0010 -1.7186
# 5 -42.0177 -29.6376 -11.9051 -0.0010 34.5004 -0.0009
# 6 0.0037 0.0021 -0.0030 -1.7186 -0.0009 18.5891
#
#
#
# Elastic Compliance Matrix: (Units=1/GPa)
#
#
# Indices 1 2 3 4 5 6 
#
# 1 0.007657 -0.005863 0.000056 0.000000 0.004308 -0.000001
# 2 -0.005863 0.010341 -0.004340 0.000000 0.000245 -0.000001
# 3 0.000056 -0.004340 0.014192 0.000001 0.001238 0.000003
# 4 0.000000 0.000000 0.000001 0.029756 0.000001 0.002751
# 5 0.004308 0.000245 0.001238 0.000001 0.034869 0.000001
# 6 -0.000001 -0.000001 0.000003 0.002751 0.000001 0.054049
#
#
# Mechanical properties :
#
#
# Convention : Reuss Voigt Hill
#
# Bulk Modulus (GPa) = 84.05832 148.97295 116.51564
# Shear Modulus (GPa) = 28.55130 37.66462 33.10796
#
# Velocity S-wave (km/s) = 3.65858 4.20210 3.93972
# Velocity P-wave (km/s) = 7.56667 9.66353 8.67866
#
# Compressibility (1/GPa) = 0.01189650
#
# Stress axis : x y z
#
# Youngs Moduli (GPa) = 130.59683 96.70506 70.46171
#
# Poissons Ratio (x) = 0.56703 -0.00397
# Poissons Ratio (y) = 0.76575 0.30577
# Poissons Ratio (z) = -0.00735 0.41965
#
# Static dielectric constant tensor:
#      x y z
#    x 3.968250 0.000020 0.074930 
#    y 0.000020 5.713700 -0.000070 
#    z 0.074930 -0.000070 4.089680 
# 
# 
# High freq. dielectric constant tensor:
#      x y z
#    x 1.841270 0.000000 -0.003570 
#    y 0.000000 1.849730 0.000000 
#    z -0.003570 0.000000 1.845060 
# 
# From -- ./inp_files/313732.got.cif
#   From: 2010.06.25/outbox.cif.g09.slc.cpg/sg15_157_cif.got.tgz:313732.got - 2010.06.28 07:06:18.
