data_PCOD8148930
_publ_section_title
;
Structure prediction by ZEFSAII (Michael W. Deem and Ramdas Pophale) SiO2 
 PCOD8148930
Probable space group: C 2/C
;
_chemical_formula_sum "Si O2"
_cell_formula_units_Z 48
_cell_length_a 23.878099
_cell_length_b 9.317479
_cell_length_c 13.440607
_cell_angle_alpha 90.000000
_cell_angle_beta 131.157044
_cell_angle_gamma 90.000000
_cell_volume 2251.434271
_symmetry_space_group_name_H-M "C 2/C"
_symmetry_group_IT_number 15
_symmetry_cell_setting 'monoclinic'
loop_
_space_group_symop_operation_xyz
x,y,z
-x,y,1/2-z
-x,-y,-z
x,-y,1/2+z
1/2+x,1/2+y,z
1/2-x,1/2+y,1/2-z
1/2-x,1/2-y,-z
1/2+x,1/2-y,1/2+z
loop_
_atom_site_type_symbol
_atom_site_label
_atom_site_fract_x
_atom_site_fract_y
_atom_site_fract_z
Si Si1 0.000000 0.416001 0.750000
Si Si2 0.743510 0.309896 0.827463
Si Si3 0.748392 0.522595 0.134626
Si Si4 0.087920 0.350506 0.471515
Si Si5 0.358663 0.507443 0.668354
Si Si6 0.000000 0.880537 0.750000
Si Si7 0.611884 0.193125 0.226360
O O1 0.950576 0.509116 0.617190
O O2 0.949605 0.314742 0.759574
O O3 0.727040 0.376246 0.701320
O O4 0.736033 0.139082 0.811933
O O5 0.683374 0.370974 0.834097
O O6 0.825924 0.352685 0.960235
O O7 0.823437 0.580300 0.170737
O O8 0.679228 0.540058 0.980969
O O9 0.078622 0.345773 0.579721
O O10 0.049740 0.210577 0.383090
O O11 0.445481 0.475151 0.753843
O O12 0.354208 0.645860 0.735228
#
# Coordination Sequence:
#
# PCOD8148930 Si02
#       7
#     4   8   8   8   8   4   8
#     4  11  23  42  68  98 140 184 220 274 342 404
#     4  11  23  44  70 100 132 178 229 279 337 400
#     4  11  24  43  69  98 133 173 229 282 335 399
#     4  10  23  43  67  97 135 175 229 274 335 407
#     4  12  25  43  68  99 135 178 225 282 341 400
#     4  11  25  42  68  96 136 176 220 274 342 404
#     4  11  25  43  66 102 135 176 229 280 335 399
#
# _framework density 21.319742999999999
#
# number of rings (size 3 to 8) (size 9 to 14) (size 15 to 20)
#    0.000    1.000    1.667    5.000    4.667    3.333 
#    3.000    0.000    0.000    0.000    0.000    0.000 
#    0.000    0.000    0.000    0.000    0.000    0.000 
#
# Total GULP energy -297732.169004 kJ/mol
# GULP energy per Si atom -12405.507042 kJ/mol
# Density = 2.127122 g / cm^3
# Si number density = 21.319743 Si / 1000 Ang^3
#
#
#
# Elastic Constant Matrix: (Units=GPa)
#
#
# Indices 1 2 3 4 5 6 
#
# 1 133.9663 31.3250 41.3376 0.0000 9.5338 0.0000
# 2 31.3250 107.8664 21.6510 0.0000 -5.7195 0.0000
# 3 41.3376 21.6510 84.1007 0.0000 -4.3403 0.0000
# 4 0.0000 0.0000 0.0000 23.7393 0.0000 -0.1884
# 5 9.5338 -5.7195 -4.3403 0.0000 27.4836 0.0000
# 6 0.0000 0.0000 0.0000 -0.1884 0.0000 25.9629
#
#
#
# Elastic Compliance Matrix: (Units=1/GPa)
#
#
# Indices 1 2 3 4 5 6 
#
# 1 0.009653 -0.002154 -0.004422 0.000000 -0.004495 0.000000
# 2 -0.002154 0.010331 -0.001463 0.000000 0.002666 0.000000
# 3 -0.004422 -0.001463 0.014623 0.000000 0.003539 0.000000
# 4 0.000000 0.000000 0.000000 0.042127 0.000000 0.000306
# 5 -0.004495 0.002666 0.003539 0.000000 0.039058 0.000000
# 6 0.000000 0.000000 0.000000 0.000306 0.000000 0.038519
#
#
# Mechanical properties :
#
#
# Convention : Reuss Voigt Hill
#
# Bulk Modulus (GPa) = 53.97028 57.17340 55.57184
# Shear Modulus (GPa) = 28.31805 30.87848 29.59826
#
# Velocity S-wave (km/s) = 3.64848 3.80985 3.73004
# Velocity P-wave (km/s) = 6.56644 6.79916 6.68381
#
# Compressibility (1/GPa) = 0.01852872
#
# Stress axis : x y z
#
# Youngs Moduli (GPa) = 103.59941 96.79282 68.38369
#
# Poissons Ratio (x) = 0.20848 0.30239
# Poissons Ratio (y) = 0.22315 0.10007
# Poissons Ratio (z) = 0.45811 0.14165
#
# Static dielectric constant tensor:
#      x y z
#    x 3.863670 0.000000 0.111010 
#    y 0.000000 3.886400 0.000000 
#    z 0.111010 0.000000 3.925050 
# 
# 
# High freq. dielectric constant tensor:
#      x y z
#    x 1.842750 0.000000 0.000590 
#    y 0.000000 1.845420 0.000000 
#    z 0.000590 0.000000 1.842440 
# 
# From -- ./inp_files/177036.got.cif
#   From: 2010.06.25/outbox.cif.g09.slc.cpg/sg15_89_cif.got.tgz:177036.got - 2010.06.28 07:06:18.
