data_PCOD8148471
_publ_section_title
;
Structure prediction by ZEFSAII (Michael W. Deem and Ramdas Pophale) SiO2 
 PCOD8148471
Probable space group: C 2/C
;
_chemical_formula_sum "Si O2"
_cell_formula_units_Z 56
_cell_length_a 17.830442
_cell_length_b 12.224369
_cell_length_c 14.534893
_cell_angle_alpha 90.000000
_cell_angle_beta 128.955492
_cell_angle_gamma 90.000000
_cell_volume 2463.632753
_symmetry_space_group_name_H-M "C 2/C"
_symmetry_group_IT_number 15
_symmetry_cell_setting 'monoclinic'
loop_
_space_group_symop_operation_xyz
x,y,z
-x,y,1/2-z
-x,-y,-z
x,-y,1/2+z
1/2+x,1/2+y,z
1/2-x,1/2+y,1/2-z
1/2-x,1/2-y,-z
1/2+x,1/2-y,1/2+z
loop_
_atom_site_type_symbol
_atom_site_label
_atom_site_fract_x
_atom_site_fract_y
_atom_site_fract_z
Si Si1 0.633668 0.777844 0.317229
Si Si2 0.561552 0.096050 0.087289
Si Si3 0.843000 0.758110 0.457134
Si Si4 0.017612 0.885512 0.601495
Si Si5 0.119199 0.066638 0.998369
Si Si6 0.927307 0.288849 0.614353
Si Si7 0.835125 0.520437 0.154671
O O1 0.734166 0.776743 0.337717
O O2 0.650430 0.722746 0.428394
O O3 0.552557 0.707262 0.201400
O O4 0.606694 0.905624 0.311756
O O5 0.625461 0.138199 0.051570
O O6 0.485120 0.184280 0.065885
O O7 0.636118 0.065960 0.224348
O O8 0.500000 0.000000 0.000000
O O9 0.921508 0.841081 0.473808
O O10 0.101453 0.911230 0.593568
O O11 0.973294 0.997488 0.612748
O O12 0.134961 0.181056 0.956517
O O13 0.219609 0.000600 0.062559
O O14 0.864698 0.394248 0.597360
O O15 0.000000 0.255576 0.750000
#
# Coordination Sequence:
#
# PCOD8148471 Si02
#       7
#     8   8   8   8   8   8   8
#     4  11  24  41  66 100 133 180 228 285 344 402
#     4  11  22  40  66  95 130 179 228 280 341 404
#     4  11  22  42  64  93 135 169 232 278 337 409
#     4  11  23  42  70  96 137 180 223 285 337 407
#     4  11  23  44  68 101 140 180 228 278 347 414
#     4  10  23  41  66  99 133 179 226 277 346 413
#     4  11  23  42  67 101 137 176 229 286 340 416
#
# _framework density 22.73066
#
# number of rings (size 3 to 8) (size 9 to 14) (size 15 to 20)
#    0.000    1.143    2.857    3.429    0.000    3.429 
#    0.000    0.000    3.143    0.000    0.000    0.000 
#    0.000    0.000    0.000    0.000    0.000    0.000 
#
# Total GULP energy -346985.258563 kJ/mol
# GULP energy per Si atom -12392.330663 kJ/mol
# Density = 2.267892 g / cm^3
# Si number density = 22.730660 Si / 1000 Ang^3
#
#
#
# Elastic Constant Matrix: (Units=GPa)
#
#
# Indices 1 2 3 4 5 6 
#
# 1 91.1698 29.9232 32.8284 0.0000 14.0726 0.0000
# 2 29.9232 141.8603 31.3656 0.0000 2.2865 0.0000
# 3 32.8284 31.3656 58.2070 0.0000 9.4459 0.0000
# 4 0.0000 0.0000 0.0000 40.0840 0.0000 4.5265
# 5 14.0726 2.2865 9.4459 0.0000 31.7401 0.0000
# 6 0.0000 0.0000 0.0000 4.5265 0.0000 39.8204
#
#
#
# Elastic Compliance Matrix: (Units=1/GPa)
#
#
# Indices 1 2 3 4 5 6 
#
# 1 0.014544 -0.001521 -0.006677 0.000000 -0.004352 0.000000
# 2 -0.001521 0.008179 -0.003744 0.000000 0.001200 0.000000
# 3 -0.006677 -0.003744 0.023577 0.000000 -0.003787 0.000000
# 4 0.000000 0.000000 0.000000 0.025272 0.000000 -0.002873
# 5 -0.004352 0.001200 -0.003787 0.000000 0.034476 0.000000
# 6 0.000000 0.000000 0.000000 -0.002873 0.000000 0.025439
#
#
# Mechanical properties :
#
#
# Convention : Reuss Voigt Hill
#
# Bulk Modulus (GPa) = 44.61023 53.27462 48.94243
# Shear Modulus (GPa) = 30.70457 35.47023 33.08740
#
# Velocity S-wave (km/s) = 3.67931 3.95455 3.81941
# Velocity P-wave (km/s) = 6.14149 6.65879 6.40537
#
# Compressibility (1/GPa) = 0.02241638
#
# Stress axis : x y z
#
# Youngs Moduli (GPa) = 68.75834 122.27168 42.41346
#
# Poissons Ratio (x) = 0.18603 0.28317
# Poissons Ratio (y) = 0.10461 0.15878
# Poissons Ratio (z) = 0.45907 0.45774
#
# Static dielectric constant tensor:
#      x y z
#    x 6.957440 0.000000 -2.254810 
#    y 0.000000 4.185520 0.000000 
#    z -2.254810 0.000000 5.861750 
# 
# 
# High freq. dielectric constant tensor:
#      x y z
#    x 1.909060 0.000000 0.007960 
#    y 0.000000 1.912620 0.000000 
#    z 0.007960 0.000000 1.867500 
# 
# From -- ./inp_files/161434.got.cif
#   From: 2010.06.25/outbox.cif.g09.slc.cpg/sg15_81_cif.got.tgz:161434.got - 2010.06.28 07:06:18.
