data_PCOD8148037
_publ_section_title
;
Structure prediction by ZEFSAII (Michael W. Deem and Ramdas Pophale) SiO2 
 PCOD8148037
Probable space group: C 2/C
;
_chemical_formula_sum "Si O2"
_cell_formula_units_Z 32
_cell_length_a 10.297372
_cell_length_b 8.805869
_cell_length_c 17.111077
_cell_angle_alpha 90.000000
_cell_angle_beta 47.840701
_cell_angle_gamma 90.000000
_cell_volume 1150.162424
_symmetry_space_group_name_H-M "C 2/C"
_symmetry_group_IT_number 15
_symmetry_cell_setting 'monoclinic'
loop_
_space_group_symop_operation_xyz
x,y,z
-x,y,1/2-z
-x,-y,-z
x,-y,1/2+z
1/2+x,1/2+y,z
1/2-x,1/2+y,1/2-z
1/2-x,1/2-y,-z
1/2+x,1/2-y,1/2+z
loop_
_atom_site_type_symbol
_atom_site_label
_atom_site_fract_x
_atom_site_fract_y
_atom_site_fract_z
Si Si1 0.625737 0.854174 0.784082
Si Si2 0.779881 0.478095 0.431338
Si Si3 0.229470 0.850507 0.610438
Si Si4 0.555063 0.524943 0.853423
O O1 0.430753 0.907804 0.839840
O O2 0.686740 0.918184 0.844368
O O3 0.623422 0.673014 0.779434
O O4 0.780995 0.935011 0.668492
O O5 0.758305 0.332370 0.382882
O O6 0.843385 0.406265 0.489565
O O7 0.594075 0.566280 0.521775
O O8 0.028070 0.906042 0.675868
#
# Coordination Sequence:
#
# PCOD8148037 Si02
#       4
#     8   8   8   8
#     4  12  21  40  62  82 124 159 184 249 296 328
#     4   9  21  42  59  90 117 148 204 240 280 363
#     4   9  21  41  60  84 120 149 194 243 293 338
#     4  10  23  36  60  91 115 152 205 231 283 364
#
# _framework density 27.822156
#
# number of rings (size 3 to 8) (size 9 to 14) (size 15 to 20)
#    1.500    0.500    0.000    3.750    0.000    1.000 
#    0.000    5.000    0.000    0.000    0.000    0.000 
#    0.000    0.000    0.000    0.000    0.000    0.000 
#
# Total GULP energy -198360.880747 kJ/mol
# GULP energy per Si atom -12397.555047 kJ/mol
# Density = 2.775883 g / cm^3
# Si number density = 27.822156 Si / 1000 Ang^3
#
#
#
# Elastic Constant Matrix: (Units=GPa)
#
#
# Indices 1 2 3 4 5 6 
#
# 1 98.7106 0.1036 36.8906 0.0000 -25.9355 0.0000
# 2 0.1036 179.7684 84.9043 0.0000 -41.7303 0.0000
# 3 36.8906 84.9043 169.3317 0.0000 -48.2946 0.0000
# 4 0.0000 0.0000 0.0000 47.9823 0.0000 -13.9286
# 5 -25.9355 -41.7303 -48.2946 0.0000 49.1924 0.0000
# 6 0.0000 0.0000 0.0000 -13.9286 0.0000 29.1849
#
#
#
# Elastic Compliance Matrix: (Units=1/GPa)
#
#
# Indices 1 2 3 4 5 6 
#
# 1 0.012707 0.002572 -0.002118 0.000000 0.006802 0.000000
# 2 0.002572 0.008301 -0.003232 0.000000 0.005224 0.000000
# 3 -0.002118 -0.003232 0.009566 0.000000 0.005532 0.000000
# 4 0.000000 0.000000 0.000000 0.024193 0.000000 0.011546
# 5 0.006802 0.005224 0.005532 0.000000 0.033777 0.000000
# 6 0.000000 0.000000 0.000000 0.011546 0.000000 0.039775
#
#
# Mechanical properties :
#
#
# Convention : Reuss Voigt Hill
#
# Bulk Modulus (GPa) = 39.97464 76.84529 58.40997
# Shear Modulus (GPa) = 35.15863 46.99941 41.07902
#
# Velocity S-wave (km/s) = 3.55870 4.11454 3.84668
# Velocity P-wave (km/s) = 5.59329 7.08892 6.38505
#
# Compressibility (1/GPa) = 0.02501586
#
# Stress axis : x y z
#
# Youngs Moduli (GPa) = 78.69968 120.47429 104.54169
#
# Poissons Ratio (x) = -0.30984 0.22141
# Poissons Ratio (y) = -0.20240 0.33791
# Poissons Ratio (z) = 0.16668 0.38941
#
# Static dielectric constant tensor:
#      x y z
#    x 5.192240 0.000000 0.078940 
#    y 0.000000 4.573080 0.000000 
#    z 0.078940 0.000000 5.053280 
# 
# 
# High freq. dielectric constant tensor:
#      x y z
#    x 2.174400 0.000000 0.019590 
#    y 0.000000 2.101730 0.000000 
#    z 0.019590 0.000000 2.130200 
# 
# From -- ./inp_files/140520.got.cif
#   From: 2010.06.25/outbox.cif.g09.slc.cpg/sg15_71_cif.got.tgz:140520.got - 2010.06.28 07:06:18.
