data_PCOD8148805
_publ_section_title
;
Structure prediction by ZEFSAII (Michael W. Deem and Ramdas Pophale) SiO2 
 PCOD8148805
Probable space group: C 2/C
;
_chemical_formula_sum "Si O2"
_cell_formula_units_Z 36
_cell_length_a 17.273111
_cell_length_b 13.672100
_cell_length_c 13.473014
_cell_angle_alpha 90.000000
_cell_angle_beta 152.773419
_cell_angle_gamma 90.000000
_cell_volume 1455.699115
_symmetry_space_group_name_H-M "C 2/C"
_symmetry_group_IT_number 15
_symmetry_cell_setting 'monoclinic'
loop_
_space_group_symop_operation_xyz
x,y,z
-x,y,1/2-z
-x,-y,-z
x,-y,1/2+z
1/2+x,1/2+y,z
1/2-x,1/2+y,1/2-z
1/2-x,1/2-y,-z
1/2+x,1/2-y,1/2+z
loop_
_atom_site_type_symbol
_atom_site_label
_atom_site_fract_x
_atom_site_fract_y
_atom_site_fract_z
Si Si1 0.500000 0.447987 0.250000
Si Si2 0.347749 0.368592 0.265787
Si Si3 0.162831 0.560051 0.057966
Si Si4 0.206898 0.582076 0.880035
Si Si5 0.329669 0.260175 0.808524
O O1 0.396370 0.377046 0.205980
O O2 0.631144 0.514622 0.463406
O O3 0.288551 0.474687 0.238924
O O4 0.496212 0.321105 0.501949
O O5 0.187093 0.297405 0.105022
O O6 0.183950 0.656881 0.147628
O O7 0.214337 0.595942 0.006584
O O8 0.967913 0.524887 0.845182
O O9 0.206899 0.686373 0.824725
#
# Coordination Sequence:
#
# PCOD8148805 Si02
#       5
#     4   8   8   8   8
#     4  10  26  48  72 100 144 192 226 288 356 416
#     4  11  27  44  70 102 145 184 235 288 350 413
#     4  10  23  45  68 104 145 184 226 291 355 409
#     4  10  23  42  73 103 142 182 236 283 351 410
#     4  12  24  42  70 109 138 185 235 291 341 422
#
# _framework density 24.730385999999999
#
# number of rings (size 3 to 8) (size 9 to 14) (size 15 to 20)
#    0.000    1.333    2.222    1.333    9.333    5.333 
#    0.000    2.222    0.000    0.000    0.000    0.000 
#    0.000    0.000    0.000    0.000    0.000    0.000 
#
# Total GULP energy -223027.265387 kJ/mol
# GULP energy per Si atom -12390.403633 kJ/mol
# Density = 2.467410 g / cm^3
# Si number density = 24.730386 Si / 1000 Ang^3
#
#
#
# Elastic Constant Matrix: (Units=GPa)
#
#
# Indices 1 2 3 4 5 6 
#
# 1 72.7274 76.8445 45.9790 -0.0002 18.3880 -0.0001
# 2 76.8445 174.4917 80.6007 0.0000 -0.1333 0.0000
# 3 45.9790 80.6007 117.0268 -0.0003 12.3662 -0.0002
# 4 -0.0002 0.0000 -0.0003 52.2892 -0.0002 -4.3549
# 5 18.3880 -0.1333 12.3662 -0.0002 29.0977 -0.0001
# 6 -0.0001 0.0000 -0.0002 -4.3549 -0.0001 44.5096
#
#
#
# Elastic Compliance Matrix: (Units=1/GPa)
#
#
# Indices 1 2 3 4 5 6 
#
# 1 0.036900 -0.015672 -0.001290 0.000000 -0.022842 0.000000
# 2 -0.015672 0.015255 -0.005658 0.000000 0.012378 0.000000
# 3 -0.001290 -0.005658 0.013470 0.000000 -0.004935 0.000000
# 4 0.000000 0.000000 0.000000 0.019282 0.000000 0.001887
# 5 -0.022842 0.012378 -0.004935 0.000000 0.050956 0.000000
# 6 0.000000 0.000000 0.000000 0.001887 0.000000 0.022652
#
#
# Mechanical properties :
#
#
# Convention : Reuss Voigt Hill
#
# Bulk Modulus (GPa) = 49.05310 85.67715 67.36513
# Shear Modulus (GPa) = 23.74741 35.90073 29.82407
#
# Velocity S-wave (km/s) = 3.10216 3.81423 3.47647
# Velocity P-wave (km/s) = 5.71921 7.35646 6.58889
#
# Compressibility (1/GPa) = 0.02038607
#
# Stress axis : x y z
#
# Youngs Moduli (GPa) = 27.10034 65.55024 74.23850
#
# Poissons Ratio (x) = 1.02729 0.09579
# Poissons Ratio (y) = 0.42471 0.42001
# Poissons Ratio (z) = 0.03497 0.37086
#
# Static dielectric constant tensor:
#      x y z
#    x 4.394420 0.000000 0.361250 
#    y 0.000000 4.453950 0.000000 
#    z 0.361250 0.000000 4.407490 
# 
# 
# High freq. dielectric constant tensor:
#      x y z
#    x 1.987610 0.000000 0.024930 
#    y 0.000000 1.983970 0.000000 
#    z 0.024930 0.000000 1.974260 
# 
# From -- ./inp_files/37643.got.cif
#   From: 2010.06.25/outbox.cif.g09.slc.cpg/sg15_19_cif.got.tgz:37643.got - 2010.06.28 07:06:18.
