data_PCOD8148765
_publ_section_title
;
Structure prediction by ZEFSAII (Michael W. Deem and Ramdas Pophale) SiO2 
 PCOD8148765
Probable space group: C 2/C
;
_chemical_formula_sum "Si O2"
_cell_formula_units_Z 48
_cell_length_a 19.680610
_cell_length_b 10.569010
_cell_length_c 19.634357
_cell_angle_alpha 90.000000
_cell_angle_beta 34.107820
_cell_angle_gamma 90.000000
_cell_volume 2290.131308
_symmetry_space_group_name_H-M "C 2/C"
_symmetry_group_IT_number 15
_symmetry_cell_setting 'monoclinic'
loop_
_space_group_symop_operation_xyz
x,y,z
-x,y,1/2-z
-x,-y,-z
x,-y,1/2+z
1/2+x,1/2+y,z
1/2-x,1/2+y,1/2-z
1/2-x,1/2-y,-z
1/2+x,1/2-y,1/2+z
loop_
_atom_site_type_symbol
_atom_site_label
_atom_site_fract_x
_atom_site_fract_y
_atom_site_fract_z
Si Si1 0.309653 0.495763 0.672368
Si Si2 0.875407 0.830141 0.887052
Si Si3 0.200111 0.211925 0.428733
Si Si4 0.421676 0.122104 0.575066
Si Si5 0.863851 0.107330 0.871020
Si Si6 0.487039 0.647259 0.435578
O O1 0.256570 0.397478 0.659877
O O2 0.207668 0.580870 0.790041
O O3 0.404631 0.595193 0.564134
O O4 0.380400 0.418480 0.672632
O O5 0.000000 0.765798 0.750000
O O6 0.840307 0.957987 0.875721
O O7 0.750000 0.750000 0.000000
O O8 0.916966 0.880475 0.925136
O O9 0.091290 0.290500 0.482219
O O10 0.169369 0.144537 0.524713
O O11 0.299901 0.316311 0.363597
O O12 0.492735 0.202814 0.572946
O O13 0.500000 0.000000 0.500000
O O14 0.000000 0.146965 0.750000
#
# Coordination Sequence:
#
# PCOD8148765 Si02
#       6
#     8   8   8   8   8   8
#     4  10  23  44  68  94 135 171 218 280 339 397
#     4  11  26  43  70 100 138 184 225 278 344 412
#     4  10  23  43  64  99 127 170 225 273 332 400
#     4  11  27  38  70  99 131 172 224 279 332 409
#     4  10  23  42  70  92 131 178 221 278 333 410
#     4  10  24  44  67  94 133 176 215 278 342 397
#
# _framework density 20.959499000000001
#
# number of rings (size 3 to 8) (size 9 to 14) (size 15 to 20)
#    0.000    1.667    1.667    0.000   16.333    0.000 
#    0.000    3.333    0.000    0.000    0.000    0.000 
#    0.000    0.000    0.000    0.000    0.000    0.000 
#
# Total GULP energy -297338.455750 kJ/mol
# GULP energy per Si atom -12389.102323 kJ/mol
# Density = 2.091179 g / cm^3
# Si number density = 20.959499 Si / 1000 Ang^3
#
#
#
# Elastic Constant Matrix: (Units=GPa)
#
#
# Indices 1 2 3 4 5 6 
#
# 1 88.1062 28.7530 16.9211 0.0000 -7.9895 0.0000
# 2 28.7530 117.3440 37.2969 0.0000 -16.6500 0.0000
# 3 16.9211 37.2969 91.5891 0.0000 -20.3309 0.0000
# 4 0.0000 0.0000 0.0000 29.5011 0.0000 -12.4877
# 5 -7.9895 -16.6500 -20.3309 0.0000 23.2604 0.0000
# 6 0.0000 0.0000 0.0000 -12.4877 0.0000 32.6048
#
#
#
# Elastic Compliance Matrix: (Units=1/GPa)
#
#
# Indices 1 2 3 4 5 6 
#
# 1 0.012505 -0.002538 -0.000902 0.000000 0.001691 0.000000
# 2 -0.002538 0.010676 -0.002948 0.000000 0.004194 0.000000
# 3 -0.000902 -0.002948 0.014576 0.000000 0.010321 0.000000
# 4 0.000000 0.000000 0.000000 0.040456 0.000000 0.015495
# 5 0.001691 0.004194 0.010321 0.000000 0.055595 0.000000
# 6 0.000000 0.000000 0.000000 0.015495 0.000000 0.036605
#
#
# Mechanical properties :
#
#
# Convention : Reuss Voigt Hill
#
# Bulk Modulus (GPa) = 40.02728 51.44235 45.73482
# Shear Modulus (GPa) = 26.10782 31.34447 28.72615
#
# Velocity S-wave (km/s) = 3.53318 3.87134 3.70612
# Velocity P-wave (km/s) = 5.98192 6.67682 6.33890
#
# Compressibility (1/GPa) = 0.02498296
#
# Stress axis : x y z
#
# Youngs Moduli (GPa) = 79.97105 93.67102 68.60477
#
# Poissons Ratio (x) = 0.23770 0.06185
# Poissons Ratio (y) = 0.20293 0.20222
# Poissons Ratio (z) = 0.07210 0.27610
#
# Static dielectric constant tensor:
#      x y z
#    x 2.709620 0.000000 1.151870 
#    y 0.000000 7.015700 0.000000 
#    z 1.151870 0.000000 2.660530 
# 
# 
# High freq. dielectric constant tensor:
#      x y z
#    x 1.828310 0.000000 -0.000950 
#    y 0.000000 1.833110 0.000000 
#    z -0.000950 0.000000 1.808980 
# 
# From -- ./inp_files/110679.got.cif
#   From: 2010.06.25/outbox.cif.g09.slc.cpg/sg15_56_cif.got.tgz:110679.got - 2010.06.28 07:06:18.
