data_PCOD8148914
_publ_section_title
;
Structure prediction by ZEFSAII (Michael W. Deem and Ramdas Pophale) SiO2 
 PCOD8148914
Probable space group: C 2/C
;
_chemical_formula_sum "Si O2"
_cell_formula_units_Z 56
_cell_length_a 13.138185
_cell_length_b 22.128759
_cell_length_c 13.017216
_cell_angle_alpha 90.000000
_cell_angle_beta 47.071756
_cell_angle_gamma 90.000000
_cell_volume 2771.051306
_symmetry_space_group_name_H-M "C 2/C"
_symmetry_group_IT_number 15
_symmetry_cell_setting 'monoclinic'
loop_
_space_group_symop_operation_xyz
x,y,z
-x,y,1/2-z
-x,-y,-z
x,-y,1/2+z
1/2+x,1/2+y,z
1/2-x,1/2+y,1/2-z
1/2-x,1/2-y,-z
1/2+x,1/2-y,1/2+z
loop_
_atom_site_type_symbol
_atom_site_label
_atom_site_fract_x
_atom_site_fract_y
_atom_site_fract_z
Si Si1 0.286389 0.983068 0.377248
Si Si2 0.543319 0.830897 0.959684
Si Si3 0.595586 0.731796 0.085888
Si Si4 0.518768 0.045115 0.580133
Si Si5 0.464161 0.596361 0.392336
Si Si6 0.760968 0.113385 0.167711
Si Si7 0.145542 0.695151 0.087895
O O1 0.357614 0.985409 0.439637
O O2 0.378749 0.941579 0.239861
O O3 0.132260 0.956238 0.494151
O O4 0.299494 0.047093 0.310264
O O5 0.676978 0.839004 0.795412
O O6 0.402313 0.830822 0.989764
O O7 0.541895 0.768496 0.023954
O O8 0.560583 0.887950 0.020960
O O9 0.500000 0.745437 0.250000
O O10 0.608710 0.660966 0.054445
O O11 0.750000 0.750000 0.000000
O O12 0.500000 0.000000 0.500000
O O13 0.500000 0.578443 0.250000
O O14 0.591244 0.602985 0.382743
O O15 0.749272 0.145211 0.065081
O O16 0.000000 0.709970 0.250000
O O17 0.250000 0.750000 0.000000
#
# Coordination Sequence:
#
# PCOD8148914 Si02
#       7
#     8   8   8   8   8   8   8
#     4  11  24  39  66  93 128 167 219 265 325 392
#     4  11  22  40  68  93 126 170 215 267 329 388
#     4  11  24  40  64  95 130 168 214 267 331 395
#     4  11  22  39  64  95 127 162 216 272 318 384
#     4  11  24  43  62  93 134 171 212 270 333 397
#     4  11  22  43  65  90 129 171 210 268 330 388
#     4  10  23  43  67  94 129 172 219 269 328 393
#
# _framework density 20.208936000000001
#
# number of rings (size 3 to 8) (size 9 to 14) (size 15 to 20)
#    0.000    1.143    1.429    5.571    8.000    1.143 
#    2.571    0.714    0.000    0.000    0.000    0.000 
#    0.000    0.000    0.000    0.000    0.000    0.000 
#
# Total GULP energy -346939.379073 kJ/mol
# GULP energy per Si atom -12390.692110 kJ/mol
# Density = 2.016294 g / cm^3
# Si number density = 20.208936 Si / 1000 Ang^3
#
#
#
# Elastic Constant Matrix: (Units=GPa)
#
#
# Indices 1 2 3 4 5 6 
#
# 1 149.3073 14.6290 48.3248 0.0000 -6.4853 0.0000
# 2 14.6290 69.6526 27.1225 0.0000 2.8722 0.0000
# 3 48.3248 27.1225 75.1996 0.0000 -7.1269 0.0000
# 4 0.0000 0.0000 0.0000 35.2042 0.0000 0.6516
# 5 -6.4853 2.8722 -7.1269 0.0000 31.4871 0.0000
# 6 0.0000 0.0000 0.0000 0.6516 0.0000 41.5470
#
#
#
# Elastic Compliance Matrix: (Units=1/GPa)
#
#
# Indices 1 2 3 4 5 6 
#
# 1 0.008472 0.000354 -0.005529 0.000000 0.000461 0.000000
# 2 0.000354 0.016990 -0.006638 0.000000 -0.002979 0.000000
# 3 -0.005529 -0.006638 0.019615 0.000000 0.003907 0.000000
# 4 0.000000 0.000000 0.000000 0.028414 0.000000 -0.000446
# 5 0.000461 -0.002979 0.003907 0.000000 0.033010 0.000000
# 6 0.000000 0.000000 0.000000 -0.000446 0.000000 0.024076
#
#
# Mechanical properties :
#
#
# Convention : Reuss Voigt Hill
#
# Bulk Modulus (GPa) = 46.61306 52.70134 49.65720
# Shear Modulus (GPa) = 30.98794 35.25320 33.12057
#
# Velocity S-wave (km/s) = 3.92009 4.18118 4.05273
# Velocity P-wave (km/s) = 6.60341 7.03168 6.82091
#
# Compressibility (1/GPa) = 0.02145321
#
# Stress axis : x y z
#
# Youngs Moduli (GPa) = 118.03192 58.85747 50.98119
#
# Poissons Ratio (x) = -0.02086 0.28185
# Poissons Ratio (y) = -0.04183 0.33841
# Poissons Ratio (z) = 0.65254 0.39069
#
# Static dielectric constant tensor:
#      x y z
#    x 4.058980 0.000000 0.118320 
#    y 0.000000 2.915900 0.000000 
#    z 0.118320 0.000000 3.579920 
# 
# 
# High freq. dielectric constant tensor:
#      x y z
#    x 1.812120 0.000000 0.007060 
#    y 0.000000 1.792270 0.000000 
#    z 0.007060 0.000000 1.780990 
# 
# From -- ./inp_files/156159.got.cif
#   From: 2010.06.25/outbox.cif.g09.slc.cpg/sg15_79_cif.got.tgz:156159.got - 2010.06.28 07:06:18.
