data_PCOD8148884
_publ_section_title
;
Structure prediction by ZEFSAII (Michael W. Deem and Ramdas Pophale) SiO2 
 PCOD8148884
Probable space group: C 2/C
;
_chemical_formula_sum "Si O2"
_cell_formula_units_Z 56
_cell_length_a 26.723145
_cell_length_b 11.056174
_cell_length_c 26.485908
_cell_angle_alpha 90.000000
_cell_angle_beta 160.252109
_cell_angle_gamma 90.000000
_cell_volume 2644.066968
_symmetry_space_group_name_H-M "C 2/C"
_symmetry_group_IT_number 15
_symmetry_cell_setting 'monoclinic'
loop_
_space_group_symop_operation_xyz
x,y,z
-x,y,1/2-z
-x,-y,-z
x,-y,1/2+z
1/2+x,1/2+y,z
1/2-x,1/2+y,1/2-z
1/2-x,1/2-y,-z
1/2+x,1/2-y,1/2+z
loop_
_atom_site_type_symbol
_atom_site_label
_atom_site_fract_x
_atom_site_fract_y
_atom_site_fract_z
Si Si1 0.678036 0.024525 0.512751
Si Si2 0.169746 0.372922 0.409395
Si Si3 0.150497 0.898300 0.742078
Si Si4 0.190612 0.769472 0.578119
Si Si5 0.394042 0.356792 0.344883
Si Si6 0.342060 0.015353 0.707044
Si Si7 0.859766 0.816952 0.426201
O O1 0.701174 0.986560 0.476577
O O2 0.815136 0.962157 0.672070
O O3 0.518947 0.976446 0.381611
O O4 0.685007 0.169086 0.528138
O O5 0.250000 0.250000 0.500000
O O6 0.216127 0.414130 0.397634
O O7 0.000000 0.337939 0.250000
O O8 0.288482 0.813802 0.861692
O O9 0.995371 0.824916 0.595173
O O10 0.135289 0.999878 0.684584
O O11 0.250497 0.712412 0.687205
O O12 0.029572 0.821846 0.437233
O O13 0.296542 0.875769 0.659345
O O14 0.425016 0.326442 0.432086
O O15 0.262118 0.078759 0.678795
#
# Coordination Sequence:
#
# PCOD8148884 Si02
#       7
#     8   8   8   8   8   8   8
#     4  10  23  43  66  92 130 169 217 269 333 391
#     4  10  23  44  66  95 128 166 214 269 329 390
#     4  11  24  40  61  93 126 170 216 267 324 389
#     4  11  22  42  66  93 131 172 218 270 327 387
#     4  11  24  41  64  91 133 172 218 269 320 392
#     4  11  23  41  67  93 129 172 213 275 327 387
#     4  12  24  39  64  92 132 171 220 267 328 388
#
# _framework density 21.179493999999998
#
# number of rings (size 3 to 8) (size 9 to 14) (size 15 to 20)
#    0.000    1.143    2.857    3.000    2.000    4.000 
#    0.000    3.571    0.000    0.000    0.000    0.000 
#    0.000    0.000    0.000    0.000    0.000    0.000 
#
# Total GULP energy -347232.601496 kJ/mol
# GULP energy per Si atom -12401.164339 kJ/mol
# Density = 2.113129 g / cm^3
# Si number density = 21.179494 Si / 1000 Ang^3
#
#
#
# Elastic Constant Matrix: (Units=GPa)
#
#
# Indices 1 2 3 4 5 6 
#
# 1 65.9282 34.1739 16.9678 -0.0050 -2.7591 0.0018
# 2 34.1739 144.6065 44.9087 -0.0122 -1.8417 -0.0062
# 3 16.9678 44.9087 101.5861 -0.0288 -4.1490 -0.0153
# 4 -0.0050 -0.0122 -0.0288 42.5484 -0.0099 0.7044
# 5 -2.7591 -1.8417 -4.1490 -0.0099 22.5807 -0.0026
# 6 0.0018 -0.0062 -0.0153 0.7044 -0.0026 26.6350
#
#
#
# Elastic Compliance Matrix: (Units=1/GPa)
#
#
# Indices 1 2 3 4 5 6 
#
# 1 0.017482 -0.003738 -0.001202 0.000001 0.001610 -0.000003
# 2 -0.003738 0.008815 -0.003287 0.000000 -0.000342 0.000000
# 3 -0.001202 -0.003287 0.011567 0.000007 0.001710 0.000006
# 4 0.000001 0.000000 0.000007 0.023513 0.000012 -0.000622
# 5 0.001610 -0.000342 0.001710 0.000012 0.044769 0.000005
# 6 -0.000003 0.000000 0.000006 -0.000622 0.000005 0.037561
#
#
# Mechanical properties :
#
#
# Convention : Reuss Voigt Hill
#
# Bulk Modulus (GPa) = 46.70226 56.02463 51.36344
# Shear Modulus (GPa) = 29.88700 32.75752 31.32226
#
# Velocity S-wave (km/s) = 3.76057 3.93703 3.84981
# Velocity P-wave (km/s) = 6.39957 6.86853 6.63819
#
# Compressibility (1/GPa) = 0.02141224
#
# Stress axis : x y z
#
# Youngs Moduli (GPa) = 57.20119 113.44410 86.45008
#
# Poissons Ratio (x) = 0.42402 0.10391
# Poissons Ratio (y) = 0.21380 0.28412
# Poissons Ratio (z) = 0.06875 0.37283
#
# Static dielectric constant tensor:
#      x y z
#    x 3.524380 -0.000010 -0.129430 
#    y -0.000010 3.995150 -0.000010 
#    z -0.129430 -0.000010 4.046710 
# 
# 
# High freq. dielectric constant tensor:
#      x y z
#    x 1.804500 0.000000 -0.004420 
#    y 0.000000 1.844680 0.000000 
#    z -0.004420 0.000000 1.846520 
# 
# From -- ./inp_files/303283.got.cif
#   From: 2010.06.25/outbox.cif.g09.slc.cpg/sg15_152_cif.got.tgz:303283.got - 2010.06.28 07:06:18.
