data_PCOD8148953
_publ_section_title
;
Structure prediction by ZEFSAII (Michael W. Deem and Ramdas Pophale) SiO2 
 PCOD8148953
Probable space group: C 2/C
;
_chemical_formula_sum "Si O2"
_cell_formula_units_Z 48
_cell_length_a 6.430571
_cell_length_b 26.962243
_cell_length_c 12.602267
_cell_angle_alpha 90.000000
_cell_angle_beta 88.986777
_cell_angle_gamma 90.000000
_cell_volume 2184.672397
_symmetry_space_group_name_H-M "C 2/C"
_symmetry_group_IT_number 15
_symmetry_cell_setting 'monoclinic'
loop_
_space_group_symop_operation_xyz
x,y,z
-x,y,1/2-z
-x,-y,-z
x,-y,1/2+z
1/2+x,1/2+y,z
1/2-x,1/2+y,1/2-z
1/2-x,1/2-y,-z
1/2+x,1/2-y,1/2+z
loop_
_atom_site_type_symbol
_atom_site_label
_atom_site_fract_x
_atom_site_fract_y
_atom_site_fract_z
Si Si1 0.136338 0.551083 0.617548
Si Si2 0.433200 0.838922 0.365769
Si Si3 0.176926 0.692636 0.073006
Si Si4 0.687932 0.964079 0.876735
Si Si5 0.500000 0.121389 0.250000
Si Si6 0.931921 0.783076 0.045038
Si Si7 0.500000 0.521069 0.750000
O O1 0.016365 0.602429 0.634245
O O2 0.216894 0.547812 0.498385
O O3 0.327247 0.554751 0.696895
O O4 0.996253 0.503312 0.646079
O O5 0.500000 0.817094 0.250000
O O6 0.571350 0.818081 0.460187
O O7 0.186486 0.825722 0.385598
O O8 0.132488 0.653677 0.166046
O O9 0.086871 0.746639 0.110726
O O10 0.426583 0.692980 0.050575
O O11 0.654747 0.912833 0.815359
O O12 0.907236 0.986134 0.841518
O O13 0.750000 0.750000 0.000000
#
# Coordination Sequence:
#
# PCOD8148953 Si02
#       7
#     8   8   8   8   4   8   4
#     4  11  24  43  63  94 139 179 230 285 345 405
#     4  11  23  40  66  95 132 174 224 276 336 411
#     4  10  23  43  68  95 133 173 220 282 349 407
#     4  11  24  43  63  95 139 177 228 287 339 412
#     4  12  22  46  71  98 136 185 230 282 348 418
#     4   9  22  44  65  99 132 169 222 281 345 414
#     4  12  22  40  65  94 126 185 222 284 344 400
#
# _framework density 21.971257000000001
#
# number of rings (size 3 to 8) (size 9 to 14) (size 15 to 20)
#    0.000    1.333    3.333    1.500    0.000    8.667 
#    0.000    0.000    0.000    0.000    0.000    0.000 
#    0.000    0.000    0.000    0.000    0.000    0.000 
#
# Total GULP energy -297460.548355 kJ/mol
# GULP energy per Si atom -12394.189515 kJ/mol
# Density = 2.192125 g / cm^3
# Si number density = 21.971257 Si / 1000 Ang^3
#
#
#
# Elastic Constant Matrix: (Units=GPa)
#
#
# Indices 1 2 3 4 5 6 
#
# 1 101.8423 24.8235 42.1542 0.0000 -21.2541 0.0000
# 2 24.8235 105.8384 35.3094 0.0000 -13.5548 0.0000
# 3 42.1542 35.3094 140.0999 0.0000 -20.2981 0.0000
# 4 0.0000 0.0000 0.0000 39.4214 0.0000 18.2310
# 5 -21.2541 -13.5548 -20.2981 0.0000 38.1137 0.0000
# 6 0.0000 0.0000 0.0000 18.2310 0.0000 74.1312
#
#
#
# Elastic Compliance Matrix: (Units=1/GPa)
#
#
# Indices 1 2 3 4 5 6 
#
# 1 0.012276 -0.001366 -0.002631 0.000000 0.004959 0.000000
# 2 -0.001366 0.010688 -0.001996 0.000000 0.001976 0.000000
# 3 -0.002631 -0.001996 0.008796 0.000000 0.002507 0.000000
# 4 0.000000 0.000000 0.000000 0.028622 0.000000 -0.007039
# 5 0.004959 0.001976 0.002507 0.000000 0.031040 0.000000
# 6 0.000000 0.000000 0.000000 -0.007039 0.000000 0.015221
#
#
# Mechanical properties :
#
#
# Convention : Reuss Voigt Hill
#
# Bulk Modulus (GPa) = 50.57542 61.37274 55.97408
# Shear Modulus (GPa) = 39.92942 46.69950 43.31446
#
# Velocity S-wave (km/s) = 4.26766 4.61530 4.44488
# Velocity P-wave (km/s) = 6.88134 7.50967 7.20236
#
# Compressibility (1/GPa) = 0.01977245
#
# Stress axis : x y z
#
# Youngs Moduli (GPa) = 81.45990 93.56379 113.69156
#
# Poissons Ratio (x) = 0.12785 0.29911
# Poissons Ratio (y) = 0.11131 0.22696
# Poissons Ratio (z) = 0.21431 0.18678
#
# Static dielectric constant tensor:
#      x y z
#    x 4.043010 0.000000 -0.294550 
#    y 0.000000 4.198340 0.000000 
#    z -0.294550 0.000000 4.019050 
# 
# 
# High freq. dielectric constant tensor:
#      x y z
#    x 1.858300 0.000000 -0.017310 
#    y 0.000000 1.869910 0.000000 
#    z -0.017310 0.000000 1.870200 
# 
# From -- ./inp_files/130075.got.cif
#   From: 2010.06.25/outbox.cif.g09.slc.cpg/sg15_66_cif.got.tgz:130075.got - 2010.06.28 07:06:18.
