data_PCOD8148253
_publ_section_title
;
Structure prediction by ZEFSAII (Michael W. Deem and Ramdas Pophale) SiO2 
 PCOD8148253
Probable space group: C 2/C
;
_chemical_formula_sum "Si O2"
_cell_formula_units_Z 40
_cell_length_a 29.393497
_cell_length_b 5.046291
_cell_length_c 12.793740
_cell_angle_alpha 90.000000
_cell_angle_beta 115.633001
_cell_angle_gamma 90.000000
_cell_volume 1710.909459
_symmetry_space_group_name_H-M "C 2/C"
_symmetry_group_IT_number 15
_symmetry_cell_setting 'monoclinic'
loop_
_space_group_symop_operation_xyz
x,y,z
-x,y,1/2-z
-x,-y,-z
x,-y,1/2+z
1/2+x,1/2+y,z
1/2-x,1/2+y,1/2-z
1/2-x,1/2-y,-z
1/2+x,1/2-y,1/2+z
loop_
_atom_site_type_symbol
_atom_site_label
_atom_site_fract_x
_atom_site_fract_y
_atom_site_fract_z
Si Si1 0.105808 0.842942 0.384688
Si Si2 0.543319 0.298705 0.514782
Si Si3 0.749732 0.785435 0.322757
Si Si4 0.030487 0.485386 0.190161
Si Si5 0.329476 0.166265 0.577523
O O1 0.088379 0.906186 0.486671
O O2 0.060711 0.738195 0.265378
O O3 0.149994 0.625146 0.428383
O O4 0.125080 0.124499 0.360223
O O5 0.500000 0.500000 0.500000
O O6 0.518007 0.064010 0.425587
O O7 0.565820 0.190358 0.648593
O O8 0.740218 0.516002 0.250368
O O9 0.701424 0.851004 0.345831
O O10 0.797374 0.762282 0.446586
O O11 0.000000 0.320852 0.250000
#
# Coordination Sequence:
#
# PCOD8148253 Si02
#       5
#     8   8   8   8   8
#     4  11  25  42  67  98 138 170 224 284 323 390
#     4  10  23  40  64  90 132 183 226 266 329 392
#     4  11  24  47  74  97 137 179 213 272 355 411
#     4   9  22  40  60  90 127 179 221 274 327 380
#     4  11  26  45  67 106 135 169 228 281 332 412
#
# _framework density 23.379379
#
# number of rings (size 3 to 8) (size 9 to 14) (size 15 to 20)
#    0.000    1.600    0.000    2.400   11.200    8.800 
#    0.000    0.000    0.000    0.000    0.000    0.000 
#    0.000    0.000    0.000    0.000    0.000    0.000 
#
# Total GULP energy -247851.109848 kJ/mol
# GULP energy per Si atom -12392.555492 kJ/mol
# Density = 2.332617 g / cm^3
# Si number density = 23.379379 Si / 1000 Ang^3
#
#
#
# Elastic Constant Matrix: (Units=GPa)
#
#
# Indices 1 2 3 4 5 6 
#
# 1 114.4614 7.7835 35.6070 0.0000 -32.6410 0.0000
# 2 7.7835 66.8249 9.6350 0.0000 -22.5216 0.0000
# 3 35.6070 9.6350 101.9476 0.0000 -25.6837 0.0000
# 4 0.0000 0.0000 0.0000 29.5368 0.0000 -0.0413
# 5 -32.6410 -22.5216 -25.6837 0.0000 34.8810 0.0000
# 6 0.0000 0.0000 0.0000 -0.0413 0.0000 46.7528
#
#
#
# Elastic Compliance Matrix: (Units=1/GPa)
#
#
# Indices 1 2 3 4 5 6 
#
# 1 0.012600 0.003003 -0.001505 0.000000 0.012622 0.000000
# 2 0.003003 0.020057 0.001260 0.000000 0.016689 0.000000
# 3 -0.001505 0.001260 0.012358 0.000000 0.008505 0.000000
# 4 0.000000 0.000000 0.000000 0.033856 0.000000 0.000030
# 5 0.012622 0.016689 0.008505 0.000000 0.057518 0.000000
# 6 0.000000 0.000000 0.000000 0.000030 0.000000 0.021389
#
#
# Mechanical properties :
#
#
# Convention : Reuss Voigt Hill
#
# Bulk Modulus (GPa) = 19.78945 43.25389 31.52167
# Shear Modulus (GPa) = 29.56730 37.58136 33.57433
#
# Velocity S-wave (km/s) = 3.56008 4.01366 3.79366
# Velocity P-wave (km/s) = 5.03804 6.32616 5.71848
#
# Compressibility (1/GPa) = 0.05053197
#
# Stress axis : x y z
#
# Youngs Moduli (GPa) = 79.36627 49.85673 80.91875
#
# Poissons Ratio (x) = -0.14973 0.12176
# Poissons Ratio (y) = -0.23836 -0.10194
# Poissons Ratio (z) = 0.11942 -0.06281
#
# Static dielectric constant tensor:
#      x y z
#    x 3.823580 0.000000 1.616330 
#    y 0.000000 4.222430 0.000000 
#    z 1.616330 0.000000 -2.595280 
# 
# 
# High freq. dielectric constant tensor:
#      x y z
#    x 1.927400 0.000000 -0.020750 
#    y 0.000000 1.918680 0.000000 
#    z -0.020750 0.000000 1.943490 
# 
# From -- ./inp_files/125098.got.cif
#   From: 2010.06.25/outbox.cif.g09.slc.cpg/sg15_63_cif.got.tgz:125098.got - 2010.06.28 07:06:18.
