data_PCOD8148381
_publ_section_title
;
Structure prediction by ZEFSAII (Michael W. Deem and Ramdas Pophale) SiO2 
 PCOD8148381
Probable space group: C 2/C
;
_chemical_formula_sum "Si O2"
_cell_formula_units_Z 56
_cell_length_a 19.404098
_cell_length_b 18.737137
_cell_length_c 15.152650
_cell_angle_alpha 90.000000
_cell_angle_beta 150.081774
_cell_angle_gamma 90.000000
_cell_volume 2747.767154
_symmetry_space_group_name_H-M "C 2/C"
_symmetry_group_IT_number 15
_symmetry_cell_setting 'monoclinic'
loop_
_space_group_symop_operation_xyz
x,y,z
-x,y,1/2-z
-x,-y,-z
x,-y,1/2+z
1/2+x,1/2+y,z
1/2-x,1/2+y,1/2-z
1/2-x,1/2-y,-z
1/2+x,1/2-y,1/2+z
loop_
_atom_site_type_symbol
_atom_site_label
_atom_site_fract_x
_atom_site_fract_y
_atom_site_fract_z
Si Si1 0.291635 0.631295 0.246428
Si Si2 0.892230 0.854015 0.448782
Si Si3 0.800916 0.519549 0.783314
Si Si4 0.141967 0.727074 0.951815
Si Si5 0.066604 0.699018 0.233772
Si Si6 0.517527 0.039095 0.167627
Si Si7 0.219263 0.739928 0.639680
O O1 0.448462 0.631802 0.390328
O O2 0.256963 0.555678 0.248998
O O3 0.255803 0.688402 0.279962
O O4 0.193846 0.654607 0.056771
O O5 0.875533 0.796799 0.507477
O O6 0.814148 0.824612 0.276988
O O7 0.821616 0.930360 0.388638
O O8 0.895738 0.513024 0.800551
O O9 0.876228 0.551587 0.954724
O O10 0.000000 0.704337 0.750000
O O11 0.250000 0.750000 0.000000
O O12 0.095289 0.614551 0.265566
O O13 0.210443 0.740914 0.376830
O O14 0.000000 0.726222 0.250000
O O15 0.941192 0.718729 0.027804
O O16 0.500000 0.008859 0.250000
#
# Coordination Sequence:
#
# PCOD8148381 Si02
#       7
#     8   8   8   8   8   8   8
#     4  11  23  39  66  91 125 172 217 263 334 403
#     4  11  23  40  64  90 131 170 213 271 334 397
#     4  11  23  41  67  91 133 181 215 269 341 397
#     4  11  24  43  68  98 131 170 226 287 340 394
#     4  11  21  38  63  89 125 157 206 266 315 373
#     4  10  23  41  62  96 126 168 222 270 323 398
#     4  11  21  38  62  91 120 163 210 260 315 385
#
# _framework density 20.380185000000001
#
# number of rings (size 3 to 8) (size 9 to 14) (size 15 to 20)
#    0.000    1.143    5.714    0.857    0.000    4.000 
#    0.000    0.000    0.000    0.000    0.000    0.000 
#    0.000    0.000    0.000    0.000    0.000    0.000 
#
# Total GULP energy -346894.768912 kJ/mol
# GULP energy per Si atom -12389.098890 kJ/mol
# Density = 2.033380 g / cm^3
# Si number density = 20.380185 Si / 1000 Ang^3
#
#
#
# Elastic Constant Matrix: (Units=GPa)
#
#
# Indices 1 2 3 4 5 6 
#
# 1 111.2161 17.5470 25.2182 0.0000 1.6075 0.0000
# 2 17.5470 89.0217 21.9693 0.0000 3.2681 0.0000
# 3 25.2182 21.9693 81.9972 0.0000 8.2256 0.0000
# 4 0.0000 0.0000 0.0000 28.5322 0.0000 10.8587
# 5 1.6075 3.2681 8.2256 0.0000 38.2817 0.0000
# 6 0.0000 0.0000 0.0000 10.8587 0.0000 16.9871
#
#
#
# Elastic Compliance Matrix: (Units=1/GPa)
#
#
# Indices 1 2 3 4 5 6 
#
# 1 0.009801 -0.001276 -0.002700 0.000000 0.000278 0.000000
# 2 -0.001276 0.012199 -0.002838 0.000000 -0.000378 0.000000
# 3 -0.002700 -0.002838 0.014054 0.000000 -0.002664 0.000000
# 4 0.000000 0.000000 0.000000 0.046316 0.000000 -0.029606
# 5 0.000278 -0.000378 -0.002664 0.000000 0.026715 0.000000
# 6 0.000000 0.000000 0.000000 -0.029606 0.000000 0.077794
#
#
# Mechanical properties :
#
#
# Convention : Reuss Voigt Hill
#
# Bulk Modulus (GPa) = 44.59252 45.74491 45.16871
# Shear Modulus (GPa) = 24.04057 31.26022 27.65040
#
# Velocity S-wave (km/s) = 3.43826 3.92069 3.68738
# Velocity P-wave (km/s) = 6.13922 6.55670 6.35139
#
# Compressibility (1/GPa) = 0.02242529
#
# Stress axis : x y z
#
# Youngs Moduli (GPa) = 102.02968 81.97416 71.15560
#
# Poissons Ratio (x) = 0.10457 0.19215
# Poissons Ratio (y) = 0.13016 0.20195
# Poissons Ratio (z) = 0.27552 0.23266
#
# Static dielectric constant tensor:
#      x y z
#    x 3.852730 0.000000 -0.014400 
#    y 0.000000 3.640990 0.000000 
#    z -0.014400 0.000000 3.875920 
# 
# 
# High freq. dielectric constant tensor:
#      x y z
#    x 1.807390 0.000000 0.003520 
#    y 0.000000 1.795010 0.000000 
#    z 0.003520 0.000000 1.796200 
# 
# From -- ./inp_files/57795.got.cif
#   From: 2010.06.25/outbox.cif.g09.slc.cpg/sg15_29_cif.got.tgz:57795.got - 2010.06.28 07:06:18.
