data_PCOD8148760
_publ_section_title
;
Structure prediction by ZEFSAII (Michael W. Deem and Ramdas Pophale) SiO2 
 PCOD8148760
Probable space group: C 2/C
;
_chemical_formula_sum "Si O2"
_cell_formula_units_Z 60
_cell_length_a 22.594303
_cell_length_b 9.718336
_cell_length_c 13.433259
_cell_angle_alpha 90.000000
_cell_angle_beta 114.569614
_cell_angle_gamma 90.000000
_cell_volume 2682.589977
_symmetry_space_group_name_H-M "C 2/C"
_symmetry_group_IT_number 15
_symmetry_cell_setting 'monoclinic'
loop_
_space_group_symop_operation_xyz
x,y,z
-x,y,1/2-z
-x,-y,-z
x,-y,1/2+z
1/2+x,1/2+y,z
1/2-x,1/2+y,1/2-z
1/2-x,1/2-y,-z
1/2+x,1/2-y,1/2+z
loop_
_atom_site_type_symbol
_atom_site_label
_atom_site_fract_x
_atom_site_fract_y
_atom_site_fract_z
Si Si1 0.869104 0.045208 0.436726
Si Si2 0.948473 0.714118 0.917659
Si Si3 0.068093 0.200336 0.620694
Si Si4 0.240115 0.093032 0.378897
Si Si5 0.143406 0.525235 0.167387
Si Si6 0.000000 0.803149 0.750000
Si Si7 0.738041 0.906467 0.372717
Si Si8 0.105686 0.026270 0.825308
O O1 0.892082 0.168775 0.380588
O O2 0.876509 0.094019 0.556407
O O3 0.915076 0.913872 0.449881
O O4 0.794711 0.000761 0.362364
O O5 0.916862 0.565490 0.912839
O O6 0.985497 0.711230 0.837324
O O7 0.997570 0.740445 0.043471
O O8 0.122415 0.317528 0.658757
O O9 0.065795 0.133114 0.728976
O O10 0.296387 0.005528 0.365597
O O11 0.256133 0.090957 0.505924
O O12 0.240778 0.248760 0.337402
O O13 0.170698 0.019731 0.311323
O O14 0.168637 0.471074 0.292312
O O15 0.062993 0.892994 0.818527
#
# Coordination Sequence:
#
# PCOD8148760 Si02
#       8
#     8   8   8   8   8   4   8   8
#     4  11  22  43  71 101 136 177 238 288 348 413
#     4  12  27  44  70 101 140 188 238 289 354 425
#     4  12  24  45  66 103 141 183 233 295 352 414
#     4  10  23  44  69 103 143 182 236 291 356 420
#     4  12  27  43  71 103 147 186 230 292 368 425
#     4  12  22  42  70 100 136 184 240 276 338 426
#     4  10  23  42  70 103 137 186 231 290 353 430
#     4  11  23  40  73 104 135 181 235 297 340 412
#
# _framework density 22.366444999999999
#
# number of rings (size 3 to 8) (size 9 to 14) (size 15 to 20)
#    0.000    0.800    4.000    3.200    1.867    2.133 
#    0.000    4.667    0.000    0.000    0.000    0.000 
#    0.000    0.000    0.000    0.000    0.000    0.000 
#
# Total GULP energy -372140.817572 kJ/mol
# GULP energy per Si atom -12404.693919 kJ/mol
# Density = 2.231554 g / cm^3
# Si number density = 22.366445 Si / 1000 Ang^3
#
#
#
# Elastic Constant Matrix: (Units=GPa)
#
#
# Indices 1 2 3 4 5 6 
#
# 1 101.8672 28.5730 25.8525 0.0000 -7.0688 0.0000
# 2 28.5730 78.2919 24.9657 0.0000 -11.5197 0.0000
# 3 25.8525 24.9657 77.3675 0.0000 5.7665 0.0000
# 4 0.0000 0.0000 0.0000 20.0510 0.0000 8.1502
# 5 -7.0688 -11.5197 5.7665 0.0000 32.5374 0.0000
# 6 0.0000 0.0000 0.0000 8.1502 0.0000 43.2783
#
#
#
# Elastic Compliance Matrix: (Units=1/GPa)
#
#
# Indices 1 2 3 4 5 6 
#
# 1 0.011560 -0.002947 -0.003062 0.000000 0.002011 0.000000
# 2 -0.002947 0.016217 -0.004691 0.000000 0.005933 0.000000
# 3 -0.003062 -0.004691 0.015845 0.000000 -0.005134 0.000000
# 4 0.000000 0.000000 0.000000 0.054007 0.000000 -0.010171
# 5 0.002011 0.005933 -0.005134 0.000000 0.034181 0.000000
# 6 0.000000 0.000000 0.000000 -0.010171 0.000000 0.025022
#
#
# Mechanical properties :
#
#
# Convention : Reuss Voigt Hill
#
# Bulk Modulus (GPa) = 44.99769 46.25656 45.62712
# Shear Modulus (GPa) = 26.93440 31.04903 28.99172
#
# Velocity S-wave (km/s) = 3.47397 3.72989 3.60420
# Velocity P-wave (km/s) = 6.02108 6.26703 6.14528
#
# Compressibility (1/GPa) = 0.02222336
#
# Stress axis : x y z
#
# Youngs Moduli (GPa) = 86.50692 61.66485 63.11284
#
# Poissons Ratio (x) = 0.18170 0.19324
# Poissons Ratio (y) = 0.25490 0.29603
# Poissons Ratio (z) = 0.26486 0.28924
#
# Static dielectric constant tensor:
#      x y z
#    x 4.102100 0.000000 0.041370 
#    y 0.000000 3.853230 0.000000 
#    z 0.041370 0.000000 3.951850 
# 
# 
# High freq. dielectric constant tensor:
#      x y z
#    x 1.885700 0.000000 0.005940 
#    y 0.000000 1.861460 0.000000 
#    z 0.005940 0.000000 1.893860 
# 
# From -- ./inp_files/172444.got.cif
#   From: 2010.06.25/outbox.cif.g09.slc.cpg/sg15_87_cif.got.tgz:172444.got - 2010.06.28 07:06:18.
