data_PCOD8148313
_publ_section_title
;
Structure prediction by ZEFSAII (Michael W. Deem and Ramdas Pophale) SiO2 
 PCOD8148313
Probable space group: C 2/C
;
_chemical_formula_sum "Si O2"
_cell_formula_units_Z 60
_cell_length_a 28.313818
_cell_length_b 16.956852
_cell_length_c 11.039179
_cell_angle_alpha 90.000000
_cell_angle_beta 34.831347
_cell_angle_gamma 90.000000
_cell_volume 3027.194387
_symmetry_space_group_name_H-M "C 2/C"
_symmetry_group_IT_number 15
_symmetry_cell_setting 'monoclinic'
loop_
_space_group_symop_operation_xyz
x,y,z
-x,y,1/2-z
-x,-y,-z
x,-y,1/2+z
1/2+x,1/2+y,z
1/2-x,1/2+y,1/2-z
1/2-x,1/2-y,-z
1/2+x,1/2-y,1/2+z
loop_
_atom_site_type_symbol
_atom_site_label
_atom_site_fract_x
_atom_site_fract_y
_atom_site_fract_z
Si Si1 0.566522 0.943700 0.920366
Si Si2 0.500000 0.819580 0.750000
Si Si3 0.865116 0.562623 0.566267
Si Si4 0.488974 0.771303 0.508691
Si Si5 0.759725 0.541813 0.576208
Si Si6 0.678147 0.298182 0.218097
Si Si7 0.262080 0.875001 0.485659
Si Si8 0.660314 0.263114 0.536719
O O1 0.530913 0.856577 0.005086
O O2 0.651182 0.942285 0.668416
O O3 0.587263 0.979713 0.010164
O O4 0.500000 0.000000 0.000000
O O5 0.576944 0.875245 0.625918
O O6 0.515358 0.769139 0.595901
O O7 0.778629 0.547264 0.680040
O O8 0.845132 0.602296 0.737959
O O9 0.409345 0.715627 0.662369
O O10 0.563566 0.738747 0.271021
O O11 0.695150 0.608307 0.671305
O O12 0.723222 0.455458 0.622765
O O13 0.674756 0.272581 0.364480
O O14 0.750000 0.250000 0.000000
O O15 0.290110 0.816026 0.532302
O O16 0.195560 0.836880 0.536712
#
# Coordination Sequence:
#
# PCOD8148313 Si02
#       8
#     8   4   8   8   8   8   8   8
#     4  11  20  35  57  96 130 161 208 261 337 401
#     4  12  20  38  62  92 136 166 212 260 338 410
#     4  11  19  36  59  93 134 169 205 266 325 409
#     4  12  24  40  64  97 131 173 218 274 337 391
#     4  11  22  40  63  94 127 177 220 263 318 400
#     4  12  25  44  64  94 132 179 224 273 325 399
#     4  10  23  40  67  94 131 174 219 267 337 391
#     4  11  24  44  64  98 137 170 221 281 335 388
#
# _framework density 19.820332000000001
#
# number of rings (size 3 to 8) (size 9 to 14) (size 15 to 20)
#    0.000    0.800    6.667    1.200    1.867    0.000 
#    2.400    0.667    0.000    0.000    0.000    0.000 
#    0.000    0.000    0.000    0.000    0.000    0.000 
#
# Total GULP energy -371972.339345 kJ/mol
# GULP energy per Si atom -12399.077978 kJ/mol
# Density = 1.977522 g / cm^3
# Si number density = 19.820332 Si / 1000 Ang^3
#
#
#
# Elastic Constant Matrix: (Units=GPa)
#
#
# Indices 1 2 3 4 5 6 
#
# 1 104.4901 58.6503 38.9837 0.0000 -4.5753 0.0000
# 2 58.6503 133.4442 48.1821 0.0000 -7.1680 0.0000
# 3 38.9837 48.1821 101.0526 0.0000 -2.4410 0.0000
# 4 0.0000 0.0000 0.0000 31.4012 0.0000 -5.7696
# 5 -4.5753 -7.1680 -2.4410 0.0000 33.3581 0.0000
# 6 0.0000 0.0000 0.0000 -5.7696 0.0000 33.7990
#
#
#
# Elastic Compliance Matrix: (Units=1/GPa)
#
#
# Indices 1 2 3 4 5 6 
#
# 1 0.013359 -0.004813 -0.002845 0.000000 0.000590 0.000000
# 2 -0.004813 0.010875 -0.003294 0.000000 0.001436 0.000000
# 3 -0.002845 -0.003294 0.012560 0.000000 -0.000179 0.000000
# 4 0.000000 0.000000 0.000000 0.032877 0.000000 0.005612
# 5 0.000590 0.001436 -0.000179 0.000000 0.030354 0.000000
# 6 0.000000 0.000000 0.000000 0.005612 0.000000 0.030545
#
#
# Mechanical properties :
#
#
# Convention : Reuss Voigt Hill
#
# Bulk Modulus (GPa) = 67.15430 70.06879 68.61154
# Shear Modulus (GPa) = 31.75896 32.58972 32.17434
#
# Velocity S-wave (km/s) = 4.00727 4.05934 4.03339
# Velocity P-wave (km/s) = 7.44083 7.57626 7.50885
#
# Compressibility (1/GPa) = 0.01489108
#
# Stress axis : x y z
#
# Youngs Moduli (GPa) = 74.85783 91.94996 79.62055
#
# Poissons Ratio (x) = 0.44251 0.22649
# Poissons Ratio (y) = 0.36025 0.26229
# Poissons Ratio (z) = 0.21294 0.30290
#
# Static dielectric constant tensor:
#      x y z
#    x 3.608820 0.000000 0.092440 
#    y 0.000000 3.777860 0.000000 
#    z 0.092440 0.000000 3.526490 
# 
# 
# High freq. dielectric constant tensor:
#      x y z
#    x 1.779910 0.000000 0.009760 
#    y 0.000000 1.763530 0.000000 
#    z 0.009760 0.000000 1.761730 
# 
# From -- ./inp_files/127214.got.cif
#   From: 2010.06.25/outbox.cif.g09.slc.cpg/sg15_64_cif.got.tgz:127214.got - 2010.06.28 07:06:18.
