data_PCOD8148007
_publ_section_title
;
Structure prediction by ZEFSAII (Michael W. Deem and Ramdas Pophale) SiO2 
 PCOD8148007
Probable space group: C 2/C
;
_chemical_formula_sum "Si O2"
_cell_formula_units_Z 36
_cell_length_a 20.931730
_cell_length_b 4.735944
_cell_length_c 19.828468
_cell_angle_alpha 90.000000
_cell_angle_beta 140.801305
_cell_angle_gamma 90.000000
_cell_volume 1242.298407
_symmetry_space_group_name_H-M "C 2/C"
_symmetry_group_IT_number 15
_symmetry_cell_setting 'monoclinic'
loop_
_space_group_symop_operation_xyz
x,y,z
-x,y,1/2-z
-x,-y,-z
x,-y,1/2+z
1/2+x,1/2+y,z
1/2-x,1/2+y,1/2-z
1/2-x,1/2-y,-z
1/2+x,1/2-y,1/2+z
loop_
_atom_site_type_symbol
_atom_site_label
_atom_site_fract_x
_atom_site_fract_y
_atom_site_fract_z
Si Si1 0.000000 0.812182 0.250000
Si Si2 0.715533 0.143419 0.400398
Si Si3 0.097240 0.834678 0.951074
Si Si4 0.283021 0.369353 0.237040
Si Si5 0.003434 0.678190 0.435693
O O1 0.093245 0.612890 0.300308
O O2 0.041753 0.016515 0.342706
O O3 0.750000 0.250000 0.500000
O O4 0.779130 0.847172 0.447642
O O5 0.757080 0.343260 0.372711
O O6 0.061413 0.019994 0.987943
O O7 0.060757 0.512077 0.925607
O O8 0.283592 0.691763 0.262883
O O9 0.391443 0.231603 0.320254
O O10 0.000000 0.500000 0.500000
#
# Coordination Sequence:
#
# PCOD8148007 Si02
#       5
#     4   8   8   8   8
#     4  10  22  48  72 108 146 196 242 306 362 446
#     4  10  23  47  77 107 151 194 254 302 377 436
#     4  11  24  45  70 106 143 188 243 299 360 438
#     4  12  25  45  75 109 150 194 249 306 373 441
#     4  12  24  44  71 104 149 186 243 298 370 436
#
# _framework density 28.978546000000001
#
# number of rings (size 3 to 8) (size 9 to 14) (size 15 to 20)
#    0.000    0.889    2.222    4.667    0.000    0.889 
#    0.000    6.667    0.000    0.000    0.000    0.000 
#    0.000    0.000    0.000    0.000    0.000    0.000 
#
# Total GULP energy -223014.423766 kJ/mol
# GULP energy per Si atom -12389.690209 kJ/mol
# Density = 2.891259 g / cm^3
# Si number density = 28.978546 Si / 1000 Ang^3
#
#
#
# Elastic Constant Matrix: (Units=GPa)
#
#
# Indices 1 2 3 4 5 6 
#
# 1 106.8982 8.3042 22.9791 0.0072 3.7742 0.0159
# 2 8.3042 99.2776 -1.8607 0.0022 18.9569 0.0069
# 3 22.9791 -1.8607 105.8201 0.0028 21.6942 0.0052
# 4 0.0072 0.0022 0.0028 15.3061 0.0034 3.8428
# 5 3.7742 18.9569 21.6942 0.0034 62.2391 0.0015
# 6 0.0159 0.0069 0.0052 3.8428 0.0015 39.1853
#
#
#
# Elastic Compliance Matrix: (Units=1/GPa)
#
#
# Indices 1 2 3 4 5 6 
#
# 1 0.009899 -0.000963 -0.002266 -0.000003 0.000483 -0.000003
# 2 -0.000963 0.010873 0.001149 0.000000 -0.003654 -0.000002
# 3 -0.002266 0.001149 0.010776 0.000000 -0.003969 -0.000001
# 4 -0.000003 0.000000 0.000000 0.066983 -0.000003 -0.006569
# 5 0.000483 -0.003654 -0.003969 -0.000003 0.018534 0.000001
# 6 -0.000003 -0.000002 -0.000001 -0.006569 0.000001 0.026164
#
#
# Mechanical properties :
#
#
# Convention : Reuss Voigt Hill
#
# Bulk Modulus (GPa) = 36.50982 41.20458 38.85720
# Shear Modulus (GPa) = 31.94556 42.18433 37.06494
#
# Velocity S-wave (km/s) = 3.32382 3.81951 3.58026
# Velocity P-wave (km/s) = 5.23036 5.80529 5.52531
#
# Compressibility (1/GPa) = 0.02738989
#
# Stress axis : x y z
#
# Youngs Moduli (GPa) = 101.01567 91.97509 92.80053
#
# Poissons Ratio (x) = 0.08854 0.21024
# Poissons Ratio (y) = 0.09724 -0.10665
# Poissons Ratio (z) = 0.22886 -0.10571
#
# Static dielectric constant tensor:
#      x y z
#    x 6.316360 0.000070 0.334570 
#    y 0.000070 4.914720 -0.000220 
#    z 0.334570 -0.000220 5.545350 
# 
# 
# High freq. dielectric constant tensor:
#      x y z
#    x 2.201590 0.000000 -0.003500 
#    y 0.000000 2.155630 0.000000 
#    z -0.003500 0.000000 2.194680 
# 
# From -- ./inp_files/251183.got.cif
#   From: 2010.06.25/outbox.cif.g09.slc.cpg/sg15_126_cif.got.tgz:251183.got - 2010.06.28 07:06:18.
