data_PCOD8148140
_publ_section_title
;
Structure prediction by ZEFSAII (Michael W. Deem and Ramdas Pophale) SiO2 
 PCOD8148140
Probable space group: C 2/C
;
_chemical_formula_sum "Si O2"
_cell_formula_units_Z 64
_cell_length_a 13.668309
_cell_length_b 22.589675
_cell_length_c 14.412707
_cell_angle_alpha 90.000000
_cell_angle_beta 46.212807
_cell_angle_gamma 90.000000
_cell_volume 3212.597722
_symmetry_space_group_name_H-M "C 2/C"
_symmetry_group_IT_number 15
_symmetry_cell_setting 'monoclinic'
loop_
_space_group_symop_operation_xyz
x,y,z
-x,y,1/2-z
-x,-y,-z
x,-y,1/2+z
1/2+x,1/2+y,z
1/2-x,1/2+y,1/2-z
1/2-x,1/2-y,-z
1/2+x,1/2-y,1/2+z
loop_
_atom_site_type_symbol
_atom_site_label
_atom_site_fract_x
_atom_site_fract_y
_atom_site_fract_z
Si Si1 0.413516 0.962574 0.893025
Si Si2 0.250489 0.156956 0.675129
Si Si3 0.112691 0.726911 0.253035
Si Si4 0.237801 0.064979 0.104174
Si Si5 0.230547 0.856318 0.976763
Si Si6 0.033845 0.369693 0.951318
Si Si7 0.473810 0.419144 0.104434
Si Si8 0.011014 0.950440 0.613939
O O1 0.500000 0.990541 0.750000
O O2 0.507023 0.928516 0.906860
O O3 0.314951 0.916416 0.906069
O O4 0.328330 0.011277 0.005521
O O5 0.178509 0.215955 0.761532
O O6 0.256303 0.167948 0.561597
O O7 0.406331 0.145640 0.602662
O O8 0.170862 0.097251 0.756010
O O9 0.052626 0.686570 0.373142
O O10 0.000000 0.744250 0.250000
O O11 0.231492 0.691792 0.124091
O O12 0.338256 0.118759 0.064892
O O13 0.121170 0.082329 0.106513
O O14 0.148444 0.053768 0.255426
O O15 0.071614 0.866104 0.068582
O O16 0.538160 0.479317 0.101881
O O17 0.460303 0.422601 0.003592
#
# Coordination Sequence:
#
# PCOD8148140 Si02
#       8
#     8   8   8   8   8   8   8   8
#     4  11  20  35  59  89 125 160 196 237 303 370
#     4  11  25  35  61  93 122 162 200 250 308 365
#     4  12  21  38  60  88 127 164 203 244 307 365
#     4  11  23  39  60  85 120 164 201 249 300 362
#     4  11  19  36  58  89 130 158 192 245 297 373
#     4  11  23  40  55  89 125 156 201 248 300 366
#     4  11  22  38  60  91 124 155 205 253 301 359
#     4  10  23  39  62  87 117 161 207 249 305 363
#
# _framework density 19.921572999999999
#
# number of rings (size 3 to 8) (size 9 to 14) (size 15 to 20)
#    0.000    1.000    5.000    4.125    3.500    1.000 
#    0.000    0.000    0.000    0.750    3.250    0.000 
#    0.000    0.000    0.000    0.000    0.000    0.000 
#
# Total GULP energy -396618.416478 kJ/mol
# GULP energy per Si atom -12394.325515 kJ/mol
# Density = 1.987623 g / cm^3
# Si number density = 19.921573 Si / 1000 Ang^3
#
#
#
# Elastic Constant Matrix: (Units=GPa)
#
#
# Indices 1 2 3 4 5 6 
#
# 1 93.5402 35.1775 37.3450 0.0001 -23.5504 0.0000
# 2 35.1775 54.8060 25.7485 0.0000 -6.4937 0.0001
# 3 37.3450 25.7485 102.6017 0.0001 -19.9026 0.0000
# 4 0.0001 0.0000 0.0001 29.7958 -0.0001 -11.3524
# 5 -23.5504 -6.4937 -19.9026 -0.0001 27.0709 0.0000
# 6 0.0000 0.0001 0.0000 -11.3524 0.0000 26.8120
#
#
#
# Elastic Compliance Matrix: (Units=1/GPa)
#
#
# Indices 1 2 3 4 5 6 
#
# 1 0.017923 -0.009195 -0.001889 0.000000 0.011998 0.000000
# 2 -0.009195 0.025444 -0.003973 0.000000 -0.004817 0.000000
# 3 -0.001889 -0.003973 0.012745 0.000000 0.006774 0.000000
# 4 0.000000 0.000000 0.000000 0.040018 0.000000 0.016944
# 5 0.011998 -0.004817 0.006774 0.000000 0.051203 0.000000
# 6 0.000000 0.000000 0.000000 0.016944 0.000000 0.044471
#
#
# Mechanical properties :
#
#
# Convention : Reuss Voigt Hill
#
# Bulk Modulus (GPa) = 38.46350 49.72110 44.09230
# Shear Modulus (GPa) = 21.68412 26.91418 24.29915
#
# Velocity S-wave (km/s) = 3.30278 3.67959 3.49627
# Velocity P-wave (km/s) = 5.82184 6.56240 6.20318
#
# Compressibility (1/GPa) = 0.02599867
#
# Stress axis : x y z
#
# Youngs Moduli (GPa) = 55.79270 39.30205 78.46278
#
# Poissons Ratio (x) = 0.36139 0.14820
# Poissons Ratio (y) = 0.51303 0.31171
# Poissons Ratio (z) = 0.10538 0.15614
#
# Static dielectric constant tensor:
#      x y z
#    x 3.533500 0.000000 -0.282950 
#    y 0.000000 3.469860 0.000000 
#    z -0.282950 0.000000 3.922990 
# 
# 
# High freq. dielectric constant tensor:
#      x y z
#    x 1.751860 0.000000 -0.022480 
#    y 0.000000 1.750870 0.000000 
#    z -0.022480 0.000000 1.798170 
# 
# From -- ./inp_files/156791.got.cif
#   From: 2010.06.25/outbox.cif.g09.slc.cpg/sg15_79_cif.got.tgz:156791.got - 2010.06.28 07:06:18.
