data_PCOD8148262
_publ_section_title
;
Structure prediction by ZEFSAII (Michael W. Deem and Ramdas Pophale) SiO2 
 PCOD8148262
Probable space group: C 2/C
;
_chemical_formula_sum "Si O2"
_cell_formula_units_Z 60
_cell_length_a 21.459981
_cell_length_b 18.788887
_cell_length_c 9.287504
_cell_angle_alpha 90.000000
_cell_angle_beta 44.464692
_cell_angle_gamma 90.000000
_cell_volume 2623.123218
_symmetry_space_group_name_H-M "C 2/C"
_symmetry_group_IT_number 15
_symmetry_cell_setting 'monoclinic'
loop_
_space_group_symop_operation_xyz
x,y,z
-x,y,1/2-z
-x,-y,-z
x,-y,1/2+z
1/2+x,1/2+y,z
1/2-x,1/2+y,1/2-z
1/2-x,1/2-y,-z
1/2+x,1/2-y,1/2+z
loop_
_atom_site_type_symbol
_atom_site_label
_atom_site_fract_x
_atom_site_fract_y
_atom_site_fract_z
Si Si1 0.589638 0.871588 0.761269
Si Si2 0.766603 0.523770 0.365666
Si Si3 0.000000 0.982588 0.250000
Si Si4 0.178569 0.935203 0.738162
Si Si5 0.103344 0.394123 0.415991
Si Si6 0.808944 0.308908 0.469350
Si Si7 0.525307 0.407185 0.478522
Si Si8 0.569167 0.251262 0.507607
O O1 0.670202 0.908639 0.712224
O O2 0.617884 0.858265 0.549144
O O3 0.499896 0.919976 0.921574
O O4 0.561115 0.796343 0.878395
O O5 0.710975 0.503818 0.597498
O O6 0.685599 0.542347 0.392265
O O7 0.829843 0.460218 0.205709
O O8 0.056889 0.033607 0.046029
O O9 0.056701 0.931698 0.266321
O O10 0.251360 0.876053 0.599429
O O11 0.082775 0.905152 0.846811
O O12 0.116880 0.334937 0.268229
O O13 0.750000 0.250000 0.500000
O O14 0.840475 0.272334 0.565100
O O15 0.567083 0.332829 0.457347
O O16 0.500000 0.237665 0.750000
#
# Coordination Sequence:
#
# PCOD8148262 Si02
#       8
#     8   8   4   8   8   8   8   8
#     4  11  22  40  64  97 139 176 225 280 344 417
#     4  11  21  41  64 101 136 182 223 290 345 403
#     4  10  24  46  74  98 130 170 248 290 340 382
#     4  11  23  40  70  94 141 175 230 281 349 407
#     4  10  23  40  64  96 136 180 233 282 340 415
#     4  11  24  43  65  95 133 189 228 280 348 412
#     4  11  24  46  71 105 130 182 230 291 341 409
#     4  12  23  43  69  95 137 180 228 276 341 421
#
# _framework density 22.873497
#
# number of rings (size 3 to 8) (size 9 to 14) (size 15 to 20)
#    0.000    1.067    4.667    2.000    0.000    1.067 
#    4.800    0.667    0.000    0.000    0.000    0.000 
#    0.000    0.000    0.000    0.000    0.000    0.000 
#
# Total GULP energy -371661.044807 kJ/mol
# GULP energy per Si atom -12388.701494 kJ/mol
# Density = 2.282144 g / cm^3
# Si number density = 22.873497 Si / 1000 Ang^3
#
#
#
# Elastic Constant Matrix: (Units=GPa)
#
#
# Indices 1 2 3 4 5 6 
#
# 1 111.1342 37.2366 35.2513 0.0000 17.1489 0.0000
# 2 37.2366 112.2503 38.3384 0.0000 25.0153 0.0000
# 3 35.2513 38.3384 107.2302 0.0000 24.6257 0.0000
# 4 0.0000 0.0000 0.0000 22.5110 0.0000 13.5700
# 5 17.1489 25.0153 24.6257 0.0000 44.8192 0.0000
# 6 0.0000 0.0000 0.0000 13.5700 0.0000 43.9294
#
#
#
# Elastic Compliance Matrix: (Units=1/GPa)
#
#
# Indices 1 2 3 4 5 6 
#
# 1 0.010787 -0.002453 -0.002330 0.000000 -0.001478 0.000000
# 2 -0.002453 0.011447 -0.002328 0.000000 -0.004171 0.000000
# 3 -0.002330 -0.002328 0.011926 0.000000 -0.004362 0.000000
# 4 0.000000 0.000000 0.000000 0.054588 0.000000 -0.016862
# 5 -0.001478 -0.004171 -0.004362 0.000000 0.027602 0.000000
# 6 0.000000 0.000000 0.000000 -0.016862 0.000000 0.027973
#
#
# Mechanical properties :
#
#
# Convention : Reuss Voigt Hill
#
# Bulk Modulus (GPa) = 50.15661 61.36304 55.75983
# Shear Modulus (GPa) = 30.26804 36.90448 33.58626
#
# Velocity S-wave (km/s) = 3.64164 4.02109 3.83606
# Velocity P-wave (km/s) = 6.29742 6.96019 6.63708
#
# Compressibility (1/GPa) = 0.01993755
#
# Stress axis : x y z
#
# Youngs Moduli (GPa) = 92.70264 87.35695 83.85253
#
# Poissons Ratio (x) = 0.21432 0.19534
# Poissons Ratio (y) = 0.22743 0.19524
# Poissons Ratio (z) = 0.21596 0.20340
#
# Static dielectric constant tensor:
#      x y z
#    x 4.433390 0.000000 0.264720 
#    y 0.000000 3.951250 0.000000 
#    z 0.264720 0.000000 4.382050 
# 
# 
# High freq. dielectric constant tensor:
#      x y z
#    x 1.920930 0.000000 0.007510 
#    y 0.000000 1.890140 0.000000 
#    z 0.007510 0.000000 1.915240 
# 
# From -- ./inp_files/58063.got.cif
#   From: 2010.06.25/outbox.cif.g09.slc.cpg/sg15_30_cif.got.tgz:58063.got - 2010.06.28 07:06:18.
