data_PCOD8148887
_publ_section_title
;
Structure prediction by ZEFSAII (Michael W. Deem and Ramdas Pophale) SiO2 
 PCOD8148887
Probable space group: C 2/C
;
_chemical_formula_sum "Si O2"
_cell_formula_units_Z 60
_cell_length_a 20.122461
_cell_length_b 8.466561
_cell_length_c 18.876029
_cell_angle_alpha 90.000000
_cell_angle_beta 119.468214
_cell_angle_gamma 90.000000
_cell_volume 2799.830714
_symmetry_space_group_name_H-M "C 2/C"
_symmetry_group_IT_number 15
_symmetry_cell_setting 'monoclinic'
loop_
_space_group_symop_operation_xyz
x,y,z
-x,y,1/2-z
-x,-y,-z
x,-y,1/2+z
1/2+x,1/2+y,z
1/2-x,1/2+y,1/2-z
1/2-x,1/2-y,-z
1/2+x,1/2-y,1/2+z
loop_
_atom_site_type_symbol
_atom_site_label
_atom_site_fract_x
_atom_site_fract_y
_atom_site_fract_z
Si Si1 0.321602 0.358147 0.320545
Si Si2 0.500000 0.898207 0.750000
Si Si3 0.670681 0.728572 0.192130
Si Si4 0.431379 0.634834 0.092164
Si Si5 0.623774 0.144763 0.813830
Si Si6 0.028031 0.326042 0.033503
Si Si7 0.490634 0.681279 0.871207
Si Si8 0.778412 0.857131 0.450618
O O1 0.324860 0.547650 0.330326
O O2 0.254502 0.308073 0.231060
O O3 0.400023 0.292945 0.329533
O O4 0.308343 0.279941 0.391805
O O5 0.525382 0.792890 0.829359
O O6 0.570031 0.004201 0.760878
O O7 0.642175 0.741972 0.257767
O O8 0.612557 0.825545 0.111579
O O9 0.418444 0.741284 0.153690
O O10 0.465372 0.751489 0.051832
O O11 0.491825 0.498864 0.141099
O O12 0.352103 0.553158 0.021915
O O13 0.699862 0.056601 0.885594
O O14 0.000000 0.500000 0.000000
O O15 0.033048 0.219490 0.966242
O O16 0.750000 0.750000 0.500000
#
# Coordination Sequence:
#
# PCOD8148887 Si02
#       8
#     8   4   8   8   8   8   8   8
#     4  11  24  42  69 100 137 177 233 281 342 410
#     4  12  28  44  64  96 140 180 226 282 336 420
#     4  11  25  42  70 103 135 179 227 283 342 410
#     4  11  21  42  69  97 131 174 229 278 344 405
#     4  10  23  43  66  95 133 179 222 276 345 405
#     4  12  24  40  68 100 135 177 225 280 340 405
#     4  12  26  43  67  98 135 180 229 288 337 408
#     4   9  20  40  68  96 129 171 217 279 339 401
#
# _framework density 21.429869
#
# number of rings (size 3 to 8) (size 9 to 14) (size 15 to 20)
#    0.000    1.067    2.667    3.600    7.467    0.000 
#    0.000    2.000    0.000    0.000    0.000    0.000 
#    0.000    0.000    0.000    0.000    0.000    0.000 
#
# Total GULP energy -371757.875405 kJ/mol
# GULP energy per Si atom -12391.929180 kJ/mol
# Density = 2.138109 g / cm^3
# Si number density = 21.429869 Si / 1000 Ang^3
#
#
#
# Elastic Constant Matrix: (Units=GPa)
#
#
# Indices 1 2 3 4 5 6 
#
# 1 107.1651 25.8571 47.9309 0.0000 3.6512 0.0000
# 2 25.8571 86.2047 30.8231 0.0000 -5.0228 0.0000
# 3 47.9309 30.8231 119.7194 0.0000 7.3456 0.0000
# 4 0.0000 0.0000 0.0000 25.3013 0.0000 2.2547
# 5 3.6512 -5.0228 7.3456 0.0000 44.9146 0.0000
# 6 0.0000 0.0000 0.0000 2.2547 0.0000 25.6393
#
#
#
# Elastic Compliance Matrix: (Units=1/GPa)
#
#
# Indices 1 2 3 4 5 6 
#
# 1 0.011688 -0.002063 -0.004117 0.000000 -0.000508 0.000000
# 2 -0.002063 0.013319 -0.002732 0.000000 0.002104 0.000000
# 3 -0.004117 -0.002732 0.010811 0.000000 -0.001739 0.000000
# 4 0.000000 0.000000 0.000000 0.039836 0.000000 -0.003503
# 5 -0.000508 0.002104 -0.001739 0.000000 0.022825 0.000000
# 6 0.000000 0.000000 0.000000 -0.003503 0.000000 0.039311
#
#
# Mechanical properties :
#
#
# Convention : Reuss Voigt Hill
#
# Bulk Modulus (GPa) = 55.57703 58.03462 56.80582
# Shear Modulus (GPa) = 30.93826 33.06958 32.00392
#
# Velocity S-wave (km/s) = 3.80372 3.93256 3.86868
# Velocity P-wave (km/s) = 6.72917 6.91086 6.82062
#
# Compressibility (1/GPa) = 0.01799305
#
# Stress axis : x y z
#
# Youngs Moduli (GPa) = 85.55845 75.08276 92.49623
#
# Poissons Ratio (x) = 0.15492 0.38081
# Poissons Ratio (y) = 0.17653 0.25271
# Poissons Ratio (z) = 0.35225 0.20513
#
# Static dielectric constant tensor:
#      x y z
#    x 4.263650 0.000000 0.226240 
#    y 0.000000 3.760230 0.000000 
#    z 0.226240 0.000000 4.226210 
# 
# 
# High freq. dielectric constant tensor:
#      x y z
#    x 1.861670 0.000000 0.008240 
#    y 0.000000 1.807500 0.000000 
#    z 0.008240 0.000000 1.859790 
# 
# From -- ./inp_files/213983.got.cif
#   From: 2010.06.25/outbox.cif.g09.slc.cpg/sg15_107_cif.got.tgz:213983.got - 2010.06.28 07:06:18.
