data_PCOD8148047
_publ_section_title
;
Structure prediction by ZEFSAII (Michael W. Deem and Ramdas Pophale) SiO2 
 PCOD8148047
Probable space group: C 2/C
;
_chemical_formula_sum "Si O2"
_cell_formula_units_Z 56
_cell_length_a 8.216713
_cell_length_b 29.113562
_cell_length_c 15.329236
_cell_angle_alpha 90.000000
_cell_angle_beta 48.237858
_cell_angle_gamma 90.000000
_cell_volume 2735.294161
_symmetry_space_group_name_H-M "C 2/C"
_symmetry_group_IT_number 15
_symmetry_cell_setting 'monoclinic'
loop_
_space_group_symop_operation_xyz
x,y,z
-x,y,1/2-z
-x,-y,-z
x,-y,1/2+z
1/2+x,1/2+y,z
1/2-x,1/2+y,1/2-z
1/2-x,1/2-y,-z
1/2+x,1/2-y,1/2+z
loop_
_atom_site_type_symbol
_atom_site_label
_atom_site_fract_x
_atom_site_fract_y
_atom_site_fract_z
Si Si1 0.113588 0.926335 0.942091
Si Si2 0.500000 0.694984 0.750000
Si Si3 0.855711 0.245260 0.056771
Si Si4 0.395580 0.660871 0.156530
Si Si5 0.266367 0.623150 0.934426
Si Si6 0.842664 0.679219 0.089826
Si Si7 0.249993 0.977494 0.331116
Si Si8 0.500000 0.451437 0.250000
O O1 0.101284 0.893591 0.862646
O O2 0.248887 0.971695 0.871694
O O3 0.241102 0.894392 0.964642
O O4 0.877677 0.940873 0.063412
O O5 0.287693 0.727802 0.818210
O O6 0.457915 0.661459 0.848965
O O7 0.875681 0.192139 0.076746
O O8 0.750000 0.250000 0.000000
O O9 0.090928 0.269105 0.961633
O O10 0.626317 0.669422 0.116189
O O11 0.198870 0.674205 0.291647
O O12 0.307752 0.578995 0.859420
O O13 0.032876 0.644239 0.993239
O O14 0.500000 0.960752 0.250000
O O15 0.130885 0.980281 0.278050
#
# Coordination Sequence:
#
# PCOD8148047 Si02
#       8
#     8   4   8   8   8   8   8   4
#     4  10  23  41  60  92 121 154 209 253 297 376
#     4   9  18  34  58  86 114 154 202 242 296 363
#     4  11  21  37  60  85 120 161 202 246 303 355
#     4  11  23  38  58  86 125 155 206 248 298 369
#     4   9  19  38  62  87 119 157 204 247 300 365
#     4  10  23  37  57  89 121 163 197 248 303 355
#     4  10  23  43  65  92 125 159 204 256 318 366
#     4   9  20  40  66  92 122 158 206 256 306 383
#
# _framework density 20.473117999999999
#
# number of rings (size 3 to 8) (size 9 to 14) (size 15 to 20)
#    0.000    2.000    0.000    3.000    4.000    2.286 
#    0.000    2.143    3.143    0.000    0.000    0.000 
#    0.000    0.000    0.000    0.000    0.000    0.000 
#
# Total GULP energy -346969.512537 kJ/mol
# GULP energy per Si atom -12391.768305 kJ/mol
# Density = 2.042652 g / cm^3
# Si number density = 20.473118 Si / 1000 Ang^3
#
#
#
# Elastic Constant Matrix: (Units=GPa)
#
#
# Indices 1 2 3 4 5 6 
#
# 1 68.3700 19.8600 34.2685 0.0000 -3.3941 0.0000
# 2 19.8600 106.0049 34.7989 0.0000 0.6020 0.0000
# 3 34.2685 34.7989 98.7293 0.0000 -7.9638 0.0000
# 4 0.0000 0.0000 0.0000 27.0079 0.0000 8.2492
# 5 -3.3941 0.6020 -7.9638 0.0000 32.2838 0.0000
# 6 0.0000 0.0000 0.0000 8.2492 0.0000 28.6113
#
#
#
# Elastic Compliance Matrix: (Units=1/GPa)
#
#
# Indices 1 2 3 4 5 6 
#
# 1 0.017920 -0.001506 -0.005647 0.000000 0.000519 0.000000
# 2 -0.001506 0.010836 -0.003393 0.000000 -0.001197 0.000000
# 3 -0.005647 -0.003393 0.013511 0.000000 0.002802 0.000000
# 4 0.000000 0.000000 0.000000 0.040602 0.000000 -0.011706
# 5 0.000519 -0.001197 0.002802 0.000000 0.031743 0.000000
# 6 0.000000 0.000000 0.000000 -0.011706 0.000000 0.038326
#
#
# Mechanical properties :
#
#
# Convention : Reuss Voigt Hill
#
# Bulk Modulus (GPa) = 47.22815 50.10656 48.66736
# Shear Modulus (GPa) = 27.61047 29.85904 28.73476
#
# Velocity S-wave (km/s) = 3.67634 3.82311 3.75044
# Velocity P-wave (km/s) = 6.41398 6.63443 6.52514
#
# Compressibility (1/GPa) = 0.02117381
#
# Stress axis : x y z
#
# Youngs Moduli (GPa) = 55.80311 92.28097 74.01454
#
# Poissons Ratio (x) = 0.13902 0.41797
# Poissons Ratio (y) = 0.08407 0.25115
# Poissons Ratio (z) = 0.31513 0.31313
#
# Static dielectric constant tensor:
#      x y z
#    x 3.440360 0.000000 -0.038110 
#    y 0.000000 4.111470 0.000000 
#    z -0.038110 0.000000 4.174670 
# 
# 
# High freq. dielectric constant tensor:
#      x y z
#    x 1.773370 0.000000 -0.004210 
#    y 0.000000 1.809200 0.000000 
#    z -0.004210 0.000000 1.815590 
# 
# From -- ./inp_files/139484.got.cif
#   From: 2010.06.25/outbox.cif.g09.slc.cpg/sg15_70_cif.got.tgz:139484.got - 2010.06.28 07:06:18.
