data_PCOD8148740
_publ_section_title
;
Structure prediction by ZEFSAII (Michael W. Deem and Ramdas Pophale) SiO2 
 PCOD8148740
Probable space group: C 2/C
;
_chemical_formula_sum "Si O2"
_cell_formula_units_Z 40
_cell_length_a 21.184881
_cell_length_b 5.266786
_cell_length_c 14.693914
_cell_angle_alpha 90.000000
_cell_angle_beta 106.210162
_cell_angle_gamma 90.000000
_cell_volume 1574.312278
_symmetry_space_group_name_H-M "C 2/C"
_symmetry_group_IT_number 15
_symmetry_cell_setting 'monoclinic'
loop_
_space_group_symop_operation_xyz
x,y,z
-x,y,1/2-z
-x,-y,-z
x,-y,1/2+z
1/2+x,1/2+y,z
1/2-x,1/2+y,1/2-z
1/2-x,1/2-y,-z
1/2+x,1/2-y,1/2+z
loop_
_atom_site_type_symbol
_atom_site_label
_atom_site_fract_x
_atom_site_fract_y
_atom_site_fract_z
Si Si1 0.408220 0.084690 0.786902
Si Si2 0.883479 0.964785 0.020883
Si Si3 0.315023 0.284961 0.341727
Si Si4 0.690085 0.464841 0.837220
Si Si5 0.053029 0.516505 0.891764
O O1 0.366391 0.941786 0.846658
O O2 0.479117 0.124471 0.861802
O O3 0.421344 0.929476 0.698092
O O4 0.373797 0.341917 0.738263
O O5 0.828903 0.899787 0.076011
O O6 0.906123 0.251105 0.050932
O O7 0.938195 0.740689 0.043710
O O8 0.851274 0.978228 0.907239
O O9 0.285353 0.337677 0.229396
O O10 0.252765 0.215929 0.380492
#
# Coordination Sequence:
#
# PCOD8148740 Si02
#       5
#     8   8   8   8   8
#     4  10  23  42  69  93 136 182 222 278 337 400
#     4  11  26  44  70 101 135 176 225 283 335 398
#     4  12  24  42  71  96 135 181 225 277 339 402
#     4  11  24  46  65 103 135 180 226 281 336 404
#     4  10  24  45  67  99 136 177 225 280 337 395
#
# _framework density 25.407920000000001
#
# number of rings (size 3 to 8) (size 9 to 14) (size 15 to 20)
#    0.000    1.200    4.000    0.600    5.600    3.200 
#    0.000    4.000    0.000    0.000    0.000    0.000 
#    0.000    0.000    0.000    0.000    0.000    0.000 
#
# Total GULP energy -247855.883630 kJ/mol
# GULP energy per Si atom -12392.794182 kJ/mol
# Density = 2.535009 g / cm^3
# Si number density = 25.407920 Si / 1000 Ang^3
#
#
#
# Elastic Constant Matrix: (Units=GPa)
#
#
# Indices 1 2 3 4 5 6 
#
# 1 98.5453 -5.0092 9.7060 0.0000 8.3001 0.0000
# 2 -5.0092 61.8081 -5.4955 0.0000 0.5745 0.0000
# 3 9.7060 -5.4955 77.1131 0.0000 -6.1028 0.0000
# 4 0.0000 0.0000 0.0000 35.2329 0.0000 0.4692
# 5 8.3001 0.5745 -6.1028 0.0000 29.2721 0.0000
# 6 0.0000 0.0000 0.0000 0.4692 0.0000 23.4834
#
#
#
# Elastic Compliance Matrix: (Units=1/GPa)
#
#
# Indices 1 2 3 4 5 6 
#
# 1 0.010621 0.000754 -0.001548 0.000000 -0.003349 0.000000
# 2 0.000754 0.016336 0.001044 0.000000 -0.000317 0.000000
# 3 -0.001548 0.001044 0.013493 0.000000 0.003232 0.000000
# 4 0.000000 0.000000 0.000000 0.028390 0.000000 -0.000567
# 5 -0.003349 -0.000317 0.003232 0.000000 0.035792 0.000000
# 6 0.000000 0.000000 0.000000 -0.000567 0.000000 0.042595
#
#
# Mechanical properties :
#
#
# Convention : Reuss Voigt Hill
#
# Bulk Modulus (GPa) = 24.41990 26.20768 25.31379
# Shear Modulus (GPa) = 31.17684 33.48202 32.32943
#
# Velocity S-wave (km/s) = 3.50673 3.63406 3.57096
# Velocity P-wave (km/s) = 5.10179 5.28637 5.19490
#
# Compressibility (1/GPa) = 0.04095020
#
# Stress axis : x y z
#
# Youngs Moduli (GPa) = 94.15744 61.21439 74.11255
#
# Poissons Ratio (x) = -0.04617 0.11473
# Poissons Ratio (y) = -0.07101 -0.07739
# Poissons Ratio (z) = 0.14576 -0.06392
#
# Static dielectric constant tensor:
#      x y z
#    x 4.674440 0.000000 -0.169580 
#    y 0.000000 4.086040 0.000000 
#    z -0.169580 0.000000 4.703730 
# 
# 
# High freq. dielectric constant tensor:
#      x y z
#    x 2.016510 0.000000 -0.006270 
#    y 0.000000 1.990690 0.000000 
#    z -0.006270 0.000000 2.023380 
# 
# From -- ./inp_files/170593.got.cif
#   From: 2010.06.25/outbox.cif.g09.slc.cpg/sg15_86_cif.got.tgz:170593.got - 2010.06.28 07:06:18.
