data_PCOD8148807
_publ_section_title
;
Structure prediction by ZEFSAII (Michael W. Deem and Ramdas Pophale) SiO2 
 PCOD8148807
Probable space group: C 2/C
;
_chemical_formula_sum "Si O2"
_cell_formula_units_Z 40
_cell_length_a 22.704639
_cell_length_b 8.883297
_cell_length_c 14.412399
_cell_angle_alpha 90.000000
_cell_angle_beta 36.203224
_cell_angle_gamma 90.000000
_cell_volume 1716.943714
_symmetry_space_group_name_H-M "C 2/C"
_symmetry_group_IT_number 15
_symmetry_cell_setting 'monoclinic'
loop_
_space_group_symop_operation_xyz
x,y,z
-x,y,1/2-z
-x,-y,-z
x,-y,1/2+z
1/2+x,1/2+y,z
1/2-x,1/2+y,1/2-z
1/2-x,1/2-y,-z
1/2+x,1/2-y,1/2+z
loop_
_atom_site_type_symbol
_atom_site_label
_atom_site_fract_x
_atom_site_fract_y
_atom_site_fract_z
Si Si1 0.302445 0.871841 0.577513
Si Si2 0.000000 0.225097 0.250000
Si Si3 0.470621 0.513458 0.929744
Si Si4 0.804109 0.406554 0.934566
Si Si5 0.761294 0.449499 0.300488
Si Si6 0.000000 0.729223 0.250000
O O1 0.405035 0.823395 0.398312
O O2 0.233755 0.732303 0.698115
O O3 0.324402 0.985362 0.634667
O O4 0.243794 0.971364 0.574404
O O5 0.027993 0.119302 0.302161
O O6 0.498745 0.671853 0.846280
O O7 0.500000 0.500000 0.000000
O O8 0.352829 0.496365 0.066016
O O9 0.814834 0.475088 0.819596
O O10 0.907995 0.382696 0.855191
O O11 0.750000 0.250000 0.000000
#
# Coordination Sequence:
#
# PCOD8148807 Si02
#       6
#     8   4   8   8   8   4
#     4  11  25  47  72 109 143 193 248 306 378 442
#     4   9  23  46  68 108 146 194 242 308 366 440
#     4  10  23  42  73 106 150 193 246 301 381 445
#     4  12  25  46  71 106 150 192 250 309 376 446
#     4  11  25  44  75 106 143 196 243 309 371 452
#     4  11  25  44  72 108 148 200 246 316 372 446
#
# _framework density 23.297211999999998
#
# number of rings (size 3 to 8) (size 9 to 14) (size 15 to 20)
#    0.000    1.200    2.000    2.400    8.400    1.600 
#    0.000    2.000    0.000    0.000    0.000    0.000 
#    0.000    0.000    0.000    0.000    0.000    0.000 
#
# Total GULP energy -247922.704352 kJ/mol
# GULP energy per Si atom -12396.135218 kJ/mol
# Density = 2.324419 g / cm^3
# Si number density = 23.297212 Si / 1000 Ang^3
#
#
#
# Elastic Constant Matrix: (Units=GPa)
#
#
# Indices 1 2 3 4 5 6 
#
# 1 139.4724 62.4255 51.6621 0.0000 35.7220 0.0000
# 2 62.4255 160.1229 67.3480 0.0000 14.7910 0.0000
# 3 51.6621 67.3480 107.3129 -0.0001 35.9338 0.0001
# 4 0.0000 0.0000 -0.0001 48.7914 0.0000 10.4353
# 5 35.7220 14.7910 35.9338 0.0000 48.5638 0.0000
# 6 0.0000 0.0000 0.0001 10.4353 0.0000 33.4585
#
#
#
# Elastic Compliance Matrix: (Units=1/GPa)
#
#
# Indices 1 2 3 4 5 6 
#
# 1 0.010481 -0.003059 -0.001138 0.000000 -0.005935 0.000000
# 2 -0.003059 0.009498 -0.005680 0.000000 0.003560 0.000000
# 3 -0.001138 -0.005680 0.016713 0.000000 -0.009799 0.000000
# 4 0.000000 0.000000 0.000000 0.021960 0.000000 -0.006849
# 5 -0.005935 0.003560 -0.009799 0.000000 0.031123 0.000000
# 6 0.000000 0.000000 0.000000 -0.006849 0.000000 0.032024
#
#
# Mechanical properties :
#
#
# Convention : Reuss Voigt Hill
#
# Bulk Modulus (GPa) = 59.04581 85.53104 72.28843
# Shear Modulus (GPa) = 33.96732 41.19424 37.58078
#
# Velocity S-wave (km/s) = 3.82252 4.20956 4.02070
# Velocity P-wave (km/s) = 6.69939 7.77303 7.25609
#
# Compressibility (1/GPa) = 0.01693600
#
# Stress axis : x y z
#
# Youngs Moduli (GPa) = 95.41163 105.28426 59.83492
#
# Poissons Ratio (x) = 0.32206 0.06812
# Poissons Ratio (y) = 0.29186 0.33989
# Poissons Ratio (z) = 0.10862 0.59806
#
# Static dielectric constant tensor:
#      x y z
#    x 3.623870 0.000000 0.817090 
#    y 0.000000 4.612550 0.000000 
#    z 0.817090 0.000000 3.689710 
# 
# 
# High freq. dielectric constant tensor:
#      x y z
#    x 1.916320 0.000000 0.020480 
#    y 0.000000 1.949870 0.000000 
#    z 0.020480 0.000000 1.916890 
# 
# From -- ./inp_files/166042.got.cif
#   From: 2010.06.25/outbox.cif.g09.slc.cpg/sg15_84_cif.got.tgz:166042.got - 2010.06.28 07:06:18.
