data_PCOD8148354
_publ_section_title
;
Structure prediction by ZEFSAII (Michael W. Deem and Ramdas Pophale) SiO2 
 PCOD8148354
Probable space group: C 2/C
;
_chemical_formula_sum "Si O2"
_cell_formula_units_Z 52
_cell_length_a 10.956963
_cell_length_b 10.438067
_cell_length_c 27.658651
_cell_angle_alpha 90.000000
_cell_angle_beta 126.017644
_cell_angle_gamma 90.000000
_cell_volume 2558.595994
_symmetry_space_group_name_H-M "C 2/C"
_symmetry_group_IT_number 15
_symmetry_cell_setting 'monoclinic'
loop_
_space_group_symop_operation_xyz
x,y,z
-x,y,1/2-z
-x,-y,-z
x,-y,1/2+z
1/2+x,1/2+y,z
1/2-x,1/2+y,1/2-z
1/2-x,1/2-y,-z
1/2+x,1/2-y,1/2+z
loop_
_atom_site_type_symbol
_atom_site_label
_atom_site_fract_x
_atom_site_fract_y
_atom_site_fract_z
Si Si1 0.000000 0.121291 0.750000
Si Si2 0.975729 0.106517 0.934675
Si Si3 0.998354 0.263035 0.848447
Si Si4 0.772391 0.077281 0.435160
Si Si5 0.296615 0.983571 0.847688
Si Si6 0.426484 0.863166 0.071180
Si Si7 0.788617 0.327870 0.940421
O O1 0.970270 0.214879 0.788059
O O2 0.857349 0.027189 0.712852
O O3 0.974461 0.141556 0.878133
O O4 0.885635 0.210398 0.944207
O O5 0.898326 0.966816 0.924941
O O6 0.146237 0.107118 0.994874
O O7 0.881019 0.376482 0.834688
O O8 0.174437 0.302988 0.893882
O O9 0.654551 0.964296 0.413602
O O10 0.396471 0.111992 0.878902
O O11 0.256314 0.929122 0.891137
O O12 0.372288 0.721537 0.075249
O O13 0.384901 0.891805 0.005798
#
# Coordination Sequence:
#
# PCOD8148354 Si02
#       7
#     4   8   8   8   8   8   8
#     4  12  28  40  60  84 104 168 216 224 296 340
#     4   9  18  33  57  88 116 146 181 229 298 352
#     4  10  23  41  56  80 116 148 194 246 278 336
#     4   9  18  33  57  88 116 146 181 229 298 352
#     4  10  23  41  56  80 116 148 194 246 278 336
#     4   9  18  33  57  88 116 146 181 229 298 352
#     4   9  18  33  57  88 116 146 181 229 298 352
#
# _framework density 20.323646
#
# number of rings (size 3 to 8) (size 9 to 14) (size 15 to 20)
#    0.000    2.462    0.000    0.923    4.308    2.462 
#    0.000    0.000    0.000    0.000    0.000    0.000 
#    0.000    0.000    0.000    0.000    0.000    0.000 
#
# Total GULP energy -322284.541784 kJ/mol
# GULP energy per Si atom -12395.559299 kJ/mol
# Density = 2.027739 g / cm^3
# Si number density = 20.323646 Si / 1000 Ang^3
#
#
#
# Elastic Constant Matrix: (Units=GPa)
#
#
# Indices 1 2 3 4 5 6 
#
# 1 97.7239 48.7554 74.9806 0.0000 4.6435 0.0000
# 2 48.7554 34.0764 38.1425 0.0000 1.8740 0.0000
# 3 74.9806 38.1425 133.3697 0.0000 2.2795 0.0000
# 4 0.0000 0.0000 0.0000 29.2429 0.0000 0.5950
# 5 4.6435 1.8740 2.2795 0.0000 42.0252 0.0000
# 6 0.0000 0.0000 0.0000 0.5950 0.0000 24.0730
#
#
#
# Elastic Compliance Matrix: (Units=1/GPa)
#
#
# Indices 1 2 3 4 5 6 
#
# 1 0.042945 -0.050522 -0.009661 0.000000 -0.001968 0.000000
# 2 -0.050522 0.102666 -0.000976 0.000000 0.001057 0.000000
# 3 -0.009661 -0.000976 0.013202 0.000000 0.000395 0.000000
# 4 0.000000 0.000000 0.000000 0.034214 0.000000 -0.000846
# 5 -0.001968 0.001057 0.000395 0.000000 0.023944 0.000000
# 6 0.000000 0.000000 0.000000 -0.000846 0.000000 0.041561
#
#
# Mechanical properties :
#
#
# Convention : Reuss Voigt Hill
#
# Bulk Modulus (GPa) = 27.40186 65.43633 46.41909
# Shear Modulus (GPa) = 12.72215 25.95431 19.33823
#
# Velocity S-wave (km/s) = 2.50467 3.57746 3.08801
# Velocity P-wave (km/s) = 4.67723 7.02363 5.96690
#
# Compressibility (1/GPa) = 0.03649388
#
# Stress axis : x y z
#
# Youngs Moduli (GPa) = 23.28541 9.74036 75.74672
#
# Poissons Ratio (x) = 0.49211 0.73181
# Poissons Ratio (y) = 1.17643 0.07391
# Poissons Ratio (z) = 0.22497 0.00950
#
# Static dielectric constant tensor:
#      x y z
#    x 4.028710 0.000000 0.042540 
#    y 0.000000 3.842910 0.000000 
#    z 0.042540 0.000000 3.433760 
# 
# 
# High freq. dielectric constant tensor:
#      x y z
#    x 1.805740 0.000000 0.000860 
#    y 0.000000 1.791480 0.000000 
#    z 0.000860 0.000000 1.768560 
# 
# From -- ./inp_files/269316.got.cif
#   From: 2010.06.25/outbox.cif.g09.slc.cpg/sg15_135_cif.got.tgz:269316.got - 2010.06.28 07:06:18.
