data_PCOD8148380
_publ_section_title
;
Structure prediction by ZEFSAII (Michael W. Deem and Ramdas Pophale) SiO2 
 PCOD8148380
Probable space group: C 2/C
;
_chemical_formula_sum "Si O2"
_cell_formula_units_Z 36
_cell_length_a 12.604777
_cell_length_b 13.851336
_cell_length_c 10.737127
_cell_angle_alpha 90.000000
_cell_angle_beta 107.052393
_cell_angle_gamma 90.000000
_cell_volume 1792.212998
_symmetry_space_group_name_H-M "C 2/C"
_symmetry_group_IT_number 15
_symmetry_cell_setting 'monoclinic'
loop_
_space_group_symop_operation_xyz
x,y,z
-x,y,1/2-z
-x,-y,-z
x,-y,1/2+z
1/2+x,1/2+y,z
1/2-x,1/2+y,1/2-z
1/2-x,1/2-y,-z
1/2+x,1/2-y,1/2+z
loop_
_atom_site_type_symbol
_atom_site_label
_atom_site_fract_x
_atom_site_fract_y
_atom_site_fract_z
Si Si1 0.210380 0.096274 0.736871
Si Si2 0.933517 0.510159 0.349334
Si Si3 0.674707 0.797243 0.647935
Si Si4 0.637566 0.360155 0.956544
Si Si5 0.000000 0.017880 0.250000
O O1 0.204817 0.212920 0.758084
O O2 0.200368 0.076387 0.584383
O O3 0.107071 0.048382 0.770644
O O4 0.324771 0.055320 0.828061
O O5 0.903220 0.622603 0.317304
O O6 0.000000 0.475084 0.250000
O O7 0.000000 0.500000 0.500000
O O8 0.613526 0.746385 0.507120
O O9 0.786124 0.850569 0.639478
O O10 0.523784 0.412862 0.877199
#
# Coordination Sequence:
#
# PCOD8148380 Si02
#       5
#     8   8   8   8   4
#     4  10  23  41  62  94 128 166 219 269 329 382
#     4  12  26  45  69  98 137 177 221 274 331 399
#     4   9  21  43  61  92 132 169 223 266 329 401
#     4   9  20  39  63  89 127 170 217 270 323 394
#     4  12  20  36  72  88 126 166 230 266 328 386
#
# _framework density 20.086898999999999
#
# number of rings (size 3 to 8) (size 9 to 14) (size 15 to 20)
#    1.333    0.444    2.222    2.000    1.556    1.778 
#    0.000    1.111    0.000    0.000    0.000    0.000 
#    0.000    0.000    0.000    0.000    0.000    0.000 
#
# Total GULP energy -223034.019958 kJ/mol
# GULP energy per Si atom -12390.778887 kJ/mol
# Density = 2.004118 g / cm^3
# Si number density = 20.086899 Si / 1000 Ang^3
#
#
#
# Elastic Constant Matrix: (Units=GPa)
#
#
# Indices 1 2 3 4 5 6 
#
# 1 110.5908 47.3500 32.9415 0.0000 9.3365 0.0000
# 2 47.3500 109.0833 29.5728 0.0000 12.8857 0.0000
# 3 32.9415 29.5728 84.7823 0.0000 22.3153 0.0000
# 4 0.0000 0.0000 0.0000 32.6678 0.0000 -3.4379
# 5 9.3365 12.8857 22.3153 0.0000 32.6917 0.0000
# 6 0.0000 0.0000 0.0000 -3.4379 0.0000 16.7373
#
#
#
# Elastic Compliance Matrix: (Units=1/GPa)
#
#
# Indices 1 2 3 4 5 6 
#
# 1 0.011804 -0.004313 -0.003221 0.000000 0.000527 0.000000
# 2 -0.004313 0.011801 -0.001878 0.000000 -0.002138 0.000000
# 3 -0.003221 -0.001878 0.016169 0.000000 -0.009377 0.000000
# 4 0.000000 0.000000 0.000000 0.031287 0.000000 0.006427
# 5 0.000527 -0.002138 -0.009377 0.000000 0.037682 0.000000
# 6 0.000000 0.000000 0.000000 0.006427 0.000000 0.061067
#
#
# Mechanical properties :
#
#
# Convention : Reuss Voigt Hill
#
# Bulk Modulus (GPa) = 47.72935 58.24278 52.98607
# Shear Modulus (GPa) = 25.56014 29.39217 27.47616
#
# Velocity S-wave (km/s) = 3.57105 3.82940 3.70248
# Velocity P-wave (km/s) = 6.38876 6.97214 6.68681
#
# Compressibility (1/GPa) = 0.02095147
#
# Stress axis : x y z
#
# Youngs Moduli (GPa) = 84.71907 84.73843 61.84496
#
# Poissons Ratio (x) = 0.36546 0.19918
# Poissons Ratio (y) = 0.36538 0.11614
# Poissons Ratio (z) = 0.27285 0.15913
#
# Static dielectric constant tensor:
#      x y z
#    x 3.436320 0.000000 0.064550 
#    y 0.000000 3.752980 0.000000 
#    z 0.064550 0.000000 3.354830 
# 
# 
# High freq. dielectric constant tensor:
#      x y z
#    x 1.769880 0.000000 0.002560 
#    y 0.000000 1.789760 0.000000 
#    z 0.002560 0.000000 1.761320 
# 
# From -- ./inp_files/85123.got.cif
#   From: 2010.06.25/outbox.cif.g09.slc.cpg/sg15_43_cif.got.tgz:85123.got - 2010.06.28 07:06:18.
