data_PCOD8148242
_publ_section_title
;
Structure prediction by ZEFSAII (Michael W. Deem and Ramdas Pophale) SiO2 
 PCOD8148242
Probable space group: C 2/C
;
_chemical_formula_sum "Si O2"
_cell_formula_units_Z 64
_cell_length_a 20.028598
_cell_length_b 17.331337
_cell_length_c 18.469875
_cell_angle_alpha 90.000000
_cell_angle_beta 150.089350
_cell_angle_gamma 90.000000
_cell_volume 3196.990975
_symmetry_space_group_name_H-M "C 2/C"
_symmetry_group_IT_number 15
_symmetry_cell_setting 'monoclinic'
loop_
_space_group_symop_operation_xyz
x,y,z
-x,y,1/2-z
-x,-y,-z
x,-y,1/2+z
1/2+x,1/2+y,z
1/2-x,1/2+y,1/2-z
1/2-x,1/2-y,-z
1/2+x,1/2-y,1/2+z
loop_
_atom_site_type_symbol
_atom_site_label
_atom_site_fract_x
_atom_site_fract_y
_atom_site_fract_z
Si Si1 0.773628 0.578977 0.407932
Si Si2 0.138025 0.814104 0.416353
Si Si3 0.196219 0.016825 0.716671
Si Si4 0.529336 0.674428 0.118234
Si Si5 0.056042 0.887178 0.493816
Si Si6 0.771235 0.085089 0.895215
Si Si7 0.980105 0.673825 0.812033
Si Si8 0.848234 0.983228 0.088058
O O1 0.805731 0.512268 0.378241
O O2 0.637021 0.615051 0.250275
O O3 0.752256 0.538829 0.464497
O O4 0.889096 0.640753 0.525828
O O5 0.250000 0.750000 0.500000
O O6 0.111497 0.838015 0.476467
O O7 0.186397 0.894357 0.426291
O O8 0.000000 0.785223 0.250000
O O9 0.258998 0.076831 0.718813
O O10 0.075387 0.059910 0.647186
O O11 0.156938 0.945231 0.628237
O O12 0.570902 0.758104 0.185012
O O13 0.522654 0.676168 0.024529
O O14 0.385084 0.649759 0.014832
O O15 0.633365 0.109423 0.802480
O O16 0.822803 0.004218 0.979583
O O17 0.000000 0.706395 0.750000
O O18 0.000000 0.001762 0.250000
#
# Coordination Sequence:
#
# PCOD8148242 Si02
#       8
#     8   8   8   8   8   8   8   8
#     4  11  22  39  62  92 118 165 207 255 306 369
#     4  11  24  44  66  94 127 162 208 265 328 378
#     4   9  18  37  67  91 115 156 220 266 295 359
#     4  10  23  40  63  88 126 166 212 252 305 373
#     4   9  18  40  66  93 117 157 219 264 297 366
#     4  11  21  39  63  90 120 165 208 260 305 365
#     4  12  26  38  54  95 139 162 194 251 328 387
#     4  11  20  38  68  92 114 161 219 253 295 381
#
# _framework density 20.018825
#
# number of rings (size 3 to 8) (size 9 to 14) (size 15 to 20)
#    0.000    1.500    3.750    3.000    1.750    1.500 
#   13.500    0.000    0.000    0.000    0.000    0.000 
#    0.000    0.000    0.000    0.000    0.000    0.000 
#
# Total GULP energy -396442.389417 kJ/mol
# GULP energy per Si atom -12388.824669 kJ/mol
# Density = 1.997326 g / cm^3
# Si number density = 20.018825 Si / 1000 Ang^3
#
#
#
# Elastic Constant Matrix: (Units=GPa)
#
#
# Indices 1 2 3 4 5 6 
#
# 1 98.9430 39.3206 36.7272 0.0002 -12.7238 -0.0004
# 2 39.3206 83.6984 30.9325 0.0005 -4.0813 -0.0004
# 3 36.7272 30.9325 78.5290 0.0005 -12.4352 -0.0003
# 4 0.0002 0.0005 0.0005 25.5074 0.0004 -9.2974
# 5 -12.7238 -4.0813 -12.4352 0.0004 25.3332 -0.0005
# 6 -0.0004 -0.0004 -0.0003 -9.2974 -0.0005 30.6230
#
#
#
# Elastic Compliance Matrix: (Units=1/GPa)
#
#
# Indices 1 2 3 4 5 6 
#
# 1 0.014102 -0.004950 -0.003958 0.000000 0.004342 0.000000
# 2 -0.004950 0.015727 -0.004198 0.000000 -0.002014 0.000000
# 3 -0.003958 -0.004198 0.017150 0.000000 0.005754 0.000000
# 4 0.000000 0.000000 0.000000 0.044083 0.000000 0.013384
# 5 0.004342 -0.002014 0.005754 0.000000 0.044155 0.000001
# 6 0.000000 0.000000 0.000000 0.013384 0.000001 0.036719
#
#
# Mechanical properties :
#
#
# Convention : Reuss Voigt Hill
#
# Bulk Modulus (GPa) = 48.15647 52.79235 50.47441
# Shear Modulus (GPa) = 24.38200 26.57206 25.47703
#
# Velocity S-wave (km/s) = 3.49371 3.64724 3.57130
# Velocity P-wave (km/s) = 6.35472 6.64568 6.50183
#
# Compressibility (1/GPa) = 0.02076564
#
# Stress axis : x y z
#
# Youngs Moduli (GPa) = 70.91378 63.58607 58.30918
#
# Poissons Ratio (x) = 0.31478 0.23076
# Poissons Ratio (y) = 0.35106 0.24480
# Poissons Ratio (z) = 0.28065 0.26695
#
# Static dielectric constant tensor:
#      x y z
#    x 3.822110 0.000000 -0.323280 
#    y 0.000000 3.536030 0.000000 
#    z -0.323280 0.000000 3.501620 
# 
# 
# High freq. dielectric constant tensor:
#      x y z
#    x 1.784930 0.000000 -0.024390 
#    y 0.000000 1.771410 0.000000 
#    z -0.024390 0.000000 1.768010 
# 
# From -- ./inp_files/216175.got.cif
#   From: 2010.06.25/outbox.cif.g09.slc.cpg/sg15_109_cif.got.tgz:216175.got - 2010.06.28 07:06:18.
