data_PCOD8148051
_publ_section_title
;
Structure prediction by ZEFSAII (Michael W. Deem and Ramdas Pophale) SiO2 
 PCOD8148051
Probable space group: C 2/C
;
_chemical_formula_sum "Si O2"
_cell_formula_units_Z 48
_cell_length_a 15.361493
_cell_length_b 10.372336
_cell_length_c 25.972527
_cell_angle_alpha 90.000000
_cell_angle_beta 34.513252
_cell_angle_gamma 90.000000
_cell_volume 2344.759772
_symmetry_space_group_name_H-M "C 2/C"
_symmetry_group_IT_number 15
_symmetry_cell_setting 'monoclinic'
loop_
_space_group_symop_operation_xyz
x,y,z
-x,y,1/2-z
-x,-y,-z
x,-y,1/2+z
1/2+x,1/2+y,z
1/2-x,1/2+y,1/2-z
1/2-x,1/2-y,-z
1/2+x,1/2-y,1/2+z
loop_
_atom_site_type_symbol
_atom_site_label
_atom_site_fract_x
_atom_site_fract_y
_atom_site_fract_z
Si Si1 0.594258 0.577001 0.315304
Si Si2 0.000000 0.729224 0.250000
Si Si3 0.206129 0.125773 0.078061
Si Si4 0.135304 0.510404 0.251124
Si Si5 0.000000 0.694746 0.750000
Si Si6 0.971221 0.657262 0.613318
Si Si7 0.256350 0.565607 0.854548
O O1 0.409006 0.550682 0.405703
O O2 0.684578 0.518576 0.320309
O O3 0.617213 0.731722 0.311290
O O4 0.657700 0.520567 0.230679
O O5 0.943691 0.642438 0.229537
O O6 0.859081 0.823823 0.331185
O O7 0.089966 0.222879 0.163710
O O8 0.289414 0.029023 0.076998
O O9 0.348677 0.196299 0.980392
O O10 0.038013 0.474119 0.349395
O O11 0.128348 0.398007 0.212321
O O12 0.893136 0.634728 0.595945
#
# Coordination Sequence:
#
# PCOD8148051 Si02
#       7
#     8   4   8   8   4   8   8
#     4  11  20  37  61  85 116 154 193 238 291 340
#     4  11  19  40  60  78 121 157 190 232 294 355
#     4  12  21  39  63  86 118 154 195 245 286 344
#     4  10  23  37  59  87 115 155 194 241 289 348
#     4  11  21  40  60  86 115 157 200 234 296 347
#     4  11  23  38  60  93 116 147 202 244 285 339
#     4  11  21  39  62  86 117 158 196 227 295 354
#
# _framework density 20.471181000000001
#
# number of rings (size 3 to 8) (size 9 to 14) (size 15 to 20)
#    0.000    1.000    6.667    1.000    0.000    0.000 
#    0.000    3.333    0.000    0.000    0.000    0.000 
#    0.000    0.000    0.000    0.000    0.000    0.000 
#
# Total GULP energy -297313.118716 kJ/mol
# GULP energy per Si atom -12388.046613 kJ/mol
# Density = 2.042459 g / cm^3
# Si number density = 20.471181 Si / 1000 Ang^3
#
#
#
# Elastic Constant Matrix: (Units=GPa)
#
#
# Indices 1 2 3 4 5 6 
#
# 1 142.2549 37.4038 24.6198 0.0000 -30.4087 0.0000
# 2 37.4038 86.9419 23.8289 0.0000 -6.8370 0.0000
# 3 24.6198 23.8289 77.6006 -0.0002 -24.5862 0.0000
# 4 0.0000 0.0000 -0.0002 12.3496 0.0000 -11.2941
# 5 -30.4087 -6.8370 -24.5862 0.0000 29.0381 0.0000
# 6 0.0000 0.0000 0.0000 -11.2941 0.0000 31.7914
#
#
#
# Elastic Compliance Matrix: (Units=1/GPa)
#
#
# Indices 1 2 3 4 5 6 
#
# 1 0.010140 -0.003898 0.001440 0.000000 0.010919 0.000000
# 2 -0.003898 0.014061 -0.004545 0.000000 -0.004619 0.000000
# 3 0.001440 -0.004545 0.019083 0.000000 0.016595 0.000000
# 4 0.000000 0.000000 0.000000 0.119944 0.000000 0.042611
# 5 0.010919 -0.004619 0.016595 0.000000 0.058835 0.000000
# 6 0.000000 0.000000 0.000000 0.042611 0.000000 0.046593
#
#
# Mechanical properties :
#
#
# Convention : Reuss Voigt Hill
#
# Bulk Modulus (GPa) = 34.15565 53.16695 43.66130
# Shear Modulus (GPa) = 17.09863 29.36548 23.23206
#
# Velocity S-wave (km/s) = 2.89321 3.79156 3.37243
# Velocity P-wave (km/s) = 5.28033 6.72279 6.04474
#
# Compressibility (1/GPa) = 0.02927773
#
# Stress axis : x y z
#
# Youngs Moduli (GPa) = 98.62366 71.11722 52.40254
#
# Poissons Ratio (x) = 0.27722 -0.07544
# Poissons Ratio (y) = 0.38445 0.23815
# Poissons Ratio (z) = -0.14198 0.32320
#
# Static dielectric constant tensor:
#      x y z
#    x 4.318630 0.000000 -0.205660 
#    y 0.000000 3.812920 0.000000 
#    z -0.205660 0.000000 3.237530 
# 
# 
# High freq. dielectric constant tensor:
#      x y z
#    x 1.839200 0.000000 -0.019700 
#    y 0.000000 1.801560 0.000000 
#    z -0.019700 0.000000 1.749910 
# 
# From -- ./inp_files/152133.got.cif
#   From: 2010.06.25/outbox.cif.g09.slc.cpg/sg15_77_cif.got.tgz:152133.got - 2010.06.28 07:06:18.
