data_PCOD8148655
_publ_section_title
;
Structure prediction by ZEFSAII (Michael W. Deem and Ramdas Pophale) SiO2 
 PCOD8148655
Probable space group: C 2/C
;
_chemical_formula_sum "Si O2"
_cell_formula_units_Z 64
_cell_length_a 24.728216
_cell_length_b 13.986584
_cell_length_c 9.238287
_cell_angle_alpha 90.000000
_cell_angle_beta 93.976745
_cell_angle_gamma 90.000000
_cell_volume 3187.491046
_symmetry_space_group_name_H-M "C 2/C"
_symmetry_group_IT_number 15
_symmetry_cell_setting 'monoclinic'
loop_
_space_group_symop_operation_xyz
x,y,z
-x,y,1/2-z
-x,-y,-z
x,-y,1/2+z
1/2+x,1/2+y,z
1/2-x,1/2+y,1/2-z
1/2-x,1/2-y,-z
1/2+x,1/2-y,1/2+z
loop_
_atom_site_type_symbol
_atom_site_label
_atom_site_fract_x
_atom_site_fract_y
_atom_site_fract_z
Si Si1 0.336267 0.823582 0.515462
Si Si2 0.681164 0.456064 0.104667
Si Si3 0.552055 0.886619 0.447165
Si Si4 0.702032 0.849188 0.690315
Si Si5 0.568180 0.929584 0.127253
Si Si6 0.745701 0.962213 0.125963
Si Si7 0.174602 0.837888 0.697444
Si Si8 0.866970 0.226628 0.017312
O O1 0.339739 0.820114 0.689587
O O2 0.386019 0.878023 0.455117
O O3 0.279489 0.876442 0.469362
O O4 0.334248 0.716435 0.455200
O O5 0.725395 0.416863 0.227842
O O6 0.655827 0.553229 0.164599
O O7 0.710888 0.477336 0.958911
O O8 0.635411 0.375146 0.068460
O O9 0.578738 0.924602 0.301723
O O10 0.487776 0.875052 0.419851
O O11 0.576937 0.783627 0.497368
O O12 0.565504 0.959930 0.578992
O O13 0.763717 0.826335 0.741152
O O14 0.683491 0.792102 0.544327
O O15 0.698046 0.963725 0.663281
O O16 0.136916 0.790987 0.812105
#
# Coordination Sequence:
#
# PCOD8148655 Si02
#       8
#     8   8   8   8   8   8   8   8
#     4  12  23  36  59  88 122 165 207 253 305 371
#     4  11  23  39  56  83 126 169 207 255 290 368
#     4  10  23  44  65  93 120 162 197 263 311 374
#     4  11  24  35  55  88 124 166 202 250 299 381
#     4  10  23  42  66  92 125 152 204 254 317 371
#     4  11  22  37  53  86 130 167 203 251 305 361
#     4  11  23  39  56  86 124 169 210 253 301 364
#     4  12  23  40  62  87 120 172 215 247 317 368
#
# _framework density 20.078489000000001
#
# number of rings (size 3 to 8) (size 9 to 14) (size 15 to 20)
#    0.000    1.000    6.250    2.250    7.000    0.000 
#    0.000    0.000    0.000    0.750    0.000    0.000 
#    0.000    0.000    0.000    0.000    0.000    0.000 
#
# Total GULP energy -396830.315574 kJ/mol
# GULP energy per Si atom -12400.947362 kJ/mol
# Density = 2.003279 g / cm^3
# Si number density = 20.078489 Si / 1000 Ang^3
#
#
#
# Elastic Constant Matrix: (Units=GPa)
#
#
# Indices 1 2 3 4 5 6 
#
# 1 58.1356 38.8350 15.3899 0.0000 -4.1213 0.0000
# 2 38.8350 119.4169 35.7057 0.0000 9.1939 0.0000
# 3 15.3899 35.7057 94.4061 0.0000 0.4140 0.0000
# 4 0.0000 0.0000 0.0000 35.8392 0.0000 2.0363
# 5 -4.1213 9.1939 0.4140 0.0000 21.5978 0.0000
# 6 0.0000 0.0000 0.0000 2.0363 0.0000 34.9699
#
#
#
# Elastic Compliance Matrix: (Units=1/GPa)
#
#
# Indices 1 2 3 4 5 6 
#
# 1 0.023267 -0.007921 -0.000832 0.000000 0.007827 0.000000
# 2 -0.007921 0.012488 -0.003402 0.000000 -0.006762 0.000000
# 3 -0.000832 -0.003402 0.012010 0.000000 0.001059 0.000000
# 4 0.000000 0.000000 0.000000 0.027995 0.000000 -0.001630
# 5 0.007827 -0.006762 0.001059 0.000000 0.050653 0.000000
# 6 0.000000 0.000000 0.000000 -0.001630 0.000000 0.028691
#
#
# Mechanical properties :
#
#
# Convention : Reuss Voigt Hill
#
# Bulk Modulus (GPa) = 42.63239 50.20220 46.41729
# Shear Modulus (GPa) = 26.70493 30.61659 28.66076
#
# Velocity S-wave (km/s) = 3.65091 3.90916 3.78224
# Velocity P-wave (km/s) = 6.24909 6.74038 6.49938
#
# Compressibility (1/GPa) = 0.02345635
#
# Stress axis : x y z
#
# Youngs Moduli (GPa) = 42.97897 80.07875 83.26248
#
# Poissons Ratio (x) = 0.63427 0.06924
# Poissons Ratio (y) = 0.34042 0.28327
# Poissons Ratio (z) = 0.03574 0.27244
#
# Static dielectric constant tensor:
#      x y z
#    x 3.304580 0.000000 0.016870 
#    y 0.000000 3.775980 0.000000 
#    z 0.016870 0.000000 3.950900 
# 
# 
# High freq. dielectric constant tensor:
#      x y z
#    x 1.736060 0.000000 -0.000080 
#    y 0.000000 1.785980 0.000000 
#    z -0.000080 0.000000 1.803870 
# 
# From -- ./inp_files/61936.got.cif
#   From: 2010.06.25/outbox.cif.g09.slc.cpg/sg15_31_cif.got.tgz:61936.got - 2010.06.28 07:06:18.
