data_PCOD8148558
_publ_section_title
;
Structure prediction by ZEFSAII (Michael W. Deem and Ramdas Pophale) SiO2 
 PCOD8148558
Probable space group: C 2/C
;
_chemical_formula_sum "Si O2"
_cell_formula_units_Z 52
_cell_length_a 10.540253
_cell_length_b 8.334577
_cell_length_c 25.721565
_cell_angle_alpha 90.000000
_cell_angle_beta 62.889955
_cell_angle_gamma 90.000000
_cell_volume 2011.346312
_symmetry_space_group_name_H-M "C 2/C"
_symmetry_group_IT_number 15
_symmetry_cell_setting 'monoclinic'
loop_
_space_group_symop_operation_xyz
x,y,z
-x,y,1/2-z
-x,-y,-z
x,-y,1/2+z
1/2+x,1/2+y,z
1/2-x,1/2+y,1/2-z
1/2-x,1/2-y,-z
1/2+x,1/2-y,1/2+z
loop_
_atom_site_type_symbol
_atom_site_label
_atom_site_fract_x
_atom_site_fract_y
_atom_site_fract_z
Si Si1 0.449278 0.246080 0.983943
Si Si2 0.045183 0.438403 0.644838
Si Si3 0.695966 0.827963 0.293198
Si Si4 0.000000 0.215422 0.750000
Si Si5 0.722412 0.469464 0.322310
Si Si6 0.488716 0.568715 0.933589
Si Si7 0.165607 0.577945 0.012093
O O1 0.408585 0.362462 0.039963
O O2 0.583450 0.135042 0.975714
O O3 0.489482 0.372934 0.931249
O O4 0.326700 0.118870 0.989176
O O5 0.981972 0.321196 0.700835
O O6 0.189772 0.514481 0.640688
O O7 0.086588 0.361694 0.580586
O O8 0.926986 0.574947 0.653759
O O9 0.855149 0.889089 0.281529
O O10 0.686423 0.639879 0.303684
O O11 0.684572 0.861210 0.233620
O O12 0.569076 0.384649 0.364747
O O13 0.329402 0.640341 0.974656
#
# Coordination Sequence:
#
# PCOD8148558 Si02
#       7
#     8   8   8   4   8   8   8
#     4  10  23  42  62 100 135 177 227 265 337 397
#     4  11  21  45  71  93 140 179 215 280 341 395
#     4  11  22  47  66  99 131 174 230 279 337 398
#     4  10  24  44  66 100 132 174 228 280 340 396
#     4  11  25  43  73  98 136 184 224 281 342 397
#     4  11  23  43  66 100 137 174 226 274 337 403
#     4  11  24  42  69  99 138 179 220 279 334 402
#
# _framework density 25.853328999999999
#
# number of rings (size 3 to 8) (size 9 to 14) (size 15 to 20)
#    0.000    1.231    3.077    3.692    2.154    2.462 
#   11.077    0.000    0.000    0.000    0.000    0.000 
#    0.000    0.000    0.000    0.000    0.000    0.000 
#
# Total GULP energy -322189.938912 kJ/mol
# GULP energy per Si atom -12391.920727 kJ/mol
# Density = 2.579449 g / cm^3
# Si number density = 25.853329 Si / 1000 Ang^3
#
#
#
# Elastic Constant Matrix: (Units=GPa)
#
#
# Indices 1 2 3 4 5 6 
#
# 1 78.2108 24.1950 48.6829 0.0000 -14.0984 0.0000
# 2 24.1950 82.9811 37.3154 0.0000 -17.3312 0.0000
# 3 48.6829 37.3154 135.8399 0.0000 -33.6456 0.0000
# 4 0.0000 0.0000 0.0000 35.1905 0.0000 -5.9709
# 5 -14.0984 -17.3312 -33.6456 0.0000 38.6574 0.0000
# 6 0.0000 0.0000 0.0000 -5.9709 0.0000 49.8031
#
#
#
# Elastic Compliance Matrix: (Units=1/GPa)
#
#
# Indices 1 2 3 4 5 6 
#
# 1 0.016912 -0.002463 -0.005265 0.000000 0.000481 0.000000
# 2 -0.002463 0.014528 -0.002189 0.000000 0.003710 0.000000
# 3 -0.005265 -0.002189 0.011641 0.000000 0.007230 0.000000
# 4 0.000000 0.000000 0.000000 0.029007 0.000000 0.003478
# 5 0.000481 0.003710 0.007230 0.000000 0.033999 0.000000
# 6 0.000000 0.000000 0.000000 0.003478 0.000000 0.020496
#
#
# Mechanical properties :
#
#
# Convention : Reuss Voigt Hill
#
# Bulk Modulus (GPa) = 43.01853 57.49093 50.25473
# Shear Modulus (GPa) = 32.43235 37.18613 34.80924
#
# Velocity S-wave (km/s) = 3.54570 3.79667 3.67333
# Velocity P-wave (km/s) = 5.78258 6.44246 6.12142
#
# Compressibility (1/GPa) = 0.02324580
#
# Stress axis : x y z
#
# Youngs Moduli (GPa) = 59.12970 68.83067 85.90506
#
# Poissons Ratio (x) = 0.16952 0.45232
# Poissons Ratio (y) = 0.14563 0.18809
# Poissons Ratio (z) = 0.31134 0.15070
#
# Static dielectric constant tensor:
#      x y z
#    x 4.635920 0.000000 -0.147490 
#    y 0.000000 4.860200 0.000000 
#    z -0.147490 0.000000 4.543760 
# 
# 
# High freq. dielectric constant tensor:
#      x y z
#    x 2.027650 0.000000 -0.012390 
#    y 0.000000 2.049930 0.000000 
#    z -0.012390 0.000000 2.036740 
# 
# From -- ./inp_files/309885.got.cif
#   From: 2010.06.25/outbox.cif.g09.slc.cpg/sg15_155_cif.got.tgz:309885.got - 2010.06.28 07:06:18.
