data_PCOD8148745
_publ_section_title
;
Structure prediction by ZEFSAII (Michael W. Deem and Ramdas Pophale) SiO2 
 PCOD8148745
Probable space group: C 2/C
;
_chemical_formula_sum "Si O2"
_cell_formula_units_Z 36
_cell_length_a 11.054461
_cell_length_b 9.469902
_cell_length_c 16.655691
_cell_angle_alpha 90.000000
_cell_angle_beta 76.652207
_cell_angle_gamma 90.000000
_cell_volume 1696.495017
_symmetry_space_group_name_H-M "C 2/C"
_symmetry_group_IT_number 15
_symmetry_cell_setting 'monoclinic'
loop_
_space_group_symop_operation_xyz
x,y,z
-x,y,1/2-z
-x,-y,-z
x,-y,1/2+z
1/2+x,1/2+y,z
1/2-x,1/2+y,1/2-z
1/2-x,1/2-y,-z
1/2+x,1/2-y,1/2+z
loop_
_atom_site_type_symbol
_atom_site_label
_atom_site_fract_x
_atom_site_fract_y
_atom_site_fract_z
Si Si1 0.000000 0.506431 0.750000
Si Si2 0.287594 0.826101 0.722570
Si Si3 0.380445 0.554411 0.470063
Si Si4 0.177128 0.332034 0.102967
Si Si5 0.634698 0.575308 0.698342
O O1 0.083710 0.409883 0.794081
O O2 0.079589 0.602040 0.678626
O O3 0.283416 0.749908 0.637114
O O4 0.276289 0.709837 0.795702
O O5 0.174813 0.938599 0.744817
O O6 0.500000 0.500000 0.500000
O O7 0.252474 0.548192 0.541828
O O8 0.396085 0.719179 0.441736
O O9 0.360949 0.452855 0.396828
O O10 0.500000 0.618992 0.750000
#
# Coordination Sequence:
#
# PCOD8148745 Si02
#       5
#     4   8   8   8   8
#     4  12  24  40  72  96 134 174 216 278 330 396
#     4  11  23  40  68  98 128 174 229 271 323 395
#     4  10  23  42  69  95 136 174 220 275 330 396
#     4  10  24  44  63 100 134 172 221 276 329 393
#     4  11  23  41  69  95 129 174 222 274 328 391
#
# _framework density 21.220220999999999
#
# number of rings (size 3 to 8) (size 9 to 14) (size 15 to 20)
#    0.000    1.333    3.333    1.333    6.222    0.000 
#    0.000   13.333    0.000    0.000    0.000    0.000 
#    0.000    0.000    0.000    0.000    0.000    0.000 
#
# Total GULP energy -223132.634824 kJ/mol
# GULP energy per Si atom -12396.257490 kJ/mol
# Density = 2.117192 g / cm^3
# Si number density = 21.220221 Si / 1000 Ang^3
#
#
#
# Elastic Constant Matrix: (Units=GPa)
#
#
# Indices 1 2 3 4 5 6 
#
# 1 114.0419 66.5519 68.2639 0.0000 18.3449 0.0000
# 2 66.5519 117.3233 66.7162 0.0000 11.4714 0.0000
# 3 68.2639 66.7162 141.9496 0.0000 -7.8384 0.0000
# 4 0.0000 0.0000 0.0000 15.5997 0.0000 10.9144
# 5 18.3449 11.4714 -7.8384 0.0000 39.2824 0.0000
# 6 0.0000 0.0000 0.0000 10.9144 0.0000 43.7965
#
#
#
# Elastic Compliance Matrix: (Units=1/GPa)
#
#
# Indices 1 2 3 4 5 6 
#
# 1 0.016588 -0.005355 -0.005867 0.000000 -0.007354 0.000000
# 2 -0.005355 0.014220 -0.004246 0.000000 -0.002499 0.000000
# 3 -0.005867 -0.004246 0.012216 0.000000 0.006417 0.000000
# 4 0.000000 0.000000 0.000000 0.077641 0.000000 -0.019349
# 5 -0.007354 -0.002499 0.006417 0.000000 0.030901 0.000000
# 6 0.000000 0.000000 0.000000 -0.019349 0.000000 0.027655
#
#
# Mechanical properties :
#
#
# Convention : Reuss Voigt Hill
#
# Bulk Modulus (GPa) = 82.71935 86.26431 84.49183
# Shear Modulus (GPa) = 23.34420 31.18792 27.26606
#
# Velocity S-wave (km/s) = 3.32036 3.83786 3.58845
# Velocity P-wave (km/s) = 7.33251 7.77040 7.55463
#
# Compressibility (1/GPa) = 0.01208907
#
# Stress axis : x y z
#
# Youngs Moduli (GPa) = 60.28413 70.32408 81.85843
#
# Poissons Ratio (x) = 0.37655 0.48024
# Poissons Ratio (y) = 0.32279 0.34760
# Poissons Ratio (z) = 0.35367 0.29862
#
# Static dielectric constant tensor:
#      x y z
#    x 3.978260 0.000000 0.321040 
#    y 0.000000 4.061390 0.000000 
#    z 0.321040 0.000000 3.783870 
# 
# 
# High freq. dielectric constant tensor:
#      x y z
#    x 1.834980 0.000000 0.019790 
#    y 0.000000 1.840320 0.000000 
#    z 0.019790 0.000000 1.820260 
# 
# From -- ./inp_files/194945.got.cif
#   From: 2010.06.25/outbox.cif.g09.slc.cpg/sg15_98_cif.got.tgz:194945.got - 2010.06.28 07:06:18.
