data_PCOD8148503
_publ_section_title
;
Structure prediction by ZEFSAII (Michael W. Deem and Ramdas Pophale) SiO2 
 PCOD8148503
Probable space group: C 2/C
;
_chemical_formula_sum "Si O2"
_cell_formula_units_Z 48
_cell_length_a 17.992153
_cell_length_b 9.581797
_cell_length_c 13.897345
_cell_angle_alpha 90.000000
_cell_angle_beta 107.954196
_cell_angle_gamma 90.000000
_cell_volume 2279.192046
_symmetry_space_group_name_H-M "C 2/C"
_symmetry_group_IT_number 15
_symmetry_cell_setting 'monoclinic'
loop_
_space_group_symop_operation_xyz
x,y,z
-x,y,1/2-z
-x,-y,-z
x,-y,1/2+z
1/2+x,1/2+y,z
1/2-x,1/2+y,1/2-z
1/2-x,1/2-y,-z
1/2+x,1/2-y,1/2+z
loop_
_atom_site_type_symbol
_atom_site_label
_atom_site_fract_x
_atom_site_fract_y
_atom_site_fract_z
Si Si1 0.796101 0.638830 0.579773
Si Si2 0.533782 0.029750 0.908443
Si Si3 0.000000 0.245834 0.250000
Si Si4 0.160364 0.839119 0.359285
Si Si5 0.297496 0.369211 0.913671
Si Si6 0.153558 0.128979 0.273633
Si Si7 0.000000 0.289931 0.750000
O O1 0.750000 0.750000 0.500000
O O2 0.874336 0.574248 0.560475
O O3 0.737582 0.517580 0.578493
O O4 0.809482 0.720957 0.684960
O O5 0.486719 0.155412 0.838327
O O6 0.515459 0.885122 0.848479
O O7 0.500000 0.000000 0.000000
O O8 0.069289 0.137159 0.288847
O O9 0.228092 0.733958 0.354709
O O10 0.152790 0.823515 0.472762
O O11 0.078442 0.804545 0.272890
O O12 0.191323 0.991902 0.338176
O O13 0.353329 0.383717 0.844043
#
# Coordination Sequence:
#
# PCOD8148503 Si02
#       7
#     8   8   4   8   8   8   4
#     4  11  22  45  67 100 136 172 235 284 330 419
#     4  10  23  41  68  94 134 181 217 274 349 408
#     4   9  23  42  60  98 132 164 228 278 322 412
#     4  11  24  43  64  99 131 169 225 278 330 417
#     4  11  24  42  69  94 133 178 220 278 345 405
#     4  11  23  42  67  94 133 174 216 285 343 395
#     4  11  23  44  62  96 136 168 226 274 328 416
#
# _framework density 21.060095
#
# number of rings (size 3 to 8) (size 9 to 14) (size 15 to 20)
#    0.000    1.333    3.333    1.500    2.333    2.667 
#    0.000    1.667    0.000    0.000    0.000    0.000 
#    0.000    0.000    0.000    0.000    0.000    0.000 
#
# Total GULP energy -297363.095697 kJ/mol
# GULP energy per Si atom -12390.128987 kJ/mol
# Density = 2.101216 g / cm^3
# Si number density = 21.060095 Si / 1000 Ang^3
#
#
#
# Elastic Constant Matrix: (Units=GPa)
#
#
# Indices 1 2 3 4 5 6 
#
# 1 62.6576 43.5794 45.1414 0.0000 4.3355 0.0000
# 2 43.5794 117.0653 30.4036 0.0000 -3.5382 0.0000
# 3 45.1414 30.4036 109.3305 0.0000 -15.7627 0.0000
# 4 0.0000 0.0000 0.0000 32.7486 0.0000 12.1131
# 5 4.3355 -3.5382 -15.7627 0.0000 45.2572 0.0000
# 6 0.0000 0.0000 0.0000 12.1131 0.0000 28.7879
#
#
#
# Elastic Compliance Matrix: (Units=1/GPa)
#
#
# Indices 1 2 3 4 5 6 
#
# 1 0.030731 -0.008720 -0.011357 0.000000 -0.007581 0.000000
# 2 -0.008720 0.011683 0.000635 0.000000 0.001970 0.000000
# 3 -0.011357 0.000635 0.014554 0.000000 0.006207 0.000000
# 4 0.000000 0.000000 0.000000 0.036164 0.000000 -0.015217
# 5 -0.007581 0.001970 0.006207 0.000000 0.025138 0.000000
# 6 0.000000 0.000000 0.000000 -0.015217 0.000000 0.041140
#
#
# Mechanical properties :
#
#
# Convention : Reuss Voigt Hill
#
# Bulk Modulus (GPa) = 55.29244 58.58913 56.94078
# Shear Modulus (GPa) = 24.47155 32.68735 28.57945
#
# Velocity S-wave (km/s) = 3.41249 3.94394 3.68780
# Velocity P-wave (km/s) = 6.46826 6.97280 6.72526
#
# Compressibility (1/GPa) = 0.01808566
#
# Stress axis : x y z
#
# Youngs Moduli (GPa) = 32.54070 85.59609 68.71098
#
# Poissons Ratio (x) = 0.74637 0.78032
# Poissons Ratio (y) = 0.28374 -0.04366
# Poissons Ratio (z) = 0.36955 -0.05439
#
# Static dielectric constant tensor:
#      x y z
#    x 3.721360 0.000000 0.241520 
#    y 0.000000 5.314890 0.000000 
#    z 0.241520 0.000000 7.259310 
# 
# 
# High freq. dielectric constant tensor:
#      x y z
#    x 1.808470 0.000000 0.008510 
#    y 0.000000 1.848970 0.000000 
#    z 0.008510 0.000000 1.824780 
# 
# From -- ./inp_files/166421.got.cif
#   From: 2010.06.25/outbox.cif.g09.slc.cpg/sg15_84_cif.got.tgz:166421.got - 2010.06.28 07:06:18.
