data_PCOD8148361
_publ_section_title
;
Structure prediction by ZEFSAII (Michael W. Deem and Ramdas Pophale) SiO2 
 PCOD8148361
Probable space group: C 2/C
;
_chemical_formula_sum "Si O2"
_cell_formula_units_Z 48
_cell_length_a 11.421342
_cell_length_b 8.366069
_cell_length_c 22.111455
_cell_angle_alpha 90.000000
_cell_angle_beta 90.390514
_cell_angle_gamma 90.000000
_cell_volume 2112.738820
_symmetry_space_group_name_H-M "C 2/C"
_symmetry_group_IT_number 15
_symmetry_cell_setting 'monoclinic'
loop_
_space_group_symop_operation_xyz
x,y,z
-x,y,1/2-z
-x,-y,-z
x,-y,1/2+z
1/2+x,1/2+y,z
1/2-x,1/2+y,1/2-z
1/2-x,1/2-y,-z
1/2+x,1/2-y,1/2+z
loop_
_atom_site_type_symbol
_atom_site_label
_atom_site_fract_x
_atom_site_fract_y
_atom_site_fract_z
Si Si1 0.424923 0.518327 0.311522
Si Si2 0.152283 0.883153 0.990373
Si Si3 0.179202 0.335118 0.799684
Si Si4 0.069748 0.329835 0.670306
Si Si5 0.921764 0.838497 0.932339
Si Si6 0.734431 0.075153 0.608895
O O1 0.500000 0.538632 0.250000
O O2 0.285526 0.539922 0.298864
O O3 0.449698 0.354337 0.348233
O O4 0.461307 0.651504 0.361468
O O5 0.027789 0.797371 0.978161
O O6 0.166388 0.990454 0.930090
O O7 0.250000 0.750000 0.000000
O O8 0.145359 0.998202 0.048511
O O9 0.140969 0.297171 0.732014
O O10 0.213618 0.167936 0.832822
O O11 0.059994 0.410842 0.827902
O O12 0.144888 0.435028 0.625997
O O13 0.830406 0.694501 0.937203
#
# Coordination Sequence:
#
# PCOD8148361 Si02
#       6
#     8   8   8   8   8   8
#     4  11  22  43  65  92 134 176 212 271 328 388
#     4  11  24  44  71  95 127 172 221 274 326 385
#     4  10  23  41  60  94 133 169 218 266 320 390
#     4  11  22  39  62  96 129 173 214 261 324 390
#     4  10  25  44  63 100 129 167 221 270 325 387
#     4  11  24  42  67  95 131 173 215 273 328 386
#
# _framework density 22.719325000000001
#
# number of rings (size 3 to 8) (size 9 to 14) (size 15 to 20)
#    0.000    1.333    1.667    3.500    2.333    6.000 
#   15.000    0.000    0.000    0.000    0.000    0.000 
#    0.000    0.000    0.000    0.000    0.000    0.000 
#
# Total GULP energy -297391.344590 kJ/mol
# GULP energy per Si atom -12391.306025 kJ/mol
# Density = 2.266761 g / cm^3
# Si number density = 22.719325 Si / 1000 Ang^3
#
#
#
# Elastic Constant Matrix: (Units=GPa)
#
#
# Indices 1 2 3 4 5 6 
#
# 1 119.7889 33.8671 34.4520 0.0000 11.4315 0.0000
# 2 33.8671 64.0526 20.6243 0.0000 5.6345 0.0000
# 3 34.4520 20.6243 64.0755 0.0000 -7.2330 0.0000
# 4 0.0000 0.0000 0.0000 31.3522 0.0000 0.2882
# 5 11.4315 5.6345 -7.2330 0.0000 39.0761 0.0000
# 6 0.0000 0.0000 0.0000 0.2882 0.0000 33.0712
#
#
#
# Elastic Compliance Matrix: (Units=1/GPa)
#
#
# Indices 1 2 3 4 5 6 
#
# 1 0.011332 -0.003981 -0.005230 0.000000 -0.003709 0.000000
# 2 -0.003981 0.019334 -0.004357 0.000000 -0.002430 0.000000
# 3 -0.005230 -0.004357 0.020493 0.000000 0.005951 0.000000
# 4 0.000000 0.000000 0.000000 0.031898 0.000000 -0.000278
# 5 -0.003709 -0.002430 0.005951 0.000000 0.028128 0.000000
# 6 0.000000 0.000000 0.000000 -0.000278 0.000000 0.030240
#
#
# Mechanical properties :
#
#
# Convention : Reuss Voigt Hill
#
# Bulk Modulus (GPa) = 41.62790 47.31152 44.46971
# Shear Modulus (GPa) = 28.31766 31.29813 29.80789
#
# Velocity S-wave (km/s) = 3.53429 3.71563 3.62609
# Velocity P-wave (km/s) = 5.91755 6.26717 6.09487
#
# Compressibility (1/GPa) = 0.02402235
#
# Stress axis : x y z
#
# Youngs Moduli (GPa) = 88.24761 51.72303 48.79765
#
# Poissons Ratio (x) = 0.20592 0.25521
# Poissons Ratio (y) = 0.35134 0.21260
# Poissons Ratio (z) = 0.46154 0.22534
#
# Static dielectric constant tensor:
#      x y z
#    x 4.290110 0.000000 -0.040620 
#    y 0.000000 4.021020 0.000000 
#    z -0.040620 0.000000 3.991760 
# 
# 
# High freq. dielectric constant tensor:
#      x y z
#    x 1.910420 0.000000 0.004250 
#    y 0.000000 1.881200 0.000000 
#    z 0.004250 0.000000 1.897090 
# 
# From -- ./inp_files/267789.got.cif
#   From: 2010.06.25/outbox.cif.g09.slc.cpg/sg15_134_cif.got.tgz:267789.got - 2010.06.28 07:06:18.
