data_PCOD8148595
_publ_section_title
;
Structure prediction by ZEFSAII (Michael W. Deem and Ramdas Pophale) SiO2 
 PCOD8148595
Probable space group: C 2/C
;
_chemical_formula_sum "Si O2"
_cell_formula_units_Z 56
_cell_length_a 11.447252
_cell_length_b 9.148210
_cell_length_c 26.868755
_cell_angle_alpha 90.000000
_cell_angle_beta 66.667657
_cell_angle_gamma 90.000000
_cell_volume 2583.646289
_symmetry_space_group_name_H-M "C 2/C"
_symmetry_group_IT_number 15
_symmetry_cell_setting 'monoclinic'
loop_
_space_group_symop_operation_xyz
x,y,z
-x,y,1/2-z
-x,-y,-z
x,-y,1/2+z
1/2+x,1/2+y,z
1/2-x,1/2+y,1/2-z
1/2-x,1/2-y,-z
1/2+x,1/2-y,1/2+z
loop_
_atom_site_type_symbol
_atom_site_label
_atom_site_fract_x
_atom_site_fract_y
_atom_site_fract_z
Si Si1 0.193344 0.178158 0.805961
Si Si2 0.011814 0.182218 0.079919
Si Si3 0.424352 0.852720 0.520480
Si Si4 0.966935 0.854863 0.419314
Si Si5 0.770720 0.195557 0.874432
Si Si6 0.143960 0.393430 0.724466
Si Si7 0.692578 0.625568 0.132832
O O1 0.170427 0.266457 0.759607
O O2 0.289371 0.261435 0.826208
O O3 0.060708 0.161837 0.856527
O O4 0.256422 0.023009 0.782429
O O5 0.877514 0.265173 0.099626
O O6 0.060526 0.174800 0.128996
O O7 0.011530 0.015289 0.061040
O O8 0.103030 0.274907 0.027880
O O9 0.515301 0.754062 0.538760
O O10 0.292953 0.874763 0.570854
O O11 0.500000 0.000000 0.500000
O O12 0.826693 0.819301 0.421071
O O13 0.839102 0.324490 0.832882
O O14 0.800812 0.036882 0.844346
O O15 0.000000 0.453798 0.750000
#
# Coordination Sequence:
#
# PCOD8148595 Si02
#       7
#     8   8   8   8   8   8   8
#     4  11  24  44  65  96 126 167 213 269 323 387
#     4  11  22  42  65  93 129 174 214 261 329 383
#     4  11  22  41  63  95 129 172 216 266 319 385
#     4  10  23  42  64  90 130 166 213 263 320 385
#     4  11  22  43  67  94 128 171 213 269 327 388
#     4  12  25  44  69  98 132 169 220 269 333 394
#     4  10  24  42  65  94 134 167 215 269 322 388
#
# _framework density 21.674793999999999
#
# number of rings (size 3 to 8) (size 9 to 14) (size 15 to 20)
#    0.000    1.143    4.286    1.714    0.000    4.000 
#    2.571    0.000    0.000    0.000    0.000    0.000 
#    0.000    0.000    0.000    0.000    0.000    0.000 
#
# Total GULP energy -347118.810848 kJ/mol
# GULP energy per Si atom -12397.100387 kJ/mol
# Density = 2.162546 g / cm^3
# Si number density = 21.674794 Si / 1000 Ang^3
#
#
#
# Elastic Constant Matrix: (Units=GPa)
#
#
# Indices 1 2 3 4 5 6 
#
# 1 108.9443 34.0449 1.5779 0.0000 4.6434 0.0000
# 2 34.0449 122.0963 10.3969 0.0000 16.4260 0.0000
# 3 1.5779 10.3969 37.2857 0.0000 7.1037 0.0000
# 4 0.0000 0.0000 0.0000 40.4694 0.0000 7.4433
# 5 4.6434 16.4260 7.1037 0.0000 22.1397 0.0000
# 6 0.0000 0.0000 0.0000 7.4433 0.0000 41.2047
#
#
#
# Elastic Compliance Matrix: (Units=1/GPa)
#
#
# Indices 1 2 3 4 5 6 
#
# 1 0.010060 -0.002819 0.000388 0.000000 -0.000143 0.000000
# 2 -0.002819 0.009951 -0.001450 0.000000 -0.006326 0.000000
# 3 0.000388 -0.001450 0.028778 0.000000 -0.008239 0.000000
# 4 0.000000 0.000000 0.000000 0.025559 0.000000 -0.004617
# 5 -0.000143 -0.006326 -0.008239 0.000000 0.052535 0.000000
# 6 0.000000 0.000000 0.000000 -0.004617 0.000000 0.025103
#
#
# Mechanical properties :
#
#
# Convention : Reuss Voigt Hill
#
# Bulk Modulus (GPa) = 24.37500 40.04064 32.20782
# Shear Modulus (GPa) = 28.83098 35.58319 32.20708
#
# Velocity S-wave (km/s) = 3.65109 4.05617 3.85895
# Velocity P-wave (km/s) = 5.38927 6.36004 5.89467
#
# Compressibility (1/GPa) = 0.04102564
#
# Stress axis : x y z
#
# Youngs Moduli (GPa) = 99.39954 100.49370 34.74923
#
# Poissons Ratio (x) = 0.28329 -0.01347
# Poissons Ratio (y) = 0.28021 0.05039
# Poissons Ratio (z) = -0.03852 0.14573
#
# Static dielectric constant tensor:
#      x y z
#    x 4.033310 0.000000 -0.050660 
#    y 0.000000 4.065930 0.000000 
#    z -0.050660 0.000000 3.836050 
# 
# 
# High freq. dielectric constant tensor:
#      x y z
#    x 1.858450 0.000000 0.002140 
#    y 0.000000 1.866430 0.000000 
#    z 0.002140 0.000000 1.842060 
# 
# From -- ./inp_files/310222.got.cif
#   From: 2010.06.25/outbox.cif.g09.slc.cpg/sg15_156_cif.got.tgz:310222.got - 2010.06.28 07:06:18.
