data_PCOD8148815
_publ_section_title
;
Structure prediction by ZEFSAII (Michael W. Deem and Ramdas Pophale) SiO2 
 PCOD8148815
Probable space group: C 2/C
;
_chemical_formula_sum "Si O2"
_cell_formula_units_Z 60
_cell_length_a 15.433303
_cell_length_b 16.321944
_cell_length_c 14.410074
_cell_angle_alpha 90.000000
_cell_angle_beta 125.398096
_cell_angle_gamma 90.000000
_cell_volume 2958.918042
_symmetry_space_group_name_H-M "C 2/C"
_symmetry_group_IT_number 15
_symmetry_cell_setting 'monoclinic'
loop_
_space_group_symop_operation_xyz
x,y,z
-x,y,1/2-z
-x,-y,-z
x,-y,1/2+z
1/2+x,1/2+y,z
1/2-x,1/2+y,1/2-z
1/2-x,1/2-y,-z
1/2+x,1/2-y,1/2+z
loop_
_atom_site_type_symbol
_atom_site_label
_atom_site_fract_x
_atom_site_fract_y
_atom_site_fract_z
Si Si1 0.000000 0.984422 0.250000
Si Si2 0.068722 0.777622 0.594785
Si Si3 0.898572 0.596603 0.897864
Si Si4 0.229216 0.445786 0.360131
Si Si5 0.421375 0.441068 0.008219
Si Si6 0.842950 0.196591 0.011110
Si Si7 0.154674 0.885059 0.806098
Si Si8 0.868087 0.452748 0.002921
O O1 0.058940 0.934538 0.368232
O O2 0.086726 0.034130 0.241817
O O3 0.126674 0.692964 0.602148
O O4 0.072077 0.846684 0.518282
O O5 0.133535 0.810676 0.723535
O O6 0.945152 0.753721 0.538918
O O7 0.835853 0.553738 0.774791
O O8 0.022168 0.588978 0.953722
O O9 0.866844 0.548174 0.971384
O O10 0.303319 0.525790 0.413343
O O11 0.297009 0.361375 0.401864
O O12 0.149974 0.446554 0.398529
O O13 0.500000 0.500000 0.000000
O O14 0.889846 0.137236 0.119463
O O15 0.750000 0.250000 0.000000
O O16 0.280032 0.902435 0.889855
#
# Coordination Sequence:
#
# PCOD8148815 Si02
#       8
#     4   8   8   8   8   8   8   8
#     4  12  20  38  64  90 124 170 200 262 316 384
#     4  12  22  37  60  98 130 155 207 267 322 375
#     4  11  25  40  62  88 128 166 212 266 309 379
#     4  11  21  40  65  90 117 171 206 256 322 384
#     4  12  22  39  66  96 129 163 210 260 328 387
#     4  11  20  32  56  94 129 152 202 262 323 372
#     4  11  18  36  60  87 122 157 203 263 314 369
#     4  10  23  43  60  86 123 171 217 249 314 387
#
# _framework density 20.277681999999999
#
# number of rings (size 3 to 8) (size 9 to 14) (size 15 to 20)
#    0.000    0.800    6.667    3.600    0.000    1.067 
#    0.000    0.667    5.867    0.000    0.000    0.000 
#    0.000    0.000    0.000    0.000    0.000    0.000 
#
# Total GULP energy -371878.438674 kJ/mol
# GULP energy per Si atom -12395.947956 kJ/mol
# Density = 2.023153 g / cm^3
# Si number density = 20.277682 Si / 1000 Ang^3
#
#
#
# Elastic Constant Matrix: (Units=GPa)
#
#
# Indices 1 2 3 4 5 6 
#
# 1 42.6200 17.4424 20.5313 0.0000 8.3238 0.0000
# 2 17.4424 110.0290 38.1161 0.0000 -3.9466 0.0000
# 3 20.5313 38.1161 103.0690 0.0000 10.8460 0.0000
# 4 0.0000 0.0000 0.0000 23.8568 0.0000 -6.9038
# 5 8.3238 -3.9466 10.8460 0.0000 24.3263 0.0000
# 6 0.0000 0.0000 0.0000 -6.9038 0.0000 28.9355
#
#
#
# Elastic Compliance Matrix: (Units=1/GPa)
#
#
# Indices 1 2 3 4 5 6 
#
# 1 0.028284 -0.003631 -0.003369 0.000000 -0.008765 0.000000
# 2 -0.003631 0.011196 -0.003923 0.000000 0.004808 0.000000
# 3 -0.003369 -0.003923 0.012349 0.000000 -0.004990 0.000000
# 4 0.000000 0.000000 0.000000 0.045026 0.000000 0.010743
# 5 -0.008765 0.004808 -0.004990 0.000000 0.047112 0.000000
# 6 0.000000 0.000000 0.000000 0.010743 0.000000 0.037123
#
#
# Mechanical properties :
#
#
# Convention : Reuss Voigt Hill
#
# Bulk Modulus (GPa) = 33.35241 45.32195 39.33718
# Shear Modulus (GPa) = 23.48203 27.39892 25.44047
#
# Velocity S-wave (km/s) = 3.40667 3.67984 3.54588
# Velocity P-wave (km/s) = 5.65309 6.36035 6.01712
#
# Compressibility (1/GPa) = 0.02998284
#
# Stress axis : x y z
#
# Youngs Moduli (GPa) = 35.35567 89.32139 80.97746
#
# Poissons Ratio (x) = 0.32433 0.27281
# Poissons Ratio (y) = 0.12838 0.31766
# Poissons Ratio (z) = 0.11911 0.35040
#
# Static dielectric constant tensor:
#      x y z
#    x 3.638980 0.000000 0.096730 
#    y 0.000000 3.724210 0.000000 
#    z 0.096730 0.000000 3.847240 
# 
# 
# High freq. dielectric constant tensor:
#      x y z
#    x 1.777480 0.000000 0.018080 
#    y 0.000000 1.781540 0.000000 
#    z 0.018080 0.000000 1.801160 
# 
# From -- ./inp_files/154275.got.cif
#   From: 2010.06.25/outbox.cif.g09.slc.cpg/sg15_78_cif.got.tgz:154275.got - 2010.06.28 07:06:18.
