data_PCOD8148198
_publ_section_title
;
Structure prediction by ZEFSAII (Michael W. Deem and Ramdas Pophale) SiO2 
 PCOD8148198
Probable space group: C 2/C
;
_chemical_formula_sum "Si O2"
_cell_formula_units_Z 52
_cell_length_a 12.697474
_cell_length_b 11.845644
_cell_length_c 18.270388
_cell_angle_alpha 90.000000
_cell_angle_beta 60.626996
_cell_angle_gamma 90.000000
_cell_volume 2394.769775
_symmetry_space_group_name_H-M "C 2/C"
_symmetry_group_IT_number 15
_symmetry_cell_setting 'monoclinic'
loop_
_space_group_symop_operation_xyz
x,y,z
-x,y,1/2-z
-x,-y,-z
x,-y,1/2+z
1/2+x,1/2+y,z
1/2-x,1/2+y,1/2-z
1/2-x,1/2-y,-z
1/2+x,1/2-y,1/2+z
loop_
_atom_site_type_symbol
_atom_site_label
_atom_site_fract_x
_atom_site_fract_y
_atom_site_fract_z
Si Si1 0.404268 0.356027 0.487687
Si Si2 0.500000 0.012940 0.250000
Si Si3 0.233220 0.635189 0.674159
Si Si4 0.607503 0.606826 0.018833
Si Si5 0.639027 0.603690 0.722911
Si Si6 0.857033 0.695305 0.378321
Si Si7 0.634957 0.366976 0.673229
O O1 0.438677 0.480380 0.446812
O O2 0.493315 0.324274 0.524394
O O3 0.264544 0.364716 0.555797
O O4 0.425201 0.264492 0.418002
O O5 0.453307 0.097843 0.328333
O O6 0.388382 0.934020 0.263960
O O7 0.282211 0.604964 0.576731
O O8 0.335317 0.605318 0.699099
O O9 0.207640 0.768388 0.688947
O O10 0.642995 0.662295 0.083896
O O11 0.500000 0.602867 0.750000
O O12 0.688090 0.719216 0.670215
O O13 0.697039 0.488589 0.669334
O O14 0.500000 0.367455 0.750000
#
# Coordination Sequence:
#
# PCOD8148198 Si02
#       7
#     8   4   8   8   8   8   8
#     4  10  23  39  69 100 134 185 228 288 336 405
#     4  12  26  42  68 104 140 180 226 282 354 400
#     4  12  27  45  70 100 144 181 225 290 351 407
#     4  11  23  43  68  99 137 182 234 274 346 408
#     4  11  25  41  69 101 131 182 233 283 336 409
#     4  11  22  42  66 101 141 175 231 286 339 407
#     4  11  26  45  68  99 140 178 235 282 340 416
#
# _framework density 21.713985999999998
#
# number of rings (size 3 to 8) (size 9 to 14) (size 15 to 20)
#    0.000    0.923    4.615    1.385   10.769    0.000 
#    0.000    0.000    0.000    4.615    0.000    0.000 
#    0.000    0.000    0.000    0.000    0.000    0.000 
#
# Total GULP energy -322308.810970 kJ/mol
# GULP energy per Si atom -12396.492730 kJ/mol
# Density = 2.166456 g / cm^3
# Si number density = 21.713986 Si / 1000 Ang^3
#
#
#
# Elastic Constant Matrix: (Units=GPa)
#
#
# Indices 1 2 3 4 5 6 
#
# 1 115.3338 44.2587 45.7096 0.0000 13.1191 0.0000
# 2 44.2587 110.2720 18.9315 0.0000 14.0432 0.0000
# 3 45.7096 18.9315 96.0548 0.0000 23.0347 0.0000
# 4 0.0000 0.0000 0.0000 7.6017 0.0000 3.7064
# 5 13.1191 14.0432 23.0347 0.0000 28.9453 0.0000
# 6 0.0000 0.0000 0.0000 3.7064 0.0000 23.2255
#
#
#
# Elastic Compliance Matrix: (Units=1/GPa)
#
#
# Indices 1 2 3 4 5 6 
#
# 1 0.012214 -0.004089 -0.005134 0.000000 0.000534 0.000000
# 2 -0.004089 0.011107 0.000747 0.000000 -0.004130 0.000000
# 3 -0.005134 0.000747 0.015121 0.000000 -0.010069 0.000000
# 4 0.000000 0.000000 0.000000 0.142649 0.000000 -0.022765
# 5 0.000534 -0.004130 -0.010069 0.000000 0.044323 0.000000
# 6 0.000000 0.000000 0.000000 -0.022765 0.000000 0.046689
#
#
# Mechanical properties :
#
#
# Convention : Reuss Voigt Hill
#
# Bulk Modulus (GPa) = 46.53250 59.94000 53.23625
# Shear Modulus (GPa) = 16.87948 26.13856 21.50902
#
# Velocity S-wave (km/s) = 2.79113 3.47330 3.15073
# Velocity P-wave (km/s) = 5.64478 6.61433 6.14869
#
# Compressibility (1/GPa) = 0.02149036
#
# Stress axis : x y z
#
# Youngs Moduli (GPa) = 81.87618 90.03160 66.13152
#
# Poissons Ratio (x) = 0.36810 0.33954
# Poissons Ratio (y) = 0.33476 -0.04940
# Poissons Ratio (z) = 0.42037 -0.06725
#
# Static dielectric constant tensor:
#      x y z
#    x 3.741820 0.000000 0.058020 
#    y 0.000000 4.528810 0.000000 
#    z 0.058020 0.000000 3.940510 
# 
# 
# High freq. dielectric constant tensor:
#      x y z
#    x 1.839650 0.000000 0.000370 
#    y 0.000000 1.865070 0.000000 
#    z 0.000370 0.000000 1.852640 
# 
# From -- ./inp_files/237484.got.cif
#   From: 2010.06.25/outbox.cif.g09.slc.cpg/sg15_119_cif.got.tgz:237484.got - 2010.06.28 07:06:18.
