data_PCOD8148095
_publ_section_title
;
Structure prediction by ZEFSAII (Michael W. Deem and Ramdas Pophale) SiO2 
 PCOD8148095
Probable space group: C 2/C
;
_chemical_formula_sum "Si O2"
_cell_formula_units_Z 32
_cell_length_a 11.481426
_cell_length_b 26.276146
_cell_length_c 5.140535
_cell_angle_alpha 90.000000
_cell_angle_beta 114.502059
_cell_angle_gamma 90.000000
_cell_volume 1411.177403
_symmetry_space_group_name_H-M "C 2/C"
_symmetry_group_IT_number 15
_symmetry_cell_setting 'monoclinic'
loop_
_space_group_symop_operation_xyz
x,y,z
-x,y,1/2-z
-x,-y,-z
x,-y,1/2+z
1/2+x,1/2+y,z
1/2-x,1/2+y,1/2-z
1/2-x,1/2-y,-z
1/2+x,1/2-y,1/2+z
loop_
_atom_site_type_symbol
_atom_site_label
_atom_site_fract_x
_atom_site_fract_y
_atom_site_fract_z
Si Si1 0.230052 0.868359 0.363603
Si Si2 0.863692 0.816926 0.706962
Si Si3 0.500000 0.846670 0.750000
Si Si4 0.500000 0.219585 0.750000
Si Si5 0.357001 0.521955 0.828962
O O1 0.167666 0.834103 0.530180
O O2 0.377319 0.881678 0.570477
O O3 0.146669 0.918997 0.248410
O O4 0.238230 0.836642 0.101365
O O5 0.877597 0.755438 0.709403
O O6 0.000000 0.842072 0.750000
O O7 0.538972 0.812539 0.538453
O O8 0.286234 0.489308 0.536429
O O9 0.500000 0.500000 0.000000
#
# Coordination Sequence:
#
# PCOD8148095 Si02
#       5
#     8   8   4   4   8
#     4  12  24  42  65  94 134 170 208 269 320 390
#     4  10  24  40  66  96 129 165 222 275 311 360
#     4  12  26  42  62  91 134 181 216 244 324 392
#     4  10  24  42  62 101 122 179 222 262 314 356
#     4  10  23  38  64  94 124 154 206 272 330 379
#
# _framework density 22.676098
#
# number of rings (size 3 to 8) (size 9 to 14) (size 15 to 20)
#    0.750    0.500    0.000    5.250   10.500    6.000 
#    0.000    1.250    0.000    0.000    0.000    0.000 
#    0.000    0.000    0.000    0.000    0.000    0.000 
#
# Total GULP energy -198294.614608 kJ/mol
# GULP energy per Si atom -12393.413413 kJ/mol
# Density = 2.262449 g / cm^3
# Si number density = 22.676098 Si / 1000 Ang^3
#
#
#
# Elastic Constant Matrix: (Units=GPa)
#
#
# Indices 1 2 3 4 5 6 
#
# 1 56.1247 29.9378 35.1601 0.0000 -15.2196 0.0000
# 2 29.9378 107.4410 50.1430 0.0000 -9.0420 0.0000
# 3 35.1601 50.1430 144.1522 0.0000 -29.5398 0.0000
# 4 0.0000 0.0000 0.0000 27.7006 0.0000 -7.3586
# 5 -15.2196 -9.0420 -29.5398 0.0000 65.5942 0.0000
# 6 0.0000 0.0000 0.0000 -7.3586 0.0000 17.8017
#
#
#
# Elastic Compliance Matrix: (Units=1/GPa)
#
#
# Indices 1 2 3 4 5 6 
#
# 1 0.023299 -0.004629 -0.003411 0.000000 0.003232 0.000000
# 2 -0.004629 0.012034 -0.003236 0.000000 -0.000872 0.000000
# 3 -0.003411 -0.003236 0.009519 0.000000 0.003050 0.000000
# 4 0.000000 0.000000 0.000000 0.040553 0.000000 0.016764
# 5 0.003232 -0.000872 0.003050 0.000000 0.017248 0.000000
# 6 0.000000 0.000000 0.000000 0.016764 0.000000 0.063104
#
#
# Mechanical properties :
#
#
# Convention : Reuss Voigt Hill
#
# Bulk Modulus (GPa) = 44.83694 59.79995 52.31845
# Shear Modulus (GPa) = 25.54373 35.05111 30.29742
#
# Velocity S-wave (km/s) = 3.35992 3.93584 3.65923
# Velocity P-wave (km/s) = 5.90489 6.86171 6.40121
#
# Compressibility (1/GPa) = 0.02230304
#
# Stress axis : x y z
#
# Youngs Moduli (GPa) = 42.91943 83.09875 105.04777
#
# Poissons Ratio (x) = 0.38462 0.35828
# Poissons Ratio (y) = 0.19865 0.33991
# Poissons Ratio (z) = 0.14638 0.26889
#
# Static dielectric constant tensor:
#      x y z
#    x 3.360610 0.000000 0.543210 
#    y 0.000000 3.743730 0.000000 
#    z 0.543210 0.000000 3.388960 
# 
# 
# High freq. dielectric constant tensor:
#      x y z
#    x 1.880840 0.000000 -0.023040 
#    y 0.000000 1.868640 0.000000 
#    z -0.023040 0.000000 1.919680 
# 
# From -- ./inp_files/5265.got.cif
#   From: 2010.06.25/outbox.cif.g09.slc.cpg/sg15_3_cif.got.tgz:5265.got - 2010.06.28 07:06:18.
