data_PCOD8148896
_publ_section_title
;
Structure prediction by ZEFSAII (Michael W. Deem and Ramdas Pophale) SiO2 
 PCOD8148896
Probable space group: C 2/C
;
_chemical_formula_sum "Si O2"
_cell_formula_units_Z 64
_cell_length_a 29.475768
_cell_length_b 9.231971
_cell_length_c 18.144853
_cell_angle_alpha 90.000000
_cell_angle_beta 142.174006
_cell_angle_gamma 90.000000
_cell_volume 3028.039435
_symmetry_space_group_name_H-M "C 2/C"
_symmetry_group_IT_number 15
_symmetry_cell_setting 'monoclinic'
loop_
_space_group_symop_operation_xyz
x,y,z
-x,y,1/2-z
-x,-y,-z
x,-y,1/2+z
1/2+x,1/2+y,z
1/2-x,1/2+y,1/2-z
1/2-x,1/2-y,-z
1/2+x,1/2-y,1/2+z
loop_
_atom_site_type_symbol
_atom_site_label
_atom_site_fract_x
_atom_site_fract_y
_atom_site_fract_z
Si Si1 0.317123 0.944726 0.175462
Si Si2 0.211268 0.503714 0.019656
Si Si3 0.339084 0.278972 0.189688
Si Si4 0.585759 0.207711 0.361952
Si Si5 0.240729 0.266543 0.680588
Si Si6 0.964400 0.348879 0.432763
Si Si7 0.098580 0.841058 0.078305
Si Si8 0.114573 0.162406 0.050769
O O1 0.260632 0.881091 0.163202
O O2 0.397294 0.872336 0.290078
O O3 0.319731 0.116490 0.189693
O O4 0.289983 0.905572 0.058134
O O5 0.263913 0.364806 0.077138
O O6 0.239065 0.601223 0.121610
O O7 0.129295 0.442975 0.930392
O O8 0.390774 0.282978 0.184275
O O9 0.384693 0.354308 0.313455
O O10 0.500000 0.167724 0.250000
O O11 0.604858 0.318802 0.451397
O O12 0.162888 0.246442 0.619658
O O13 0.300317 0.307622 0.818926
O O14 0.937295 0.275267 0.473218
O O15 0.000000 0.500000 0.500000
O O16 0.023375 0.246868 0.467457
O O17 0.088522 0.001136 0.034984
#
# Coordination Sequence:
#
# PCOD8148896 Si02
#       8
#     8   8   8   8   8   8   8   8
#     4  10  23  43  66  97 135 179 215 278 336 401
#     4  11  24  43  69  99 137 176 222 279 335 401
#     4  11  23  43  71  96 132 179 226 271 334 399
#     4  11  25  42  69 100 131 176 226 276 329 402
#     4  11  26  40  69 101 135 173 224 285 329 394
#     4  11  24  43  69  97 134 179 220 269 334 403
#     4  12  25  42  71  99 134 176 226 277 333 392
#     4  11  26  45  67 100 139 174 225 275 333 397
#
# _framework density 21.135787000000001
#
# number of rings (size 3 to 8) (size 9 to 14) (size 15 to 20)
#    0.000    1.000    2.500    3.750    8.750    0.000 
#    0.000    0.000    0.000    0.000    0.000    0.000 
#    0.000    0.000    0.000    0.000    0.000    0.000 
#
# Total GULP energy -397005.183408 kJ/mol
# GULP energy per Si atom -12406.411982 kJ/mol
# Density = 2.108768 g / cm^3
# Si number density = 21.135787 Si / 1000 Ang^3
#
#
#
# Elastic Constant Matrix: (Units=GPa)
#
#
# Indices 1 2 3 4 5 6 
#
# 1 119.5125 43.9445 50.3164 0.0000 4.5784 0.0000
# 2 43.9445 99.0414 26.8526 0.0000 -5.7276 0.0000
# 3 50.3164 26.8526 104.9600 0.0000 3.0597 0.0000
# 4 0.0000 0.0000 0.0000 31.1343 0.0000 -0.6896
# 5 4.5784 -5.7276 3.0597 0.0000 36.9513 0.0000
# 6 0.0000 0.0000 0.0000 -0.6896 0.0000 26.7545
#
#
#
# Elastic Compliance Matrix: (Units=1/GPa)
#
#
# Indices 1 2 3 4 5 6 
#
# 1 0.011884 -0.004129 -0.004590 0.000000 -0.001732 0.000000
# 2 -0.004129 0.012421 -0.001273 0.000000 0.002542 0.000000
# 3 -0.004590 -0.001273 0.012072 0.000000 -0.000628 0.000000
# 4 0.000000 0.000000 0.000000 0.032137 0.000000 0.000828
# 5 -0.001732 0.002542 -0.000628 0.000000 0.027723 0.000000
# 6 0.000000 0.000000 0.000000 0.000828 0.000000 0.037398
#
#
# Mechanical properties :
#
#
# Convention : Reuss Voigt Hill
#
# Bulk Modulus (GPa) = 60.99917 62.86011 61.92964
# Shear Modulus (GPa) = 31.42995 32.46138 31.94567
#
# Velocity S-wave (km/s) = 3.86041 3.92324 3.89195
# Velocity P-wave (km/s) = 6.98524 7.09423 7.03995
#
# Compressibility (1/GPa) = 0.01639367
#
# Stress axis : x y z
#
# Youngs Moduli (GPa) = 84.14350 80.51059 82.83688
#
# Poissons Ratio (x) = 0.33240 0.38026
# Poissons Ratio (y) = 0.34740 0.10541
# Poissons Ratio (z) = 0.38626 0.10245
#
# Static dielectric constant tensor:
#      x y z
#    x 3.953850 0.000000 -0.018240 
#    y 0.000000 3.784340 0.000000 
#    z -0.018240 0.000000 4.015870 
# 
# 
# High freq. dielectric constant tensor:
#      x y z
#    x 1.836750 0.000000 0.000660 
#    y 0.000000 1.828050 0.000000 
#    z 0.000660 0.000000 1.839010 
# 
# From -- ./inp_files/224619.got.cif
#   From: 2010.06.25/outbox.cif.g09.slc.cpg/sg15_113_cif.got.tgz:224619.got - 2010.06.28 07:06:18.
