data_PCOD8148038
_publ_section_title
;
Structure prediction by ZEFSAII (Michael W. Deem and Ramdas Pophale) SiO2 
 PCOD8148038
Probable space group: C 2/C
;
_chemical_formula_sum "Si O2"
_cell_formula_units_Z 44
_cell_length_a 20.975487
_cell_length_b 20.531773
_cell_length_c 12.659631
_cell_angle_alpha 90.000000
_cell_angle_beta 22.972728
_cell_angle_gamma 90.000000
_cell_volume 2127.895253
_symmetry_space_group_name_H-M "C 2/C"
_symmetry_group_IT_number 15
_symmetry_cell_setting 'monoclinic'
loop_
_space_group_symop_operation_xyz
x,y,z
-x,y,1/2-z
-x,-y,-z
x,-y,1/2+z
1/2+x,1/2+y,z
1/2-x,1/2+y,1/2-z
1/2-x,1/2-y,-z
1/2+x,1/2-y,1/2+z
loop_
_atom_site_type_symbol
_atom_site_label
_atom_site_fract_x
_atom_site_fract_y
_atom_site_fract_z
Si Si1 0.187888 0.106269 0.808594
Si Si2 0.978293 0.189568 0.995856
Si Si3 0.000000 0.987137 0.750000
Si Si4 0.301605 0.405841 0.440942
Si Si5 0.524231 0.842286 0.489821
Si Si6 0.347103 0.804863 0.415813
O O1 0.078199 0.170635 0.950741
O O2 0.242247 0.074601 0.613377
O O3 0.348311 0.125743 0.625952
O O4 0.078418 0.055929 0.039273
O O5 0.054377 0.149454 0.781207
O O6 0.994898 0.266355 0.951524
O O7 0.789293 0.165514 0.297291
O O8 0.142100 0.030469 0.583652
O O9 0.147617 0.377256 0.736840
O O10 0.585088 0.854391 0.276455
O O11 0.500000 0.777846 0.250000
O O12 0.250000 0.750000 0.500000
#
# Coordination Sequence:
#
# PCOD8148038 Si02
#       6
#     8   8   4   8   8   8
#     4  10  24  43  67 100 138 184 225 296 349 417
#     4   9  23  40  69 100 145 168 221 283 362 417
#     4  12  24  46  70  90 140 192 250 278 360 400
#     4  10  25  42  71  99 134 181 234 295 344 416
#     4  11  22  41  71 103 140 176 231 283 371 411
#     4  10  23  36  61  97 145 181 221 263 339 431
#
# _framework density 20.677709
#
# number of rings (size 3 to 8) (size 9 to 14) (size 15 to 20)
#    1.091    0.727    0.000    2.727   12.727    0.727 
#    0.000    0.000    0.000    0.000    0.000    0.000 
#    0.000    0.000    0.000    0.000    0.000    0.000 
#
# Total GULP energy -272633.687094 kJ/mol
# GULP energy per Si atom -12392.440322 kJ/mol
# Density = 2.063065 g / cm^3
# Si number density = 20.677709 Si / 1000 Ang^3
#
#
#
# Elastic Constant Matrix: (Units=GPa)
#
#
# Indices 1 2 3 4 5 6 
#
# 1 95.8647 21.5103 45.0650 -0.0154 -7.9276 -0.0106
# 2 21.5103 76.4832 41.5052 -0.0229 7.1104 -0.0200
# 3 45.0650 41.5052 173.5968 0.0344 -1.6255 0.0080
# 4 -0.0154 -0.0229 0.0344 -54.5627 0.0161 -55.3177
# 5 -7.9276 7.1104 -1.6255 0.0161 33.1363 0.0123
# 6 -0.0106 -0.0200 0.0080 -55.3177 0.0123 -1.7117
#
#
#
# Elastic Compliance Matrix: (Units=1/GPa)
#
#
# Indices 1 2 3 4 5 6 
#
# 1 0.012487 -0.002394 -0.002638 -0.000001 0.003372 -0.000002
# 2 -0.002394 0.015876 -0.003213 -0.000007 -0.004137 -0.000003
# 3 -0.002638 -0.003213 0.007217 0.000003 0.000412 0.000004
# 4 -0.000001 -0.000007 0.000003 0.000577 0.000008 -0.018647
# 5 0.003372 -0.004137 0.000412 0.000008 0.031893 0.000002
# 6 -0.000002 -0.000003 0.000004 -0.018647 0.000002 0.018392
#
#
# Mechanical properties :
#
#
# Convention : Reuss Voigt Hill
#
# Bulk Modulus (GPa) = 52.37998 62.45619 57.41808
# Shear Modulus (GPa) = 45.74712 11.22999 28.48856
#
# Velocity S-wave (km/s) = 4.70871 2.33297 3.71582
# Velocity P-wave (km/s) = 7.41277 6.12594 6.79987
#
# Compressibility (1/GPa) = 0.01909126
#
# Stress axis : x y z
#
# Youngs Moduli (GPa) = 80.08116 62.98679 138.55612
#
# Poissons Ratio (x) = 0.15079 0.36547
# Poissons Ratio (y) = 0.19172 0.44520
# Poissons Ratio (z) = 0.21123 0.20238
#
# Static dielectric constant tensor:
#      x y z
#    x 3.746260 0.000000 0.184700 
#    y 0.000000 3.432340 0.000030 
#    z 0.184700 0.000030 4.285970 
# 
# 
# High freq. dielectric constant tensor:
#      x y z
#    x 1.812830 0.000000 0.003590 
#    y 0.000000 1.776320 0.000000 
#    z 0.003590 0.000000 1.828810 
# 
# From -- ./inp_files/174404.got.cif
#   From: 2010.06.25/outbox.cif.g09.slc.cpg/sg15_88_cif.got.tgz:174404.got - 2010.06.28 07:06:18.
