data_PCOD8148404
_publ_section_title
;
Structure prediction by ZEFSAII (Michael W. Deem and Ramdas Pophale) SiO2 
 PCOD8148404
Probable space group: C 2/C
;
_chemical_formula_sum "Si O2"
_cell_formula_units_Z 56
_cell_length_a 22.813507
_cell_length_b 12.951136
_cell_length_c 9.657475
_cell_angle_alpha 90.000000
_cell_angle_beta 111.355072
_cell_angle_gamma 90.000000
_cell_volume 2657.495461
_symmetry_space_group_name_H-M "C 2/C"
_symmetry_group_IT_number 15
_symmetry_cell_setting 'monoclinic'
loop_
_space_group_symop_operation_xyz
x,y,z
-x,y,1/2-z
-x,-y,-z
x,-y,1/2+z
1/2+x,1/2+y,z
1/2-x,1/2+y,1/2-z
1/2-x,1/2-y,-z
1/2+x,1/2-y,1/2+z
loop_
_atom_site_type_symbol
_atom_site_label
_atom_site_fract_x
_atom_site_fract_y
_atom_site_fract_z
Si Si1 0.567301 0.548357 0.090793
Si Si2 0.428651 0.162720 0.225258
Si Si3 0.231298 0.820793 0.856591
Si Si4 0.132254 0.298417 0.552611
Si Si5 0.115716 0.734416 0.592027
Si Si6 0.070328 0.422716 0.273805
Si Si7 0.368410 0.575841 0.080511
O O1 0.567274 0.669810 0.059084
O O2 0.579989 0.534735 0.265380
O O3 0.623630 0.494454 0.048732
O O4 0.500000 0.500000 0.000000
O O5 0.500000 0.192263 0.250000
O O6 0.410234 0.221752 0.349670
O O7 0.421187 0.042423 0.250508
O O8 0.380904 0.199326 0.064414
O O9 0.297777 0.833063 0.835257
O O10 0.183888 0.767441 0.707363
O O11 0.250000 0.750000 0.000000
O O12 0.199487 0.925356 0.896224
O O13 0.111848 0.394362 0.441689
O O14 0.123892 0.196642 0.450404
O O15 0.089126 0.637500 0.652153
O O16 0.000000 0.392101 0.250000
#
# Coordination Sequence:
#
# PCOD8148404 Si02
#       7
#     8   8   8   8   8   8   8
#     4  11  24  39  63  99 132 177 226 263 330 402
#     4  11  26  41  65 108 136 164 226 283 335 402
#     4   9  19  44  69  92 129 174 229 264 325 403
#     4  11  22  44  72  90 137 183 212 279 343 392
#     4  11  23  42  67  97 140 173 218 284 324 391
#     4  11  22  42  69  97 128 177 226 270 343 400
#     4  10  23  41  63  94 130 175 221 271 319 392
#
# _framework density 21.072472999999999
#
# number of rings (size 3 to 8) (size 9 to 14) (size 15 to 20)
#    0.000    1.429    4.286    2.143    6.000    2.857 
#    5.143    2.857    0.000    0.000    0.000    0.000 
#    0.000    0.000    0.000    0.000    0.000    0.000 
#
# Total GULP energy -347036.507935 kJ/mol
# GULP energy per Si atom -12394.160998 kJ/mol
# Density = 2.102451 g / cm^3
# Si number density = 21.072473 Si / 1000 Ang^3
#
#
#
# Elastic Constant Matrix: (Units=GPa)
#
#
# Indices 1 2 3 4 5 6 
#
# 1 109.6850 40.7339 50.1285 0.0000 4.5510 0.0000
# 2 40.7339 48.6767 37.8985 0.0000 10.3122 0.0000
# 3 50.1285 37.8985 130.6213 0.0000 1.6861 0.0000
# 4 0.0000 0.0000 0.0000 40.6149 0.0000 -7.0334
# 5 4.5510 10.3122 1.6861 0.0000 40.8595 0.0000
# 6 0.0000 0.0000 0.0000 -7.0334 0.0000 30.4514
#
#
#
# Elastic Compliance Matrix: (Units=1/GPa)
#
#
# Indices 1 2 3 4 5 6 
#
# 1 0.013885 -0.009927 -0.002462 0.000000 0.001060 0.000000
# 2 -0.009927 0.035411 -0.006367 0.000000 -0.007569 0.000000
# 3 -0.002462 -0.006367 0.010429 0.000000 0.001451 0.000000
# 4 0.000000 0.000000 0.000000 0.025647 0.000000 0.005924
# 5 0.001060 -0.007569 0.001451 0.000000 0.026206 0.000000
# 6 0.000000 0.000000 0.000000 0.005924 0.000000 0.034208
#
#
# Mechanical properties :
#
#
# Convention : Reuss Voigt Hill
#
# Bulk Modulus (GPa) = 45.01754 60.72277 52.87015
# Shear Modulus (GPa) = 26.21879 33.06662 29.64270
#
# Velocity S-wave (km/s) = 3.53118 3.96559 3.75467
# Velocity P-wave (km/s) = 6.16727 7.06021 6.62879
#
# Compressibility (1/GPa) = 0.02221356
#
# Stress axis : x y z
#
# Youngs Moduli (GPa) = 72.02113 28.23948 95.88506
#
# Poissons Ratio (x) = 0.28033 0.23607
# Poissons Ratio (y) = 0.71495 0.61049
# Poissons Ratio (z) = 0.17732 0.17980
#
# Static dielectric constant tensor:
#      x y z
#    x 4.536410 0.000000 0.164660 
#    y 0.000000 3.714150 0.000000 
#    z 0.164660 0.000000 3.969950 
# 
# 
# High freq. dielectric constant tensor:
#      x y z
#    x 1.822660 0.000000 -0.004750 
#    y 0.000000 1.813300 0.000000 
#    z -0.004750 0.000000 1.837870 
# 
# From -- ./inp_files/61975.got.cif
#   From: 2010.06.25/outbox.cif.g09.slc.cpg/sg15_31_cif.got.tgz:61975.got - 2010.06.28 07:06:18.
