data_PCOD8148518
_publ_section_title
;
Structure prediction by ZEFSAII (Michael W. Deem and Ramdas Pophale) SiO2 
 PCOD8148518
Probable space group: C 2/C
;
_chemical_formula_sum "Si O2"
_cell_formula_units_Z 64
_cell_length_a 12.696435
_cell_length_b 20.952528
_cell_length_c 17.314873
_cell_angle_alpha 90.000000
_cell_angle_beta 43.707595
_cell_angle_gamma 90.000000
_cell_volume 3182.745441
_symmetry_space_group_name_H-M "C 2/C"
_symmetry_group_IT_number 15
_symmetry_cell_setting 'monoclinic'
loop_
_space_group_symop_operation_xyz
x,y,z
-x,y,1/2-z
-x,-y,-z
x,-y,1/2+z
1/2+x,1/2+y,z
1/2-x,1/2+y,1/2-z
1/2-x,1/2-y,-z
1/2+x,1/2-y,1/2+z
loop_
_atom_site_type_symbol
_atom_site_label
_atom_site_fract_x
_atom_site_fract_y
_atom_site_fract_z
Si Si1 0.192061 0.312533 0.987782
Si Si2 0.136742 0.701670 0.873373
Si Si3 0.033600 0.889281 0.643528
Si Si4 0.412588 0.619588 0.720127
Si Si5 0.396503 0.496850 0.628522
Si Si6 0.351235 0.703516 0.998217
Si Si7 0.254400 0.690257 0.275253
Si Si8 0.839142 0.394945 0.799605
O O1 0.291093 0.371249 0.969563
O O2 0.223129 0.309658 0.881018
O O3 0.250000 0.250000 0.000000
O O4 0.012359 0.325230 0.092425
O O5 0.250848 0.645701 0.839278
O O6 0.240674 0.737415 0.755225
O O7 0.082610 0.749102 0.970677
O O8 0.000000 0.881697 0.750000
O O9 0.917796 0.840471 0.663057
O O10 0.998907 0.960558 0.637038
O O11 0.500000 0.593593 0.750000
O O12 0.366472 0.565391 0.682648
O O13 0.512746 0.674096 0.624760
O O14 0.500000 0.500000 0.500000
O O15 0.242169 0.460054 0.686278
O O16 0.250000 0.750000 0.000000
O O17 0.256845 0.645144 0.086104
O O18 0.129673 0.649703 0.292401
O O19 0.000000 0.415518 0.750000
#
# Coordination Sequence:
#
# PCOD8148518 Si02
#       8
#     8   8   8   8   8   8   8   8
#     4  11  21  36  61  93 129 164 212 262 322 381
#     4  11  23  36  60  98 132 162 205 274 327 383
#     4   9  19  39  62  82 115 171 208 248 306 386
#     4  12  25  42  65  95 132 174 216 273 333 393
#     4  11  23  45  64  87 124 172 221 255 317 398
#     4  11  23  40  66  97 134 166 209 268 341 398
#     4   9  20  36  60  90 127 164 210 254 324 393
#     4  10  23  41  69  94 124 173 217 273 324 390
#
# _framework density 20.108425
#
# number of rings (size 3 to 8) (size 9 to 14) (size 15 to 20)
#    0.000    1.500    3.750    1.125    5.250    1.000 
#    2.250    0.000    0.000    3.750    0.000    0.000 
#    0.000    0.000    0.000    0.000    0.000    0.000 
#
# Total GULP energy -396554.135609 kJ/mol
# GULP energy per Si atom -12392.316738 kJ/mol
# Density = 2.006266 g / cm^3
# Si number density = 20.108425 Si / 1000 Ang^3
#
#
#
# Elastic Constant Matrix: (Units=GPa)
#
#
# Indices 1 2 3 4 5 6 
#
# 1 124.6486 49.3097 37.6713 -0.0004 -24.9438 0.0006
# 2 49.3097 89.4714 32.4338 -0.0002 -15.5599 0.0003
# 3 37.6713 32.4338 62.9414 0.0005 -6.8291 0.0000
# 4 -0.0004 -0.0002 0.0005 20.7353 -0.0001 8.1194
# 5 -24.9438 -15.5599 -6.8291 -0.0001 35.2843 -0.0002
# 6 0.0006 0.0003 0.0000 8.1194 -0.0002 37.8635
#
#
#
# Elastic Compliance Matrix: (Units=1/GPa)
#
#
# Indices 1 2 3 4 5 6 
#
# 1 0.012189 -0.004023 -0.004576 0.000000 0.005957 0.000000
# 2 -0.004023 0.015913 -0.005454 0.000000 0.003118 0.000000
# 3 -0.004576 -0.005454 0.021272 -0.000001 -0.001523 0.000000
# 4 0.000000 0.000000 -0.000001 0.052648 0.000000 -0.011290
# 5 0.005957 0.003118 -0.001523 0.000000 0.033633 0.000000
# 6 0.000000 0.000000 0.000000 -0.011290 0.000000 0.028832
#
#
# Mechanical properties :
#
#
# Convention : Reuss Voigt Hill
#
# Bulk Modulus (GPa) = 47.01837 57.32122 52.16980
# Shear Modulus (GPa) = 25.03989 29.28639 27.16314
#
# Velocity S-wave (km/s) = 3.53263 3.82045 3.67936
# Velocity P-wave (km/s) = 6.33028 6.93030 6.63708
#
# Compressibility (1/GPa) = 0.02126828
#
# Stress axis : x y z
#
# Youngs Moduli (GPa) = 82.04116 62.84092 47.01053
#
# Poissons Ratio (x) = 0.25280 0.21512
# Poissons Ratio (y) = 0.33004 0.25640
# Poissons Ratio (z) = 0.37542 0.34274
#
# Static dielectric constant tensor:
#      x y z
#    x 4.136010 0.000000 -0.041190 
#    y 0.000000 3.774030 0.000000 
#    z -0.041190 0.000000 3.522820 
# 
# 
# High freq. dielectric constant tensor:
#      x y z
#    x 1.805470 0.000000 0.005520 
#    y 0.000000 1.769640 0.000000 
#    z 0.005520 0.000000 1.772540 
# 
# From -- ./inp_files/200352.got.cif
#   From: 2010.06.25/outbox.cif.g09.slc.cpg/sg15_101_cif.got.tgz:200352.got - 2010.06.28 07:06:18.
