data_PCOD8148008
_publ_section_title
;
Structure prediction by ZEFSAII (Michael W. Deem and Ramdas Pophale) SiO2 
 PCOD8148008
Probable space group: C 2/C
;
_chemical_formula_sum "Si O2"
_cell_formula_units_Z 36
_cell_length_a 9.803584
_cell_length_b 10.827363
_cell_length_c 19.956773
_cell_angle_alpha 90.000000
_cell_angle_beta 49.118935
_cell_angle_gamma 90.000000
_cell_volume 1601.621106
_symmetry_space_group_name_H-M "C 2/C"
_symmetry_group_IT_number 15
_symmetry_cell_setting 'monoclinic'
loop_
_space_group_symop_operation_xyz
x,y,z
-x,y,1/2-z
-x,-y,-z
x,-y,1/2+z
1/2+x,1/2+y,z
1/2-x,1/2+y,1/2-z
1/2-x,1/2-y,-z
1/2+x,1/2-y,1/2+z
loop_
_atom_site_type_symbol
_atom_site_label
_atom_site_fract_x
_atom_site_fract_y
_atom_site_fract_z
Si Si1 0.503195 0.980270 0.828143
Si Si2 0.612837 0.442809 0.275245
Si Si3 0.500000 0.322980 0.750000
Si Si4 0.959538 0.237094 0.924990
Si Si5 0.258024 0.313815 0.068367
O O1 0.500000 0.948844 0.750000
O O2 0.533497 0.855892 0.861071
O O3 0.669062 0.075324 0.792822
O O4 0.315240 0.045130 0.912590
O O5 0.500000 0.380386 0.250000
O O6 0.587006 0.591216 0.280350
O O7 0.518608 0.389541 0.370707
O O8 0.355071 0.239875 0.833169
O O9 0.037771 0.214823 0.974424
O O10 0.750000 0.250000 0.000000
O O11 0.250000 0.250000 0.000000
#
# Coordination Sequence:
#
# PCOD8148008 Si02
#       5
#     8   8   4   8   8
#     4  12  25  47  76 102 146 201 252 299 373 453
#     4  10  23  44  75  96 142 193 243 297 372 439
#     4  10  22  48  72  98 142 192 248 288 372 440
#     4  12  27  46  67 113 150 185 251 316 372 440
#     4  12  27  45  73 104 145 195 251 308 372 444
#
# _framework density 22.477226999999999
#
# number of rings (size 3 to 8) (size 9 to 14) (size 15 to 20)
#    0.667    0.000    5.556    0.667    6.222    3.556 
#    0.000    0.000    0.000    0.000    0.000    0.000 
#    0.000    0.000    0.000    0.000    0.000    0.000 
#
# Total GULP energy -222998.232765 kJ/mol
# GULP energy per Si atom -12388.790709 kJ/mol
# Density = 2.242607 g / cm^3
# Si number density = 22.477227 Si / 1000 Ang^3
#
#
#
# Elastic Constant Matrix: (Units=GPa)
#
#
# Indices 1 2 3 4 5 6 
#
# 1 178.4941 11.5152 36.1519 0.0000 -8.1109 0.0000
# 2 11.5152 61.1417 7.2820 0.0000 4.3098 0.0000
# 3 36.1519 7.2820 78.5435 0.0000 -12.8595 0.0000
# 4 0.0000 0.0000 0.0000 23.9183 0.0000 -1.7506
# 5 -8.1109 4.3098 -12.8595 0.0000 48.0486 0.0000
# 6 0.0000 0.0000 0.0000 -1.7506 0.0000 31.1451
#
#
#
# Elastic Compliance Matrix: (Units=1/GPa)
#
#
# Indices 1 2 3 4 5 6 
#
# 1 0.006228 -0.000877 -0.002719 0.000000 0.000402 0.000000
# 2 -0.000877 0.016844 -0.001495 0.000000 -0.002059 0.000000
# 3 -0.002719 -0.001495 0.014714 0.000000 0.003613 0.000000
# 4 0.000000 0.000000 0.000000 0.041982 0.000000 0.002360
# 5 0.000402 -0.002059 0.003613 0.000000 0.022032 0.000000
# 6 0.000000 0.000000 0.000000 0.002360 0.000000 0.032240
#
#
# Mechanical properties :
#
#
# Convention : Reuss Voigt Hill
#
# Bulk Modulus (GPa) = 36.22925 47.56419 41.89672
# Shear Modulus (GPa) = 32.58943 38.17106 35.38024
#
# Velocity S-wave (km/s) = 3.81187 4.12541 3.97173
# Velocity P-wave (km/s) = 5.96045 6.62563 6.30182
#
# Compressibility (1/GPa) = 0.02760201
#
# Stress axis : x y z
#
# Youngs Moduli (GPa) = 160.56246 59.36866 67.96420
#
# Poissons Ratio (x) = 0.05209 0.18483
# Poissons Ratio (y) = 0.14088 0.10160
# Poissons Ratio (z) = 0.43664 0.08875
#
# Static dielectric constant tensor:
#      x y z
#    x 5.334530 0.000000 -0.413190 
#    y 0.000000 4.485250 0.000000 
#    z -0.413190 0.000000 3.865440 
# 
# 
# High freq. dielectric constant tensor:
#      x y z
#    x 1.909720 0.000000 -0.007700 
#    y 0.000000 1.879990 0.000000 
#    z -0.007700 0.000000 1.870840 
# 
# From -- ./inp_files/262958.got.cif
#   From: 2010.06.25/outbox.cif.g09.slc.cpg/sg15_132_cif.got.tgz:262958.got - 2010.06.28 07:06:18.
