data_PCOD8148456
_publ_section_title
;
Structure prediction by ZEFSAII (Michael W. Deem and Ramdas Pophale) SiO2 
 PCOD8148456
Probable space group: C 2/C
;
_chemical_formula_sum "Si O2"
_cell_formula_units_Z 40
_cell_length_a 16.754245
_cell_length_b 21.507893
_cell_length_c 5.085448
_cell_angle_alpha 90.000000
_cell_angle_beta 86.506619
_cell_angle_gamma 90.000000
_cell_volume 1829.128470
_symmetry_space_group_name_H-M "C 2/C"
_symmetry_group_IT_number 15
_symmetry_cell_setting 'monoclinic'
loop_
_space_group_symop_operation_xyz
x,y,z
-x,y,1/2-z
-x,-y,-z
x,-y,1/2+z
1/2+x,1/2+y,z
1/2-x,1/2+y,1/2-z
1/2-x,1/2-y,-z
1/2+x,1/2-y,1/2+z
loop_
_atom_site_type_symbol
_atom_site_label
_atom_site_fract_x
_atom_site_fract_y
_atom_site_fract_z
Si Si1 0.054661 0.615869 0.491929
Si Si2 0.802798 0.159782 0.326674
Si Si3 0.552338 0.689349 0.494718
Si Si4 0.851497 0.270866 0.689592
Si Si5 0.211774 0.540102 0.498124
O O1 0.097978 0.682799 0.504230
O O2 0.121701 0.562801 0.473961
O O3 0.000000 0.604662 0.750000
O O4 0.000000 0.608584 0.250000
O O5 0.834789 0.206197 0.545104
O O6 0.729085 0.194790 0.194999
O O7 0.775565 0.095500 0.457389
O O8 0.873697 0.144602 0.103568
O O9 0.500000 0.661718 0.750000
O O10 0.592829 0.754955 0.571027
O O11 0.500000 0.702966 0.250000
O O12 0.227583 0.486131 0.284449
#
# Coordination Sequence:
#
# PCOD8148456 Si02
#       5
#     8   8   8   8   8
#     4  11  25  40  65 103 142 174 213 272 337 409
#     4  10  24  44  67  98 135 176 229 283 331 404
#     4  12  24  39  64  99 136 171 210 269 345 413
#     4  10  23  41  66 100 141 177 216 271 347 416
#     4  11  26  47  70  93 127 185 239 276 322 386
#
# _framework density 21.86834
#
# number of rings (size 3 to 8) (size 9 to 14) (size 15 to 20)
#    0.000    1.200    2.000    2.400    8.400    2.400 
#    0.000    0.000    0.000    3.600    0.000    0.000 
#    0.000    0.000    0.000    0.000    0.000    0.000 
#
# Total GULP energy -247958.809686 kJ/mol
# GULP energy per Si atom -12397.940484 kJ/mol
# Density = 2.181857 g / cm^3
# Si number density = 21.868340 Si / 1000 Ang^3
#
#
#
# Elastic Constant Matrix: (Units=GPa)
#
#
# Indices 1 2 3 4 5 6 
#
# 1 145.8852 39.9857 61.7065 0.0000 -39.7544 0.0000
# 2 39.9857 99.1184 29.3084 0.0000 -18.0765 0.0000
# 3 61.7065 29.3084 122.0974 0.0000 -16.0423 0.0000
# 4 0.0000 0.0000 0.0000 31.7394 0.0000 2.3499
# 5 -39.7544 -18.0765 -16.0423 0.0000 32.1147 0.0000
# 6 0.0000 0.0000 0.0000 2.3499 0.0000 19.2853
#
#
#
# Elastic Compliance Matrix: (Units=1/GPa)
#
#
# Indices 1 2 3 4 5 6 
#
# 1 0.012483 -0.001488 -0.004314 0.000000 0.012460 0.000000
# 2 -0.001488 0.011895 -0.001569 0.000000 0.004070 0.000000
# 3 -0.004314 -0.001569 0.010627 0.000000 -0.000915 0.000000
# 4 0.000000 0.000000 0.000000 0.031793 0.000000 -0.003874
# 5 0.012460 0.004070 -0.000915 0.000000 0.048396 0.000000
# 6 0.000000 0.000000 0.000000 -0.003874 0.000000 0.052325
#
#
# Mechanical properties :
#
#
# Convention : Reuss Voigt Hill
#
# Bulk Modulus (GPa) = 49.35038 69.90025 59.62531
# Shear Modulus (GPa) = 26.45291 32.36791 29.41041
#
# Velocity S-wave (km/s) = 3.48177 3.85141 3.67125
# Velocity P-wave (km/s) = 6.22733 7.19801 6.73019
#
# Compressibility (1/GPa) = 0.02026327
#
# Stress axis : x y z
#
# Youngs Moduli (GPa) = 80.11107 84.06716 94.10047
#
# Poissons Ratio (x) = 0.12506 0.40599
# Poissons Ratio (y) = 0.11918 0.14762
# Poissons Ratio (z) = 0.34563 0.13188
#
# Static dielectric constant tensor:
#      x y z
#    x 4.596460 0.000000 -0.158640 
#    y 0.000000 3.692320 0.000000 
#    z -0.158640 0.000000 3.869290 
# 
# 
# High freq. dielectric constant tensor:
#      x y z
#    x 1.886760 0.000000 -0.004890 
#    y 0.000000 1.826400 0.000000 
#    z -0.004890 0.000000 1.863200 
# 
# From -- ./inp_files/10188.got.cif
#   From: 2010.06.25/outbox.cif.g09.slc.cpg/sg15_6_cif.got.tgz:10188.got - 2010.06.28 07:06:18.
