data_PCOD8148954
_publ_section_title
;
Structure prediction by ZEFSAII (Michael W. Deem and Ramdas Pophale) SiO2 
 PCOD8148954
Probable space group: C 2/C
;
_chemical_formula_sum "Si O2"
_cell_formula_units_Z 32
_cell_length_a 20.658844
_cell_length_b 6.967016
_cell_length_c 9.864057
_cell_angle_alpha 90.000000
_cell_angle_beta 73.947624
_cell_angle_gamma 90.000000
_cell_volume 1364.382056
_symmetry_space_group_name_H-M "C 2/C"
_symmetry_group_IT_number 15
_symmetry_cell_setting 'monoclinic'
loop_
_space_group_symop_operation_xyz
x,y,z
-x,y,1/2-z
-x,-y,-z
x,-y,1/2+z
1/2+x,1/2+y,z
1/2-x,1/2+y,1/2-z
1/2-x,1/2-y,-z
1/2+x,1/2-y,1/2+z
loop_
_atom_site_type_symbol
_atom_site_label
_atom_site_fract_x
_atom_site_fract_y
_atom_site_fract_z
Si Si1 0.702495 0.395485 0.185127
Si Si2 0.158872 0.378147 0.499737
Si Si3 0.037057 0.365310 0.086247
Si Si4 0.875799 0.031122 0.507336
O O1 0.782584 0.440439 0.139929
O O2 0.674912 0.384660 0.352063
O O3 0.693990 0.185269 0.120863
O O4 0.660223 0.550699 0.119479
O O5 0.112492 0.557096 0.560031
O O6 0.113400 0.197783 0.468445
O O7 0.000000 0.372625 0.250000
O O8 0.052039 0.144353 0.031699
O O9 0.000000 0.500000 0.000000
#
# Coordination Sequence:
#
# PCOD8148954 Si02
#       4
#     8   8   8   8
#     4   9  21  44  67 101 123 165 214 281 337 381
#     4   9  23  43  66  95 137 157 222 278 323 385
#     4  12  28  42  65  96 132 183 221 256 316 401
#     4  10  23  43  68  96 130 170 213 273 336 377
#
# _framework density 23.453838999999999
#
# number of rings (size 3 to 8) (size 9 to 14) (size 15 to 20)
#    1.500    0.500    0.000    1.500    7.000    5.000 
#    0.000    0.000    0.000    0.000    0.000    0.000 
#    0.000    0.000    0.000    0.000    0.000    0.000 
#
# Total GULP energy -198215.289983 kJ/mol
# GULP energy per Si atom -12388.455624 kJ/mol
# Density = 2.340046 g / cm^3
# Si number density = 23.453839 Si / 1000 Ang^3
#
#
#
# Elastic Constant Matrix: (Units=GPa)
#
#
# Indices 1 2 3 4 5 6 
#
# 1 69.3979 20.0105 38.5032 0.0000 -14.1232 0.0000
# 2 20.0105 56.3909 18.7821 0.0000 2.5177 0.0000
# 3 38.5032 18.7821 159.3733 0.0000 -23.4498 0.0000
# 4 0.0000 0.0000 0.0000 13.1755 0.0000 -3.8453
# 5 -14.1232 2.5177 -23.4498 0.0000 27.6475 0.0000
# 6 0.0000 0.0000 0.0000 -3.8453 0.0000 52.0302
#
#
#
# Elastic Compliance Matrix: (Units=1/GPa)
#
#
# Indices 1 2 3 4 5 6 
#
# 1 0.019424 -0.006344 -0.002742 0.000000 0.008174 0.000000
# 2 -0.006344 0.020931 -0.001933 0.000000 -0.006786 0.000000
# 3 -0.002742 -0.001933 0.007981 0.000000 0.005544 0.000000
# 4 0.000000 0.000000 0.000000 0.077572 0.000000 0.005733
# 5 0.008174 -0.006786 0.005544 0.000000 0.045665 0.000000
# 6 0.000000 0.000000 0.000000 0.005733 0.000000 0.019643
#
#
# Mechanical properties :
#
#
# Convention : Reuss Voigt Hill
#
# Bulk Modulus (GPa) = 38.02603 48.86152 43.44378
# Shear Modulus (GPa) = 22.52045 32.42840 27.47443
#
# Velocity S-wave (km/s) = 3.10208 3.72243 3.42632
# Velocity P-wave (km/s) = 5.39248 6.27325 5.84946
#
# Compressibility (1/GPa) = 0.02629777
#
# Stress axis : x y z
#
# Youngs Moduli (GPa) = 51.48276 47.77546 125.30450
#
# Poissons Ratio (x) = 0.30310 0.34362
# Poissons Ratio (y) = 0.32662 0.24215
# Poissons Ratio (z) = 0.14118 0.09233
#
# Static dielectric constant tensor:
#      x y z
#    x 3.973300 0.000000 -0.147960 
#    y 0.000000 4.208070 0.000000 
#    z -0.147960 0.000000 3.918430 
# 
# 
# High freq. dielectric constant tensor:
#      x y z
#    x 1.907780 0.000000 -0.015720 
#    y 0.000000 1.924670 0.000000 
#    z -0.015720 0.000000 1.925810 
# 
# From -- ./inp_files/115538.got.cif
#   From: 2010.06.25/outbox.cif.g09.slc.cpg/sg15_58_cif.got.tgz:115538.got - 2010.06.28 07:06:18.
