data_PCOD8148413
_publ_section_title
;
Structure prediction by ZEFSAII (Michael W. Deem and Ramdas Pophale) SiO2 
 PCOD8148413
Probable space group: C 2/C
;
_chemical_formula_sum "Si O2"
_cell_formula_units_Z 44
_cell_length_a 11.335574
_cell_length_b 19.004315
_cell_length_c 11.245918
_cell_angle_alpha 90.000000
_cell_angle_beta 52.648988
_cell_angle_gamma 90.000000
_cell_volume 1925.845858
_symmetry_space_group_name_H-M "C 2/C"
_symmetry_group_IT_number 15
_symmetry_cell_setting 'monoclinic'
loop_
_space_group_symop_operation_xyz
x,y,z
-x,y,1/2-z
-x,-y,-z
x,-y,1/2+z
1/2+x,1/2+y,z
1/2-x,1/2+y,1/2-z
1/2-x,1/2-y,-z
1/2+x,1/2-y,1/2+z
loop_
_atom_site_type_symbol
_atom_site_label
_atom_site_fract_x
_atom_site_fract_y
_atom_site_fract_z
Si Si1 0.321813 0.455886 0.413690
Si Si2 0.083521 0.821351 0.811624
Si Si3 0.600068 0.231101 0.402151
Si Si4 0.500000 0.325357 0.250000
Si Si5 0.317418 0.468075 0.679329
Si Si6 0.004280 0.586036 0.380014
O O1 0.375783 0.375215 0.386548
O O2 0.357935 0.496621 0.519470
O O3 0.391489 0.490435 0.247777
O O4 0.145484 0.456466 0.500866
O O5 0.224314 0.775138 0.687248
O O6 0.133730 0.887184 0.859317
O O7 0.000000 0.853351 0.750000
O O8 0.966395 0.772455 0.947843
O O9 0.576082 0.274969 0.297706
O O10 0.524411 0.154077 0.450699
O O11 0.139935 0.469388 0.808895
O O12 0.000000 0.616849 0.250000
#
# Coordination Sequence:
#
# PCOD8148413 Si02
#       6
#     8   8   8   4   8   8
#     4  11  23  40  61  96 129 172 216 262 321 386
#     4  11  24  42  65  93 133 172 211 269 327 392
#     4  11  22  41  66  99 129 164 217 268 331 387
#     4  12  24  36  68  98 128 160 210 272 320 384
#     4  10  23  41  64  90 128 173 218 264 320 384
#     4   9  19  38  66  92 125 166 215 271 317 381
#
# _framework density 22.847103000000001
#
# number of rings (size 3 to 8) (size 9 to 14) (size 15 to 20)
#    0.000    1.455    2.727    2.182    1.273    3.636 
#    0.000    3.636    0.000    1.091    0.000    0.000 
#    0.000    0.000    0.000    0.000    0.000    0.000 
#
# Total GULP energy -272701.711312 kJ/mol
# GULP energy per Si atom -12395.532332 kJ/mol
# Density = 2.279510 g / cm^3
# Si number density = 22.847103 Si / 1000 Ang^3
#
#
#
# Elastic Constant Matrix: (Units=GPa)
#
#
# Indices 1 2 3 4 5 6 
#
# 1 96.0360 11.5502 44.8419 0.0000 25.1627 0.0000
# 2 11.5502 51.1877 31.1424 0.0000 12.6330 0.0000
# 3 44.8419 31.1424 134.8794 0.0000 12.5900 0.0000
# 4 0.0000 0.0000 0.0000 9.3497 0.0000 10.6432
# 5 25.1627 12.6330 12.5900 0.0000 27.5569 0.0000
# 6 0.0000 0.0000 0.0000 10.6432 0.0000 1.3167
#
#
#
# Elastic Compliance Matrix: (Units=1/GPa)
#
#
# Indices 1 2 3 4 5 6 
#
# 1 0.015775 0.002552 -0.004575 0.000000 -0.013484 0.000000
# 2 0.002552 0.025158 -0.005602 0.000000 -0.011304 0.000000
# 3 -0.004575 -0.005602 0.010026 0.000000 0.002165 0.000000
# 4 0.000000 0.000000 0.000000 -0.013041 0.000000 0.105413
# 5 -0.013484 -0.011304 0.002165 0.000000 0.052794 0.000000
# 6 0.000000 0.000000 0.000000 0.105413 0.000000 -0.092601
#
#
# Mechanical properties :
#
#
# Convention : Reuss Voigt Hill
#
# Bulk Modulus (GPa) = 28.00415 50.79692 39.40053
# Shear Modulus (GPa) = 197.90183 20.61590 109.25886
#
# Velocity S-wave (km/s) = 9.31709 3.00716 6.92283
# Velocity P-wave (km/s) = 11.31495 5.85995 9.01019
#
# Compressibility (1/GPa) = 0.03570899
#
# Stress axis : x y z
#
# Youngs Moduli (GPa) = 63.39088 39.74855 99.73631
#
# Poissons Ratio (x) = -0.10143 0.45631
# Poissons Ratio (y) = -0.16176 0.55872
# Poissons Ratio (z) = 0.29002 0.22267
#
# Static dielectric constant tensor:
#      x y z
#    x 3.279320 0.000000 -1.850740 
#    y 0.000000 3.697430 0.000000 
#    z -1.850740 0.000000 1.012700 
# 
# 
# High freq. dielectric constant tensor:
#      x y z
#    x 1.924050 0.000000 -0.005680 
#    y 0.000000 1.876240 0.000000 
#    z -0.005680 0.000000 1.911160 
# 
# From -- ./inp_files/87731.got.cif
#   From: 2010.06.25/outbox.cif.g09.slc.cpg/sg15_44_cif.got.tgz:87731.got - 2010.06.28 07:06:18.
