data_PCOD8148180
_publ_section_title
;
Structure prediction by ZEFSAII (Michael W. Deem and Ramdas Pophale) SiO2 
 PCOD8148180
Probable space group: C 2/C
;
_chemical_formula_sum "Si O2"
_cell_formula_units_Z 48
_cell_length_a 13.118001
_cell_length_b 6.839200
_cell_length_c 23.680596
_cell_angle_alpha 90.000000
_cell_angle_beta 97.593754
_cell_angle_gamma 90.000000
_cell_volume 2105.910980
_symmetry_space_group_name_H-M "C 2/C"
_symmetry_group_IT_number 15
_symmetry_cell_setting 'monoclinic'
loop_
_space_group_symop_operation_xyz
x,y,z
-x,y,1/2-z
-x,-y,-z
x,-y,1/2+z
1/2+x,1/2+y,z
1/2-x,1/2+y,1/2-z
1/2-x,1/2-y,-z
1/2+x,1/2-y,1/2+z
loop_
_atom_site_type_symbol
_atom_site_label
_atom_site_fract_x
_atom_site_fract_y
_atom_site_fract_z
Si Si1 0.139411 0.200985 0.231152
Si Si2 0.356585 0.680926 0.702990
Si Si3 0.935127 0.575486 0.679563
Si Si4 0.828768 0.917400 0.074963
Si Si5 0.886261 0.323775 0.479932
Si Si6 0.091651 0.678683 0.944252
O O1 0.242043 0.230076 0.202575
O O2 0.152426 0.303892 0.293159
O O3 0.043329 0.307899 0.193299
O O4 0.117397 0.970966 0.244194
O O5 0.364170 0.577873 0.642317
O O6 0.438601 0.858595 0.707620
O O7 0.899605 0.552646 0.612507
O O8 0.721246 0.801513 0.060460
O O9 0.829654 0.141231 0.053291
O O10 0.904094 0.804424 0.037597
O O11 0.887279 0.551343 0.498557
O O12 0.972351 0.256591 0.441542
#
# Coordination Sequence:
#
# PCOD8148180 Si02
#       6
#     8   8   8   8   8   8
#     4  11  25  43  69  97 131 177 225 275 332 395
#     4  12  23  46  70  96 139 175 223 283 332 398
#     4  11  24  43  68  99 132 176 223 270 339 395
#     4  11  22  40  67  94 128 173 214 267 332 389
#     4  10  23  39  65  96 130 166 218 268 320 399
#     4  11  21  42  65  94 132 168 215 269 326 390
#
# _framework density 22.792985999999999
#
# number of rings (size 3 to 8) (size 9 to 14) (size 15 to 20)
#    0.000    1.000    5.000    2.000    0.000    2.667 
#    0.000    0.000    0.000    0.000    0.000    0.000 
#    0.000    0.000    0.000    0.000    0.000    0.000 
#
# Total GULP energy -297367.865354 kJ/mol
# GULP energy per Si atom -12390.327723 kJ/mol
# Density = 2.274111 g / cm^3
# Si number density = 22.792986 Si / 1000 Ang^3
#
#
#
# Elastic Constant Matrix: (Units=GPa)
#
#
# Indices 1 2 3 4 5 6 
#
# 1 54.3394 12.6547 13.0563 0.0000 -4.7655 0.0000
# 2 12.6547 118.9330 10.0739 0.0000 2.3424 0.0000
# 3 13.0563 10.0739 72.7139 0.0000 -11.6627 0.0000
# 4 0.0000 0.0000 0.0000 34.8502 0.0000 -3.1146
# 5 -4.7655 2.3424 -11.6627 0.0000 27.4997 0.0000
# 6 0.0000 0.0000 0.0000 -3.1146 0.0000 30.8743
#
#
#
# Elastic Compliance Matrix: (Units=1/GPa)
#
#
# Indices 1 2 3 4 5 6 
#
# 1 0.019750 -0.001902 -0.002906 0.000000 0.002352 0.000000
# 2 -0.001902 0.008736 -0.001117 0.000000 -0.001547 0.000000
# 3 -0.002906 -0.001117 0.015412 0.000000 0.006128 0.000000
# 4 0.000000 0.000000 0.000000 0.028955 0.000000 0.002921
# 5 0.002352 -0.001547 0.006128 0.000000 0.039502 0.000000
# 6 0.000000 0.000000 0.000000 0.002921 0.000000 0.032684
#
#
# Mechanical properties :
#
#
# Convention : Reuss Voigt Hill
#
# Bulk Modulus (GPa) = 31.20204 35.28399 33.24302
# Shear Modulus (GPa) = 29.83820 32.65828 31.24824
#
# Velocity S-wave (km/s) = 3.62207 3.78937 3.70666
# Velocity P-wave (km/s) = 5.58673 5.88724 5.73895
#
# Compressibility (1/GPa) = 0.03204918
#
# Stress axis : x y z
#
# Youngs Moduli (GPa) = 50.63259 114.47515 64.88526
#
# Poissons Ratio (x) = 0.21769 0.18853
# Poissons Ratio (y) = 0.09629 0.07247
# Poissons Ratio (z) = 0.14711 0.12786
#
# Static dielectric constant tensor:
#      x y z
#    x 3.943570 0.000000 -0.348360 
#    y 0.000000 4.122600 0.000000 
#    z -0.348360 0.000000 3.990460 
# 
# 
# High freq. dielectric constant tensor:
#      x y z
#    x 1.884750 0.000000 -0.019620 
#    y 0.000000 1.905710 0.000000 
#    z -0.019620 0.000000 1.897040 
# 
# From -- ./inp_files/294409.got.cif
#   From: 2010.06.25/outbox.cif.g09.slc.cpg/sg15_148_cif.got.tgz:294409.got - 2010.06.28 07:06:18.
