data_PCOD8148210
_publ_section_title
;
Structure prediction by ZEFSAII (Michael W. Deem and Ramdas Pophale) SiO2 
 PCOD8148210
Probable space group: C 2/C
;
_chemical_formula_sum "Si O2"
_cell_formula_units_Z 48
_cell_length_a 12.092739
_cell_length_b 9.052115
_cell_length_c 26.319940
_cell_angle_alpha 90.000000
_cell_angle_beta 124.000112
_cell_angle_gamma 90.000000
_cell_volume 2388.544176
_symmetry_space_group_name_H-M "C 2/C"
_symmetry_group_IT_number 15
_symmetry_cell_setting 'monoclinic'
loop_
_space_group_symop_operation_xyz
x,y,z
-x,y,1/2-z
-x,-y,-z
x,-y,1/2+z
1/2+x,1/2+y,z
1/2-x,1/2+y,1/2-z
1/2-x,1/2-y,-z
1/2+x,1/2-y,1/2+z
loop_
_atom_site_type_symbol
_atom_site_label
_atom_site_fract_x
_atom_site_fract_y
_atom_site_fract_z
Si Si1 0.599477 0.197384 0.517602
Si Si2 0.209000 0.416255 0.330233
Si Si3 0.917300 0.327552 0.883591
Si Si4 0.874746 0.902297 0.063810
Si Si5 0.068198 0.842315 0.612487
Si Si6 0.567084 0.089282 0.687743
O O1 0.481625 0.118037 0.454268
O O2 0.731843 0.096152 0.554772
O O3 0.639632 0.351772 0.499140
O O4 0.548316 0.230498 0.560611
O O5 0.280427 0.259987 0.359148
O O6 0.306600 0.552515 0.365951
O O7 0.161797 0.422470 0.260251
O O8 0.087092 0.431924 0.337654
O O9 0.887575 0.464921 0.840203
O O10 0.021969 0.214046 0.883143
O O11 0.931801 0.066478 0.082659
O O12 0.090324 0.749695 0.669286
#
# Coordination Sequence:
#
# PCOD8148210 Si02
#       6
#     8   8   8   8   8   8
#     4   9  18  34  60  86 116 148 185 230 288 341
#     4  10  23  40  58  78 116 153 191 236 278 331
#     4   9  19  36  58  80 118 147 180 239 285 328
#     4   8  18  34  57  85 115 148 182 223 285 343
#     4  11  21  36  63  83 111 153 190 228 288 341
#     4  11  23  38  57  86 110 150 197 234 278 334
#
# _framework density 20.095924
#
# number of rings (size 3 to 8) (size 9 to 14) (size 15 to 20)
#    1.000    1.333    0.000    2.500    0.000    2.000 
#    0.000    1.667    0.000    8.000    0.000    0.000 
#    0.000    0.000    0.000    0.000    0.000    0.000 
#
# Total GULP energy -297561.051202 kJ/mol
# GULP energy per Si atom -12398.377133 kJ/mol
# Density = 2.005019 g / cm^3
# Si number density = 20.095924 Si / 1000 Ang^3
#
#
#
# Elastic Constant Matrix: (Units=GPa)
#
#
# Indices 1 2 3 4 5 6 
#
# 1 43.7817 33.8939 19.6131 0.0000 14.3992 0.0000
# 2 33.8939 46.5984 16.8268 0.0000 -1.5284 0.0000
# 3 19.6131 16.8268 65.8499 0.0000 7.5638 0.0000
# 4 0.0000 0.0000 0.0000 24.1882 0.0000 -1.1615
# 5 14.3992 -1.5284 7.5638 0.0000 30.8491 0.0000
# 6 0.0000 0.0000 0.0000 -1.1615 0.0000 19.5211
#
#
#
# Elastic Compliance Matrix: (Units=1/GPa)
#
#
# Indices 1 2 3 4 5 6 
#
# 1 0.089852 -0.064944 -0.005124 0.000000 -0.043901 0.000000
# 2 -0.064944 0.070809 -0.002712 0.000000 0.034487 0.000000
# 3 -0.005124 -0.002712 0.017643 0.000000 -0.002068 0.000000
# 4 0.000000 0.000000 0.000000 0.041461 0.000000 0.002467
# 5 -0.043901 0.034487 -0.002068 0.000000 0.055123 0.000000
# 6 0.000000 0.000000 0.000000 0.002467 0.000000 0.051373
#
#
# Mechanical properties :
#
#
# Convention : Reuss Voigt Hill
#
# Bulk Modulus (GPa) = 30.54114 32.98863 31.76489
# Shear Modulus (GPa) = 10.35766 20.63807 15.49787
#
# Velocity S-wave (km/s) = 2.27273 3.20813 2.78005
# Velocity P-wave (km/s) = 4.70295 5.49309 5.11330
#
# Compressibility (1/GPa) = 0.03274272
#
# Stress axis : x y z
#
# Youngs Moduli (GPa) = 11.12947 14.12258 56.68063
#
# Poissons Ratio (x) = 0.91718 0.29042
# Poissons Ratio (y) = 0.72280 0.15371
# Poissons Ratio (z) = 0.05703 0.03830
#
# Static dielectric constant tensor:
#      x y z
#    x 3.430860 0.000000 0.146520 
#    y 0.000000 3.416790 0.000000 
#    z 0.146520 0.000000 3.539450 
# 
# 
# High freq. dielectric constant tensor:
#      x y z
#    x 1.775080 0.000000 0.010880 
#    y 0.000000 1.777570 0.000000 
#    z 0.010880 0.000000 1.779610 
# 
# From -- ./inp_files/291309.got.cif
#   From: 2010.06.25/outbox.cif.g09.slc.cpg/sg15_146_cif.got.tgz:291309.got - 2010.06.28 07:06:18.
