data_PCOD8148279
_publ_section_title
;
Structure prediction by ZEFSAII (Michael W. Deem and Ramdas Pophale) SiO2 
 PCOD8148279
Probable space group: C 2/C
;
_chemical_formula_sum "Si O2"
_cell_formula_units_Z 40
_cell_length_a 18.785549
_cell_length_b 9.013751
_cell_length_c 10.138410
_cell_angle_alpha 90.000000
_cell_angle_beta 80.000193
_cell_angle_gamma 90.000000
_cell_volume 1690.639515
_symmetry_space_group_name_H-M "C 2/C"
_symmetry_group_IT_number 15
_symmetry_cell_setting 'monoclinic'
loop_
_space_group_symop_operation_xyz
x,y,z
-x,y,1/2-z
-x,-y,-z
x,-y,1/2+z
1/2+x,1/2+y,z
1/2-x,1/2+y,1/2-z
1/2-x,1/2-y,-z
1/2+x,1/2-y,1/2+z
loop_
_atom_site_type_symbol
_atom_site_label
_atom_site_fract_x
_atom_site_fract_y
_atom_site_fract_z
Si Si1 0.528127 0.815386 0.375680
Si Si2 0.718094 0.252213 0.300956
Si Si3 0.833659 0.757723 0.535548
Si Si4 0.441559 0.851011 0.660999
Si Si5 0.753445 0.508806 0.991901
O O1 0.500000 0.738702 0.250000
O O2 0.590423 0.715407 0.419538
O O3 0.464219 0.823207 0.502165
O O4 0.564370 0.971600 0.321720
O O5 0.766643 0.230747 0.158280
O O6 0.633404 0.234346 0.289292
O O7 0.738241 0.412284 0.356632
O O8 0.739244 0.127007 0.397313
O O9 0.826920 0.595942 0.465315
O O10 0.815597 0.901152 0.449844
O O11 0.500000 0.791117 0.750000
#
# Coordination Sequence:
#
# PCOD8148279 Si02
#       5
#     8   8   8   8   8
#     4  10  23  40  65  95 130 170 218 270 327 388
#     4  11  23  41  67  95 130 172 219 272 321 393
#     4  11  23  41  67  95 130 172 219 272 321 393
#     4  10  23  40  65  95 130 170 218 270 327 388
#     4  10  24  38  66  94 132 164 226 264 334 374
#
# _framework density 23.659686000000001
#
# number of rings (size 3 to 8) (size 9 to 14) (size 15 to 20)
#    0.000    1.600    2.000    1.200   11.200    0.000 
#    0.000    2.000    0.000    0.000    0.000    0.000 
#    0.000    0.000    0.000    0.000    0.000    0.000 
#
# Total GULP energy -247845.664533 kJ/mol
# GULP energy per Si atom -12392.283227 kJ/mol
# Density = 2.360584 g / cm^3
# Si number density = 23.659686 Si / 1000 Ang^3
#
#
#
# Elastic Constant Matrix: (Units=GPa)
#
#
# Indices 1 2 3 4 5 6 
#
# 1 132.0851 13.4191 1.7994 0.0000 19.7607 0.0000
# 2 13.4191 77.0329 -9.0809 0.0000 7.1181 0.0000
# 3 1.7994 -9.0809 36.7028 0.0000 4.7260 0.0000
# 4 0.0000 0.0000 0.0000 25.2574 0.0000 7.8542
# 5 19.7607 7.1181 4.7260 0.0000 46.1053 0.0000
# 6 0.0000 0.0000 0.0000 7.8542 0.0000 29.3915
#
#
#
# Elastic Compliance Matrix: (Units=1/GPa)
#
#
# Indices 1 2 3 4 5 6 
#
# 1 0.008186 -0.001151 -0.000261 0.000000 -0.003304 0.000000
# 2 -0.001151 0.013809 0.003733 0.000000 -0.002021 0.000000
# 3 -0.000261 0.003733 0.028620 0.000000 -0.003398 0.000000
# 4 0.000000 0.000000 0.000000 0.043181 0.000000 -0.011539
# 5 -0.003304 -0.002021 -0.003398 0.000000 0.023766 0.000000
# 6 0.000000 0.000000 0.000000 -0.011539 0.000000 0.037107
#
#
# Mechanical properties :
#
#
# Convention : Reuss Voigt Hill
#
# Bulk Modulus (GPa) = 18.09733 28.67731 23.38732
# Shear Modulus (GPa) = 29.68333 36.12973 32.90653
#
# Velocity S-wave (km/s) = 3.54587 3.91200 3.73343
# Velocity P-wave (km/s) = 4.94266 5.70544 5.33769
#
# Compressibility (1/GPa) = 0.05525676
#
# Stress axis : x y z
#
# Youngs Moduli (GPa) = 122.16450 72.41714 34.94068
#
# Poissons Ratio (x) = 0.08338 0.00911
# Poissons Ratio (y) = 0.14066 -0.13044
# Poissons Ratio (z) = 0.03185 -0.27035
#
# Static dielectric constant tensor:
#      x y z
#    x 4.327440 0.000000 0.490180 
#    y 0.000000 4.570560 0.000000 
#    z 0.490180 0.000000 4.502300 
# 
# 
# High freq. dielectric constant tensor:
#      x y z
#    x 1.935150 0.000000 0.032710 
#    y 0.000000 1.916140 0.000000 
#    z 0.032710 0.000000 1.951680 
# 
# From -- ./inp_files/102687.got.cif
#   From: 2010.06.25/outbox.cif.g09.slc.cpg/sg15_52_cif.got.tgz:102687.got - 2010.06.28 07:06:18.
