data_PCOD8148031
_publ_section_title
;
Structure prediction by ZEFSAII (Michael W. Deem and Ramdas Pophale) SiO2 
 PCOD8148031
Probable space group: C 2/C
;
_chemical_formula_sum "Si O2"
_cell_formula_units_Z 32
_cell_length_a 12.758587
_cell_length_b 25.843208
_cell_length_c 5.246170
_cell_angle_alpha 90.000000
_cell_angle_beta 73.254631
_cell_angle_gamma 90.000000
_cell_volume 1656.429948
_symmetry_space_group_name_H-M "C 2/C"
_symmetry_group_IT_number 15
_symmetry_cell_setting 'monoclinic'
loop_
_space_group_symop_operation_xyz
x,y,z
-x,y,1/2-z
-x,-y,-z
x,-y,1/2+z
1/2+x,1/2+y,z
1/2-x,1/2+y,1/2-z
1/2-x,1/2-y,-z
1/2+x,1/2-y,1/2+z
loop_
_atom_site_type_symbol
_atom_site_label
_atom_site_fract_x
_atom_site_fract_y
_atom_site_fract_z
Si Si1 0.311516 0.383349 0.903603
Si Si2 0.000000 0.294635 0.750000
Si Si3 0.843828 0.220630 0.584298
Si Si4 0.210547 0.647950 0.965415
Si Si5 0.000000 0.034437 0.250000
O O1 0.237476 0.382996 0.702876
O O2 0.392131 0.431128 0.829769
O O3 0.379757 0.329361 0.888730
O O4 0.229968 0.389166 0.205353
O O5 0.944460 0.258408 0.573729
O O6 0.086604 0.331668 0.551234
O O7 0.750000 0.250000 0.500000
O O8 0.791154 0.198031 0.884439
O O9 0.000000 0.000000 0.500000
#
# Coordination Sequence:
#
# PCOD8148031 Si02
#       5
#     8   4   8   8   4
#     4  10  24  41  59  90 133 155 212 269 323 371
#     4  12  20  35  60  86 132 188 221 232 304 392
#     4  10  23  36  56  90 136 175 220 245 309 370
#     4  10  23  38  53  89 126 178 206 263 302 366
#     4  12  26  45  74  98 114 166 213 272 358 392
#
# _framework density 19.318656000000001
#
# number of rings (size 3 to 8) (size 9 to 14) (size 15 to 20)
#    1.500    0.000    2.500    2.250    3.500    4.000 
#    0.000    0.000    0.000    0.000    0.000   17.500 
#    0.000    0.000    0.000    0.000    0.000    0.000 
#
# Total GULP energy -198244.872157 kJ/mol
# GULP energy per Si atom -12390.304510 kJ/mol
# Density = 1.927469 g / cm^3
# Si number density = 19.318656 Si / 1000 Ang^3
#
#
#
# Elastic Constant Matrix: (Units=GPa)
#
#
# Indices 1 2 3 4 5 6 
#
# 1 134.4617 62.8023 63.9516 0.0000 7.1722 0.0000
# 2 62.8023 110.3951 56.4593 0.0000 -1.7264 0.0000
# 3 63.9516 56.4593 148.2092 0.0000 11.4879 0.0000
# 4 0.0000 0.0000 0.0000 34.2030 0.0000 -11.7117
# 5 7.1722 -1.7264 11.4879 0.0000 38.1043 0.0000
# 6 0.0000 0.0000 0.0000 -11.7117 0.0000 32.7502
#
#
#
# Elastic Compliance Matrix: (Units=1/GPa)
#
#
# Indices 1 2 3 4 5 6 
#
# 1 0.011160 -0.004928 -0.002824 0.000000 -0.001472 0.000000
# 2 -0.004928 0.013554 -0.003232 0.000000 0.002516 0.000000
# 3 -0.002824 -0.003232 0.009387 0.000000 -0.002445 0.000000
# 4 0.000000 0.000000 0.000000 0.033317 0.000000 0.011914
# 5 -0.001472 0.002516 -0.002445 0.000000 0.027372 0.000000
# 6 0.000000 0.000000 0.000000 0.011914 0.000000 0.034795
#
#
# Mechanical properties :
#
#
# Convention : Reuss Voigt Hill
#
# Bulk Modulus (GPa) = 82.42044 84.38805 83.40425
# Shear Modulus (GPa) = 32.13430 35.00170 33.56800
#
# Velocity S-wave (km/s) = 4.08288 4.26115 4.17297
# Velocity P-wave (km/s) = 8.06119 8.24542 8.15382
#
# Compressibility (1/GPa) = 0.01213291
#
# Stress axis : x y z
#
# Youngs Moduli (GPa) = 89.60252 73.77948 106.53391
#
# Poissons Ratio (x) = 0.36355 0.30090
# Poissons Ratio (y) = 0.44152 0.34433
# Poissons Ratio (z) = 0.25308 0.23846
#
# Static dielectric constant tensor:
#      x y z
#    x 3.999430 0.000000 0.159680 
#    y 0.000000 4.503350 0.000000 
#    z 0.159680 0.000000 3.642370 
# 
# 
# High freq. dielectric constant tensor:
#      x y z
#    x 1.740870 0.000000 0.008600 
#    y 0.000000 1.718130 0.000000 
#    z 0.008600 0.000000 1.766330 
# 
# From -- ./inp_files/3998.got.cif
#   From: 2010.06.25/outbox.cif.g09.slc.cpg/sg15_2_cif.got.tgz:3998.got - 2010.06.28 07:06:18.
