data_PCOD8148588
_publ_section_title
;
Structure prediction by ZEFSAII (Michael W. Deem and Ramdas Pophale) SiO2 
 PCOD8148588
Probable space group: C 2/C
;
_chemical_formula_sum "Si O2"
_cell_formula_units_Z 32
_cell_length_a 25.718936
_cell_length_b 6.431313
_cell_length_c 13.375305
_cell_angle_alpha 90.000000
_cell_angle_beta 142.546264
_cell_angle_gamma 90.000000
_cell_volume 1345.383432
_symmetry_space_group_name_H-M "C 2/C"
_symmetry_group_IT_number 15
_symmetry_cell_setting 'monoclinic'
loop_
_space_group_symop_operation_xyz
x,y,z
-x,y,1/2-z
-x,-y,-z
x,-y,1/2+z
1/2+x,1/2+y,z
1/2-x,1/2+y,1/2-z
1/2-x,1/2-y,-z
1/2+x,1/2-y,1/2+z
loop_
_atom_site_type_symbol
_atom_site_label
_atom_site_fract_x
_atom_site_fract_y
_atom_site_fract_z
Si Si1 0.367582 0.295205 0.488234
Si Si2 0.807392 0.484948 0.225665
Si Si3 0.900761 0.430293 0.674096
Si Si4 0.422520 0.285302 0.016412
O O1 0.290718 0.422035 0.421585
O O2 0.433589 0.464336 0.540316
O O3 0.329959 0.156586 0.342192
O O4 0.413809 0.160115 0.645032
O O5 0.828016 0.569922 0.146804
O O6 0.866435 0.280175 0.335137
O O7 0.870965 0.280398 0.538739
O O8 0.989039 0.342231 0.854337
#
# Coordination Sequence:
#
# PCOD8148588 Si02
#       4
#     8   8   8   8
#     4  11  23  42  68  96 138 168 222 273 324 395
#     4  11  22  42  67  98 133 173 218 273 330 389
#     4  10  24  41  67  97 132 174 220 269 332 390
#     4  10  23  42  63  97 132 171 220 271 325 393
#
# _framework density 23.785043000000002
#
# number of rings (size 3 to 8) (size 9 to 14) (size 15 to 20)
#    0.000    1.500    2.500    1.500    0.000   12.000 
#    0.000    0.000    0.000    4.500    0.000    0.000 
#    0.000    0.000    0.000    0.000    0.000    0.000 
#
# Total GULP energy -198322.523573 kJ/mol
# GULP energy per Si atom -12395.157723 kJ/mol
# Density = 2.373091 g / cm^3
# Si number density = 23.785043 Si / 1000 Ang^3
#
#
#
# Elastic Constant Matrix: (Units=GPa)
#
#
# Indices 1 2 3 4 5 6 
#
# 1 94.5857 20.8006 -0.6281 0.0000 -5.8764 0.0000
# 2 20.8006 137.2002 25.0946 0.0000 25.5877 0.0000
# 3 -0.6281 25.0946 55.5389 0.0000 15.7161 0.0000
# 4 0.0000 0.0000 0.0000 33.6813 0.0000 6.1291
# 5 -5.8764 25.5877 15.7161 0.0000 27.5121 0.0000
# 6 0.0000 0.0000 0.0000 6.1291 0.0000 18.5097
#
#
#
# Elastic Compliance Matrix: (Units=1/GPa)
#
#
# Indices 1 2 3 4 5 6 
#
# 1 0.011462 -0.002648 -0.000076 0.000000 0.004954 0.000000
# 2 -0.002648 0.009617 -0.002009 0.000000 -0.008362 0.000000
# 3 -0.000076 -0.002009 0.021934 0.000000 -0.010677 0.000000
# 4 0.000000 0.000000 0.000000 0.031594 0.000000 -0.010462
# 5 0.004954 -0.008362 -0.010677 0.000000 0.051283 0.000000
# 6 0.000000 0.000000 0.000000 -0.010462 0.000000 0.057490
#
#
# Mechanical properties :
#
#
# Convention : Reuss Voigt Hill
#
# Bulk Modulus (GPa) = 29.80858 41.98435 35.89646
# Shear Modulus (GPa) = 24.50659 32.07781 28.29220
#
# Velocity S-wave (km/s) = 3.21337 3.67639 3.45265
# Velocity P-wave (km/s) = 5.13102 5.97587 5.56949
#
# Compressibility (1/GPa) = 0.03354739
#
# Stress axis : x y z
#
# Youngs Moduli (GPa) = 87.24483 103.98187 45.59202
#
# Poissons Ratio (x) = 0.27532 0.00346
# Poissons Ratio (y) = 0.23101 0.09159
# Poissons Ratio (z) = 0.00662 0.20890
#
# Static dielectric constant tensor:
#      x y z
#    x 4.102120 0.000000 -0.098670 
#    y 0.000000 4.631110 0.000000 
#    z -0.098670 0.000000 4.066440 
# 
# 
# High freq. dielectric constant tensor:
#      x y z
#    x 1.924750 0.000000 0.001070 
#    y 0.000000 1.955820 0.000000 
#    z 0.001070 0.000000 1.933930 
# 
# From -- ./inp_files/164946.got.cif
#   From: 2010.06.25/outbox.cif.g09.slc.cpg/sg15_83_cif.got.tgz:164946.got - 2010.06.28 07:06:18.
