data_PCOD8148282
_publ_section_title
;
Structure prediction by ZEFSAII (Michael W. Deem and Ramdas Pophale) SiO2 
 PCOD8148282
Probable space group: C 2/C
;
_chemical_formula_sum "Si O2"
_cell_formula_units_Z 56
_cell_length_a 14.599690
_cell_length_b 17.142949
_cell_length_c 11.991603
_cell_angle_alpha 90.000000
_cell_angle_beta 64.793866
_cell_angle_gamma 90.000000
_cell_volume 2715.501858
_symmetry_space_group_name_H-M "C 2/C"
_symmetry_group_IT_number 15
_symmetry_cell_setting 'monoclinic'
loop_
_space_group_symop_operation_xyz
x,y,z
-x,y,1/2-z
-x,-y,-z
x,-y,1/2+z
1/2+x,1/2+y,z
1/2-x,1/2+y,1/2-z
1/2-x,1/2-y,-z
1/2+x,1/2-y,1/2+z
loop_
_atom_site_type_symbol
_atom_site_label
_atom_site_fract_x
_atom_site_fract_y
_atom_site_fract_z
Si Si1 0.687816 0.237343 0.422175
Si Si2 0.246030 0.427234 0.815674
Si Si3 0.921145 0.929752 0.555452
Si Si4 0.799547 0.650691 0.723294
Si Si5 0.738997 0.442002 0.035863
Si Si6 0.616191 0.000351 0.719019
Si Si7 0.480830 0.268087 0.628258
O O1 0.750000 0.250000 0.500000
O O2 0.738436 0.164489 0.333284
O O3 0.701106 0.310264 0.331512
O O4 0.572053 0.223943 0.517506
O O5 0.332843 0.455470 0.685593
O O6 0.273758 0.468631 0.917111
O O7 0.137397 0.458634 0.826878
O O8 0.865855 0.913119 0.465618
O O9 0.974523 0.852885 0.574961
O O10 0.000000 0.000000 0.500000
O O11 0.766117 0.614851 0.623276
O O12 0.842556 0.588597 0.790417
O O13 0.882186 0.717181 0.656718
O O14 0.830407 0.445815 0.900642
O O15 0.500000 0.004551 0.750000
O O16 0.500000 0.278522 0.750000
#
# Coordination Sequence:
#
# PCOD8148282 Si02
#       7
#     8   8   8   8   8   8   8
#     4  12  24  42  68  94 137 169 223 280 334 392
#     4  10  23  44  63  96 130 174 217 279 330 390
#     4  11  26  44  68  95 133 177 226 274 338 400
#     4  11  24  44  68  99 134 174 226 279 339 402
#     4  10  25  43  67  94 138 173 218 284 332 403
#     4  10  23  40  65  96 130 172 219 264 336 403
#     4  12  26  43  70 101 129 179 225 277 334 407
#
# _framework density 20.622337000000002
#
# number of rings (size 3 to 8) (size 9 to 14) (size 15 to 20)
#    0.000    1.143    2.857    1.286   14.000    1.714 
#    0.000    0.000    0.000    0.000    0.000    0.000 
#    0.000    0.000    0.000    0.000    0.000    0.000 
#
# Total GULP energy -347145.964937 kJ/mol
# GULP energy per Si atom -12398.070176 kJ/mol
# Density = 2.057540 g / cm^3
# Si number density = 20.622337 Si / 1000 Ang^3
#
#
#
# Elastic Constant Matrix: (Units=GPa)
#
#
# Indices 1 2 3 4 5 6 
#
# 1 114.5979 44.0919 53.9826 0.0000 6.1446 0.0000
# 2 44.0919 120.8078 44.2011 0.0000 7.3881 0.0000
# 3 53.9826 44.2011 102.9751 0.0000 2.5085 0.0000
# 4 0.0000 0.0000 0.0000 44.4354 0.0000 0.6887
# 5 6.1446 7.3881 2.5085 0.0000 31.8649 0.0000
# 6 0.0000 0.0000 0.0000 0.6887 0.0000 30.6161
#
#
#
# Elastic Compliance Matrix: (Units=1/GPa)
#
#
# Indices 1 2 3 4 5 6 
#
# 1 0.012254 -0.002432 -0.005347 0.000000 -0.001378 0.000000
# 2 -0.002432 0.010425 -0.003158 0.000000 -0.001699 0.000000
# 3 -0.005347 -0.003158 0.013853 0.000000 0.000673 0.000000
# 4 0.000000 0.000000 0.000000 0.022512 0.000000 -0.000506
# 5 -0.001378 -0.001699 0.000673 0.000000 0.031989 0.000000
# 6 0.000000 0.000000 0.000000 -0.000506 0.000000 0.032674
#
#
# Mechanical properties :
#
#
# Convention : Reuss Voigt Hill
#
# Bulk Modulus (GPa) = 68.22060 69.21468 68.71764
# Shear Modulus (GPa) = 33.22957 34.45694 33.84325
#
# Velocity S-wave (km/s) = 4.01850 4.09204 4.05544
# Velocity P-wave (km/s) = 7.39486 7.48079 7.43795
#
# Compressibility (1/GPa) = 0.01465833
#
# Stress axis : x y z
#
# Youngs Moduli (GPa) = 81.60344 95.92535 72.18519
#
# Poissons Ratio (x) = 0.23330 0.38595
# Poissons Ratio (y) = 0.19846 0.22799
# Poissons Ratio (z) = 0.43630 0.30297
#
# Static dielectric constant tensor:
#      x y z
#    x 3.880420 0.000000 -0.106420 
#    y 0.000000 4.768000 0.000000 
#    z -0.106420 0.000000 3.795860 
# 
# 
# High freq. dielectric constant tensor:
#      x y z
#    x 1.808620 0.000000 0.002790 
#    y 0.000000 1.811650 0.000000 
#    z 0.002790 0.000000 1.813190 
# 
# From -- ./inp_files/98656.got.cif
#   From: 2010.06.25/outbox.cif.g09.slc.cpg/sg15_50_cif.got.tgz:98656.got - 2010.06.28 07:06:18.
