data_PCOD8148491
_publ_section_title
;
Structure prediction by ZEFSAII (Michael W. Deem and Ramdas Pophale) SiO2 
 PCOD8148491
Probable space group: C 2/C
;
_chemical_formula_sum "Si O2"
_cell_formula_units_Z 56
_cell_length_a 8.952297
_cell_length_b 17.311718
_cell_length_c 26.165973
_cell_angle_alpha 90.000000
_cell_angle_beta 139.458811
_cell_angle_gamma 90.000000
_cell_volume 2635.853312
_symmetry_space_group_name_H-M "C 2/C"
_symmetry_group_IT_number 15
_symmetry_cell_setting 'monoclinic'
loop_
_space_group_symop_operation_xyz
x,y,z
-x,y,1/2-z
-x,-y,-z
x,-y,1/2+z
1/2+x,1/2+y,z
1/2-x,1/2+y,1/2-z
1/2-x,1/2-y,-z
1/2+x,1/2-y,1/2+z
loop_
_atom_site_type_symbol
_atom_site_label
_atom_site_fract_x
_atom_site_fract_y
_atom_site_fract_z
Si Si1 0.500000 0.060814 0.250000
Si Si2 0.575807 0.618952 0.571633
Si Si3 0.496823 0.932714 0.375833
Si Si4 0.000000 0.935630 0.250000
Si Si5 0.885523 0.398549 0.611703
Si Si6 0.497472 0.215256 0.434673
Si Si7 0.033364 0.007976 0.650696
Si Si8 0.376870 0.081057 0.480903
O O1 0.609557 0.109909 0.325232
O O2 0.695902 0.007909 0.275654
O O3 0.814193 0.578809 0.618989
O O4 0.378133 0.605004 0.477496
O O5 0.656426 0.708360 0.599259
O O6 0.486808 0.581722 0.601741
O O7 0.579280 0.894174 0.449600
O O8 0.243210 0.894335 0.297945
O O9 0.483808 0.025782 0.375620
O O10 0.070176 0.980991 0.319562
O O11 0.035499 0.327574 0.628171
O O12 0.462447 0.153210 0.470191
O O13 0.750000 0.250000 0.500000
O O14 0.896942 0.932825 0.594984
O O15 0.500000 0.000000 0.500000
#
# Coordination Sequence:
#
# PCOD8148491 Si02
#       8
#     4   8   8   4   8   8   8   8
#     4  12  24  38  69  99 136 162 224 276 328 376
#     4  11  23  43  71  96 132 173 220 268 333 392
#     4  12  22  39  67 100 128 167 226 271 313 394
#     4  12  24  34  61  99 136 162 214 272 328 366
#     4  11  20  41  67 101 123 173 217 274 318 389
#     4  10  23  41  67  97 133 169 214 274 334 385
#     4  12  22  39  68  99 128 171 220 273 318 391
#     4  12  21  38  70  98 123 167 230 269 314 383
#
# _framework density 21.245493
#
# number of rings (size 3 to 8) (size 9 to 14) (size 15 to 20)
#    0.000    0.571    7.143    2.143    0.000    0.571 
#    0.000    0.714    9.429    0.000    0.000    0.000 
#    0.000    0.000    0.000    0.000    0.000    0.000 
#
# Total GULP energy -346881.960991 kJ/mol
# GULP energy per Si atom -12388.641464 kJ/mol
# Density = 2.119714 g / cm^3
# Si number density = 21.245493 Si / 1000 Ang^3
#
#
#
# Elastic Constant Matrix: (Units=GPa)
#
#
# Indices 1 2 3 4 5 6 
#
# 1 113.5540 40.9104 50.0237 -0.0005 -11.5134 -0.0003
# 2 40.9104 117.1088 30.1326 -0.0005 -10.1963 -0.0003
# 3 50.0237 30.1326 118.7078 -0.0015 -4.2175 -0.0009
# 4 -0.0005 -0.0005 -0.0015 8.1932 -0.0007 -6.9459
# 5 -11.5134 -10.1963 -4.2175 -0.0007 53.9170 -0.0004
# 6 -0.0003 -0.0003 -0.0009 -6.9459 -0.0004 29.8455
#
#
#
# Elastic Compliance Matrix: (Units=1/GPa)
#
#
# Indices 1 2 3 4 5 6 
#
# 1 0.011880 -0.002924 -0.004205 0.000000 0.001655 0.000000
# 2 -0.002924 0.009987 -0.001261 0.000000 0.001166 0.000000
# 3 -0.004205 -0.001261 0.010505 0.000002 -0.000315 0.000001
# 4 0.000000 0.000000 0.000002 0.152053 0.000002 0.035387
# 5 0.001655 0.001166 -0.000315 0.000002 0.019096 0.000001
# 6 0.000000 0.000000 0.000001 0.035387 0.000001 0.041742
#
#
# Mechanical properties :
#
#
# Convention : Reuss Voigt Hill
#
# Bulk Modulus (GPa) = 64.14163 65.72266 64.93215
# Shear Modulus (GPa) = 18.70971 33.61140 26.16055
#
# Velocity S-wave (km/s) = 2.97078 3.98181 3.51286
# Velocity P-wave (km/s) = 6.48256 7.22093 6.86169
#
# Compressibility (1/GPa) = 0.01559050
#
# Stress axis : x y z
#
# Youngs Moduli (GPa) = 84.17370 100.13441 95.19129
#
# Poissons Ratio (x) = 0.29280 0.40031
# Poissons Ratio (y) = 0.24613 0.12007
# Poissons Ratio (z) = 0.35398 0.12631
#
# Static dielectric constant tensor:
#      x y z
#    x 4.042790 0.000000 -0.016230 
#    y 0.000000 4.714440 0.000000 
#    z -0.016230 0.000000 4.030290 
# 
# 
# High freq. dielectric constant tensor:
#      x y z
#    x 1.855190 0.000000 -0.002370 
#    y 0.000000 1.788010 0.000000 
#    z -0.002370 0.000000 1.838770 
# 
# From -- ./inp_files/190954.got.cif
#   From: 2010.06.25/outbox.cif.g09.slc.cpg/sg15_96_cif.got.tgz:190954.got - 2010.06.28 07:06:18.
