data_PCOD8148516
_publ_section_title
;
Structure prediction by ZEFSAII (Michael W. Deem and Ramdas Pophale) SiO2 
 PCOD8148516
Probable space group: C 2/C
;
_chemical_formula_sum "Si O2"
_cell_formula_units_Z 64
_cell_length_a 17.164828
_cell_length_b 16.154867
_cell_length_c 24.477201
_cell_angle_alpha 90.000000
_cell_angle_beta 25.740470
_cell_angle_gamma 90.000000
_cell_volume 2947.744684
_symmetry_space_group_name_H-M "C 2/C"
_symmetry_group_IT_number 15
_symmetry_cell_setting 'monoclinic'
loop_
_space_group_symop_operation_xyz
x,y,z
-x,y,1/2-z
-x,-y,-z
x,-y,1/2+z
1/2+x,1/2+y,z
1/2-x,1/2+y,1/2-z
1/2-x,1/2-y,-z
1/2+x,1/2-y,1/2+z
loop_
_atom_site_type_symbol
_atom_site_label
_atom_site_fract_x
_atom_site_fract_y
_atom_site_fract_z
Si Si1 0.491045 0.971980 0.443276
Si Si2 0.449644 0.653923 0.083613
Si Si3 0.404362 0.824341 0.067362
Si Si4 0.314402 0.478822 0.163100
Si Si5 0.970759 0.855290 0.148594
Si Si6 0.806000 0.586432 0.874899
Si Si7 0.445819 0.172913 0.139810
Si Si8 0.689672 0.950201 0.534838
O O1 0.502033 0.871475 0.440375
O O2 0.662783 0.009491 0.301965
O O3 0.500000 0.000000 0.500000
O O4 0.316996 0.994912 0.516894
O O5 0.460185 0.727300 0.032370
O O6 0.429982 0.560275 0.071494
O O7 0.270767 0.675814 0.230795
O O8 0.639985 0.648031 0.996600
O O9 0.193410 0.842672 0.205746
O O10 0.470214 0.864582 0.968834
O O11 0.433756 0.410204 0.118189
O O12 0.219041 0.440369 0.171634
O O13 0.028594 0.764114 0.093295
O O14 0.128383 0.898307 0.082816
O O15 0.818461 0.507504 0.906708
O O16 0.000000 0.632486 0.750000
O O17 0.519974 0.114641 0.142292
#
# Coordination Sequence:
#
# PCOD8148516 Si02
#       8
#     8   8   8   8   8   8   8   8
#     4  11  21  43  66  89 132 183 226 267 331 402
#     4  11  22  41  70  92 130 181 225 271 343 402
#     4  10  23  41  69  93 131 184 227 276 329 414
#     4  11  21  41  68  96 130 178 219 275 343 413
#     4  10  24  40  66 102 133 173 228 278 346 400
#     4  12  24  40  67 105 133 169 228 286 343 402
#     4  11  22  44  63  99 136 180 222 279 344 407
#     4  12  23  40  66  98 141 171 222 283 335 400
#
# _framework density 21.711513
#
# number of rings (size 3 to 8) (size 9 to 14) (size 15 to 20)
#    0.000    1.000    5.000    1.500    1.750    0.500 
#    0.000    0.625    0.000    0.000    0.000    0.000 
#    0.000    0.000    0.000    0.000    0.000    0.000 
#
# Total GULP energy -396473.517860 kJ/mol
# GULP energy per Si atom -12389.797433 kJ/mol
# Density = 2.166210 g / cm^3
# Si number density = 21.711513 Si / 1000 Ang^3
#
#
#
# Elastic Constant Matrix: (Units=GPa)
#
#
# Indices 1 2 3 4 5 6 
#
# 1 118.8266 36.2012 61.2888 0.0163 -11.8043 0.0028
# 2 36.2012 89.9075 35.3923 0.0111 -18.0102 0.0132
# 3 61.2888 35.3923 121.6131 0.0104 -27.5153 0.0297
# 4 0.0163 0.0111 0.0104 36.4174 0.0049 -7.9268
# 5 -11.8043 -18.0102 -27.5153 0.0049 37.1419 -0.0016
# 6 0.0028 0.0132 0.0297 -7.9268 -0.0016 34.1807
#
#
#
# Elastic Compliance Matrix: (Units=1/GPa)
#
#
# Indices 1 2 3 4 5 6 
#
# 1 0.012040 -0.003000 -0.005596 -0.000002 -0.001774 0.000005
# 2 -0.003000 0.013842 -0.001458 -0.000004 0.004678 -0.000005
# 3 -0.005596 -0.001458 0.013101 -0.000004 0.007220 -0.000011
# 4 -0.000002 -0.000004 -0.000004 0.028919 -0.000009 0.006707
# 5 -0.001774 0.004678 0.007220 -0.000009 0.033977 -0.000008
# 6 0.000005 -0.000005 -0.000011 0.006707 -0.000008 0.030812
#
#
# Mechanical properties :
#
#
# Convention : Reuss Voigt Hill
#
# Bulk Modulus (GPa) = 52.98189 66.23465 59.60827
# Shear Modulus (GPa) = 31.42898 34.71233 33.07065
#
# Velocity S-wave (km/s) = 3.80882 4.00284 3.90703
# Velocity P-wave (km/s) = 6.61804 7.20670 6.91863
#
# Compressibility (1/GPa) = 0.01887438
#
# Stress axis : x y z
#
# Youngs Moduli (GPa) = 83.05877 72.24588 76.33225
#
# Poissons Ratio (x) = 0.21676 0.42714
# Poissons Ratio (y) = 0.24920 0.11127
# Poissons Ratio (z) = 0.46478 0.10531
#
# Static dielectric constant tensor:
#      x y z
#    x 3.838690 0.000040 -0.257850 
#    y 0.000040 4.349740 -0.000020 
#    z -0.257850 -0.000020 4.167370 
# 
# 
# High freq. dielectric constant tensor:
#      x y z
#    x 1.831860 0.000000 -0.001560 
#    y 0.000000 1.868290 0.000010 
#    z -0.001560 0.000010 1.859650 
# 
# From -- ./inp_files/274825.got.cif
#   From: 2010.06.25/outbox.cif.g09.slc.cpg/sg15_138_cif.got.tgz:274825.got - 2010.06.28 07:06:18.
