data_PCOD8148576
_publ_section_title
;
Structure prediction by ZEFSAII (Michael W. Deem and Ramdas Pophale) SiO2 
 PCOD8148576
Probable space group: C 2/C
;
_chemical_formula_sum "Si O2"
_cell_formula_units_Z 48
_cell_length_a 11.383789
_cell_length_b 14.506108
_cell_length_c 14.996799
_cell_angle_alpha 90.000000
_cell_angle_beta 53.210192
_cell_angle_gamma 90.000000
_cell_volume 1983.265883
_symmetry_space_group_name_H-M "C 2/C"
_symmetry_group_IT_number 15
_symmetry_cell_setting 'monoclinic'
loop_
_space_group_symop_operation_xyz
x,y,z
-x,y,1/2-z
-x,-y,-z
x,-y,1/2+z
1/2+x,1/2+y,z
1/2-x,1/2+y,1/2-z
1/2-x,1/2-y,-z
1/2+x,1/2-y,1/2+z
loop_
_atom_site_type_symbol
_atom_site_label
_atom_site_fract_x
_atom_site_fract_y
_atom_site_fract_z
Si Si1 0.334027 0.487657 0.046893
Si Si2 0.032426 0.671894 0.924244
Si Si3 0.773246 0.898109 0.885169
Si Si4 0.500000 0.299585 0.250000
Si Si5 0.192170 0.932240 0.251817
Si Si6 0.000000 0.744539 0.750000
Si Si7 0.227230 0.195191 0.421385
O O1 0.259660 0.437576 0.166319
O O2 0.260528 0.587038 0.067266
O O3 0.500000 0.500000 0.000000
O O4 0.319189 0.429581 0.963560
O O5 0.179116 0.611016 0.867383
O O6 0.072673 0.773186 0.946308
O O7 0.993260 0.679262 0.838677
O O8 0.900996 0.622865 0.037897
O O9 0.852722 0.804385 0.821561
O O10 0.826704 0.967194 0.783516
O O11 0.539131 0.372480 0.312927
O O12 0.365522 0.229673 0.302818
O O13 0.250000 0.250000 0.500000
#
# Coordination Sequence:
#
# PCOD8148576 Si02
#       7
#     8   8   8   4   8   4   8
#     4  12  24  41  67  98 131 179 231 279 344 416
#     4  11  25  43  65  97 132 174 223 281 345 408
#     4  12  25  44  68  97 136 177 224 283 342 411
#     4  10  23  42  63  90 130 170 216 274 333 394
#     4  11  23  43  66  94 132 174 221 280 339 403
#     4  12  25  44  67  96 132 178 222 276 341 406
#     4  11  24  41  64  93 128 171 220 276 336 402
#
# _framework density 24.202504999999999
#
# number of rings (size 3 to 8) (size 9 to 14) (size 15 to 20)
#    0.000    0.667    0.000    9.500    0.000    6.667 
#    0.000    0.000    0.000    0.000    0.000    0.000 
#    0.000    0.000    0.000    0.000    0.000    0.000 
#
# Total GULP energy -297447.845555 kJ/mol
# GULP energy per Si atom -12393.660231 kJ/mol
# Density = 2.414742 g / cm^3
# Si number density = 24.202505 Si / 1000 Ang^3
#
#
#
# Elastic Constant Matrix: (Units=GPa)
#
#
# Indices 1 2 3 4 5 6 
#
# 1 64.7246 -6.1797 -2.2692 0.0000 -13.0458 0.0000
# 2 -6.1797 63.9812 -2.2251 0.0000 -12.5289 0.0000
# 3 -2.2692 -2.2251 68.7863 0.0000 4.0117 0.0000
# 4 0.0000 0.0000 0.0000 32.8675 0.0000 2.9980
# 5 -13.0458 -12.5289 4.0117 0.0000 48.5674 0.0000
# 6 0.0000 0.0000 0.0000 2.9980 0.0000 35.3332
#
#
#
# Elastic Compliance Matrix: (Units=1/GPa)
#
#
# Indices 1 2 3 4 5 6 
#
# 1 0.016752 0.002639 0.000337 0.000000 0.005153 0.000000
# 2 0.002639 0.016882 0.000339 0.000000 0.005036 0.000000
# 3 0.000337 0.000339 0.014620 0.000000 -0.001029 0.000000
# 4 0.000000 0.000000 0.000000 0.030663 0.000000 -0.002602
# 5 0.005153 0.005036 -0.001029 0.000000 0.023358 0.000000
# 6 0.000000 0.000000 0.000000 -0.002602 0.000000 0.028523
#
#
# Mechanical properties :
#
#
# Convention : Reuss Voigt Hill
#
# Bulk Modulus (GPa) = 18.21950 19.57158 18.89554
# Shear Modulus (GPa) = 35.09705 37.23135 36.16420
#
# Velocity S-wave (km/s) = 3.81220 3.92641 3.86973
# Velocity P-wave (km/s) = 5.18859 5.35348 5.27168
#
# Compressibility (1/GPa) = 0.05488624
#
# Stress axis : x y z
#
# Youngs Moduli (GPa) = 59.69282 59.23328 68.39980
#
# Poissons Ratio (x) = -0.15630 -0.02308
# Poissons Ratio (y) = -0.15752 -0.02322
# Poissons Ratio (z) = -0.02015 -0.02011
#
# Static dielectric constant tensor:
#      x y z
#    x 3.149600 0.000000 1.255630 
#    y 0.000000 4.359300 0.000000 
#    z 1.255630 0.000000 3.525000 
# 
# 
# High freq. dielectric constant tensor:
#      x y z
#    x 1.964530 0.000000 0.000940 
#    y 0.000000 1.966950 0.000000 
#    z 0.000940 0.000000 1.962400 
# 
# From -- ./inp_files/144106.got.cif
#   From: 2010.06.25/outbox.cif.g09.slc.cpg/sg15_73_cif.got.tgz:144106.got - 2010.06.28 07:06:18.
