data_PCOD8148033
_publ_section_title
;
Structure prediction by ZEFSAII (Michael W. Deem and Ramdas Pophale) SiO2 
 PCOD8148033
Probable space group: C 2/C
;
_chemical_formula_sum "Si O2"
_cell_formula_units_Z 64
_cell_length_a 31.443364
_cell_length_b 17.856782
_cell_length_c 9.562338
_cell_angle_alpha 90.000000
_cell_angle_beta 141.501603
_cell_angle_gamma 90.000000
_cell_volume 3342.185740
_symmetry_space_group_name_H-M "C 2/C"
_symmetry_group_IT_number 15
_symmetry_cell_setting 'monoclinic'
loop_
_space_group_symop_operation_xyz
x,y,z
-x,y,1/2-z
-x,-y,-z
x,-y,1/2+z
1/2+x,1/2+y,z
1/2-x,1/2+y,1/2-z
1/2-x,1/2-y,-z
1/2+x,1/2-y,1/2+z
loop_
_atom_site_type_symbol
_atom_site_label
_atom_site_fract_x
_atom_site_fract_y
_atom_site_fract_z
Si Si1 0.253619 0.594683 0.758085
Si Si2 0.579307 0.303236 0.425689
Si Si3 0.830636 0.275390 0.550502
Si Si4 0.304915 0.185284 0.288489
Si Si5 0.866642 0.787943 0.647743
Si Si6 0.468390 0.599226 0.312874
Si Si7 0.265198 0.457867 0.976317
Si Si8 0.595005 0.551651 0.818891
O O1 0.184739 0.642196 0.553282
O O2 0.244073 0.539960 0.866316
O O3 0.269818 0.547073 0.657425
O O4 0.311643 0.654277 0.945189
O O5 0.500000 0.286258 0.250000
O O6 0.600804 0.258684 0.340643
O O7 0.631394 0.274878 0.680718
O O8 0.595196 0.392271 0.452023
O O9 0.768155 0.219850 0.361706
O O10 0.839902 0.279400 0.741097
O O11 0.355803 0.206729 0.546984
O O12 0.293067 0.097070 0.236010
O O13 0.939809 0.824567 0.804278
O O14 0.500000 0.623073 0.250000
O O15 0.526590 0.570137 0.562339
O O16 0.409937 0.534664 0.143030
O O17 0.339350 0.435706 0.108547
#
# Coordination Sequence:
#
# PCOD8148033 Si02
#       8
#     8   8   8   8   8   8   8   8
#     4  10  23  36  58  84 110 147 187 233 282 338
#     4  12  24  38  55  82 114 152 191 238 279 328
#     4   9  20  39  57  79 113 145 190 230 285 332
#     4   9  20  38  58  79 108 153 185 235 281 337
#     4  11  23  35  53  82 112 147 200 226 276 328
#     4  11  23  34  52  75 115 163 196 221 259 327
#     4  11  21  37  58  85 114 148 186 231 287 328
#     4  11  23  35  51  78 119 158 187 229 266 326
#
# _framework density 19.149145999999998
#
# number of rings (size 3 to 8) (size 9 to 14) (size 15 to 20)
#    0.000    1.500    3.750    1.875    5.250    3.000 
#    0.000    0.000    0.000    0.000    0.000    8.750 
#    0.000    0.000    0.000    0.000    0.000    0.000 
#
# Total GULP energy -396642.485848 kJ/mol
# GULP energy per Si atom -12395.077683 kJ/mol
# Density = 1.910556 g / cm^3
# Si number density = 19.149146 Si / 1000 Ang^3
#
#
#
# Elastic Constant Matrix: (Units=GPa)
#
#
# Indices 1 2 3 4 5 6 
#
# 1 88.1622 16.9720 9.9611 0.0000 3.2888 0.0000
# 2 16.9720 46.3655 16.0835 0.0000 3.8952 0.0000
# 3 9.9611 16.0835 61.7499 0.0000 -14.4424 0.0000
# 4 0.0000 0.0000 0.0000 34.0188 0.0000 -5.9274
# 5 3.2888 3.8952 -14.4424 0.0000 25.5528 0.0000
# 6 0.0000 0.0000 0.0000 -5.9274 0.0000 26.3235
#
#
#
# Elastic Compliance Matrix: (Units=1/GPa)
#
#
# Indices 1 2 3 4 5 6 
#
# 1 0.012312 -0.003874 -0.001394 0.000000 -0.001782 0.000000
# 2 -0.003874 0.026514 -0.008193 0.000000 -0.008174 0.000000
# 3 -0.001394 -0.008193 0.021764 0.000000 0.013729 0.000000
# 4 0.000000 0.000000 0.000000 0.030596 0.000000 0.006889
# 5 -0.001782 -0.008174 0.013729 0.000000 0.048370 0.000000
# 6 0.000000 0.000000 0.000000 0.006889 0.000000 0.039540
#
#
# Mechanical properties :
#
#
# Convention : Reuss Voigt Hill
#
# Bulk Modulus (GPa) = 29.70003 31.36788 30.53395
# Shear Modulus (GPa) = 23.01586 27.39640 25.20613
#
# Velocity S-wave (km/s) = 3.47064 3.78654 3.63203
# Velocity P-wave (km/s) = 5.62174 5.96101 5.79386
#
# Compressibility (1/GPa) = 0.03367000
#
# Stress axis : x y z
#
# Youngs Moduli (GPa) = 81.21867 37.71538 45.94691
#
# Poissons Ratio (x) = 0.14610 0.06405
# Poissons Ratio (y) = 0.31461 0.37644
# Poissons Ratio (z) = 0.11322 0.30900
#
# Static dielectric constant tensor:
#      x y z
#    x 3.029160 0.000000 0.530370 
#    y 0.000000 3.687040 0.000000 
#    z 0.530370 0.000000 2.269260 
# 
# 
# High freq. dielectric constant tensor:
#      x y z
#    x 1.736940 0.000000 -0.021480 
#    y 0.000000 1.728400 0.000000 
#    z -0.021480 0.000000 1.732760 
# 
# From -- ./inp_files/70603.got.cif
#   From: 2010.06.25/outbox.cif.g09.slc.cpg/sg15_36_cif.got.tgz:70603.got - 2010.06.28 07:06:18.
