data_PCOD8148906
_publ_section_title
;
Structure prediction by ZEFSAII (Michael W. Deem and Ramdas Pophale) SiO2 
 PCOD8148906
Probable space group: C 2/C
;
_chemical_formula_sum "Si O2"
_cell_formula_units_Z 56
_cell_length_a 13.735136
_cell_length_b 11.685211
_cell_length_c 29.736668
_cell_angle_alpha 90.000000
_cell_angle_beta 30.230062
_cell_angle_gamma 90.000000
_cell_volume 2402.914459
_symmetry_space_group_name_H-M "C 2/C"
_symmetry_group_IT_number 15
_symmetry_cell_setting 'monoclinic'
loop_
_space_group_symop_operation_xyz
x,y,z
-x,y,1/2-z
-x,-y,-z
x,-y,1/2+z
1/2+x,1/2+y,z
1/2-x,1/2+y,1/2-z
1/2-x,1/2-y,-z
1/2+x,1/2-y,1/2+z
loop_
_atom_site_type_symbol
_atom_site_label
_atom_site_fract_x
_atom_site_fract_y
_atom_site_fract_z
Si Si1 0.420029 0.995894 0.580549
Si Si2 0.500000 0.002927 0.250000
Si Si3 0.490814 0.188600 0.116936
Si Si4 0.102248 0.660207 0.578577
Si Si5 0.000000 0.951611 0.750000
Si Si6 0.608595 0.564456 0.870779
Si Si7 0.242083 0.949469 0.932905
Si Si8 0.100060 0.133542 0.305275
O O1 0.528725 0.087435 0.566631
O O2 0.500000 0.000000 0.500000
O O3 0.465030 0.865442 0.577722
O O4 0.192835 0.028084 0.672913
O O5 0.657815 0.929682 0.215521
O O6 0.652169 0.076278 0.157545
O O7 0.456322 0.323120 0.130062
O O8 0.693999 0.152606 0.058215
O O9 0.330992 0.120598 0.210409
O O10 0.250000 0.750000 0.500000
O O11 0.190215 0.576583 0.580890
O O12 0.933061 0.735699 0.667311
O O13 0.002586 0.878989 0.702525
O O14 0.534625 0.459949 0.868590
O O15 0.494171 0.554487 0.965227
#
# Coordination Sequence:
#
# PCOD8148906 Si02
#       8
#     8   4   8   8   4   8   8   8
#     4  10  23  43  67 103 137 178 236 294 347 421
#     4  12  26  47  69 104 146 186 241 291 354 446
#     4  10  24  44  70 101 141 185 237 295 358 419
#     4  11  22  41  73  98 139 186 238 289 353 421
#     4  10  24  43  69 106 136 178 245 289 358 414
#     4  12  25  46  73  99 148 190 238 291 363 432
#     4  11  24  46  70 104 137 188 239 296 358 424
#     4  11  23  44  70 105 140 192 234 301 360 425
#
# _framework density 23.305032000000001
#
# number of rings (size 3 to 8) (size 9 to 14) (size 15 to 20)
#    0.000    1.143    2.857    2.571    6.000    6.286 
#    2.571    1.429    0.000    0.000    0.000    0.000 
#    0.000    0.000    0.000    0.000    0.000    0.000 
#
# Total GULP energy -346920.931875 kJ/mol
# GULP energy per Si atom -12390.033281 kJ/mol
# Density = 2.325199 g / cm^3
# Si number density = 23.305032 Si / 1000 Ang^3
#
#
#
# Elastic Constant Matrix: (Units=GPa)
#
#
# Indices 1 2 3 4 5 6 
#
# 1 56.7512 21.4745 35.6584 -0.0010 4.2493 -0.0001
# 2 21.4745 115.8255 10.5743 0.0002 4.2566 -0.0002
# 3 35.6584 10.5743 140.4823 0.0030 4.1319 -0.0018
# 4 -0.0010 0.0002 0.0030 31.6638 -0.0021 0.8302
# 5 4.2493 4.2566 4.1319 -0.0021 47.6159 -0.0001
# 6 -0.0001 -0.0002 -0.0018 0.8302 -0.0001 13.3654
#
#
#
# Elastic Compliance Matrix: (Units=1/GPa)
#
#
# Indices 1 2 3 4 5 6 
#
# 1 0.022476 -0.003630 -0.005396 0.000001 -0.001213 -0.000001
# 2 -0.003630 0.009304 0.000237 0.000000 -0.000528 0.000000
# 3 -0.005396 0.000237 0.008478 -0.000001 -0.000275 0.000001
# 4 0.000001 0.000000 -0.000001 0.031633 0.000001 -0.001965
# 5 -0.001213 -0.000528 -0.000275 0.000001 0.021181 0.000000
# 6 -0.000001 0.000000 0.000001 -0.001965 0.000000 0.074942
#
#
# Mechanical properties :
#
#
# Convention : Reuss Voigt Hill
#
# Bulk Modulus (GPa) = 44.09232 49.83035 46.96134
# Shear Modulus (GPa) = 25.88617 34.88581 30.38599
#
# Velocity S-wave (km/s) = 3.33641 3.87320 3.61479
# Velocity P-wave (km/s) = 5.81403 6.43665 6.13325
#
# Compressibility (1/GPa) = 0.02267969
#
# Stress axis : x y z
#
# Youngs Moduli (GPa) = 44.49266 107.47506 117.94818
#
# Poissons Ratio (x) = 0.39012 0.63645
# Poissons Ratio (y) = 0.16150 -0.02790
# Poissons Ratio (z) = 0.24008 -0.02542
#
# Static dielectric constant tensor:
#      x y z
#    x 4.144080 -0.000010 0.096730 
#    y -0.000010 5.516530 -0.000170 
#    z 0.096730 -0.000170 4.719960 
# 
# 
# High freq. dielectric constant tensor:
#      x y z
#    x 1.915190 0.000000 -0.001790 
#    y 0.000000 1.900550 0.000000 
#    z -0.001790 0.000000 1.955610 
# 
# From -- ./inp_files/313749.got.cif
#   From: 2010.06.25/outbox.cif.g09.slc.cpg/sg15_157_cif.got.tgz:313749.got - 2010.06.28 07:06:18.
