data_PCOD8148362
_publ_section_title
;
Structure prediction by ZEFSAII (Michael W. Deem and Ramdas Pophale) SiO2 
 PCOD8148362
Probable space group: C 2/C
;
_chemical_formula_sum "Si O2"
_cell_formula_units_Z 64
_cell_length_a 24.046218
_cell_length_b 14.895971
_cell_length_c 13.320227
_cell_angle_alpha 90.000000
_cell_angle_beta 42.462720
_cell_angle_gamma 90.000000
_cell_volume 3221.083547
_symmetry_space_group_name_H-M "C 2/C"
_symmetry_group_IT_number 15
_symmetry_cell_setting 'monoclinic'
loop_
_space_group_symop_operation_xyz
x,y,z
-x,y,1/2-z
-x,-y,-z
x,-y,1/2+z
1/2+x,1/2+y,z
1/2-x,1/2+y,1/2-z
1/2-x,1/2-y,-z
1/2+x,1/2-y,1/2+z
loop_
_atom_site_type_symbol
_atom_site_label
_atom_site_fract_x
_atom_site_fract_y
_atom_site_fract_z
Si Si1 0.920269 0.720779 0.201483
Si Si2 0.269635 0.084720 0.837097
Si Si3 0.794783 0.016824 0.381771
Si Si4 0.274902 0.272238 0.256606
Si Si5 0.415374 0.390401 0.337298
Si Si6 0.949742 0.412961 0.027815
Si Si7 0.149168 0.387249 0.533479
Si Si8 0.702487 0.409281 0.827896
O O1 0.857653 0.770480 0.210889
O O2 0.944983 0.795854 0.249792
O O3 0.883022 0.635891 0.312563
O O4 0.995390 0.678096 0.037483
O O5 0.217196 0.156861 0.844064
O O6 0.367895 0.102938 0.704383
O O7 0.255432 0.986914 0.809326
O O8 0.232012 0.089248 0.998789
O O9 0.834296 0.063771 0.231550
O O10 0.861197 0.946530 0.332435
O O11 0.712179 0.968542 0.456420
O O12 0.197039 0.299269 0.429433
O O13 0.263309 0.173504 0.227321
O O14 0.500000 0.443293 0.250000
O O15 0.369668 0.376183 0.503425
O O16 0.922727 0.420475 0.946436
O O17 0.000000 0.500000 0.000000
#
# Coordination Sequence:
#
# PCOD8148362 Si02
#       8
#     8   8   8   8   8   8   8   8
#     4  12  21  35  63  96 129 163 211 278 326 371
#     4  10  23  41  60  96 130 169 226 259 322 405
#     4  11  22  41  65  87 127 176 215 262 315 394
#     4  11  21  37  63  90 126 168 221 261 320 383
#     4  11  23  37  61  99 124 158 217 275 328 360
#     4  11  22  36  58  94 136 166 197 268 342 385
#     4  11  20  37  59  95 124 164 218 261 324 389
#     4  11  21  39  67  90 126 170 217 266 319 387
#
# _framework density 19.86909
#
# number of rings (size 3 to 8) (size 9 to 14) (size 15 to 20)
#    0.000    1.000    5.000    4.500    1.750    1.000 
#    0.000    0.000    0.000    0.000    0.000    0.000 
#    0.000    0.000    0.000    0.000    0.000    0.000 
#
# Total GULP energy -396720.328583 kJ/mol
# GULP energy per Si atom -12397.510268 kJ/mol
# Density = 1.982387 g / cm^3
# Si number density = 19.869090 Si / 1000 Ang^3
#
#
#
# Elastic Constant Matrix: (Units=GPa)
#
#
# Indices 1 2 3 4 5 6 
#
# 1 128.7743 50.6881 48.9183 0.0000 -5.9460 0.0000
# 2 50.6881 99.1002 44.0673 0.0000 4.6138 0.0000
# 3 48.9183 44.0673 85.9656 0.0000 3.3237 0.0000
# 4 0.0000 0.0000 0.0000 34.4398 0.0000 5.4530
# 5 -5.9460 4.6138 3.3237 0.0000 34.2925 0.0000
# 6 0.0000 0.0000 0.0000 5.4530 0.0000 24.6742
#
#
#
# Elastic Compliance Matrix: (Units=1/GPa)
#
#
# Indices 1 2 3 4 5 6 
#
# 1 0.011101 -0.003825 -0.004467 0.000000 0.002872 0.000000
# 2 -0.003825 0.014431 -0.005139 0.000000 -0.002107 0.000000
# 3 -0.004467 -0.005139 0.016875 0.000000 -0.001719 0.000000
# 4 0.000000 0.000000 0.000000 0.030089 0.000000 -0.006650
# 5 0.002872 -0.002107 -0.001719 0.000000 0.030109 0.000000
# 6 0.000000 0.000000 0.000000 -0.006650 0.000000 0.041998
#
#
# Mechanical properties :
#
#
# Convention : Reuss Voigt Hill
#
# Bulk Modulus (GPa) = 64.33386 66.79863 65.56624
# Shear Modulus (GPa) = 28.30507 30.02572 29.16539
#
# Velocity S-wave (km/s) = 3.77845 3.89160 3.83545
# Velocity P-wave (km/s) = 7.17529 7.34065 7.25844
#
# Compressibility (1/GPa) = 0.01554392
#
# Stress axis : x y z
#
# Youngs Moduli (GPa) = 90.08400 69.29669 59.25787
#
# Poissons Ratio (x) = 0.26507 0.26471
# Poissons Ratio (y) = 0.34459 0.30454
# Poissons Ratio (z) = 0.40241 0.35613
#
# Static dielectric constant tensor:
#      x y z
#    x 3.709240 0.000000 0.123490 
#    y 0.000000 3.528180 0.000000 
#    z 0.123490 0.000000 3.734120 
# 
# 
# High freq. dielectric constant tensor:
#      x y z
#    x 1.782390 0.000000 -0.001360 
#    y 0.000000 1.767240 0.000000 
#    z -0.001360 0.000000 1.760150 
# 
# From -- ./inp_files/173664.got.cif
#   From: 2010.06.25/outbox.cif.g09.slc.cpg/sg15_87_cif.got.tgz:173664.got - 2010.06.28 07:06:18.
