data_PCOD8148759
_publ_section_title
;
Structure prediction by ZEFSAII (Michael W. Deem and Ramdas Pophale) SiO2 
 PCOD8148759
Probable space group: C 2/C
;
_chemical_formula_sum "Si O2"
_cell_formula_units_Z 56
_cell_length_a 16.593358
_cell_length_b 12.206743
_cell_length_c 13.738210
_cell_angle_alpha 90.000000
_cell_angle_beta 115.897465
_cell_angle_gamma 90.000000
_cell_volume 2503.240797
_symmetry_space_group_name_H-M "C 2/C"
_symmetry_group_IT_number 15
_symmetry_cell_setting 'monoclinic'
loop_
_space_group_symop_operation_xyz
x,y,z
-x,y,1/2-z
-x,-y,-z
x,-y,1/2+z
1/2+x,1/2+y,z
1/2-x,1/2+y,1/2-z
1/2-x,1/2-y,-z
1/2+x,1/2-y,1/2+z
loop_
_atom_site_type_symbol
_atom_site_label
_atom_site_fract_x
_atom_site_fract_y
_atom_site_fract_z
Si Si1 0.058474 0.152340 0.001415
Si Si2 0.610949 0.725744 0.690547
Si Si3 0.898322 0.552547 0.195542
Si Si4 0.134804 0.068746 0.864789
Si Si5 0.193445 0.642134 0.759024
Si Si6 0.669721 0.142172 0.533905
Si Si7 0.911306 0.859693 0.763884
O O1 0.075080 0.054446 0.931768
O O2 0.965167 0.217094 0.933034
O O3 0.143240 0.230880 0.026675
O O4 0.063470 0.104802 0.112617
O O5 0.580774 0.649439 0.764254
O O6 0.703050 0.678163 0.693992
O O7 0.619668 0.848912 0.737357
O O8 0.825420 0.457161 0.176789
O O9 0.000000 0.508448 0.250000
O O10 0.889757 0.584822 0.078429
O O11 0.227382 0.127689 0.940565
O O12 0.149515 0.952865 0.818832
O O13 0.155263 0.596323 0.635893
O O14 0.140851 0.746977 0.769128
O O15 0.000000 0.844499 0.750000
#
# Coordination Sequence:
#
# PCOD8148759 Si02
#       7
#     8   8   8   8   8   8   8
#     4  11  22  45  71 101 136 185 242 294 348 422
#     4  11  23  42  72 106 132 180 246 295 344 417
#     4  12  23  45  75 101 140 186 248 300 338 430
#     4  11  23  40  70 103 134 176 236 288 348 422
#     4  10  27  43  66 102 146 183 230 297 364 414
#     4  10  23  42  70 103 130 185 240 292 343 415
#     4  11  26  46  65  97 148 185 223 290 364 432
#
# _framework density 22.371001
#
# number of rings (size 3 to 8) (size 9 to 14) (size 15 to 20)
#    0.000    1.143    2.857    2.143    8.000    4.000 
#    2.571    1.429    0.000    0.000    0.000    0.000 
#    0.000    0.000    0.000    0.000    0.000    0.000 
#
# Total GULP energy -347049.213857 kJ/mol
# GULP energy per Si atom -12394.614781 kJ/mol
# Density = 2.232008 g / cm^3
# Si number density = 22.371001 Si / 1000 Ang^3
#
#
#
# Elastic Constant Matrix: (Units=GPa)
#
#
# Indices 1 2 3 4 5 6 
#
# 1 136.1676 51.6914 50.4920 0.0000 -6.0199 0.0000
# 2 51.6914 105.6858 34.4010 0.0000 -9.2948 0.0000
# 3 50.4920 34.4010 113.8916 0.0000 -6.2018 0.0000
# 4 0.0000 0.0000 0.0000 18.9002 0.0000 -4.6214
# 5 -6.0199 -9.2948 -6.2018 0.0000 39.1415 0.0000
# 6 0.0000 0.0000 0.0000 -4.6214 0.0000 36.4836
#
#
#
# Elastic Compliance Matrix: (Units=1/GPa)
#
#
# Indices 1 2 3 4 5 6 
#
# 1 0.010016 -0.003821 -0.003280 0.000000 0.000113 0.000000
# 2 -0.003821 0.012110 -0.001855 0.000000 0.001994 0.000000
# 3 -0.003280 -0.001855 0.010837 0.000000 0.000772 0.000000
# 4 0.000000 0.000000 0.000000 0.054601 0.000000 0.006916
# 5 0.000113 0.001994 0.000772 0.000000 0.026162 0.000000
# 6 0.000000 0.000000 0.000000 0.006916 0.000000 0.028286
#
#
# Mechanical properties :
#
#
# Convention : Reuss Voigt Hill
#
# Bulk Modulus (GPa) = 66.44507 69.87930 68.16218
# Shear Modulus (GPa) = 30.31406 33.51579 31.91493
#
# Velocity S-wave (km/s) = 3.68511 3.87483 3.78116
# Velocity P-wave (km/s) = 6.91900 7.16404 7.04259
#
# Compressibility (1/GPa) = 0.01505003
#
# Stress axis : x y z
#
# Youngs Moduli (GPa) = 99.84334 82.57494 92.27809
#
# Poissons Ratio (x) = 0.31553 0.30267
# Poissons Ratio (y) = 0.38151 0.17120
# Poissons Ratio (z) = 0.32748 0.15320
#
# Static dielectric constant tensor:
#      x y z
#    x 4.043010 0.000000 -0.074890 
#    y 0.000000 3.938870 0.000000 
#    z -0.074890 0.000000 4.272630 
# 
# 
# High freq. dielectric constant tensor:
#      x y z
#    x 1.892920 0.000000 -0.000120 
#    y 0.000000 1.868000 0.000000 
#    z -0.000120 0.000000 1.883720 
# 
# From -- ./inp_files/161426.got.cif
#   From: 2010.06.25/outbox.cif.g09.slc.cpg/sg15_81_cif.got.tgz:161426.got - 2010.06.28 07:06:18.
