data_PCOD8148814
_publ_section_title
;
Structure prediction by ZEFSAII (Michael W. Deem and Ramdas Pophale) SiO2 
 PCOD8148814
Probable space group: C 2/C
;
_chemical_formula_sum "Si O2"
_cell_formula_units_Z 56
_cell_length_a 28.259221
_cell_length_b 7.866222
_cell_length_c 13.018344
_cell_angle_alpha 90.000000
_cell_angle_beta 63.139760
_cell_angle_gamma 90.000000
_cell_volume 2581.672556
_symmetry_space_group_name_H-M "C 2/C"
_symmetry_group_IT_number 15
_symmetry_cell_setting 'monoclinic'
loop_
_space_group_symop_operation_xyz
x,y,z
-x,y,1/2-z
-x,-y,-z
x,-y,1/2+z
1/2+x,1/2+y,z
1/2-x,1/2+y,1/2-z
1/2-x,1/2-y,-z
1/2+x,1/2-y,1/2+z
loop_
_atom_site_type_symbol
_atom_site_label
_atom_site_fract_x
_atom_site_fract_y
_atom_site_fract_z
Si Si1 0.918824 0.088983 0.051539
Si Si2 0.814506 0.042716 0.710662
Si Si3 0.551837 0.115583 0.462997
Si Si4 0.000112 0.908804 0.866185
Si Si5 0.857830 0.353766 0.785723
Si Si6 0.129992 0.597634 0.991262
Si Si7 0.205456 0.350203 0.249636
O O1 0.941114 0.063919 0.146780
O O2 0.868223 0.963500 0.089634
O O3 0.899636 0.280228 0.061043
O O4 0.962242 0.072940 0.916307
O O5 0.823597 0.187321 0.788481
O O6 0.767762 0.106225 0.681799
O O7 0.803745 0.850967 0.765654
O O8 0.529688 0.294274 0.520525
O O9 0.584762 0.134757 0.325047
O O10 0.500000 0.000000 0.500000
O O11 0.593307 0.067833 0.514084
O O12 0.000000 0.841453 0.750000
O O13 0.867976 0.334757 0.896377
O O14 0.825520 0.529575 0.800607
O O15 0.188503 0.588669 0.882389
#
# Coordination Sequence:
#
# PCOD8148814 Si02
#       7
#     8   8   8   8   8   8   8
#     4  10  23  43  58  96 131 164 217 269 320 387
#     4  11  21  43  70  91 136 173 208 277 327 381
#     4  11  23  42  63  91 133 166 219 267 321 389
#     4  11  24  39  63  92 128 170 215 264 322 387
#     4  11  24  44  68  95 130 178 214 268 335 383
#     4  10  24  41  66  94 128 167 218 271 322 389
#     4  10  23  44  67  97 133 166 219 270 326 392
#
# _framework density 21.691362999999999
#
# number of rings (size 3 to 8) (size 9 to 14) (size 15 to 20)
#    0.000    1.429    4.286    0.000    4.000    0.571 
#    0.000    0.714    0.000    0.000    0.000    0.000 
#    0.000    0.000    0.000    0.000    0.000    0.000 
#
# Total GULP energy -346879.960413 kJ/mol
# GULP energy per Si atom -12388.570015 kJ/mol
# Density = 2.164199 g / cm^3
# Si number density = 21.691363 Si / 1000 Ang^3
#
#
#
# Elastic Constant Matrix: (Units=GPa)
#
#
# Indices 1 2 3 4 5 6 
#
# 1 121.9098 28.6888 55.3866 0.0000 -12.9658 0.0000
# 2 28.6888 95.8344 5.8383 0.0000 1.3561 0.0000
# 3 55.3866 5.8383 93.5540 0.0000 11.2118 0.0000
# 4 0.0000 0.0000 0.0000 19.9883 0.0000 -3.9077
# 5 -12.9658 1.3561 11.2118 0.0000 31.1416 0.0000
# 6 0.0000 0.0000 0.0000 -3.9077 0.0000 35.2807
#
#
#
# Elastic Compliance Matrix: (Units=1/GPa)
#
#
# Indices 1 2 3 4 5 6 
#
# 1 0.014425 -0.003878 -0.009446 0.000000 0.009576 0.000000
# 2 -0.003878 0.011519 0.001913 0.000000 -0.002805 0.000000
# 3 -0.009446 0.001913 0.017394 0.000000 -0.010278 0.000000
# 4 0.000000 0.000000 0.000000 0.051137 0.000000 0.005664
# 5 0.009576 -0.002805 -0.010278 0.000000 0.039921 0.000000
# 6 0.000000 0.000000 0.000000 0.005664 0.000000 0.028971
#
#
# Mechanical properties :
#
#
# Convention : Reuss Voigt Hill
#
# Bulk Modulus (GPa) = 48.74163 54.56949 51.65556
# Shear Modulus (GPa) = 25.90318 32.04108 28.97213
#
# Velocity S-wave (km/s) = 3.45943 3.84752 3.65862
# Velocity P-wave (km/s) = 6.20291 6.70446 6.45856
#
# Compressibility (1/GPa) = 0.02051634
#
# Stress axis : x y z
#
# Youngs Moduli (GPa) = 69.32258 86.81448 57.49274
#
# Poissons Ratio (x) = 0.33670 0.54306
# Poissons Ratio (y) = 0.26886 -0.11001
# Poissons Ratio (z) = 0.65480 -0.16612
#
# Static dielectric constant tensor:
#      x y z
#    x 4.287200 0.000000 -0.459150 
#    y 0.000000 4.299540 0.000000 
#    z -0.459150 0.000000 3.598660 
# 
# 
# High freq. dielectric constant tensor:
#      x y z
#    x 1.864960 0.000000 -0.027410 
#    y 0.000000 1.867590 0.000000 
#    z -0.027410 0.000000 1.816670 
# 
# From -- ./inp_files/125825.got.cif
#   From: 2010.06.25/outbox.cif.g09.slc.cpg/sg15_63_cif.got.tgz:125825.got - 2010.06.28 07:06:18.
