data_PCOD8148482
_publ_section_title
;
Structure prediction by ZEFSAII (Michael W. Deem and Ramdas Pophale) SiO2 
 PCOD8148482
Probable space group: C 2/C
;
_chemical_formula_sum "Si O2"
_cell_formula_units_Z 52
_cell_length_a 12.292415
_cell_length_b 14.907301
_cell_length_c 14.399383
_cell_angle_alpha 90.000000
_cell_angle_beta 116.950455
_cell_angle_gamma 90.000000
_cell_volume 2352.080314
_symmetry_space_group_name_H-M "C 2/C"
_symmetry_group_IT_number 15
_symmetry_cell_setting 'monoclinic'
loop_
_space_group_symop_operation_xyz
x,y,z
-x,y,1/2-z
-x,-y,-z
x,-y,1/2+z
1/2+x,1/2+y,z
1/2-x,1/2+y,1/2-z
1/2-x,1/2-y,-z
1/2+x,1/2-y,1/2+z
loop_
_atom_site_type_symbol
_atom_site_label
_atom_site_fract_x
_atom_site_fract_y
_atom_site_fract_z
Si Si1 0.264484 0.478663 0.885411
Si Si2 0.155359 0.176522 0.563257
Si Si3 0.372079 0.291436 0.653342
Si Si4 0.138323 0.019188 0.278309
Si Si5 0.548622 0.770476 0.910336
Si Si6 0.264691 0.364825 0.068790
Si Si7 0.000000 0.584756 0.250000
O O1 0.312814 0.573351 0.940900
O O2 0.343825 0.459454 0.823714
O O3 0.119383 0.478054 0.806670
O O4 0.291236 0.406454 0.976245
O O5 0.273169 0.222799 0.655524
O O6 0.117911 0.223543 0.452716
O O7 0.042643 0.195038 0.587116
O O8 0.500000 0.270870 0.750000
O O9 0.324833 0.391664 0.653104
O O10 0.000000 0.992373 0.250000
O O11 0.225626 0.938294 0.345794
O O12 0.638663 0.715233 0.876657
O O13 0.478971 0.849944 0.829801
O O14 0.630103 0.820529 0.020949
#
# Coordination Sequence:
#
# PCOD8148482 Si02
#       7
#     8   8   8   8   8   8   4
#     4  11  24  42  68  93 137 170 222 276 338 391
#     4  11  23  42  66  95 128 178 216 279 332 398
#     4  10  24  42  62  92 133 165 223 273 333 401
#     4  11  23  40  65  97 129 173 222 274 332 403
#     4  10  23  41  67  92 134 168 219 272 332 391
#     4  10  23  43  62 100 129 172 221 276 330 397
#     4  10  24  46  64 100 132 176 220 276 326 412
#
# _framework density 22.108089
#
# number of rings (size 3 to 8) (size 9 to 14) (size 15 to 20)
#    0.000    1.538    1.538    1.846    8.615    2.462 
#    2.769    2.308    0.000    0.000    0.000    0.000 
#    0.000    0.000    0.000    0.000    0.000    0.000 
#
# Total GULP energy -322369.465837 kJ/mol
# GULP energy per Si atom -12398.825609 kJ/mol
# Density = 2.205777 g / cm^3
# Si number density = 22.108089 Si / 1000 Ang^3
#
#
#
# Elastic Constant Matrix: (Units=GPa)
#
#
# Indices 1 2 3 4 5 6 
#
# 1 94.0872 25.0523 25.3908 0.0000 10.3320 0.0000
# 2 25.0523 82.6797 12.4802 0.0000 14.0286 0.0000
# 3 25.3908 12.4802 66.3398 0.0000 5.4556 0.0000
# 4 0.0000 0.0000 0.0000 38.0605 0.0000 6.7833
# 5 10.3320 14.0286 5.4556 0.0000 27.2319 0.0000
# 6 0.0000 0.0000 0.0000 6.7833 0.0000 35.9231
#
#
#
# Elastic Compliance Matrix: (Units=1/GPa)
#
#
# Indices 1 2 3 4 5 6 
#
# 1 0.012779 -0.002809 -0.004151 0.000000 -0.002569 0.000000
# 2 -0.002809 0.014128 -0.001090 0.000000 -0.005994 0.000000
# 3 -0.004151 -0.001090 0.016972 0.000000 -0.001264 0.000000
# 4 0.000000 0.000000 0.000000 0.027189 0.000000 -0.005134
# 5 -0.002569 -0.005994 -0.001264 0.000000 0.041037 0.000000
# 6 0.000000 0.000000 0.000000 -0.005134 0.000000 0.028807
#
#
# Mechanical properties :
#
#
# Convention : Reuss Voigt Hill
#
# Bulk Modulus (GPa) = 36.00005 40.99481 38.49743
# Shear Modulus (GPa) = 30.07143 32.25533 31.16338
#
# Velocity S-wave (km/s) = 3.69209 3.82381 3.75853
# Velocity P-wave (km/s) = 5.87319 6.17078 6.02382
#
# Compressibility (1/GPa) = 0.02777774
#
# Stress axis : x y z
#
# Youngs Moduli (GPa) = 78.25387 70.78345 58.92190
#
# Poissons Ratio (x) = 0.19887 0.24459
# Poissons Ratio (y) = 0.21985 0.06420
# Poissons Ratio (z) = 0.32484 0.07712
#
# Static dielectric constant tensor:
#      x y z
#    x 3.826550 0.000000 0.180220 
#    y 0.000000 4.001510 0.000000 
#    z 0.180220 0.000000 3.945200 
# 
# 
# High freq. dielectric constant tensor:
#      x y z
#    x 1.857650 0.000000 0.014280 
#    y 0.000000 1.876870 0.000000 
#    z 0.014280 0.000000 1.870340 
# 
# From -- ./inp_files/144335.got.cif
#   From: 2010.06.25/outbox.cif.g09.slc.cpg/sg15_73_cif.got.tgz:144335.got - 2010.06.28 07:06:18.
