data_PCOD8148716
_publ_section_title
;
Structure prediction by ZEFSAII (Michael W. Deem and Ramdas Pophale) SiO2 
 PCOD8148716
Probable space group: C 2/C
;
_chemical_formula_sum "Si O2"
_cell_formula_units_Z 52
_cell_length_a 28.706542
_cell_length_b 8.543637
_cell_length_c 10.992583
_cell_angle_alpha 90.000000
_cell_angle_beta 61.099968
_cell_angle_gamma 90.000000
_cell_volume 2360.270843
_symmetry_space_group_name_H-M "C 2/C"
_symmetry_group_IT_number 15
_symmetry_cell_setting 'monoclinic'
loop_
_space_group_symop_operation_xyz
x,y,z
-x,y,1/2-z
-x,-y,-z
x,-y,1/2+z
1/2+x,1/2+y,z
1/2-x,1/2+y,1/2-z
1/2-x,1/2-y,-z
1/2+x,1/2-y,1/2+z
loop_
_atom_site_type_symbol
_atom_site_label
_atom_site_fract_x
_atom_site_fract_y
_atom_site_fract_z
Si Si1 0.372996 0.163974 0.258892
Si Si2 0.452009 0.099061 0.606521
Si Si3 0.106869 0.888824 0.492565
Si Si4 0.711376 0.264384 0.436885
Si Si5 0.375807 0.260394 0.528950
Si Si6 0.500000 0.686085 0.250000
Si Si7 0.790840 0.520153 0.725334
O O1 0.373155 0.253370 0.386149
O O2 0.314741 0.091969 0.301747
O O3 0.410410 0.014405 0.223516
O O4 0.393949 0.280027 0.126600
O O5 0.429488 0.186606 0.515872
O O6 0.470916 0.216729 0.684374
O O7 0.500000 0.000000 0.500000
O O8 0.149031 0.809822 0.535539
O O9 0.047995 0.910918 0.625777
O O10 0.127073 0.059262 0.428044
O O11 0.750000 0.250000 0.500000
O O12 0.733462 0.407076 0.326994
O O13 0.714842 0.089220 0.383198
O O14 0.327132 0.169809 0.651050
#
# Coordination Sequence:
#
# PCOD8148716 Si02
#       7
#     8   8   8   8   8   4   8
#     4  10  23  44  66 101 136 172 229 276 335 405
#     4  11  23  42  70  95 131 181 230 278 340 396
#     4  11  27  44  66 101 138 182 226 280 340 405
#     4  11  24  43  71  98 138 176 226 281 339 402
#     4  11  25  42  71  97 140 177 223 283 346 403
#     4  12  26  44  68  98 140 174 236 278 330 406
#     4  10  23  42  68 104 130 177 225 274 346 405
#
# _framework density 22.031369000000002
#
# number of rings (size 3 to 8) (size 9 to 14) (size 15 to 20)
#    0.000    1.231    1.538    2.769   10.769    4.308 
#    0.000    5.385    0.000    0.000    0.000    0.000 
#    0.000    0.000    0.000    0.000    0.000    0.000 
#
# Total GULP energy -322269.585304 kJ/mol
# GULP energy per Si atom -12394.984050 kJ/mol
# Density = 2.198122 g / cm^3
# Si number density = 22.031369 Si / 1000 Ang^3
#
#
#
# Elastic Constant Matrix: (Units=GPa)
#
#
# Indices 1 2 3 4 5 6 
#
# 1 127.3410 37.9410 36.7029 0.0000 5.2048 0.0000
# 2 37.9410 127.3952 23.9867 0.0000 -6.0584 0.0000
# 3 36.7029 23.9867 66.0781 0.0000 -2.4770 0.0000
# 4 0.0000 0.0000 0.0000 11.5418 0.0000 0.6923
# 5 5.2048 -6.0584 -2.4770 0.0000 36.9589 0.0000
# 6 0.0000 0.0000 0.0000 0.6923 0.0000 30.6555
#
#
#
# Elastic Compliance Matrix: (Units=1/GPa)
#
#
# Indices 1 2 3 4 5 6 
#
# 1 0.009975 -0.002159 -0.004835 0.000000 -0.002083 0.000000
# 2 -0.002159 0.008945 -0.001986 0.000000 0.001637 0.000000
# 3 -0.004835 -0.001986 0.018600 0.000000 0.001602 0.000000
# 4 0.000000 0.000000 0.000000 0.086759 0.000000 -0.001959
# 5 -0.002083 0.001637 0.001602 0.000000 0.027726 0.000000
# 6 0.000000 0.000000 0.000000 -0.001959 0.000000 0.032665
#
#
# Mechanical properties :
#
#
# Convention : Reuss Voigt Hill
#
# Bulk Modulus (GPa) = 51.12740 57.56393 54.34567
# Shear Modulus (GPa) = 23.90629 30.64349 27.27489
#
# Velocity S-wave (km/s) = 3.29766 3.73353 3.52234
# Velocity P-wave (km/s) = 6.14463 6.69108 6.42367
#
# Compressibility (1/GPa) = 0.01955898
#
# Stress axis : x y z
#
# Youngs Moduli (GPa) = 100.25092 111.80011 53.76329
#
# Poissons Ratio (x) = 0.24143 0.25993
# Poissons Ratio (y) = 0.21649 0.10678
# Poissons Ratio (z) = 0.48469 0.22204
#
# Static dielectric constant tensor:
#      x y z
#    x 5.352640 0.000000 0.073150 
#    y 0.000000 3.861360 0.000000 
#    z 0.073150 0.000000 3.845010 
# 
# 
# High freq. dielectric constant tensor:
#      x y z
#    x 1.888370 0.000000 -0.001010 
#    y 0.000000 1.879520 0.000000 
#    z -0.001010 0.000000 1.848780 
# 
# From -- ./inp_files/125507.got.cif
#   From: 2010.06.25/outbox.cif.g09.slc.cpg/sg15_63_cif.got.tgz:125507.got - 2010.06.28 07:06:18.
