data_PCOD8148751
_publ_section_title
;
Structure prediction by ZEFSAII (Michael W. Deem and Ramdas Pophale) SiO2 
 PCOD8148751
Probable space group: C 2/C
;
_chemical_formula_sum "Si O2"
_cell_formula_units_Z 48
_cell_length_a 4.933574
_cell_length_b 28.394220
_cell_length_c 17.297222
_cell_angle_alpha 90.000000
_cell_angle_beta 61.212120
_cell_angle_gamma 90.000000
_cell_volume 2123.609031
_symmetry_space_group_name_H-M "C 2/C"
_symmetry_group_IT_number 15
_symmetry_cell_setting 'monoclinic'
loop_
_space_group_symop_operation_xyz
x,y,z
-x,y,1/2-z
-x,-y,-z
x,-y,1/2+z
1/2+x,1/2+y,z
1/2-x,1/2+y,1/2-z
1/2-x,1/2-y,-z
1/2+x,1/2-y,1/2+z
loop_
_atom_site_type_symbol
_atom_site_label
_atom_site_fract_x
_atom_site_fract_y
_atom_site_fract_z
Si Si1 0.274450 0.353647 0.537288
Si Si2 0.637455 0.861019 0.312294
Si Si3 0.834202 0.416015 0.694283
Si Si4 0.133645 0.069312 0.929038
Si Si5 0.375567 0.197637 0.982210
Si Si6 0.312609 0.519298 0.424443
O O1 0.369407 0.390131 0.454331
O O2 0.587474 0.337170 0.535582
O O3 0.054787 0.376683 0.630136
O O4 0.105485 0.308903 0.522694
O O5 0.500000 0.844850 0.250000
O O6 0.472005 0.909937 0.362788
O O7 0.562516 0.817173 0.379254
O O8 0.000000 0.871177 0.250000
O O9 0.500000 0.391393 0.750000
O O10 0.758380 0.460741 0.650214
O O11 0.000000 0.434948 0.750000
O O12 0.064998 0.023173 0.886528
O O13 0.081635 0.058684 0.028320
O O14 0.250000 0.250000 0.000000
O O15 0.000000 0.500000 0.500000
#
# Coordination Sequence:
#
# PCOD8148751 Si02
#       6
#     8   8   8   8   8   8
#     4  11  22  44  71  94 130 180 224 271 339 427
#     4  11  24  43  68 102 142 174 217 291 353 400
#     4  12  25  43  64  99 141 180 231 294 341 390
#     4  10  23  42  69  97 133 194 240 275 344 427
#     4  11  24  45  75 103 129 176 229 272 342 440
#     4  11  23  42  70  93 137 189 246 284 334 410
#
# _framework density 22.60303
#
# number of rings (size 3 to 8) (size 9 to 14) (size 15 to 20)
#    0.000    1.000    1.667    6.500    4.667    0.000 
#    3.000    5.000    0.000    0.000    0.000    0.000 
#    0.000    0.000    0.000    0.000    0.000    0.000 
#
# Total GULP energy -297506.609483 kJ/mol
# GULP energy per Si atom -12396.108728 kJ/mol
# Density = 2.255158 g / cm^3
# Si number density = 22.603030 Si / 1000 Ang^3
#
#
#
# Elastic Constant Matrix: (Units=GPa)
#
#
# Indices 1 2 3 4 5 6 
#
# 1 130.3409 33.7384 51.8530 0.0000 -15.0676 0.0000
# 2 33.7384 117.6011 52.4648 0.0000 -13.3131 0.0000
# 3 51.8530 52.4648 115.1536 0.0000 -11.1878 0.0000
# 4 0.0000 0.0000 0.0000 -5.5726 0.0000 -3.8348
# 5 -15.0676 -13.3131 -11.1878 0.0000 57.0154 0.0000
# 6 0.0000 0.0000 0.0000 -3.8348 0.0000 37.3204
#
#
#
# Elastic Compliance Matrix: (Units=1/GPa)
#
#
# Indices 1 2 3 4 5 6 
#
# 1 0.009580 -0.000895 -0.003752 0.000000 0.001587 0.000000
# 2 -0.000895 0.010895 -0.004421 0.000000 0.001440 0.000000
# 3 -0.003752 -0.004421 0.012428 0.000000 0.000415 0.000000
# 4 0.000000 0.000000 0.000000 -0.167599 0.000000 -0.017221
# 5 0.001587 0.001440 0.000415 0.000000 0.018376 0.000000
# 6 0.000000 0.000000 0.000000 -0.017221 0.000000 0.025025
#
#
# Mechanical properties :
#
#
# Convention : Reuss Voigt Hill
#
# Bulk Modulus (GPa) = 67.71633 71.02314 69.36973
# Shear Modulus (GPa) = -73.27545 32.75529 -20.26008
#
# Velocity S-wave (km/s) = -5.69989 3.81091 -2.99715
# Velocity P-wave (km/s) = 3.64615 7.13121 4.33358
#
# Compressibility (1/GPa) = 0.01476749
#
# Stress axis : x y z
#
# Youngs Moduli (GPa) = 104.38591 91.78115 80.46273
#
# Poissons Ratio (x) = 0.08214 0.30189
# Poissons Ratio (y) = 0.09342 0.35574
# Poissons Ratio (z) = 0.39164 0.40578
#
# Static dielectric constant tensor:
#      x y z
#    x 4.696830 0.000000 -0.107960 
#    y 0.000000 4.107440 0.000000 
#    z -0.107960 0.000000 3.736680 
# 
# 
# High freq. dielectric constant tensor:
#      x y z
#    x 1.921000 0.000000 -0.008420 
#    y 0.000000 1.869190 0.000000 
#    z -0.008420 0.000000 1.884050 
# 
# From -- ./inp_files/130584.got.cif
#   From: 2010.06.25/outbox.cif.g09.slc.cpg/sg15_66_cif.got.tgz:130584.got - 2010.06.28 07:06:18.
