data_PCOD8148106
_publ_section_title
;
Structure prediction by ZEFSAII (Michael W. Deem and Ramdas Pophale) SiO2 
 PCOD8148106
Probable space group: C 2/C
;
_chemical_formula_sum "Si O2"
_cell_formula_units_Z 40
_cell_length_a 10.016201
_cell_length_b 16.035932
_cell_length_c 10.984684
_cell_angle_alpha 90.000000
_cell_angle_beta 81.806306
_cell_angle_gamma 90.000000
_cell_volume 1746.339633
_symmetry_space_group_name_H-M "C 2/C"
_symmetry_group_IT_number 15
_symmetry_cell_setting 'monoclinic'
loop_
_space_group_symop_operation_xyz
x,y,z
-x,y,1/2-z
-x,-y,-z
x,-y,1/2+z
1/2+x,1/2+y,z
1/2-x,1/2+y,1/2-z
1/2-x,1/2-y,-z
1/2+x,1/2-y,1/2+z
loop_
_atom_site_type_symbol
_atom_site_label
_atom_site_fract_x
_atom_site_fract_y
_atom_site_fract_z
Si Si1 0.485653 0.815670 0.387191
Si Si2 0.941374 0.846337 0.490734
Si Si3 0.231616 0.568788 0.877841
Si Si4 0.224164 0.094945 0.002338
Si Si5 0.149315 0.070384 0.264009
O O1 0.500000 0.775912 0.250000
O O2 0.522391 0.749713 0.487382
O O3 0.583582 0.894405 0.387077
O O4 0.334018 0.848393 0.421864
O O5 0.844937 0.858804 0.385651
O O6 0.845984 0.879181 0.612714
O O7 0.079609 0.897761 0.452974
O O8 0.263607 0.517055 0.748087
O O9 0.237609 0.503206 0.991157
O O10 0.202867 0.129041 0.144853
O O11 0.000000 0.040705 0.250000
#
# Coordination Sequence:
#
# PCOD8148106 Si02
#       5
#     8   8   8   8   8
#     4  12  25  39  59  96 129 158 196 258 314 352
#     4  11  21  42  66  89 123 159 206 254 301 358
#     4  10  23  38  66  87 122 160 209 245 295 370
#     4   9  21  40  63  89 120 166 199 246 302 364
#     4   8  19  36  62  88 115 159 201 246 290 358
#
# _framework density 22.905052000000001
#
# number of rings (size 3 to 8) (size 9 to 14) (size 15 to 20)
#    1.200    0.800    0.000    4.200    2.800    0.000 
#    0.000    1.000    0.000    4.800    0.000    0.000 
#    0.000    0.000    0.000    0.000    0.000    0.000 
#
# Total GULP energy -247811.997881 kJ/mol
# GULP energy per Si atom -12390.599894 kJ/mol
# Density = 2.285292 g / cm^3
# Si number density = 22.905052 Si / 1000 Ang^3
#
#
#
# Elastic Constant Matrix: (Units=GPa)
#
#
# Indices 1 2 3 4 5 6 
#
# 1 99.3886 12.2981 29.2300 0.0000 -16.5312 0.0000
# 2 12.2981 60.6432 5.3152 0.0000 -7.4385 0.0000
# 3 29.2300 5.3152 30.5611 0.0000 -15.0100 0.0000
# 4 0.0000 0.0000 0.0000 18.4259 0.0000 0.7955
# 5 -16.5312 -7.4385 -15.0100 0.0000 25.0299 0.0000
# 6 0.0000 0.0000 0.0000 0.7955 0.0000 36.7818
#
#
#
# Elastic Compliance Matrix: (Units=1/GPa)
#
#
# Indices 1 2 3 4 5 6 
#
# 1 0.014202 -0.001610 -0.012660 0.000000 0.001309 0.000000
# 2 -0.001610 0.017306 0.000756 0.000000 0.004534 0.000000
# 3 -0.012660 0.000756 0.057696 0.000000 0.026462 0.000000
# 4 0.000000 0.000000 0.000000 0.054322 0.000000 -0.001175
# 5 0.001309 0.004534 0.026462 0.000000 0.058033 0.000000
# 6 0.000000 0.000000 0.000000 -0.001175 0.000000 0.027213
#
#
# Mechanical properties :
#
#
# Convention : Reuss Voigt Hill
#
# Bulk Modulus (GPa) = 16.08333 31.58662 23.83498
# Shear Modulus (GPa) = 18.08160 25.63082 21.85621
#
# Velocity S-wave (km/s) = 2.81270 3.34878 3.09238
# Velocity P-wave (km/s) = 4.19349 5.36401 4.81446
#
# Compressibility (1/GPa) = 0.06217616
#
# Stress axis : x y z
#
# Youngs Moduli (GPa) = 70.41343 57.78291 17.33237
#
# Poissons Ratio (x) = 0.09302 0.21943
# Poissons Ratio (y) = 0.11335 -0.01311
# Poissons Ratio (z) = 0.89146 -0.04371
#
# Static dielectric constant tensor:
#      x y z
#    x 3.882120 0.000000 -0.204310 
#    y 0.000000 3.882300 0.000000 
#    z -0.204310 0.000000 4.167180 
# 
# 
# High freq. dielectric constant tensor:
#      x y z
#    x 1.892530 0.000000 -0.010320 
#    y 0.000000 1.892030 0.000000 
#    z -0.010320 0.000000 1.893150 
# 
# From -- ./inp_files/76659.got.cif
#   From: 2010.06.25/outbox.cif.g09.slc.cpg/sg15_39_cif.got.tgz:76659.got - 2010.06.28 07:06:18.
