data_PCOD8148790
_publ_section_title
;
Structure prediction by ZEFSAII (Michael W. Deem and Ramdas Pophale) SiO2 
 PCOD8148790
Probable space group: C 2/C
;
_chemical_formula_sum "Si O2"
_cell_formula_units_Z 48
_cell_length_a 8.580327
_cell_length_b 15.236491
_cell_length_c 24.358425
_cell_angle_alpha 90.000000
_cell_angle_beta 137.369919
_cell_angle_gamma 90.000000
_cell_volume 2156.725767
_symmetry_space_group_name_H-M "C 2/C"
_symmetry_group_IT_number 15
_symmetry_cell_setting 'monoclinic'
loop_
_space_group_symop_operation_xyz
x,y,z
-x,y,1/2-z
-x,-y,-z
x,-y,1/2+z
1/2+x,1/2+y,z
1/2-x,1/2+y,1/2-z
1/2-x,1/2-y,-z
1/2+x,1/2-y,1/2+z
loop_
_atom_site_type_symbol
_atom_site_label
_atom_site_fract_x
_atom_site_fract_y
_atom_site_fract_z
Si Si1 0.152709 0.840294 0.497550
Si Si2 0.958898 0.938846 0.800400
Si Si3 0.487604 0.242104 0.941203
Si Si4 0.035814 0.591032 0.035365
Si Si5 0.210229 0.731893 0.266376
Si Si6 0.776978 0.111783 0.813454
O O1 0.250000 0.750000 0.500000
O O2 0.367139 0.907139 0.545081
O O3 0.103242 0.829310 0.549950
O O4 0.915917 0.871204 0.406049
O O5 0.785267 0.856693 0.754575
O O6 0.000000 0.975556 0.750000
O O7 0.196350 0.895885 0.883157
O O8 0.862478 0.018813 0.811565
O O9 0.395094 0.229668 0.856276
O O10 0.750000 0.250000 0.000000
O O11 0.433048 0.158972 0.964831
O O12 0.000000 0.500000 0.000000
O O13 0.152172 0.807722 0.207775
O O14 0.000000 0.705183 0.250000
O O15 0.500000 0.110755 0.750000
#
# Coordination Sequence:
#
# PCOD8148790 Si02
#       6
#     8   8   8   8   8   8
#     4  10  23  42  71  99 132 182 232 282 347 416
#     4  12  28  45  70 102 142 187 233 292 355 418
#     4  11  23  43  68 100 134 180 232 280 348 414
#     4  11  23  45  69  97 139 177 235 286 348 415
#     4  12  26  45  71 102 141 181 232 289 353 420
#     4  12  26  48  70 104 142 185 234 293 354 421
#
# _framework density 22.255956999999999
#
# number of rings (size 3 to 8) (size 9 to 14) (size 15 to 20)
#    0.000    0.667    3.333    4.500   11.667    0.000 
#    0.000    1.667    0.000    0.000    0.000    0.000 
#    0.000    0.000    0.000    0.000    0.000    0.000 
#
# Total GULP energy -297435.432913 kJ/mol
# GULP energy per Si atom -12393.143038 kJ/mol
# Density = 2.220530 g / cm^3
# Si number density = 22.255957 Si / 1000 Ang^3
#
#
#
# Elastic Constant Matrix: (Units=GPa)
#
#
# Indices 1 2 3 4 5 6 
#
# 1 105.6617 34.3127 1.9982 0.0000 17.3451 0.0000
# 2 34.3127 109.7077 15.4888 0.0000 0.5003 0.0000
# 3 1.9982 15.4888 70.0994 0.0000 10.4757 0.0000
# 4 0.0000 0.0000 0.0000 33.7846 0.0000 -0.6555
# 5 17.3451 0.5003 10.4757 0.0000 48.8522 0.0000
# 6 0.0000 0.0000 0.0000 -0.6555 0.0000 34.6903
#
#
#
# Elastic Compliance Matrix: (Units=1/GPa)
#
#
# Indices 1 2 3 4 5 6 
#
# 1 0.011333 -0.003684 0.001123 0.000000 -0.004227 0.000000
# 2 -0.003684 0.010612 -0.002499 0.000000 0.001735 0.000000
# 3 0.001123 -0.002499 0.015333 0.000000 -0.003661 0.000000
# 4 0.000000 0.000000 0.000000 0.029610 0.000000 0.000559
# 5 -0.004227 0.001735 -0.003661 0.000000 0.022738 0.000000
# 6 0.000000 0.000000 0.000000 0.000559 0.000000 0.028837
#
#
# Mechanical properties :
#
#
# Convention : Reuss Voigt Hill
#
# Bulk Modulus (GPa) = 36.82249 43.22980 40.02614
# Shear Modulus (GPa) = 36.32762 39.04336 37.68549
#
# Velocity S-wave (km/s) = 4.04451 4.19297 4.11941
# Velocity P-wave (km/s) = 6.19610 6.55037 6.37570
#
# Compressibility (1/GPa) = 0.02715732
#
# Stress axis : x y z
#
# Youngs Moduli (GPa) = 88.23720 94.23099 65.21999
#
# Poissons Ratio (x) = 0.34713 -0.07321
# Poissons Ratio (y) = 0.32505 0.16299
# Poissons Ratio (z) = -0.09905 0.23549
#
# Static dielectric constant tensor:
#      x y z
#    x 4.533730 0.000000 0.019970 
#    y 0.000000 3.782120 0.000000 
#    z 0.019970 0.000000 3.617180 
# 
# 
# High freq. dielectric constant tensor:
#      x y z
#    x 1.894900 0.000000 0.012990 
#    y 0.000000 1.869530 0.000000 
#    z 0.012990 0.000000 1.884320 
# 
# From -- ./inp_files/289068.got.cif
#   From: 2010.06.25/outbox.cif.g09.slc.cpg/sg15_145_cif.got.tgz:289068.got - 2010.06.28 07:06:18.
