data_PCOD8148749
_publ_section_title
;
Structure prediction by ZEFSAII (Michael W. Deem and Ramdas Pophale) SiO2 
 PCOD8148749
Probable space group: C 2/C
;
_chemical_formula_sum "Si O2"
_cell_formula_units_Z 52
_cell_length_a 18.582401
_cell_length_b 13.354560
_cell_length_c 12.390856
_cell_angle_alpha 90.000000
_cell_angle_beta 52.462766
_cell_angle_gamma 90.000000
_cell_volume 2438.274902
_symmetry_space_group_name_H-M "C 2/C"
_symmetry_group_IT_number 15
_symmetry_cell_setting 'monoclinic'
loop_
_space_group_symop_operation_xyz
x,y,z
-x,y,1/2-z
-x,-y,-z
x,-y,1/2+z
1/2+x,1/2+y,z
1/2-x,1/2+y,1/2-z
1/2-x,1/2-y,-z
1/2+x,1/2-y,1/2+z
loop_
_atom_site_type_symbol
_atom_site_label
_atom_site_fract_x
_atom_site_fract_y
_atom_site_fract_z
Si Si1 0.903232 0.660436 0.792258
Si Si2 0.411099 0.022352 0.149058
Si Si3 0.296027 0.934901 0.565609
Si Si4 0.000000 0.017441 0.750000
Si Si5 0.641335 0.341711 0.015181
Si Si6 0.101541 0.122799 0.303172
Si Si7 0.155352 0.369492 0.600302
O O1 0.872663 0.584182 0.725932
O O2 0.910157 0.770138 0.739948
O O3 0.000000 0.624552 0.750000
O O4 0.829110 0.653092 0.955230
O O5 0.338628 0.081977 0.143738
O O6 0.421973 0.096214 0.242655
O O7 0.500000 0.000000 0.000000
O O8 0.189023 0.930511 0.673706
O O9 0.330788 0.043833 0.499275
O O10 0.912225 0.084922 0.855470
O O11 0.980805 0.947917 0.661906
O O12 0.619908 0.228155 0.070663
O O13 0.604590 0.363891 0.928709
O O14 0.749138 0.356243 0.924110
#
# Coordination Sequence:
#
# PCOD8148749 Si02
#       7
#     8   8   8   4   8   8   8
#     4  11  23  40  63  98 132 167 219 272 330 395
#     4  11  22  40  70 100 133 174 218 279 335 400
#     4  11  22  42  66  96 129 173 218 274 336 396
#     4  12  26  46  68  94 134 170 232 282 324 410
#     4  11  24  45  65 100 127 181 223 273 341 401
#     4  12  24  45  67  92 133 178 221 271 336 403
#     4  10  23  42  69  96 139 168 223 281 336 406
#
# _framework density 21.326553000000001
#
# number of rings (size 3 to 8) (size 9 to 14) (size 15 to 20)
#    0.000    0.923    5.385    1.846    0.000    2.462 
#    0.000    0.000    0.000    0.000    0.000    0.000 
#    0.000    0.000    0.000    0.000    0.000    0.000 
#
# Total GULP energy -322366.786588 kJ/mol
# GULP energy per Si atom -12398.722561 kJ/mol
# Density = 2.127801 g / cm^3
# Si number density = 21.326553 Si / 1000 Ang^3
#
#
#
# Elastic Constant Matrix: (Units=GPa)
#
#
# Indices 1 2 3 4 5 6 
#
# 1 65.5466 9.6912 25.8588 0.0000 11.7387 0.0000
# 2 9.6912 107.1367 50.0086 0.0000 12.0720 0.0000
# 3 25.8588 50.0086 120.6990 0.0000 10.1006 0.0000
# 4 0.0000 0.0000 0.0000 21.9413 0.0000 -2.6473
# 5 11.7387 12.0720 10.1006 0.0000 31.9515 0.0000
# 6 0.0000 0.0000 0.0000 -2.6473 0.0000 30.1299
#
#
#
# Elastic Compliance Matrix: (Units=1/GPa)
#
#
# Indices 1 2 3 4 5 6 
#
# 1 0.017569 0.000718 -0.003594 0.000000 -0.005590 0.000000
# 2 0.000718 0.011875 -0.004804 0.000000 -0.003232 0.000000
# 3 -0.003594 -0.004804 0.011076 0.000000 -0.000366 0.000000
# 4 0.000000 0.000000 0.000000 0.046065 0.000000 0.004047
# 5 -0.005590 -0.003232 -0.000366 0.000000 0.034688 0.000000
# 6 0.000000 0.000000 0.000000 0.004047 0.000000 0.033545
#
#
# Mechanical properties :
#
#
# Convention : Reuss Voigt Hill
#
# Bulk Modulus (GPa) = 39.74296 51.61105 45.67700
# Shear Modulus (GPa) = 28.00121 30.65945 29.33033
#
# Velocity S-wave (km/s) = 3.62743 3.79571 3.71252
# Velocity P-wave (km/s) = 6.01832 6.59263 6.31201
#
# Compressibility (1/GPa) = 0.02516169
#
# Stress axis : x y z
#
# Youngs Moduli (GPa) = 56.91837 84.20844 90.28611
#
# Poissons Ratio (x) = -0.06047 0.32447
# Poissons Ratio (y) = -0.04087 0.43370
# Poissons Ratio (z) = 0.20455 0.40450
#
# Static dielectric constant tensor:
#      x y z
#    x 4.317010 0.000000 0.022050 
#    y 0.000000 3.820010 0.000000 
#    z 0.022050 0.000000 3.927850 
# 
# 
# High freq. dielectric constant tensor:
#      x y z
#    x 1.838460 0.000000 0.009120 
#    y 0.000000 1.839810 0.000000 
#    z 0.009120 0.000000 1.842440 
# 
# From -- ./inp_files/112645.got.cif
#   From: 2010.06.25/outbox.cif.g09.slc.cpg/sg15_57_cif.got.tgz:112645.got - 2010.06.28 07:06:18.
