data_PCOD8148726
_publ_section_title
;
Structure prediction by ZEFSAII (Michael W. Deem and Ramdas Pophale) SiO2 
 PCOD8148726
Probable space group: C 2/C
;
_chemical_formula_sum "Si O2"
_cell_formula_units_Z 48
_cell_length_a 16.150016
_cell_length_b 11.389204
_cell_length_c 13.875494
_cell_angle_alpha 90.000000
_cell_angle_beta 65.448127
_cell_angle_gamma 90.000000
_cell_volume 2321.444414
_symmetry_space_group_name_H-M "C 2/C"
_symmetry_group_IT_number 15
_symmetry_cell_setting 'monoclinic'
loop_
_space_group_symop_operation_xyz
x,y,z
-x,y,1/2-z
-x,-y,-z
x,-y,1/2+z
1/2+x,1/2+y,z
1/2-x,1/2+y,1/2-z
1/2-x,1/2-y,-z
1/2+x,1/2-y,1/2+z
loop_
_atom_site_type_symbol
_atom_site_label
_atom_site_fract_x
_atom_site_fract_y
_atom_site_fract_z
Si Si1 0.621695 0.598046 0.883863
Si Si2 0.186262 0.681578 0.459874
Si Si3 0.905225 0.346255 0.024568
Si Si4 0.081893 0.912401 0.056238
Si Si5 0.779965 0.956978 0.349533
Si Si6 0.021504 0.548908 0.627603
O O1 0.631595 0.733102 0.913441
O O2 0.525829 0.568606 0.878768
O O3 0.702554 0.570456 0.770710
O O4 0.631282 0.513988 0.971283
O O5 0.250000 0.750000 0.500000
O O6 0.250265 0.593026 0.369009
O O7 0.115588 0.614011 0.561476
O O8 0.799820 0.378626 0.067495
O O9 0.939722 0.381925 0.114530
O O10 0.908578 0.208998 0.004995
O O11 0.968630 0.415601 0.916684
O O12 0.129053 0.919557 0.137108
O O13 0.000000 0.544997 0.750000
#
# Coordination Sequence:
#
# PCOD8148726 Si02
#       6
#     8   8   8   8   8   8
#     4  11  25  42  68  95 137 176 214 278 339 396
#     4  11  23  46  64  97 134 168 227 278 321 409
#     4  10  23  43  63  99 133 167 227 276 320 407
#     4  11  23  46  62  98 137 168 221 277 332 402
#     4  11  25  40  70  96 129 180 226 265 342 393
#     4  10  23  42  68  95 130 179 217 275 340 385
#
# _framework density 20.676781999999999
#
# number of rings (size 3 to 8) (size 9 to 14) (size 15 to 20)
#    0.000    1.333    3.333    1.000    4.667    1.333 
#    0.000    0.000    0.000    0.000    0.000    0.000 
#    0.000    0.000    0.000    0.000    0.000    0.000 
#
# Total GULP energy -297656.606853 kJ/mol
# GULP energy per Si atom -12402.358619 kJ/mol
# Density = 2.062972 g / cm^3
# Si number density = 20.676782 Si / 1000 Ang^3
#
#
#
# Elastic Constant Matrix: (Units=GPa)
#
#
# Indices 1 2 3 4 5 6 
#
# 1 79.0916 11.8966 16.8439 0.0000 7.7228 0.0000
# 2 11.8966 107.4723 33.3642 0.0000 -2.9183 0.0000
# 3 16.8439 33.3642 120.2752 0.0000 9.8079 0.0000
# 4 0.0000 0.0000 0.0000 20.5537 0.0000 -0.8764
# 5 7.7228 -2.9183 9.8079 0.0000 25.8195 0.0000
# 6 0.0000 0.0000 0.0000 -0.8764 0.0000 35.8930
#
#
#
# Elastic Compliance Matrix: (Units=1/GPa)
#
#
# Indices 1 2 3 4 5 6 
#
# 1 0.013450 -0.001201 -0.001250 0.000000 -0.003684 0.000000
# 2 -0.001201 0.010422 -0.002939 0.000000 0.002654 0.000000
# 3 -0.001250 -0.002939 0.009599 0.000000 -0.003604 0.000000
# 4 0.000000 0.000000 0.000000 0.048704 0.000000 0.001189
# 5 -0.003684 0.002654 -0.003604 0.000000 0.041502 0.000000
# 6 0.000000 0.000000 0.000000 0.001189 0.000000 0.027890
#
#
# Mechanical properties :
#
#
# Convention : Reuss Voigt Hill
#
# Bulk Modulus (GPa) = 44.07137 47.89427 45.98282
# Shear Modulus (GPa) = 29.42735 32.76884 31.09809
#
# Velocity S-wave (km/s) = 3.77663 3.98529 3.88236
# Velocity P-wave (km/s) = 6.35437 6.66261 6.51031
#
# Compressibility (1/GPa) = 0.02269047
#
# Stress axis : x y z
#
# Youngs Moduli (GPa) = 74.34874 95.94899 104.18146
#
# Poissons Ratio (x) = 0.11521 0.13024
# Poissons Ratio (y) = 0.08928 0.30622
# Poissons Ratio (z) = 0.09294 0.28203
#
# Static dielectric constant tensor:
#      x y z
#    x 3.898910 0.000000 -0.087000 
#    y 0.000000 3.951490 0.000000 
#    z -0.087000 0.000000 3.487530 
# 
# 
# High freq. dielectric constant tensor:
#      x y z
#    x 1.823150 0.000000 -0.006620 
#    y 0.000000 1.817160 0.000000 
#    z -0.006620 0.000000 1.798230 
# 
# From -- ./inp_files/152478.got.cif
#   From: 2010.06.25/outbox.cif.g09.slc.cpg/sg15_77_cif.got.tgz:152478.got - 2010.06.28 07:06:18.
