data_PCOD8148079
_publ_section_title
;
Structure prediction by ZEFSAII (Michael W. Deem and Ramdas Pophale) SiO2 
 PCOD8148079
Probable space group: C 2/C
;
_chemical_formula_sum "Si O2"
_cell_formula_units_Z 48
_cell_length_a 14.773555
_cell_length_b 9.547094
_cell_length_c 18.038789
_cell_angle_alpha 90.000000
_cell_angle_beta 80.327658
_cell_angle_gamma 90.000000
_cell_volume 2508.104680
_symmetry_space_group_name_H-M "C 2/C"
_symmetry_group_IT_number 15
_symmetry_cell_setting 'monoclinic'
loop_
_space_group_symop_operation_xyz
x,y,z
-x,y,1/2-z
-x,-y,-z
x,-y,1/2+z
1/2+x,1/2+y,z
1/2-x,1/2+y,1/2-z
1/2-x,1/2-y,-z
1/2+x,1/2-y,1/2+z
loop_
_atom_site_type_symbol
_atom_site_label
_atom_site_fract_x
_atom_site_fract_y
_atom_site_fract_z
Si Si1 0.914182 0.919625 0.420496
Si Si2 0.558253 0.145378 0.171607
Si Si3 0.255955 0.977464 0.156400
Si Si4 0.248123 0.830785 0.792050
Si Si5 0.041583 0.555691 0.918706
Si Si6 0.573639 0.374521 0.911761
O O1 0.822977 0.975864 0.394041
O O2 0.997894 0.021427 0.389604
O O3 0.941954 0.765661 0.390032
O O4 0.894653 0.916389 0.510414
O O5 0.500000 0.197872 0.250000
O O6 0.661135 0.107753 0.181733
O O7 0.512443 0.007119 0.143915
O O8 0.243208 0.114541 0.208676
O O9 0.250959 0.838261 0.208240
O O10 0.351648 0.986665 0.099618
O O11 0.161784 0.889546 0.848223
O O12 0.029308 0.721455 0.916364
O O13 0.000000 0.500000 0.000000
#
# Coordination Sequence:
#
# PCOD8148079 Si02
#       6
#     8   8   8   8   8   8
#     4  10  23  41  62  86 120 156 206 240 306 348
#     4  11  22  39  63  89 118 160 198 245 298 360
#     4  10  23  40  61  89 119 158 198 248 297 359
#     4  10  23  38  61  87 120 155 199 242 303 352
#     4  11  22  40  63  88 124 156 200 246 298 356
#     4  10  23  41  60  89 118 161 196 252 295 359
#
# _framework density 19.137957
#
# number of rings (size 3 to 8) (size 9 to 14) (size 15 to 20)
#    0.000    1.667    3.333    0.000    7.000    3.333 
#    0.000    0.833    0.000    0.000    0.000    0.000 
#    0.000    0.000    0.000    0.000    0.000    0.000 
#
# Total GULP energy -297734.874800 kJ/mol
# GULP energy per Si atom -12405.619783 kJ/mol
# Density = 1.909440 g / cm^3
# Si number density = 19.137957 Si / 1000 Ang^3
#
#
#
# Elastic Constant Matrix: (Units=GPa)
#
#
# Indices 1 2 3 4 5 6 
#
# 1 136.4056 58.4552 47.5058 0.0000 4.4978 0.0000
# 2 58.4552 71.9294 33.3179 0.0000 10.3544 0.0000
# 3 47.5058 33.3179 76.3308 0.0000 0.7948 0.0000
# 4 0.0000 0.0000 0.0000 34.3524 0.0000 4.7029
# 5 4.4978 10.3544 0.7948 0.0000 32.6343 0.0000
# 6 0.0000 0.0000 0.0000 4.7029 0.0000 28.8418
#
#
#
# Elastic Compliance Matrix: (Units=1/GPa)
#
#
# Indices 1 2 3 4 5 6 
#
# 1 0.012220 -0.008210 -0.004032 0.000000 0.001019 0.000000
# 2 -0.008210 0.023926 -0.005268 0.000000 -0.006332 0.000000
# 3 -0.004032 -0.005268 0.017891 0.000000 0.001792 0.000000
# 4 0.000000 0.000000 0.000000 0.029775 0.000000 -0.004855
# 5 0.001019 -0.006332 0.001792 0.000000 0.032467 0.000000
# 6 0.000000 0.000000 0.000000 -0.004855 0.000000 0.035463
#
#
# Mechanical properties :
#
#
# Convention : Reuss Voigt Hill
#
# Bulk Modulus (GPa) = 52.58517 62.58040 57.58278
# Shear Modulus (GPa) = 25.89294 28.85816 27.37555
#
# Velocity S-wave (km/s) = 3.68225 3.88738 3.78621
# Velocity P-wave (km/s) = 6.75390 7.27459 7.01907
#
# Compressibility (1/GPa) = 0.01901677
#
# Stress axis : x y z
#
# Youngs Moduli (GPa) = 81.83253 41.79549 55.89278
#
# Poissons Ratio (x) = 0.34313 0.22539
# Poissons Ratio (y) = 0.67182 0.29445
# Poissons Ratio (z) = 0.32999 0.22018
#
# Static dielectric constant tensor:
#      x y z
#    x 3.651790 0.000000 -0.055100 
#    y 0.000000 3.533530 0.000000 
#    z -0.055100 0.000000 3.466930 
# 
# 
# High freq. dielectric constant tensor:
#      x y z
#    x 1.759000 0.000000 -0.004910 
#    y 0.000000 1.742240 0.000000 
#    z -0.004910 0.000000 1.747800 
# 
# From -- ./inp_files/203007.got.cif
#   From: 2010.06.25/outbox.cif.g09.slc.cpg/sg15_102_cif.got.tgz:203007.got - 2010.06.28 07:06:18.
