data_PCOD8148931
_publ_section_title
;
Structure prediction by ZEFSAII (Michael W. Deem and Ramdas Pophale) SiO2 
 PCOD8148931
Probable space group: C 2/C
;
_chemical_formula_sum "Si O2"
_cell_formula_units_Z 32
_cell_length_a 8.293631
_cell_length_b 16.751564
_cell_length_c 19.272636
_cell_angle_alpha 90.000000
_cell_angle_beta 30.832908
_cell_angle_gamma 90.000000
_cell_volume 1372.352479
_symmetry_space_group_name_H-M "C 2/C"
_symmetry_group_IT_number 15
_symmetry_cell_setting 'monoclinic'
loop_
_space_group_symop_operation_xyz
x,y,z
-x,y,1/2-z
-x,-y,-z
x,-y,1/2+z
1/2+x,1/2+y,z
1/2-x,1/2+y,1/2-z
1/2-x,1/2-y,-z
1/2+x,1/2-y,1/2+z
loop_
_atom_site_type_symbol
_atom_site_label
_atom_site_fract_x
_atom_site_fract_y
_atom_site_fract_z
Si Si1 0.960138 0.445032 0.948360
Si Si2 0.749173 0.217976 0.393565
Si Si3 0.277540 0.504683 0.689597
Si Si4 0.854938 0.168966 0.119996
O O1 0.079856 0.356671 0.919536
O O2 0.163575 0.480611 0.809343
O O3 0.585200 0.440004 0.074105
O O4 0.000000 0.500000 0.000000
O O5 0.504522 0.288482 0.498102
O O6 0.000000 0.257020 0.250000
O O7 0.937256 0.190495 0.391181
O O8 0.354983 0.426503 0.614187
O O9 0.000000 0.550203 0.750000
O O10 0.500000 0.202129 0.250000
#
# Coordination Sequence:
#
# PCOD8148931 Si02
#       4
#     8   8   8   8
#     4  12  22  43  72 100 137 184 232 282 344 419
#     4  11  22  44  69  99 135 183 232 281 342 417
#     4  11  24  45  68 104 143 178 226 296 348 409
#     4  10  23  43  67  97 141 177 226 288 347 403
#
# _framework density 23.317626000000001
#
# number of rings (size 3 to 8) (size 9 to 14) (size 15 to 20)
#    0.000    1.000    5.000    1.500    0.000    3.000 
#    0.000    1.250    0.000    0.000    0.000    0.000 
#    0.000    0.000    0.000    0.000    0.000    0.000 
#
# Total GULP energy -198338.236946 kJ/mol
# GULP energy per Si atom -12396.139809 kJ/mol
# Density = 2.326455 g / cm^3
# Si number density = 23.317626 Si / 1000 Ang^3
#
#
#
# Elastic Constant Matrix: (Units=GPa)
#
#
# Indices 1 2 3 4 5 6 
#
# 1 83.6516 31.1190 54.6609 0.3356 -22.6023 -0.1456
# 2 31.1190 57.2164 67.0013 0.4174 2.5426 -0.1909
# 3 54.6609 67.0013 192.6377 0.8639 -16.7541 -0.3147
# 4 0.3356 0.4174 0.8639 24.6290 0.0352 4.4814
# 5 -22.6023 2.5426 -16.7541 0.0352 51.2710 0.0959
# 6 -0.1456 -0.1909 -0.3147 4.4814 0.0959 18.1571
#
#
#
# Elastic Compliance Matrix: (Units=1/GPa)
#
#
# Indices 1 2 3 4 5 6 
#
# 1 0.018273 -0.008492 -0.001538 -0.000063 0.007974 0.000004
# 2 -0.008492 0.034710 -0.010434 -0.000129 -0.008875 0.000195
# 3 -0.001538 -0.010434 0.009514 -0.000152 0.002948 0.000065
# 4 -0.000063 -0.000129 -0.000152 0.042521 -0.000081 -0.010499
# 5 0.007974 -0.008875 0.002948 -0.000081 0.024423 -0.000087
# 6 0.000004 0.000195 0.000065 -0.010499 -0.000087 0.057670
#
#
# Mechanical properties :
#
#
# Convention : Reuss Voigt Hill
#
# Bulk Modulus (GPa) = 46.35996 71.00755 58.68376
# Shear Modulus (GPa) = 21.25595 30.85971 26.05783
#
# Velocity S-wave (km/s) = 3.02252 3.64187 3.34655
# Velocity P-wave (km/s) = 5.66621 6.94282 6.33674
#
# Compressibility (1/GPa) = 0.02157034
#
# Stress axis : x y z
#
# Youngs Moduli (GPa) = 54.72595 28.80983 105.11164
#
# Poissons Ratio (x) = 0.24464 0.16163
# Poissons Ratio (y) = 0.46471 1.09674
# Poissons Ratio (z) = 0.08415 0.30060
#
# Static dielectric constant tensor:
#      x y z
#    x 4.583860 0.000280 -0.127080 
#    y 0.000280 4.041190 -0.000170 
#    z -0.127080 -0.000170 4.812820 
# 
# 
# High freq. dielectric constant tensor:
#      x y z
#    x 1.945370 0.000020 -0.008000 
#    y 0.000020 1.895110 -0.000010 
#    z -0.008000 -0.000010 1.943260 
# 
# From -- ./inp_files/22135.got.cif
#   From: 2010.06.25/outbox.cif.g09.slc.cpg/sg15_12_cif.got.tgz:22135.got - 2010.06.28 07:06:18.
