data_PCOD8148542
_publ_section_title
;
Structure prediction by ZEFSAII (Michael W. Deem and Ramdas Pophale) SiO2 
 PCOD8148542
Probable space group: C 2/C
;
_chemical_formula_sum "Si O2"
_cell_formula_units_Z 40
_cell_length_a 9.249738
_cell_length_b 14.341776
_cell_length_c 15.496647
_cell_angle_alpha 90.000000
_cell_angle_beta 117.334890
_cell_angle_gamma 90.000000
_cell_volume 1826.199574
_symmetry_space_group_name_H-M "C 2/C"
_symmetry_group_IT_number 15
_symmetry_cell_setting 'monoclinic'
loop_
_space_group_symop_operation_xyz
x,y,z
-x,y,1/2-z
-x,-y,-z
x,-y,1/2+z
1/2+x,1/2+y,z
1/2-x,1/2+y,1/2-z
1/2-x,1/2-y,-z
1/2+x,1/2-y,1/2+z
loop_
_atom_site_type_symbol
_atom_site_label
_atom_site_fract_x
_atom_site_fract_y
_atom_site_fract_z
Si Si1 0.923267 0.151328 0.022507
Si Si2 0.229420 0.859859 0.496050
Si Si3 0.659011 0.509942 0.350306
Si Si4 0.982743 0.527937 0.346623
Si Si5 0.919409 0.675728 0.635612
O O1 0.978896 0.245299 0.086143
O O2 0.078526 0.110820 0.015453
O O3 0.857861 0.075764 0.071690
O O4 0.778396 0.174475 0.914431
O O5 0.250000 0.750000 0.500000
O O6 0.195061 0.904550 0.392595
O O7 0.397014 0.900451 0.576314
O O8 0.500000 0.509729 0.250000
O O9 0.801333 0.550542 0.328726
O O10 0.022189 0.422754 0.385909
O O11 0.000000 0.540197 0.250000
O O12 0.000000 0.697002 0.750000
#
# Coordination Sequence:
#
# PCOD8148542 Si02
#       5
#     8   8   8   8   8
#     4  11  24  44  69 103 139 180 228 285 337 413
#     4  12  27  45  68 100 143 178 231 282 341 403
#     4  12  26  44  72 101 137 182 231 279 346 408
#     4  11  25  46  70  98 136 179 227 287 341 405
#     4  10  23  41  72  99 139 178 232 274 350 403
#
# _framework density 21.903410999999998
#
# number of rings (size 3 to 8) (size 9 to 14) (size 15 to 20)
#    0.000    0.800    2.000    4.200   11.200    0.800 
#    0.000    0.000    0.000    0.000    0.000    0.000 
#    0.000    0.000    0.000    0.000    0.000    0.000 
#
# Total GULP energy -248086.307085 kJ/mol
# GULP energy per Si atom -12404.315354 kJ/mol
# Density = 2.185356 g / cm^3
# Si number density = 21.903411 Si / 1000 Ang^3
#
#
#
# Elastic Constant Matrix: (Units=GPa)
#
#
# Indices 1 2 3 4 5 6 
#
# 1 189.0988 32.9929 77.5205 0.0000 5.4633 0.0000
# 2 32.9929 94.4451 57.2550 0.0000 10.9868 0.0000
# 3 77.5205 57.2550 152.0877 0.0000 25.6084 0.0000
# 4 0.0000 0.0000 0.0000 -36.4621 0.0000 -45.1354
# 5 5.4633 10.9868 25.6084 0.0000 41.7097 0.0000
# 6 0.0000 0.0000 0.0000 -45.1354 0.0000 -0.7680
#
#
#
# Elastic Compliance Matrix: (Units=1/GPa)
#
#
# Indices 1 2 3 4 5 6 
#
# 1 0.006765 -0.000379 -0.003539 0.000000 0.001387 0.000000
# 2 -0.000379 0.013750 -0.004887 0.000000 -0.000572 0.000000
# 3 -0.003539 -0.004887 0.011068 0.000000 -0.005045 0.000000
# 4 0.000000 0.000000 0.000000 0.000382 0.000000 -0.022464
# 5 0.001387 -0.000572 -0.005045 0.000000 0.027042 0.000000
# 6 0.000000 0.000000 0.000000 -0.022464 0.000000 0.018148
#
#
# Mechanical properties :
#
#
# Convention : Reuss Voigt Hill
#
# Bulk Modulus (GPa) = 71.56552 85.68537 78.62544
# Shear Modulus (GPa) = 50.29107 18.75347 34.52227
#
# Velocity S-wave (km/s) = 4.79690 2.92925 3.97434
# Velocity P-wave (km/s) = 7.96395 7.11655 7.55214
#
# Compressibility (1/GPa) = 0.01397321
#
# Stress axis : x y z
#
# Youngs Moduli (GPa) = 147.81683 72.72982 90.35032
#
# Poissons Ratio (x) = 0.02758 0.31975
# Poissons Ratio (y) = 0.05605 0.44150
# Poissons Ratio (z) = 0.52312 0.35540
#
# Static dielectric constant tensor:
#      x y z
#    x 4.080670 0.000000 0.121420 
#    y 0.000000 4.124560 0.000000 
#    z 0.121420 0.000000 4.083810 
# 
# 
# High freq. dielectric constant tensor:
#      x y z
#    x 1.872210 0.000000 0.009680 
#    y 0.000000 1.870770 0.000000 
#    z 0.009680 0.000000 1.865020 
# 
# From -- ./inp_files/133061.got.cif
#   From: 2010.06.25/outbox.cif.g09.slc.cpg/sg15_67_cif.got.tgz:133061.got - 2010.06.28 07:06:18.
