data_PCOD8148228
_publ_section_title
;
Structure prediction by ZEFSAII (Michael W. Deem and Ramdas Pophale) SiO2 
 PCOD8148228
Probable space group: C 2/C
;
_chemical_formula_sum "Si O2"
_cell_formula_units_Z 56
_cell_length_a 10.184824
_cell_length_b 11.505559
_cell_length_c 26.329341
_cell_angle_alpha 90.000000
_cell_angle_beta 124.279339
_cell_angle_gamma 90.000000
_cell_volume 2549.410418
_symmetry_space_group_name_H-M "C 2/C"
_symmetry_group_IT_number 15
_symmetry_cell_setting 'monoclinic'
loop_
_space_group_symop_operation_xyz
x,y,z
-x,y,1/2-z
-x,-y,-z
x,-y,1/2+z
1/2+x,1/2+y,z
1/2-x,1/2+y,1/2-z
1/2-x,1/2-y,-z
1/2+x,1/2-y,1/2+z
loop_
_atom_site_type_symbol
_atom_site_label
_atom_site_fract_x
_atom_site_fract_y
_atom_site_fract_z
Si Si1 0.653817 0.850141 0.814532
Si Si2 0.918429 0.716035 0.679796
Si Si3 0.857011 0.648561 0.073106
Si Si4 0.841048 0.944023 0.331969
Si Si5 0.803154 0.577708 0.384109
Si Si6 0.805967 0.088061 0.556197
Si Si7 0.771438 0.379699 0.299602
O O1 0.500000 0.888690 0.750000
O O2 0.632549 0.896098 0.867203
O O3 0.685475 0.712756 0.817710
O O4 0.797584 0.919773 0.819288
O O5 0.784189 0.619377 0.658973
O O6 0.000000 0.753031 0.750000
O O7 0.048316 0.661529 0.670407
O O8 0.838994 0.830809 0.638504
O O9 0.777231 0.775593 0.059292
O O10 0.032464 0.648345 0.086056
O O11 0.744438 0.565664 0.013757
O O12 0.834226 0.886430 0.274644
O O13 0.011991 0.938901 0.394085
O O14 0.807173 0.490567 0.432926
O O15 0.771058 0.504191 0.326207
#
# Coordination Sequence:
#
# PCOD8148228 Si02
#       7
#     8   8   8   8   8   8   8
#     4  12  24  42  68  97 134 172 219 278 339 399
#     4  10  23  40  61  98 136 171 217 279 339 392
#     4  11  24  45  65  95 134 174 226 276 329 402
#     4  11  23  42  65  96 137 173 218 278 335 400
#     4  12  23  42  71  95 134 180 218 285 330 398
#     4  11  24  42  67  95 129 180 226 272 334 399
#     4  11  25  39  65 103 132 169 226 270 340 401
#
# _framework density 21.965865000000001
#
# number of rings (size 3 to 8) (size 9 to 14) (size 15 to 20)
#    0.000    0.857    2.857    5.143    8.000    0.571 
#    0.000    0.000    0.000    4.286    0.000    0.000 
#    0.000    0.000    0.000    0.000    0.000    0.000 
#
# Total GULP energy -347245.106297 kJ/mol
# GULP energy per Si atom -12401.610939 kJ/mol
# Density = 2.191587 g / cm^3
# Si number density = 21.965865 Si / 1000 Ang^3
#
#
#
# Elastic Constant Matrix: (Units=GPa)
#
#
# Indices 1 2 3 4 5 6 
#
# 1 81.9720 9.7973 46.8159 0.0000 -4.0843 0.0000
# 2 9.7973 74.4791 13.9881 0.0000 -4.3351 0.0000
# 3 46.8159 13.9881 137.6055 0.0000 -3.5852 0.0000
# 4 0.0000 0.0000 0.0000 8.1418 0.0000 7.8999
# 5 -4.0843 -4.3351 -3.5852 0.0000 32.5656 0.0000
# 6 0.0000 0.0000 0.0000 7.8999 0.0000 35.2998
#
#
#
# Elastic Compliance Matrix: (Units=1/GPa)
#
#
# Indices 1 2 3 4 5 6 
#
# 1 0.015270 -0.000986 -0.005063 0.000000 0.001226 0.000000
# 2 -0.000986 0.013843 -0.001030 0.000000 0.001606 0.000000
# 3 -0.005063 -0.001030 0.009100 0.000000 0.000230 0.000000
# 4 0.000000 0.000000 0.000000 0.156891 0.000000 -0.035111
# 5 0.001226 0.001606 0.000230 0.000000 0.031100 0.000000
# 6 0.000000 0.000000 0.000000 -0.035111 0.000000 0.036186
#
#
# Mechanical properties :
#
#
# Convention : Reuss Voigt Hill
#
# Bulk Modulus (GPa) = 41.57101 48.36214 44.96658
# Shear Modulus (GPa) = 17.57055 30.09846 23.83451
#
# Velocity S-wave (km/s) = 2.83132 3.70569 3.29761
# Velocity P-wave (km/s) = 5.44563 6.35407 5.91731
#
# Compressibility (1/GPa) = 0.02405522
#
# Stress axis : x y z
#
# Youngs Moduli (GPa) = 65.48889 72.23756 109.88668
#
# Poissons Ratio (x) = 0.07126 0.55634
# Poissons Ratio (y) = 0.06460 0.11316
# Poissons Ratio (z) = 0.33156 0.07439
#
# Static dielectric constant tensor:
#      x y z
#    x 3.937050 0.000000 -0.005290 
#    y 0.000000 3.967370 0.000000 
#    z -0.005290 0.000000 4.067870 
# 
# 
# High freq. dielectric constant tensor:
#      x y z
#    x 1.860660 0.000000 0.006330 
#    y 0.000000 1.868020 0.000000 
#    z 0.006330 0.000000 1.860000 
# 
# From -- ./inp_files/307539.got.cif
#   From: 2010.06.25/outbox.cif.g09.slc.cpg/sg15_154_cif.got.tgz:307539.got - 2010.06.28 07:06:18.
