data_PCOD8148465
_publ_section_title
;
Structure prediction by ZEFSAII (Michael W. Deem and Ramdas Pophale) SiO2 
 PCOD8148465
Probable space group: C 2/C
;
_chemical_formula_sum "Si O2"
_cell_formula_units_Z 60
_cell_length_a 21.096596
_cell_length_b 23.505994
_cell_length_c 8.253297
_cell_angle_alpha 90.000000
_cell_angle_beta 137.608257
_cell_angle_gamma 90.000000
_cell_volume 2759.336254
_symmetry_space_group_name_H-M "C 2/C"
_symmetry_group_IT_number 15
_symmetry_cell_setting 'monoclinic'
loop_
_space_group_symop_operation_xyz
x,y,z
-x,y,1/2-z
-x,-y,-z
x,-y,1/2+z
1/2+x,1/2+y,z
1/2-x,1/2+y,1/2-z
1/2-x,1/2-y,-z
1/2+x,1/2-y,1/2+z
loop_
_atom_site_type_symbol
_atom_site_label
_atom_site_fract_x
_atom_site_fract_y
_atom_site_fract_z
Si Si1 0.820580 0.924717 0.025147
Si Si2 0.775831 0.224714 0.796858
Si Si3 0.393801 0.725329 0.324424
Si Si4 0.000000 0.136893 0.750000
Si Si5 0.806028 0.330148 0.651599
Si Si6 0.992214 0.339364 0.546183
Si Si7 0.910372 0.541098 0.869282
Si Si8 0.773653 0.487915 0.377782
O O1 0.789720 0.940030 0.151841
O O2 0.927933 0.904964 0.206839
O O3 0.757138 0.870518 0.854315
O O4 0.799362 0.978163 0.871459
O O5 0.687139 0.255637 0.707481
O O6 0.824026 0.269205 0.766384
O O7 0.740410 0.173486 0.616322
O O8 0.848971 0.202331 0.070911
O O9 0.454089 0.675798 0.523139
O O10 0.455369 0.780994 0.396213
O O11 0.907254 0.358502 0.830779
O O12 0.929138 0.392564 0.377792
O O13 0.000000 0.327388 0.750000
O O14 0.817251 0.530049 0.591079
O O15 0.870041 0.534895 0.975549
O O16 0.000000 0.500000 0.000000
#
# Coordination Sequence:
#
# PCOD8148465 Si02
#       8
#     8   8   8   4   8   8   8   8
#     4  11  25  46  73  92 133 181 225 299 350 408
#     4  10  23  41  66  93 139 177 230 269 337 415
#     4  11  23  43  64 101 133 180 230 281 334 417
#     4  12  24  48  74  94 136 178 242 288 352 408
#     4  11  22  42  64  97 136 181 215 276 348 406
#     4  12  22  36  63  96 136 175 216 275 332 399
#     4  11  22  40  68  99 140 179 222 274 335 421
#     4  10  24  45  66 101 133 172 235 281 349 404
#
# _framework density 21.74436
#
# number of rings (size 3 to 8) (size 9 to 14) (size 15 to 20)
#    0.000    1.067    3.333    3.600    3.733    1.067 
#    2.400    0.000    0.000    0.000    0.000    0.000 
#    0.000    0.000    0.000    0.000    0.000    0.000 
#
# Total GULP energy -371836.323332 kJ/mol
# GULP energy per Si atom -12394.544111 kJ/mol
# Density = 2.169487 g / cm^3
# Si number density = 21.744360 Si / 1000 Ang^3
#
#
#
# Elastic Constant Matrix: (Units=GPa)
#
#
# Indices 1 2 3 4 5 6 
#
# 1 119.9138 43.4615 50.5770 0.0000 20.7933 0.0000
# 2 43.4615 102.5960 42.0346 0.0000 12.5382 0.0000
# 3 50.5770 42.0346 96.8145 0.0000 11.6991 0.0000
# 4 0.0000 0.0000 0.0000 29.3219 0.0000 8.1770
# 5 20.7933 12.5382 11.6991 0.0000 35.1958 0.0000
# 6 0.0000 0.0000 0.0000 8.1770 0.0000 38.4713
#
#
#
# Elastic Compliance Matrix: (Units=1/GPa)
#
#
# Indices 1 2 3 4 5 6 
#
# 1 0.012037 -0.002658 -0.004573 0.000000 -0.004644 0.000000
# 2 -0.002658 0.012679 -0.003918 0.000000 -0.001644 0.000000
# 3 -0.004573 -0.003918 0.014507 0.000000 -0.000725 0.000000
# 4 0.000000 0.000000 0.000000 0.036253 0.000000 -0.007705
# 5 -0.004644 -0.001644 -0.000725 0.000000 0.031983 0.000000
# 6 0.000000 0.000000 0.000000 -0.007705 0.000000 0.027631
#
#
# Mechanical properties :
#
#
# Convention : Reuss Voigt Hill
#
# Bulk Modulus (GPa) = 59.08338 65.71896 62.40117
# Shear Modulus (GPa) = 30.66957 32.81455 31.74206
#
# Velocity S-wave (km/s) = 3.75968 3.88894 3.82486
# Velocity P-wave (km/s) = 6.78806 7.10311 6.94737
#
# Compressibility (1/GPa) = 0.01692523
#
# Stress axis : x y z
#
# Youngs Moduli (GPa) = 83.07912 78.87086 68.93444
#
# Poissons Ratio (x) = 0.20962 0.31523
# Poissons Ratio (y) = 0.22081 0.27007
# Poissons Ratio (z) = 0.37992 0.30899
#
# Static dielectric constant tensor:
#      x y z
#    x 4.157880 0.000000 -0.039550 
#    y 0.000000 3.863240 0.000000 
#    z -0.039550 0.000000 3.902480 
# 
# 
# High freq. dielectric constant tensor:
#      x y z
#    x 1.862260 0.000000 0.001910 
#    y 0.000000 1.848150 0.000000 
#    z 0.001910 0.000000 1.844600 
# 
# From -- ./inp_files/58798.got.cif
#   From: 2010.06.25/outbox.cif.g09.slc.cpg/sg15_30_cif.got.tgz:58798.got - 2010.06.28 07:06:18.
