data_PCOD8148017
_publ_section_title
;
Structure prediction by ZEFSAII (Michael W. Deem and Ramdas Pophale) SiO2 
 PCOD8148017
Probable space group: C 2/C
;
_chemical_formula_sum "Si O2"
_cell_formula_units_Z 56
_cell_length_a 8.433440
_cell_length_b 11.205619
_cell_length_c 28.486503
_cell_angle_alpha 90.000000
_cell_angle_beta 106.308823
_cell_angle_gamma 90.000000
_cell_volume 2583.707396
_symmetry_space_group_name_H-M "C 2/C"
_symmetry_group_IT_number 15
_symmetry_cell_setting 'monoclinic'
loop_
_space_group_symop_operation_xyz
x,y,z
-x,y,1/2-z
-x,-y,-z
x,-y,1/2+z
1/2+x,1/2+y,z
1/2-x,1/2+y,1/2-z
1/2-x,1/2-y,-z
1/2+x,1/2-y,1/2+z
loop_
_atom_site_type_symbol
_atom_site_label
_atom_site_fract_x
_atom_site_fract_y
_atom_site_fract_z
Si Si1 0.824626 0.844919 0.314870
Si Si2 0.165838 0.485332 0.043375
Si Si3 0.935959 0.746990 0.913130
Si Si4 0.500000 0.780849 0.750000
Si Si5 0.104224 0.843679 0.494146
Si Si6 0.299172 0.240707 0.413096
Si Si7 0.000000 0.244502 0.250000
Si Si8 0.174427 0.881448 0.684995
O O1 0.830578 0.762470 0.361111
O O2 0.652886 0.831017 0.272954
O O3 0.852686 0.981713 0.331571
O O4 0.969451 0.803104 0.292315
O O5 0.154625 0.372798 0.077244
O O6 0.321893 0.467654 0.020375
O O7 0.197678 0.599335 0.078105
O O8 0.000000 0.500000 0.000000
O O9 0.120972 0.709834 0.913693
O O10 0.831558 0.800521 0.861798
O O11 0.938531 0.847932 0.954186
O O12 0.347214 0.866775 0.726091
O O13 0.250000 0.750000 0.500000
O O14 0.938487 0.807156 0.453987
O O15 0.971041 0.159619 0.292357
#
# Coordination Sequence:
#
# PCOD8148017 Si02
#       8
#     8   8   8   4   8   8   4   8
#     4  11  25  44  71 100 134 174 226 277 343 408
#     4  11  25  46  68  95 144 184 222 287 335 399
#     4  11  25  44  68 103 135 181 232 280 338 406
#     4  10  26  44  74  98 130 182 222 272 350 410
#     4  10  23  43  65  97 137 179 228 273 335 408
#     4  12  25  44  69 102 136 181 230 279 343 401
#     4  10  22  50  64  98 136 168 224 284 344 400
#     4  11  24  46  68 101 135 172 224 282 340 400
#
# _framework density 21.674282999999999
#
# number of rings (size 3 to 8) (size 9 to 14) (size 15 to 20)
#    0.000    1.143    4.286    1.286    6.000    2.857 
#   10.286    0.000    0.000    0.000    0.000    0.000 
#    0.000    0.000    0.000    0.000    0.000    0.000 
#
# Total GULP energy -347284.507745 kJ/mol
# GULP energy per Si atom -12403.018134 kJ/mol
# Density = 2.162495 g / cm^3
# Si number density = 21.674283 Si / 1000 Ang^3
#
#
#
# Elastic Constant Matrix: (Units=GPa)
#
#
# Indices 1 2 3 4 5 6 
#
# 1 78.9874 8.7484 24.2977 0.0000 -13.4204 0.0000
# 2 8.7484 109.2672 36.1640 0.0000 -11.7031 0.0000
# 3 24.2977 36.1640 130.2353 0.0000 -24.4510 0.0000
# 4 0.0000 0.0000 0.0000 26.7432 0.0000 4.3796
# 5 -13.4204 -11.7031 -24.4510 0.0000 43.3081 0.0000
# 6 0.0000 0.0000 0.0000 4.3796 0.0000 23.5144
#
#
#
# Elastic Compliance Matrix: (Units=1/GPa)
#
#
# Indices 1 2 3 4 5 6 
#
# 1 0.013808 -0.000123 -0.001952 0.000000 0.003144 0.000000
# 2 -0.000123 0.010143 -0.002557 0.000000 0.001259 0.000000
# 3 -0.001952 -0.002557 0.009518 0.000000 0.004078 0.000000
# 4 0.000000 0.000000 0.000000 0.038569 0.000000 -0.007184
# 5 0.003144 0.001259 0.004078 0.000000 0.026707 0.000000
# 6 0.000000 0.000000 0.000000 -0.007184 0.000000 0.043865
#
#
# Mechanical properties :
#
#
# Convention : Reuss Voigt Hill
#
# Bulk Modulus (GPa) = 41.31236 50.76777 46.04006
# Shear Modulus (GPa) = 31.26104 35.33179 33.29642
#
# Velocity S-wave (km/s) = 3.80190 4.04186 3.92371
# Velocity P-wave (km/s) = 6.19471 6.72726 6.46647
#
# Compressibility (1/GPa) = 0.02420583
#
# Stress axis : x y z
#
# Youngs Moduli (GPa) = 72.41953 98.59097 105.06103
#
# Poissons Ratio (x) = 0.01211 0.20506
# Poissons Ratio (y) = 0.00890 0.26866
# Poissons Ratio (z) = 0.14135 0.25212
#
# Static dielectric constant tensor:
#      x y z
#    x 4.362650 0.000000 -0.194610 
#    y 0.000000 3.912810 0.000000 
#    z -0.194610 0.000000 4.002280 
# 
# 
# High freq. dielectric constant tensor:
#      x y z
#    x 1.867940 0.000000 -0.003300 
#    y 0.000000 1.844380 0.000000 
#    z -0.003300 0.000000 1.859790 
# 
# From -- ./inp_files/288105.got.cif
#   From: 2010.06.25/outbox.cif.g09.slc.cpg/sg15_145_cif.got.tgz:288105.got - 2010.06.28 07:06:18.
