data_PCOD8148144
_publ_section_title
;
Structure prediction by ZEFSAII (Michael W. Deem and Ramdas Pophale) SiO2 
 PCOD8148144
Probable space group: C 2/C
;
_chemical_formula_sum "Si O2"
_cell_formula_units_Z 56
_cell_length_a 15.369500
_cell_length_b 16.157476
_cell_length_c 18.021503
_cell_angle_alpha 90.000000
_cell_angle_beta 32.782235
_cell_angle_gamma 90.000000
_cell_volume 2423.152060
_symmetry_space_group_name_H-M "C 2/C"
_symmetry_group_IT_number 15
_symmetry_cell_setting 'monoclinic'
loop_
_space_group_symop_operation_xyz
x,y,z
-x,y,1/2-z
-x,-y,-z
x,-y,1/2+z
1/2+x,1/2+y,z
1/2-x,1/2+y,1/2-z
1/2-x,1/2-y,-z
1/2+x,1/2-y,1/2+z
loop_
_atom_site_type_symbol
_atom_site_label
_atom_site_fract_x
_atom_site_fract_y
_atom_site_fract_z
Si Si1 0.871696 0.860119 0.395289
Si Si2 0.726671 0.907033 0.769252
Si Si3 0.946810 0.702481 0.421340
Si Si4 0.036407 0.860162 0.016585
Si Si5 0.848906 0.331891 0.525158
Si Si6 0.319391 0.089666 0.735082
Si Si7 0.821462 0.667209 0.880602
O O1 0.934376 0.764182 0.359780
O O2 0.699457 0.863070 0.478086
O O3 0.867798 0.899979 0.480844
O O4 0.000000 0.906126 0.250000
O O5 0.611971 0.847603 0.803681
O O6 0.901263 0.902128 0.604018
O O7 0.744745 0.878739 0.841647
O O8 0.654449 0.998708 0.816576
O O9 0.938943 0.759838 0.501894
O O10 0.851015 0.876089 0.168337
O O11 0.784240 0.364060 0.491021
O O12 0.811361 0.233386 0.553451
O O13 0.038955 0.351094 0.397739
O O14 0.321129 0.089809 0.824219
O O15 0.000000 0.708972 0.750000
#
# Coordination Sequence:
#
# PCOD8148144 Si02
#       7
#     8   8   8   8   8   8   8
#     4   9  19  38  59  90 126 166 231 259 310 397
#     4  12  24  40  66 102 139 170 215 283 351 398
#     4   9  21  36  64  92 128 173 227 259 324 392
#     4  10  23  39  62  93 132 179 217 270 331 403
#     4  10  23  43  69  97 125 180 233 277 319 403
#     4  11  24  44  65  99 140 166 218 279 352 403
#     4   9  21  45  70  97 131 175 234 281 325 392
#
# _framework density 23.110392999999998
#
# number of rings (size 3 to 8) (size 9 to 14) (size 15 to 20)
#    0.857    1.143    0.000    2.571    2.000    6.857 
#    7.714    0.000    0.000    0.000    0.000    0.000 
#    0.000    0.000    0.000    0.000    0.000    0.000 
#
# Total GULP energy -346920.481036 kJ/mol
# GULP energy per Si atom -12390.017180 kJ/mol
# Density = 2.305779 g / cm^3
# Si number density = 23.110393 Si / 1000 Ang^3
#
#
#
# Elastic Constant Matrix: (Units=GPa)
#
#
# Indices 1 2 3 4 5 6 
#
# 1 95.7660 44.1831 49.0202 -0.0031 10.1014 0.0010
# 2 44.1831 70.1687 29.8160 -0.0044 4.9502 0.0022
# 3 49.0202 29.8160 114.7680 -0.0072 16.3004 0.0038
# 4 -0.0031 -0.0044 -0.0072 23.6530 0.0033 2.5777
# 5 10.1014 4.9502 16.3004 0.0033 49.6198 -0.0018
# 6 0.0010 0.0022 0.0038 2.5777 -0.0018 22.3605
#
#
#
# Elastic Compliance Matrix: (Units=1/GPa)
#
#
# Indices 1 2 3 4 5 6 
#
# 1 0.017000 -0.008553 -0.004897 -0.000001 -0.000999 0.000001
# 2 -0.008553 0.020326 -0.001664 0.000002 0.000260 -0.000002
# 3 -0.004897 -0.001664 0.011614 0.000003 -0.002652 -0.000002
# 4 -0.000001 0.000002 0.000003 0.042816 -0.000004 -0.004936
# 5 -0.000999 0.000260 -0.002652 -0.000004 0.021202 0.000003
# 6 0.000001 -0.000002 -0.000002 -0.004936 0.000003 0.045291
#
#
# Mechanical properties :
#
#
# Convention : Reuss Voigt Hill
#
# Bulk Modulus (GPa) = 53.44506 58.52681 55.98593
# Shear Modulus (GPa) = 25.67848 29.63886 27.65867
#
# Velocity S-wave (km/s) = 3.33697 3.58507 3.46324
# Velocity P-wave (km/s) = 6.16631 6.52050 6.34587
#
# Compressibility (1/GPa) = 0.01871080
#
# Stress axis : x y z
#
# Youngs Moduli (GPa) = 58.82187 49.19838 86.10247
#
# Poissons Ratio (x) = 0.42081 0.42168
# Poissons Ratio (y) = 0.50312 0.14329
# Poissons Ratio (z) = 0.28807 0.08188
#
# Static dielectric constant tensor:
#      x y z
#    x 4.217120 0.000000 0.038780 
#    y 0.000000 3.658580 0.000010 
#    z 0.038780 0.000010 4.061170 
# 
# 
# High freq. dielectric constant tensor:
#      x y z
#    x 1.923760 0.000000 0.003390 
#    y 0.000000 1.861290 0.000000 
#    z 0.003390 0.000000 1.912730 
# 
# From -- ./inp_files/249521.got.cif
#   From: 2010.06.25/outbox.cif.g09.slc.cpg/sg15_125_cif.got.tgz:249521.got - 2010.06.28 07:06:18.
