data_PCOD8148752
_publ_section_title
;
Structure prediction by ZEFSAII (Michael W. Deem and Ramdas Pophale) SiO2 
 PCOD8148752
Probable space group: C 2/C
;
_chemical_formula_sum "Si O2"
_cell_formula_units_Z 60
_cell_length_a 18.829101
_cell_length_b 9.928359
_cell_length_c 23.263977
_cell_angle_alpha 90.000000
_cell_angle_beta 141.865732
_cell_angle_gamma 90.000000
_cell_volume 2685.545384
_symmetry_space_group_name_H-M "C 2/C"
_symmetry_group_IT_number 15
_symmetry_cell_setting 'monoclinic'
loop_
_space_group_symop_operation_xyz
x,y,z
-x,y,1/2-z
-x,-y,-z
x,-y,1/2+z
1/2+x,1/2+y,z
1/2-x,1/2+y,1/2-z
1/2-x,1/2-y,-z
1/2+x,1/2-y,1/2+z
loop_
_atom_site_type_symbol
_atom_site_label
_atom_site_fract_x
_atom_site_fract_y
_atom_site_fract_z
Si Si1 0.916539 0.695217 0.792128
Si Si2 0.874291 0.697442 0.007289
Si Si3 0.587824 0.626017 0.453608
Si Si4 0.500000 0.001206 0.750000
Si Si5 0.216056 0.435220 0.947775
Si Si6 0.184570 0.583483 0.652427
Si Si7 0.578291 0.380113 0.143278
Si Si8 0.820664 0.282525 0.887379
O O1 0.969338 0.578512 0.788288
O O2 0.877233 0.642428 0.830330
O O3 0.816352 0.771588 0.693343
O O4 0.017297 0.805842 0.857836
O O5 0.797360 0.815826 0.982266
O O6 0.858797 0.671355 0.929594
O O7 0.834125 0.568116 0.018881
O O8 0.003712 0.743745 0.106597
O O9 0.712139 0.573353 0.511938
O O10 0.505407 0.505475 0.423957
O O11 0.609572 0.750580 0.510672
O O12 0.612444 0.916320 0.836743
O O13 0.324773 0.592313 0.745859
O O14 0.145571 0.428538 0.617123
O O15 0.650529 0.347824 0.132857
#
# Coordination Sequence:
#
# PCOD8148752 Si02
#       8
#     8   8   8   4   8   8   8   8
#     4  11  26  43  67 101 134 179 221 272 346 395
#     4  10  24  46  67 103 130 179 227 279 333 400
#     4  11  22  46  66  95 136 182 219 275 336 408
#     4  12  26  44  66  98 134 176 218 280 334 414
#     4  10  25  44  69  95 135 177 231 267 341 401
#     4  11  25  43  70 103 135 174 229 286 331 404
#     4  10  23  42  69  97 139 174 219 282 343 393
#     4  11  23  42  67 103 134 173 225 278 334 407
#
# _framework density 22.341830000000002
#
# number of rings (size 3 to 8) (size 9 to 14) (size 15 to 20)
#    0.000    1.333    2.667    1.200    5.600    4.800 
#    0.000    0.000    0.000    0.000    0.000    0.000 
#    0.000    0.000    0.000    0.000    0.000    0.000 
#
# Total GULP energy -371702.826650 kJ/mol
# GULP energy per Si atom -12390.094222 kJ/mol
# Density = 2.229098 g / cm^3
# Si number density = 22.341830 Si / 1000 Ang^3
#
#
#
# Elastic Constant Matrix: (Units=GPa)
#
#
# Indices 1 2 3 4 5 6 
#
# 1 83.4816 7.1455 35.9132 0.0000 -8.3490 0.0000
# 2 7.1455 38.1987 26.2706 0.0000 -7.2545 0.0000
# 3 35.9132 26.2706 131.6116 0.0001 14.1145 0.0000
# 4 0.0000 0.0000 0.0001 14.6249 0.0000 -18.8107
# 5 -8.3490 -7.2545 14.1145 0.0000 29.4607 0.0000
# 6 0.0000 0.0000 0.0000 -18.8107 0.0000 13.3294
#
#
#
# Elastic Compliance Matrix: (Units=1/GPa)
#
#
# Indices 1 2 3 4 5 6 
#
# 1 0.014773 0.002227 -0.005253 0.000000 0.007252 0.000000
# 2 0.002227 0.034436 -0.008916 0.000000 0.013383 0.000000
# 3 -0.005253 -0.008916 0.011814 0.000000 -0.009344 0.000000
# 4 0.000000 0.000000 0.000000 -0.083884 0.000000 -0.118379
# 5 0.007252 0.013383 -0.009344 0.000000 0.043771 0.000000
# 6 0.000000 0.000000 0.000000 -0.118379 0.000000 -0.092037
#
#
# Mechanical properties :
#
#
# Convention : Reuss Voigt Hill
#
# Bulk Modulus (GPa) = 26.92766 43.55005 35.23885
# Shear Modulus (GPa) = -143.42085 23.74718 -59.83683
#
# Velocity S-wave (km/s) = -8.02080 3.26375 -5.18079
# Velocity P-wave (km/s) = 8.58481 5.80842 4.46997
#
# Compressibility (1/GPa) = 0.03713654
#
# Stress axis : x y z
#
# Youngs Moduli (GPa) = 67.68948 29.03933 84.64874
#
# Poissons Ratio (x) = -0.06466 0.44470
# Poissons Ratio (y) = -0.15072 0.75477
# Poissons Ratio (z) = 0.35560 0.25893
#
# Static dielectric constant tensor:
#      x y z
#    x 4.183000 0.000000 0.333010 
#    y 0.000000 4.006830 0.000000 
#    z 0.333010 0.000000 4.418410 
# 
# 
# High freq. dielectric constant tensor:
#      x y z
#    x 1.870930 0.000000 0.021460 
#    y 0.000000 1.875280 0.000000 
#    z 0.021460 0.000000 1.899380 
# 
# From -- ./inp_files/302087.got.cif
#   From: 2010.06.25/outbox.cif.g09.slc.cpg/sg15_152_cif.got.tgz:302087.got - 2010.06.28 07:06:18.
