data_PCOD8148184
_publ_section_title
;
Structure prediction by ZEFSAII (Michael W. Deem and Ramdas Pophale) SiO2 
 PCOD8148184
Probable space group: C 2/C
;
_chemical_formula_sum "Si O2"
_cell_formula_units_Z 52
_cell_length_a 18.732141
_cell_length_b 12.295445
_cell_length_c 13.727939
_cell_angle_alpha 90.000000
_cell_angle_beta 54.389050
_cell_angle_gamma 90.000000
_cell_volume 2570.525663
_symmetry_space_group_name_H-M "C 2/C"
_symmetry_group_IT_number 15
_symmetry_cell_setting 'monoclinic'
loop_
_space_group_symop_operation_xyz
x,y,z
-x,y,1/2-z
-x,-y,-z
x,-y,1/2+z
1/2+x,1/2+y,z
1/2-x,1/2+y,1/2-z
1/2-x,1/2-y,-z
1/2+x,1/2-y,1/2+z
loop_
_atom_site_type_symbol
_atom_site_label
_atom_site_fract_x
_atom_site_fract_y
_atom_site_fract_z
Si Si1 0.188000 0.627696 0.818826
Si Si2 0.500000 0.384425 0.250000
Si Si3 0.443739 0.196971 0.428525
Si Si4 0.181023 0.982047 0.147665
Si Si5 0.706698 0.858216 0.578018
Si Si6 0.870541 0.611688 0.159244
Si Si7 0.752499 0.786347 0.887052
O O1 0.278058 0.598836 0.803780
O O2 0.133242 0.517302 0.849863
O O3 0.208035 0.683363 0.700595
O O4 0.126251 0.710588 0.928508
O O5 0.469368 0.314323 0.366827
O O6 0.578597 0.460146 0.221555
O O7 0.393168 0.129302 0.383641
O O8 0.529494 0.135215 0.395621
O O9 0.186482 0.107793 0.172569
O O10 0.233578 0.960058 0.004166
O O11 0.750000 0.750000 0.500000
O O12 0.698515 0.852598 0.701162
O O13 0.841656 0.677888 0.084786
O O14 0.750000 0.750000 0.000000
#
# Coordination Sequence:
#
# PCOD8148184 Si02
#       7
#     8   4   8   8   8   8   8
#     4  10  23  40  63  88 126 167 211 253 322 376
#     4  12  20  38  64  94 128 146 214 258 320 364
#     4  11  20  36  64 101 121 152 205 272 310 366
#     4  10  23  39  66  95 121 167 210 261 318 380
#     4  11  18  35  65  96 122 157 206 263 326 368
#     4  11  21  38  64  91 125 160 212 262 311 377
#     4  11  24  45  60  85 131 175 210 250 318 377
#
# _framework density 20.229323999999998
#
# number of rings (size 3 to 8) (size 9 to 14) (size 15 to 20)
#    0.000    1.231    3.077    4.154    0.000    0.000 
#    2.769    0.769    0.000    0.000    0.000    0.000 
#    0.000    0.000    0.000    0.000    0.000    0.000 
#
# Total GULP energy -322353.612438 kJ/mol
# GULP energy per Si atom -12398.215863 kJ/mol
# Density = 2.018328 g / cm^3
# Si number density = 20.229324 Si / 1000 Ang^3
#
#
#
# Elastic Constant Matrix: (Units=GPa)
#
#
# Indices 1 2 3 4 5 6 
#
# 1 147.4705 47.4900 62.1133 0.0000 -10.9551 0.0000
# 2 47.4900 83.1193 32.9579 0.0000 2.5044 0.0000
# 3 62.1133 32.9579 103.0062 0.0000 17.4970 0.0000
# 4 0.0000 0.0000 0.0000 24.7948 0.0000 5.5654
# 5 -10.9551 2.5044 17.4970 0.0000 39.4737 0.0000
# 6 0.0000 0.0000 0.0000 5.5654 0.0000 28.8446
#
#
#
# Elastic Compliance Matrix: (Units=1/GPa)
#
#
# Indices 1 2 3 4 5 6 
#
# 1 0.011345 -0.004047 -0.006623 0.000000 0.006341 0.000000
# 2 -0.004047 0.015272 -0.002261 0.000000 -0.001090 0.000000
# 3 -0.006623 -0.002261 0.015912 0.000000 -0.008748 0.000000
# 4 0.000000 0.000000 0.000000 0.042157 0.000000 -0.008134
# 5 0.006341 -0.001090 -0.008748 0.000000 0.031040 0.000000
# 6 0.000000 0.000000 0.000000 -0.008134 0.000000 0.036238
#
#
# Mechanical properties :
#
#
# Convention : Reuss Voigt Hill
#
# Bulk Modulus (GPa) = 60.00198 68.74647 64.37422
# Shear Modulus (GPa) = 27.26552 31.35827 29.31190
#
# Velocity S-wave (km/s) = 3.67525 3.94145 3.81068
# Velocity P-wave (km/s) = 6.90907 7.40073 7.15912
#
# Compressibility (1/GPa) = 0.01666612
#
# Stress axis : x y z
#
# Youngs Moduli (GPa) = 88.14463 65.47738 62.84739
#
# Poissons Ratio (x) = 0.26497 0.41627
# Poissons Ratio (y) = 0.35670 0.14212
# Poissons Ratio (z) = 0.58382 0.14806
#
# Static dielectric constant tensor:
#      x y z
#    x 3.927970 0.000000 0.154510 
#    y 0.000000 3.643770 0.000000 
#    z 0.154510 0.000000 3.739350 
# 
# 
# High freq. dielectric constant tensor:
#      x y z
#    x 1.798590 0.000000 0.003010 
#    y 0.000000 1.783280 0.000000 
#    z 0.003010 0.000000 1.781520 
# 
# From -- ./inp_files/167547.got.cif
#   From: 2010.06.25/outbox.cif.g09.slc.cpg/sg15_84_cif.got.tgz:167547.got - 2010.06.28 07:06:18.
