data_PCOD8148142
_publ_section_title
;
Structure prediction by ZEFSAII (Michael W. Deem and Ramdas Pophale) SiO2 
 PCOD8148142
Probable space group: C 2/C
;
_chemical_formula_sum "Si O2"
_cell_formula_units_Z 60
_cell_length_a 21.370283
_cell_length_b 17.232300
_cell_length_c 8.578647
_cell_angle_alpha 90.000000
_cell_angle_beta 69.361738
_cell_angle_gamma 90.000000
_cell_volume 2956.423647
_symmetry_space_group_name_H-M "C 2/C"
_symmetry_group_IT_number 15
_symmetry_cell_setting 'monoclinic'
loop_
_space_group_symop_operation_xyz
x,y,z
-x,y,1/2-z
-x,-y,-z
x,-y,1/2+z
1/2+x,1/2+y,z
1/2-x,1/2+y,1/2-z
1/2-x,1/2-y,-z
1/2+x,1/2-y,1/2+z
loop_
_atom_site_type_symbol
_atom_site_label
_atom_site_fract_x
_atom_site_fract_y
_atom_site_fract_z
Si Si1 0.474975 0.276792 0.516199
Si Si2 0.428897 0.018155 0.141663
Si Si3 0.709323 0.395368 0.505970
Si Si4 0.000000 0.354534 0.750000
Si Si5 0.563604 0.569917 0.610645
Si Si6 0.148110 0.010356 0.793349
Si Si7 0.636637 0.097355 0.573134
Si Si8 0.100754 0.231735 0.103673
O O1 0.478099 0.196678 0.417683
O O2 0.453041 0.341897 0.414030
O O3 0.419147 0.271731 0.698090
O O4 0.544944 0.302432 0.535187
O O5 0.438397 0.089287 0.255002
O O6 0.402425 0.940829 0.248099
O O7 0.371937 0.041213 0.067453
O O8 0.500000 0.000000 0.000000
O O9 0.683299 0.436197 0.685357
O O10 0.699647 0.447714 0.361679
O O11 0.787594 0.382688 0.451363
O O12 0.669972 0.314327 0.518570
O O13 0.500000 0.529746 0.750000
O O14 0.624984 0.569819 0.679344
O O15 0.582749 0.519021 0.444029
O O16 0.604229 0.178616 0.554803
#
# Coordination Sequence:
#
# PCOD8148142 Si02
#       8
#     8   8   8   4   8   8   8   8
#     4  11  23  38  63  94 128 168 204 267 323 371
#     4  12  24  42  68 100 124 158 207 274 327 377
#     4  11  23  44  62  92 128 174 213 255 310 384
#     4  12  22  40  66  96 132 150 206 266 332 376
#     4  11  20  37  60  93 125 162 209 258 319 365
#     4  10  23  39  62  88 129 165 212 261 302 374
#     4  12  25  42  68  92 128 167 212 259 325 383
#     4  11  24  41  63  91 128 170 213 257 316 380
#
# _framework density 20.294792000000001
#
# number of rings (size 3 to 8) (size 9 to 14) (size 15 to 20)
#    0.000    0.800    4.667    3.200    1.867    1.067 
#    0.000    0.000    0.000    1.600    0.000    0.000 
#    0.000    0.000    0.000    0.000    0.000    0.000 
#
# Total GULP energy -372041.968673 kJ/mol
# GULP energy per Si atom -12401.398956 kJ/mol
# Density = 2.024860 g / cm^3
# Si number density = 20.294792 Si / 1000 Ang^3
#
#
#
# Elastic Constant Matrix: (Units=GPa)
#
#
# Indices 1 2 3 4 5 6 
#
# 1 93.9175 29.4787 25.8949 0.0000 -2.4068 0.0000
# 2 29.4787 101.5193 28.2238 0.0000 2.5728 0.0000
# 3 25.8949 28.2238 86.5321 0.0000 3.4219 0.0000
# 4 0.0000 0.0000 0.0000 33.6087 0.0000 6.2157
# 5 -2.4068 2.5728 3.4219 0.0000 29.6000 0.0000
# 6 0.0000 0.0000 0.0000 6.2157 0.0000 31.7606
#
#
#
# Elastic Compliance Matrix: (Units=1/GPa)
#
#
# Indices 1 2 3 4 5 6 
#
# 1 0.012362 -0.002841 -0.002835 0.000000 0.001580 0.000000
# 2 -0.002841 0.011494 -0.002863 0.000000 -0.000899 0.000000
# 3 -0.002835 -0.002863 0.013399 0.000000 -0.001531 0.000000
# 4 0.000000 0.000000 0.000000 0.030872 0.000000 -0.006042
# 5 0.001580 -0.000899 -0.001531 0.000000 0.034167 0.000000
# 6 0.000000 0.000000 0.000000 -0.006042 0.000000 0.032668
#
#
# Mechanical properties :
#
#
# Convention : Reuss Voigt Hill
#
# Bulk Modulus (GPa) = 49.56389 49.90707 49.73548
# Shear Modulus (GPa) = 31.49285 32.21862 31.85573
#
# Velocity S-wave (km/s) = 3.94352 3.98871 3.96618
# Velocity P-wave (km/s) = 6.72385 6.77182 6.74788
#
# Compressibility (1/GPa) = 0.02017598
#
# Stress axis : x y z
#
# Youngs Moduli (GPa) = 80.89542 87.00034 74.63151
#
# Poissons Ratio (x) = 0.24720 0.21158
# Poissons Ratio (y) = 0.22986 0.21368
# Poissons Ratio (z) = 0.22933 0.24910
#
# Static dielectric constant tensor:
#      x y z
#    x 3.607770 0.000000 0.144040 
#    y 0.000000 3.686160 0.000000 
#    z 0.144040 0.000000 3.833390 
# 
# 
# High freq. dielectric constant tensor:
#      x y z
#    x 1.784930 0.000000 0.018130 
#    y 0.000000 1.795740 0.000000 
#    z 0.018130 0.000000 1.801980 
# 
# From -- ./inp_files/56555.got.cif
#   From: 2010.06.25/outbox.cif.g09.slc.cpg/sg15_29_cif.got.tgz:56555.got - 2010.06.28 07:06:18.
