data_PCOD8148895
_publ_section_title
;
Structure prediction by ZEFSAII (Michael W. Deem and Ramdas Pophale) SiO2 
 PCOD8148895
Probable space group: C 2/C
;
_chemical_formula_sum "Si O2"
_cell_formula_units_Z 60
_cell_length_a 7.643384
_cell_length_b 11.736579
_cell_length_c 29.902401
_cell_angle_alpha 90.000000
_cell_angle_beta 84.318890
_cell_angle_gamma 90.000000
_cell_volume 2669.284529
_symmetry_space_group_name_H-M "C 2/C"
_symmetry_group_IT_number 15
_symmetry_cell_setting 'monoclinic'
loop_
_space_group_symop_operation_xyz
x,y,z
-x,y,1/2-z
-x,-y,-z
x,-y,1/2+z
1/2+x,1/2+y,z
1/2-x,1/2+y,1/2-z
1/2-x,1/2-y,-z
1/2+x,1/2-y,1/2+z
loop_
_atom_site_type_symbol
_atom_site_label
_atom_site_fract_x
_atom_site_fract_y
_atom_site_fract_z
Si Si1 0.500000 0.869095 0.250000
Si Si2 0.405435 0.787465 0.567598
Si Si3 0.652839 0.504776 0.782443
Si Si4 0.997927 0.230905 0.418152
Si Si5 0.944977 0.866597 0.361367
Si Si6 0.163247 0.457847 0.431912
Si Si7 0.894591 0.115960 0.000625
Si Si8 0.143731 0.770948 0.822597
O O1 0.676990 0.941137 0.244026
O O2 0.493322 0.795284 0.205197
O O3 0.199656 0.785732 0.561213
O O4 0.453463 0.732181 0.613875
O O5 0.508091 0.719858 0.526829
O O6 0.442933 0.923364 0.566885
O O7 0.500000 0.502567 0.750000
O O8 0.589484 0.568833 0.828706
O O9 0.715057 0.378662 0.793671
O O10 0.031221 0.365826 0.415020
O O11 0.132408 0.164915 0.448543
O O12 0.035293 0.182762 0.368009
O O13 0.844403 0.954721 0.397691
O O14 0.807541 0.807006 0.331887
O O15 0.211470 0.417231 0.481333
O O16 0.000000 0.000000 0.000000
#
# Coordination Sequence:
#
# PCOD8148895 Si02
#       8
#     4   8   8   8   8   8   8   8
#     4  12  26  46  68 106 130 176 238 270 356 428
#     4  11  23  42  65  99 134 183 229 282 340 405
#     4  12  25  45  74  98 139 180 220 292 348 411
#     4  11  23  43  68  96 135 177 231 283 341 413
#     4  10  24  44  67  99 138 174 226 282 346 403
#     4  10  23  43  66  96 136 177 228 281 337 408
#     4  11  23  42  64  96 139 181 226 285 343 400
#     4  11  25  46  69 102 135 177 229 285 350 419
#
# _framework density 22.477933
#
# number of rings (size 3 to 8) (size 9 to 14) (size 15 to 20)
#    0.000    1.067    3.333    2.400    1.867    4.800 
#    7.200    0.000    0.000    0.000    0.000    0.000 
#    0.000    0.000    0.000    0.000    0.000    0.000 
#
# Total GULP energy -372007.538024 kJ/mol
# GULP energy per Si atom -12400.251267 kJ/mol
# Density = 2.242677 g / cm^3
# Si number density = 22.477933 Si / 1000 Ang^3
#
#
#
# Elastic Constant Matrix: (Units=GPa)
#
#
# Indices 1 2 3 4 5 6 
#
# 1 42.8740 15.7014 20.7212 0.0000 13.4072 0.0000
# 2 15.7014 135.3738 44.2812 0.0000 0.3263 0.0000
# 3 20.7212 44.2812 128.1984 0.0000 15.7365 0.0000
# 4 0.0000 0.0000 0.0000 29.1988 0.0000 5.6208
# 5 13.4072 0.3263 15.7365 0.0000 33.9370 0.0000
# 6 0.0000 0.0000 0.0000 5.6208 0.0000 28.7408
#
#
#
# Elastic Compliance Matrix: (Units=1/GPa)
#
#
# Indices 1 2 3 4 5 6 
#
# 1 0.028611 -0.002466 -0.002532 0.000000 -0.010105 0.000000
# 2 -0.002466 0.008597 -0.002842 0.000000 0.002209 0.000000
# 3 -0.002532 -0.002842 0.009612 0.000000 -0.003429 0.000000
# 4 0.000000 0.000000 0.000000 0.035588 0.000000 -0.006960
# 5 -0.010105 0.002209 -0.003429 0.000000 0.035028 0.000000
# 6 0.000000 0.000000 0.000000 -0.006960 0.000000 0.036155
#
#
# Mechanical properties :
#
#
# Convention : Reuss Voigt Hill
#
# Bulk Modulus (GPa) = 32.11304 51.98376 42.04840
# Shear Modulus (GPa) = 27.83160 33.42481 30.62820
#
# Velocity S-wave (km/s) = 3.52259 3.86035 3.69533
# Velocity P-wave (km/s) = 5.55539 6.56099 6.07902
#
# Compressibility (1/GPa) = 0.03114000
#
# Stress axis : x y z
#
# Youngs Moduli (GPa) = 34.95147 116.31508 104.03161
#
# Poissons Ratio (x) = 0.28681 0.26345
# Poissons Ratio (y) = 0.08618 0.29569
# Poissons Ratio (z) = 0.08851 0.33060
#
# Static dielectric constant tensor:
#      x y z
#    x 3.853350 0.000000 0.138540 
#    y 0.000000 4.142680 0.000000 
#    z 0.138540 0.000000 4.269650 
# 
# 
# High freq. dielectric constant tensor:
#      x y z
#    x 1.875110 0.000000 0.012300 
#    y 0.000000 1.898830 0.000000 
#    z 0.012300 0.000000 1.895900 
# 
# From -- ./inp_files/288010.got.cif
#   From: 2010.06.25/outbox.cif.g09.slc.cpg/sg15_145_cif.got.tgz:288010.got - 2010.06.28 07:06:18.
