data_PCOD8148448
_publ_section_title
;
Structure prediction by ZEFSAII (Michael W. Deem and Ramdas Pophale) SiO2 
 PCOD8148448
Probable space group: C 2/C
;
_chemical_formula_sum "Si O2"
_cell_formula_units_Z 56
_cell_length_a 13.980080
_cell_length_b 15.191097
_cell_length_c 11.389718
_cell_angle_alpha 90.000000
_cell_angle_beta 87.645969
_cell_angle_gamma 90.000000
_cell_volume 2416.824482
_symmetry_space_group_name_H-M "C 2/C"
_symmetry_group_IT_number 15
_symmetry_cell_setting 'monoclinic'
loop_
_space_group_symop_operation_xyz
x,y,z
-x,y,1/2-z
-x,-y,-z
x,-y,1/2+z
1/2+x,1/2+y,z
1/2-x,1/2+y,1/2-z
1/2-x,1/2-y,-z
1/2+x,1/2-y,1/2+z
loop_
_atom_site_type_symbol
_atom_site_label
_atom_site_fract_x
_atom_site_fract_y
_atom_site_fract_z
Si Si1 0.093808 0.755318 0.991075
Si Si2 0.981080 0.604018 0.385901
Si Si3 0.789895 0.884600 0.128815
Si Si4 0.541815 0.410296 0.545051
Si Si5 0.241836 0.264557 0.689489
Si Si6 0.802573 0.950460 0.788715
Si Si7 0.154549 0.481218 0.989148
O O1 0.009867 0.685065 0.022250
O O2 0.150412 0.752531 0.111863
O O3 0.164491 0.729068 0.882437
O O4 0.049859 0.846841 0.950697
O O5 0.875908 0.560293 0.419605
O O6 0.000000 0.632023 0.250000
O O7 0.063908 0.535915 0.411827
O O8 0.774038 0.796489 0.199538
O O9 0.689551 0.899419 0.066031
O O10 0.818375 0.974593 0.192586
O O11 0.878229 0.865448 0.039768
O O12 0.500000 0.500000 0.500000
O O13 0.591798 0.422937 0.669862
O O14 0.249571 0.365256 0.735113
O O15 0.743043 0.999737 0.896201
#
# Coordination Sequence:
#
# PCOD8148448 Si02
#       7
#     8   8   8   8   8   8   8
#     4  11  25  42  64  97 133 172 229 281 327 418
#     4  11  23  40  67  97 134 177 222 282 346 398
#     4  11  24  42  69  95 134 179 228 277 349 411
#     4  11  26  43  67 100 136 175 232 285 338 409
#     4  11  25  43  67  95 135 182 227 275 356 399
#     4  11  24  45  69  96 139 182 225 287 349 407
#     4  10  23  41  65  97 132 170 226 273 340 413
#
# _framework density 23.1709
#
# number of rings (size 3 to 8) (size 9 to 14) (size 15 to 20)
#    0.000    1.143    0.000    5.143    6.000   10.286 
#    0.000    0.000    0.000    0.000    0.000    0.000 
#    0.000    0.000    0.000    0.000    0.000    0.000 
#
# Total GULP energy -347008.035877 kJ/mol
# GULP energy per Si atom -12393.144138 kJ/mol
# Density = 2.311816 g / cm^3
# Si number density = 23.170900 Si / 1000 Ang^3
#
#
#
# Elastic Constant Matrix: (Units=GPa)
#
#
# Indices 1 2 3 4 5 6 
#
# 1 90.2448 13.6532 18.1405 0.0000 9.6092 0.0000
# 2 13.6532 68.4726 -2.1582 0.0000 2.4677 0.0000
# 3 18.1405 -2.1582 67.9899 0.0000 -2.8612 0.0000
# 4 0.0000 0.0000 0.0000 40.4175 0.0000 -4.7446
# 5 9.6092 2.4677 -2.8612 0.0000 42.9546 0.0000
# 6 0.0000 0.0000 0.0000 -4.7446 0.0000 28.4874
#
#
#
# Elastic Compliance Matrix: (Units=1/GPa)
#
#
# Indices 1 2 3 4 5 6 
#
# 1 0.012475 -0.002495 -0.003529 0.000000 -0.002882 0.000000
# 2 -0.002495 0.015146 0.001136 0.000000 -0.000236 0.000000
# 3 -0.003529 0.001136 0.015760 0.000000 0.001774 0.000000
# 4 0.000000 0.000000 0.000000 0.025235 0.000000 0.004203
# 5 -0.002882 -0.000236 0.001774 0.000000 0.024057 0.000000
# 6 0.000000 0.000000 0.000000 0.004203 0.000000 0.035803
#
#
# Mechanical properties :
#
#
# Convention : Reuss Voigt Hill
#
# Bulk Modulus (GPa) = 29.75584 31.77537 30.76560
# Shear Modulus (GPa) = 33.45530 35.51003 34.48267
#
# Velocity S-wave (km/s) = 3.80392 3.91900 3.86189
# Velocity P-wave (km/s) = 5.67123 5.84990 5.76126
#
# Compressibility (1/GPa) = 0.03360685
#
# Stress axis : x y z
#
# Youngs Moduli (GPa) = 80.16235 66.02332 63.45035
#
# Poissons Ratio (x) = 0.16471 0.22391
# Poissons Ratio (y) = 0.19999 -0.07211
# Poissons Ratio (z) = 0.28288 -0.07503
#
# Static dielectric constant tensor:
#      x y z
#    x 4.466140 0.000000 -0.083630 
#    y 0.000000 3.999100 0.000000 
#    z -0.083630 0.000000 4.334340 
# 
# 
# High freq. dielectric constant tensor:
#      x y z
#    x 1.927460 0.000000 -0.005680 
#    y 0.000000 1.908500 0.000000 
#    z -0.005680 0.000000 1.924390 
# 
# From -- ./inp_files/97006.got.cif
#   From: 2010.06.25/outbox.cif.g09.slc.cpg/sg15_49_cif.got.tgz:97006.got - 2010.06.28 07:06:18.
