data_PCOD8148283
_publ_section_title
;
Structure prediction by ZEFSAII (Michael W. Deem and Ramdas Pophale) SiO2 
 PCOD8148283
Probable space group: C 2/C
;
_chemical_formula_sum "Si O2"
_cell_formula_units_Z 44
_cell_length_a 15.264552
_cell_length_b 10.803603
_cell_length_c 12.661583
_cell_angle_alpha 90.000000
_cell_angle_beta 93.417156
_cell_angle_gamma 90.000000
_cell_volume 2084.336500
_symmetry_space_group_name_H-M "C 2/C"
_symmetry_group_IT_number 15
_symmetry_cell_setting 'monoclinic'
loop_
_space_group_symop_operation_xyz
x,y,z
-x,y,1/2-z
-x,-y,-z
x,-y,1/2+z
1/2+x,1/2+y,z
1/2-x,1/2+y,1/2-z
1/2-x,1/2-y,-z
1/2+x,1/2-y,1/2+z
loop_
_atom_site_type_symbol
_atom_site_label
_atom_site_fract_x
_atom_site_fract_y
_atom_site_fract_z
Si Si1 0.862068 0.815248 0.580041
Si Si2 0.899086 0.274618 0.757619
Si Si3 0.500000 0.614145 0.250000
Si Si4 0.713497 0.868476 0.938839
Si Si5 0.175562 0.592548 0.064972
Si Si6 0.870144 0.961355 0.375082
O O1 0.843150 0.677384 0.538619
O O2 0.772892 0.877867 0.616745
O O3 0.899148 0.902183 0.488832
O O4 0.929749 0.803105 0.681850
O O5 0.860354 0.322222 0.645902
O O6 0.892365 0.382919 0.845285
O O7 0.846227 0.152502 0.794178
O O8 0.000000 0.238893 0.750000
O O9 0.452970 0.532440 0.335015
O O10 0.787589 0.947365 0.882933
O O11 0.750000 0.750000 0.000000
O O12 0.667210 0.951867 0.025414
#
# Coordination Sequence:
#
# PCOD8148283 Si02
#       6
#     8   8   4   8   8   8
#     4   9  20  38  63  94 126 174 214 270 332 385
#     4  11  24  43  69  98 135 174 217 281 342 376
#     4  12  20  34  68 102 128 162 228 278 324 390
#     4  11  26  42  71  97 129 180 231 259 325 419
#     4   9  21  45  62  88 138 174 211 268 335 391
#     4  10  23  40  65  96 136 167 220 278 332 385
#
# _framework density 21.109836999999999
#
# number of rings (size 3 to 8) (size 9 to 14) (size 15 to 20)
#    0.000    1.818    0.909    2.727    7.636    3.636 
#    1.636    0.000    0.000    0.000    0.000    0.000 
#    0.000    0.000    0.000    0.000    0.000    0.000 
#
# Total GULP energy -272809.301805 kJ/mol
# GULP energy per Si atom -12400.422809 kJ/mol
# Density = 2.106179 g / cm^3
# Si number density = 21.109837 Si / 1000 Ang^3
#
#
#
# Elastic Constant Matrix: (Units=GPa)
#
#
# Indices 1 2 3 4 5 6 
#
# 1 90.6773 38.5384 46.2588 0.0000 7.4697 0.0000
# 2 38.5384 127.4119 48.4607 0.0000 9.0724 0.0000
# 3 46.2588 48.4607 94.3066 0.0000 23.5937 0.0000
# 4 0.0000 0.0000 0.0000 29.6713 0.0000 -7.7728
# 5 7.4697 9.0724 23.5937 0.0000 49.4038 0.0000
# 6 0.0000 0.0000 0.0000 -7.7728 0.0000 29.2153
#
#
#
# Elastic Compliance Matrix: (Units=1/GPa)
#
#
# Indices 1 2 3 4 5 6 
#
# 1 0.015256 -0.002159 -0.006696 0.000000 0.001288 0.000000
# 2 -0.002159 0.010081 -0.004247 0.000000 0.000503 0.000000
# 3 -0.006696 -0.004247 0.017742 0.000000 -0.006681 0.000000
# 4 0.000000 0.000000 0.000000 0.036228 0.000000 0.009638
# 5 0.001288 0.000503 -0.006681 0.000000 0.023145 0.000000
# 6 0.000000 0.000000 0.000000 0.009638 0.000000 0.036793
#
#
# Mechanical properties :
#
#
# Convention : Reuss Voigt Hill
#
# Bulk Modulus (GPa) = 59.26131 64.32350 61.79241
# Shear Modulus (GPa) = 29.22733 33.60061 31.41397
#
# Velocity S-wave (km/s) = 3.72497 3.99394 3.86180
# Velocity P-wave (km/s) = 6.82893 7.19763 7.01570
#
# Compressibility (1/GPa) = 0.01687442
#
# Stress axis : x y z
#
# Youngs Moduli (GPa) = 65.55002 99.19407 56.36416
#
# Poissons Ratio (x) = 0.21420 0.37739
# Poissons Ratio (y) = 0.14155 0.23938
# Poissons Ratio (z) = 0.43889 0.42129
#
# Static dielectric constant tensor:
#      x y z
#    x 3.693970 0.000000 -0.165830 
#    y 0.000000 3.839490 0.000000 
#    z -0.165830 0.000000 3.918640 
# 
# 
# High freq. dielectric constant tensor:
#      x y z
#    x 1.816260 0.000000 -0.011010 
#    y 0.000000 1.824250 0.000000 
#    z -0.011010 0.000000 1.830140 
# 
# From -- ./inp_files/95048.got.cif
#   From: 2010.06.25/outbox.cif.g09.slc.cpg/sg15_48_cif.got.tgz:95048.got - 2010.06.28 07:06:18.
