data_PCOD8148443
_publ_section_title
;
Structure prediction by ZEFSAII (Michael W. Deem and Ramdas Pophale) SiO2 
 PCOD8148443
Probable space group: C 2/C
;
_chemical_formula_sum "Si O2"
_cell_formula_units_Z 36
_cell_length_a 4.979031
_cell_length_b 12.910137
_cell_length_c 21.435851
_cell_angle_alpha 90.000000
_cell_angle_beta 88.263596
_cell_angle_gamma 90.000000
_cell_volume 1377.263192
_symmetry_space_group_name_H-M "C 2/C"
_symmetry_group_IT_number 15
_symmetry_cell_setting 'monoclinic'
loop_
_space_group_symop_operation_xyz
x,y,z
-x,y,1/2-z
-x,-y,-z
x,-y,1/2+z
1/2+x,1/2+y,z
1/2-x,1/2+y,1/2-z
1/2-x,1/2-y,-z
1/2+x,1/2-y,1/2+z
loop_
_atom_site_type_symbol
_atom_site_label
_atom_site_fract_x
_atom_site_fract_y
_atom_site_fract_z
Si Si1 0.208781 0.872801 0.431385
Si Si2 0.738500 0.879134 0.352063
Si Si3 0.000000 0.012211 0.250000
Si Si4 0.240984 0.365395 0.933251
Si Si5 0.767684 0.640728 0.353814
O O1 0.435620 0.890519 0.377824
O O2 0.141986 0.752478 0.442063
O O3 0.280714 0.920902 0.498671
O O4 0.938622 0.924764 0.404558
O O5 0.814107 0.760402 0.336179
O O6 0.787289 0.942280 0.288741
O O7 0.187262 0.083446 0.291509
O O8 0.545481 0.370463 0.908799
O O9 0.036754 0.412804 0.882422
#
# Coordination Sequence:
#
# PCOD8148443 Si02
#       5
#     8   8   4   8   8
#     4   9  18  38  67  96 127 165 213 274 341 396
#     4  10  23  41  65  95 130 174 219 271 330 391
#     4  12  28  46  66  96 140 186 232 272 320 396
#     4   9  18  38  67  96 127 165 213 274 341 396
#     4  10  23  41  65  95 130 174 219 271 330 391
#
# _framework density 26.138797
#
# number of rings (size 3 to 8) (size 9 to 14) (size 15 to 20)
#    0.000    2.222    0.000    1.333    0.000   16.000 
#    0.000    6.667    0.000    0.000    0.000    0.000 
#    0.000    0.000    0.000    0.000    0.000    0.000 
#
# Total GULP energy -223261.801444 kJ/mol
# GULP energy per Si atom -12403.433414 kJ/mol
# Density = 2.607930 g / cm^3
# Si number density = 26.138797 Si / 1000 Ang^3
#
#
#
# Elastic Constant Matrix: (Units=GPa)
#
#
# Indices 1 2 3 4 5 6 
#
# 1 129.3034 -23.8891 41.8613 0.0000 19.1016 0.0000
# 2 -23.8891 54.8259 36.2614 0.0000 2.3882 0.0000
# 3 41.8613 36.2614 185.5163 0.0000 8.2201 0.0000
# 4 0.0000 0.0000 0.0000 35.1864 0.0000 3.6344
# 5 19.1016 2.3882 8.2201 0.0000 41.0907 0.0000
# 6 0.0000 0.0000 0.0000 3.6344 0.0000 1.4842
#
#
#
# Elastic Compliance Matrix: (Units=1/GPa)
#
#
# Indices 1 2 3 4 5 6 
#
# 1 0.011043 0.007498 -0.003744 0.000000 -0.004820 0.000000
# 2 0.007498 0.026045 -0.006620 0.000000 -0.003675 0.000000
# 3 -0.003744 -0.006620 0.007501 0.000000 0.000624 0.000000
# 4 0.000000 0.000000 0.000000 0.038041 0.000000 -0.093149
# 5 -0.004820 -0.003675 0.000624 0.000000 0.026666 0.000000
# 6 0.000000 0.000000 0.000000 -0.093149 0.000000 0.901837
#
#
# Mechanical properties :
#
#
# Convention : Reuss Voigt Hill
#
# Bulk Modulus (GPa) = 25.73471 53.12365 39.42918
# Shear Modulus (GPa) = 4.85523 36.57974 20.71748
#
# Velocity S-wave (km/s) = 1.36437 3.74497 2.81836
# Velocity P-wave (km/s) = 3.51409 6.25040 5.07032
#
# Compressibility (1/GPa) = 0.03885802
#
# Stress axis : x y z
#
# Youngs Moduli (GPa) = 90.55380 38.39507 133.30822
#
# Poissons Ratio (x) = -0.28788 0.49908
# Poissons Ratio (y) = -0.67897 0.88248
# Poissons Ratio (z) = 0.33902 0.25417
#
# Static dielectric constant tensor:
#      x y z
#    x 4.543400 0.000000 0.288900 
#    y 0.000000 5.097660 0.000000 
#    z 0.288900 0.000000 4.772470 
# 
# 
# High freq. dielectric constant tensor:
#      x y z
#    x 2.047440 0.000000 0.008870 
#    y 0.000000 2.065120 0.000000 
#    z 0.008870 0.000000 2.048320 
# 
# From -- ./inp_files/226545.got.cif
#   From: 2010.06.25/outbox.cif.g09.slc.cpg/sg15_114_cif.got.tgz:226545.got - 2010.06.28 07:06:18.
