data_PCOD8148409
_publ_section_title
;
Structure prediction by ZEFSAII (Michael W. Deem and Ramdas Pophale) SiO2 
 PCOD8148409
Probable space group: C 2/C
;
_chemical_formula_sum "Si O2"
_cell_formula_units_Z 52
_cell_length_a 9.684499
_cell_length_b 14.650184
_cell_length_c 20.351621
_cell_angle_alpha 90.000000
_cell_angle_beta 53.623985
_cell_angle_gamma 90.000000
_cell_volume 2324.833222
_symmetry_space_group_name_H-M "C 2/C"
_symmetry_group_IT_number 15
_symmetry_cell_setting 'monoclinic'
loop_
_space_group_symop_operation_xyz
x,y,z
-x,y,1/2-z
-x,-y,-z
x,-y,1/2+z
1/2+x,1/2+y,z
1/2-x,1/2+y,1/2-z
1/2-x,1/2-y,-z
1/2+x,1/2-y,1/2+z
loop_
_atom_site_type_symbol
_atom_site_label
_atom_site_fract_x
_atom_site_fract_y
_atom_site_fract_z
Si Si1 0.185937 0.678121 0.101401
Si Si2 0.338079 0.237522 0.682430
Si Si3 0.769744 0.742115 0.917670
Si Si4 0.697964 0.552889 0.767783
Si Si5 0.475701 0.653217 0.924300
Si Si6 0.000000 0.545275 0.250000
Si Si7 0.689723 0.630033 0.201338
O O1 0.318241 0.727712 0.113616
O O2 0.064936 0.752085 0.101042
O O3 0.059386 0.605441 0.170721
O O4 0.308546 0.625782 0.014232
O O5 0.532321 0.214938 0.648030
O O6 0.232725 0.145555 0.719919
O O7 0.242059 0.315014 0.753780
O O8 0.644776 0.665877 0.922377
O O9 0.723608 0.837900 0.892070
O O10 0.750000 0.750000 0.000000
O O11 0.524555 0.570936 0.859936
O O12 0.682371 0.478077 0.714601
O O13 0.846400 0.521302 0.774455
O O14 0.500000 0.668410 0.250000
#
# Coordination Sequence:
#
# PCOD8148409 Si02
#       7
#     8   8   8   8   8   4   8
#     4  11  24  45  70 100 139 181 228 298 357 410
#     4  11  22  43  70  96 137 185 236 282 354 414
#     4  11  21  43  70  96 141 189 229 285 349 427
#     4  12  24  41  71 101 134 181 235 287 348 426
#     4  11  24  42  72 101 136 182 235 288 361 415
#     4  12  24  42  66 102 138 176 228 290 346 420
#     4  10  23  41  64 100 135 177 235 285 340 419
#
# _framework density 22.367194000000001
#
# number of rings (size 3 to 8) (size 9 to 14) (size 15 to 20)
#    0.000    0.923    4.615    2.769    3.231    0.615 
#    0.000    2.308    0.000    0.000    0.000    0.000 
#    0.000    0.000    0.000    0.000    0.000    0.000 
#
# Total GULP energy -322170.141410 kJ/mol
# GULP energy per Si atom -12391.159285 kJ/mol
# Density = 2.231629 g / cm^3
# Si number density = 22.367194 Si / 1000 Ang^3
#
#
#
# Elastic Constant Matrix: (Units=GPa)
#
#
# Indices 1 2 3 4 5 6 
#
# 1 73.4652 -1.7646 22.3509 0.0000 1.4296 0.0000
# 2 -1.7646 100.3977 62.0705 0.0000 3.7865 0.0000
# 3 22.3509 62.0705 147.8461 0.0001 -0.3590 -0.0001
# 4 0.0000 0.0000 0.0001 34.3327 0.0000 0.2826
# 5 1.4296 3.7865 -0.3590 0.0000 38.8403 0.0000
# 6 0.0000 0.0000 -0.0001 0.2826 0.0000 31.1840
#
#
#
# Elastic Compliance Matrix: (Units=1/GPa)
#
#
# Indices 1 2 3 4 5 6 
#
# 1 0.014641 0.002237 -0.003154 0.000000 -0.000786 0.000000
# 2 0.002237 0.013866 -0.006163 0.000000 -0.001491 0.000000
# 3 -0.003154 -0.006163 0.009830 0.000000 0.000808 0.000000
# 4 0.000000 0.000000 0.000000 0.029129 0.000000 -0.000264
# 5 -0.000786 -0.001491 0.000808 0.000000 0.025928 0.000000
# 6 0.000000 0.000000 0.000000 -0.000264 0.000000 0.032070
#
#
# Mechanical properties :
#
#
# Convention : Reuss Voigt Hill
#
# Bulk Modulus (GPa) = 41.36339 54.11363 47.73851
# Shear Modulus (GPa) = 33.85592 36.80821 35.33207
#
# Velocity S-wave (km/s) = 3.89478 4.06104 3.97878
# Velocity P-wave (km/s) = 6.22565 6.79965 6.51897
#
# Compressibility (1/GPa) = 0.02417597
#
# Stress axis : x y z
#
# Youngs Moduli (GPa) = 68.30304 72.11648 101.72692
#
# Poissons Ratio (x) = -0.16134 0.32090
# Poissons Ratio (y) = -0.15281 0.62699
# Poissons Ratio (z) = 0.21546 0.44448
#
# Static dielectric constant tensor:
#      x y z
#    x 4.255910 0.000000 -0.003710 
#    y 0.000000 3.753090 0.000000 
#    z -0.003710 0.000000 4.276570 
# 
# 
# High freq. dielectric constant tensor:
#      x y z
#    x 1.901270 0.000000 0.000430 
#    y 0.000000 1.855290 0.000000 
#    z 0.000430 0.000000 1.882350 
# 
# From -- ./inp_files/238657.got.cif
#   From: 2010.06.25/outbox.cif.g09.slc.cpg/sg15_120_cif.got.tgz:238657.got - 2010.06.28 07:06:18.
