data_PCOD8148385
_publ_section_title
;
Structure prediction by ZEFSAII (Michael W. Deem and Ramdas Pophale) SiO2 
 PCOD8148385
Probable space group: C 2/C
;
_chemical_formula_sum "Si O2"
_cell_formula_units_Z 44
_cell_length_a 16.215669
_cell_length_b 21.955635
_cell_length_c 5.494352
_cell_angle_alpha 90.000000
_cell_angle_beta 103.618294
_cell_angle_gamma 90.000000
_cell_volume 1901.133530
_symmetry_space_group_name_H-M "C 2/C"
_symmetry_group_IT_number 15
_symmetry_cell_setting 'monoclinic'
loop_
_space_group_symop_operation_xyz
x,y,z
-x,y,1/2-z
-x,-y,-z
x,-y,1/2+z
1/2+x,1/2+y,z
1/2-x,1/2+y,1/2-z
1/2-x,1/2-y,-z
1/2+x,1/2-y,1/2+z
loop_
_atom_site_type_symbol
_atom_site_label
_atom_site_fract_x
_atom_site_fract_y
_atom_site_fract_z
Si Si1 0.681309 0.965441 0.132106
Si Si2 0.000000 0.135872 0.750000
Si Si3 0.706472 0.792998 0.662476
Si Si4 0.404439 0.147361 0.750522
Si Si5 0.620299 0.534214 0.706675
Si Si6 0.875458 0.773055 0.990635
O O1 0.629749 0.901828 0.080188
O O2 0.780601 0.951186 0.215691
O O3 0.655240 0.999262 0.366770
O O4 0.068307 0.096638 0.648008
O O5 0.950871 0.178520 0.523618
O O6 0.750000 0.750000 0.500000
O O7 0.661119 0.853950 0.525317
O O8 0.786417 0.809979 0.889258
O O9 0.632081 0.755794 0.746471
O O10 0.500000 0.129889 0.750000
O O11 0.397259 0.217298 0.828065
O O12 0.594276 0.496833 0.446183
#
# Coordination Sequence:
#
# PCOD8148385 Si02
#       6
#     8   4   8   8   8   8
#     4  10  25  47  74 101 133 188 246 289 358 420
#     4  12  24  40  72 104 140 184 230 286 352 428
#     4   9  21  41  64  92 138 186 226 274 351 418
#     4  11  24  43  68  99 143 174 232 305 345 411
#     4  10  24  48  69 102 142 186 237 294 346 415
#     4  10  23  41  63 103 142 182 233 275 356 428
#
# _framework density 23.144089000000001
#
# number of rings (size 3 to 8) (size 9 to 14) (size 15 to 20)
#    0.000    1.818    0.000    1.636   10.182    3.636 
#   13.091    0.000    0.000    0.000    0.000    0.000 
#    0.000    0.000    0.000    0.000    0.000    0.000 
#
# Total GULP energy -272648.069914 kJ/mol
# GULP energy per Si atom -12393.094087 kJ/mol
# Density = 2.309141 g / cm^3
# Si number density = 23.144089 Si / 1000 Ang^3
#
#
#
# Elastic Constant Matrix: (Units=GPa)
#
#
# Indices 1 2 3 4 5 6 
#
# 1 94.9894 59.2450 32.9678 0.0000 3.3068 0.0000
# 2 59.2450 116.1987 32.2288 0.0000 7.8517 0.0000
# 3 32.9678 32.2288 102.4133 0.0000 -10.8059 0.0000
# 4 0.0000 0.0000 0.0000 26.9493 0.0000 2.9518
# 5 3.3068 7.8517 -10.8059 0.0000 32.6645 0.0000
# 6 0.0000 0.0000 0.0000 2.9518 0.0000 41.2275
#
#
#
# Elastic Compliance Matrix: (Units=1/GPa)
#
#
# Indices 1 2 3 4 5 6 
#
# 1 0.016188 -0.007369 -0.002982 0.000000 -0.000854 0.000000
# 2 -0.007369 0.013154 -0.002096 0.000000 -0.003109 0.000000
# 3 -0.002982 -0.002096 0.011884 0.000000 0.004737 0.000000
# 4 0.000000 0.000000 0.000000 0.037400 0.000000 -0.002678
# 5 -0.000854 -0.003109 0.004737 0.000000 0.033015 0.000000
# 6 0.000000 0.000000 0.000000 -0.002678 0.000000 0.024447
#
#
# Mechanical properties :
#
#
# Convention : Reuss Voigt Hill
#
# Bulk Modulus (GPa) = 61.22656 62.49831 61.86243
# Shear Modulus (GPa) = 30.04329 32.77892 31.41110
#
# Velocity S-wave (km/s) = 3.60682 3.76746 3.68801
# Velocity P-wave (km/s) = 6.62250 6.78142 6.70243
#
# Compressibility (1/GPa) = 0.01633278
#
# Stress axis : x y z
#
# Youngs Moduli (GPa) = 61.77310 76.02056 84.14908
#
# Poissons Ratio (x) = 0.56018 0.25096
# Poissons Ratio (y) = 0.45520 0.17634
# Poissons Ratio (z) = 0.18423 0.15930
#
# Static dielectric constant tensor:
#      x y z
#    x 4.436570 0.000000 0.367200 
#    y 0.000000 3.964160 0.000000 
#    z 0.367200 0.000000 4.692820 
# 
# 
# High freq. dielectric constant tensor:
#      x y z
#    x 1.925910 0.000000 0.002420 
#    y 0.000000 1.898870 0.000000 
#    z 0.002420 0.000000 1.914710 
# 
# From -- ./inp_files/7602.got.cif
#   From: 2010.06.25/outbox.cif.g09.slc.cpg/sg15_4_cif.got.tgz:7602.got - 2010.06.28 07:06:18.
