data_PCOD8148608
_publ_section_title
;
Structure prediction by ZEFSAII (Michael W. Deem and Ramdas Pophale) SiO2 
 PCOD8148608
Probable space group: C 2/C
;
_chemical_formula_sum "Si O2"
_cell_formula_units_Z 56
_cell_length_a 12.201807
_cell_length_b 8.202565
_cell_length_c 30.658334
_cell_angle_alpha 90.000000
_cell_angle_beta 58.534854
_cell_angle_gamma 90.000000
_cell_volume 2617.278601
_symmetry_space_group_name_H-M "C 2/C"
_symmetry_group_IT_number 15
_symmetry_cell_setting 'monoclinic'
loop_
_space_group_symop_operation_xyz
x,y,z
-x,y,1/2-z
-x,-y,-z
x,-y,1/2+z
1/2+x,1/2+y,z
1/2-x,1/2+y,1/2-z
1/2-x,1/2-y,-z
1/2+x,1/2-y,1/2+z
loop_
_atom_site_type_symbol
_atom_site_label
_atom_site_fract_x
_atom_site_fract_y
_atom_site_fract_z
Si Si1 0.685219 0.180714 0.470528
Si Si2 0.221301 0.762761 0.296653
Si Si3 0.731482 0.686502 0.551784
Si Si4 0.952802 0.138095 0.042256
Si Si5 0.994196 0.019019 0.625881
Si Si6 0.438176 0.977206 0.216664
Si Si7 0.352844 0.745521 0.358144
O O1 0.750000 0.250000 0.500000
O O2 0.533809 0.204915 0.509172
O O3 0.742272 0.281473 0.417159
O O4 0.711885 0.993590 0.456386
O O5 0.139673 0.920872 0.327489
O O6 0.334196 0.830896 0.242270
O O7 0.130879 0.630656 0.291806
O O8 0.285790 0.692212 0.326883
O O9 0.750000 0.750000 0.500000
O O10 0.803951 0.811896 0.568792
O O11 0.581728 0.677601 0.596151
O O12 0.977431 0.092308 0.086801
O O13 0.000000 0.000000 0.000000
O O14 0.061520 0.910421 0.648292
O O15 0.500000 0.032378 0.250000
O O16 0.556575 0.905829 0.163731
#
# Coordination Sequence:
#
# PCOD8148608 Si02
#       7
#     8   8   8   8   8   8   8
#     4  11  21  41  63  92 134 178 220 268 317 384
#     4  11  24  43  71  96 127 167 212 270 341 388
#     4  11  23  38  58  88 125 175 227 266 318 374
#     4  12  22  40  60  86 134 179 221 272 314 375
#     4  11  24  42  61  95 131 170 218 269 319 387
#     4  10  24  45  69  98 125 163 212 272 337 401
#     4  10  23  42  64  97 132 165 218 269 320 388
#
# _framework density 21.396270000000001
#
# number of rings (size 3 to 8) (size 9 to 14) (size 15 to 20)
#    0.000    1.143    4.286    2.143    0.000    8.000 
#    0.000    0.000    0.000    0.000    0.000    0.000 
#    0.000    0.000    0.000    0.000    0.000    0.000 
#
# Total GULP energy -347150.577830 kJ/mol
# GULP energy per Si atom -12398.234922 kJ/mol
# Density = 2.134757 g / cm^3
# Si number density = 21.396270 Si / 1000 Ang^3
#
#
#
# Elastic Constant Matrix: (Units=GPa)
#
#
# Indices 1 2 3 4 5 6 
#
# 1 123.4434 41.4031 42.0885 0.0000 9.9733 0.0000
# 2 41.4031 74.3865 30.7586 0.0000 12.0876 0.0000
# 3 42.0885 30.7586 101.0977 0.0000 3.9244 0.0000
# 4 0.0000 0.0000 0.0000 26.1277 0.0000 -8.4344
# 5 9.9733 12.0876 3.9244 0.0000 32.4043 0.0000
# 6 0.0000 0.0000 0.0000 -8.4344 0.0000 51.5550
#
#
#
# Elastic Compliance Matrix: (Units=1/GPa)
#
#
# Indices 1 2 3 4 5 6 
#
# 1 0.010761 -0.004522 -0.003055 0.000000 -0.001255 0.000000
# 2 -0.004522 0.018201 -0.003462 0.000000 -0.004978 0.000000
# 3 -0.003055 -0.003462 0.012187 0.000000 0.000756 0.000000
# 4 0.000000 0.000000 0.000000 0.040408 0.000000 0.006611
# 5 -0.001255 -0.004978 0.000756 0.000000 0.033012 0.000000
# 6 0.000000 0.000000 0.000000 0.006611 0.000000 0.020478
#
#
# Mechanical properties :
#
#
# Convention : Reuss Voigt Hill
#
# Bulk Modulus (GPa) = 52.43677 58.60309 55.51993
# Shear Modulus (GPa) = 30.58461 34.32923 32.45692
#
# Velocity S-wave (km/s) = 3.78489 4.00990 3.89902
# Velocity P-wave (km/s) = 6.60766 6.99199 6.80254
#
# Compressibility (1/GPa) = 0.01907059
#
# Stress axis : x y z
#
# Youngs Moduli (GPa) = 92.93089 54.94334 82.05304
#
# Poissons Ratio (x) = 0.24846 0.25070
# Poissons Ratio (y) = 0.42024 0.28404
# Poissons Ratio (z) = 0.28393 0.19019
#
# Static dielectric constant tensor:
#      x y z
#    x 4.529260 0.000000 -0.397870 
#    y 0.000000 4.081030 0.000000 
#    z -0.397870 0.000000 4.202780 
# 
# 
# High freq. dielectric constant tensor:
#      x y z
#    x 1.858860 0.000000 -0.006070 
#    y 0.000000 1.829000 0.000000 
#    z -0.006070 0.000000 1.840830 
# 
# From -- ./inp_files/309911.got.cif
#   From: 2010.06.25/outbox.cif.g09.slc.cpg/sg15_155_cif.got.tgz:309911.got - 2010.06.28 07:06:18.
