data_PCOD8148750
_publ_section_title
;
Structure prediction by ZEFSAII (Michael W. Deem and Ramdas Pophale) SiO2 
 PCOD8148750
Probable space group: C 2/C
;
_chemical_formula_sum "Si O2"
_cell_formula_units_Z 32
_cell_length_a 10.664919
_cell_length_b 12.660269
_cell_length_c 20.217364
_cell_angle_alpha 90.000000
_cell_angle_beta 150.517204
_cell_angle_gamma 90.000000
_cell_volume 1343.486416
_symmetry_space_group_name_H-M "C 2/C"
_symmetry_group_IT_number 15
_symmetry_cell_setting 'monoclinic'
loop_
_space_group_symop_operation_xyz
x,y,z
-x,y,1/2-z
-x,-y,-z
x,-y,1/2+z
1/2+x,1/2+y,z
1/2-x,1/2+y,1/2-z
1/2-x,1/2-y,-z
1/2+x,1/2-y,1/2+z
loop_
_atom_site_type_symbol
_atom_site_label
_atom_site_fract_x
_atom_site_fract_y
_atom_site_fract_z
Si Si1 0.718203 0.579879 0.797492
Si Si2 0.509460 0.711535 0.430459
Si Si3 0.531076 0.654032 0.950103
Si Si4 0.056306 0.378021 0.644789
O O1 0.500000 0.553174 0.750000
O O2 0.852837 0.686456 0.882850
O O3 0.618501 0.593516 0.676200
O O4 0.918536 0.483061 0.888564
O O5 0.591033 0.641695 0.532297
O O6 0.330476 0.637943 0.304053
O O7 0.750000 0.750000 0.500000
O O8 0.523950 0.780077 0.937117
O O9 0.821363 0.610149 0.088230
#
# Coordination Sequence:
#
# PCOD8148750 Si02
#       4
#     8   8   8   8
#     4  11  25  42  71 101 127 179 232 274 338 405
#     4  11  25  44  66 100 136 177 222 277 338 401
#     4  10  23  45  66  92 140 176 212 284 340 391
#     4  10  23  42  69  97 130 176 222 277 336 401
#
# _framework density 23.818625000000001
#
# number of rings (size 3 to 8) (size 9 to 14) (size 15 to 20)
#    0.000    1.500    0.000    5.250    7.000    6.000 
#    4.500    0.000    0.000    0.000    0.000    0.000 
#    0.000    0.000    0.000    0.000    0.000    0.000 
#
# Total GULP energy -198338.990880 kJ/mol
# GULP energy per Si atom -12396.186930 kJ/mol
# Density = 2.376441 g / cm^3
# Si number density = 23.818625 Si / 1000 Ang^3
#
#
#
# Elastic Constant Matrix: (Units=GPa)
#
#
# Indices 1 2 3 4 5 6 
#
# 1 170.7522 10.9439 51.3022 0.0006 -4.7205 0.0001
# 2 10.9439 87.3492 1.5705 -0.0004 3.5799 -0.0001
# 3 51.3022 1.5705 90.7767 0.0000 -6.6264 0.0000
# 4 0.0006 -0.0004 0.0000 12.2713 0.0001 12.7651
# 5 -4.7205 3.5799 -6.6264 0.0001 34.1788 -0.0001
# 6 0.0001 -0.0001 0.0000 12.7651 -0.0001 36.7283
#
#
#
# Elastic Compliance Matrix: (Units=1/GPa)
#
#
# Indices 1 2 3 4 5 6 
#
# 1 0.007115 -0.000832 -0.003985 -0.000001 0.000297 0.000000
# 2 -0.000832 0.011603 0.000175 0.000001 -0.001296 0.000000
# 3 -0.003985 0.000175 0.013413 0.000000 0.002032 0.000000
# 4 -0.000001 0.000001 0.000000 0.127637 -0.000001 -0.044361
# 5 0.000297 -0.001296 0.002032 -0.000001 0.029829 0.000000
# 6 0.000000 0.000000 0.000000 -0.044361 0.000000 0.042645
#
#
# Mechanical properties :
#
#
# Convention : Reuss Voigt Hill
#
# Bulk Modulus (GPa) = 43.76975 52.94569 48.35772
# Shear Modulus (GPa) = 20.06890 35.63980 27.85435
#
# Velocity S-wave (km/s) = 2.90586 3.87240 3.42341
# Velocity P-wave (km/s) = 5.44746 6.50161 5.99774
#
# Compressibility (1/GPa) = 0.02284683
#
# Stress axis : x y z
#
# Youngs Moduli (GPa) = 140.54221 86.18813 74.55177
#
# Poissons Ratio (x) = 0.07171 0.29710
# Poissons Ratio (y) = 0.11693 -0.01304
# Poissons Ratio (z) = 0.56007 -0.01507
#
# Static dielectric constant tensor:
#      x y z
#    x 4.206350 0.000000 0.037740 
#    y 0.000000 4.270860 0.000000 
#    z 0.037740 0.000000 4.175170 
# 
# 
# High freq. dielectric constant tensor:
#      x y z
#    x 1.943790 0.000000 -0.005880 
#    y 0.000000 1.944290 0.000000 
#    z -0.005880 0.000000 1.939600 
# 
# From -- ./inp_files/237846.got.cif
#   From: 2010.06.25/outbox.cif.g09.slc.cpg/sg15_119_cif.got.tgz:237846.got - 2010.06.28 07:06:18.
