data_PCOD8148812
_publ_section_title
;
Structure prediction by ZEFSAII (Michael W. Deem and Ramdas Pophale) SiO2 
 PCOD8148812
Probable space group: C 2/C
;
_chemical_formula_sum "Si O2"
_cell_formula_units_Z 32
_cell_length_a 7.782280
_cell_length_b 11.694131
_cell_length_c 30.674129
_cell_angle_alpha 90.000000
_cell_angle_beta 144.583390
_cell_angle_gamma 90.000000
_cell_volume 1617.758038
_symmetry_space_group_name_H-M "C 2/C"
_symmetry_group_IT_number 15
_symmetry_cell_setting 'monoclinic'
loop_
_space_group_symop_operation_xyz
x,y,z
-x,y,1/2-z
-x,-y,-z
x,-y,1/2+z
1/2+x,1/2+y,z
1/2-x,1/2+y,1/2-z
1/2-x,1/2-y,-z
1/2+x,1/2-y,1/2+z
loop_
_atom_site_type_symbol
_atom_site_label
_atom_site_fract_x
_atom_site_fract_y
_atom_site_fract_z
Si Si1 0.215181 0.424753 0.074227
Si Si2 0.137683 0.949952 0.089819
Si Si3 0.657541 0.330134 0.545088
Si Si4 0.193319 0.528519 0.163906
O O1 0.544731 0.433654 0.120858
O O2 0.094868 0.295131 0.050368
O O3 0.247444 0.463551 0.130169
O O4 0.000000 0.500000 0.000000
O O5 0.005164 0.072177 0.044480
O O6 0.493680 0.948797 0.155321
O O7 0.981488 0.845223 0.031740
O O8 0.013622 0.354355 0.617210
O O9 0.500000 0.559534 0.250000
#
# Coordination Sequence:
#
# PCOD8148812 Si02
#       4
#     8   8   8   8
#     4  12  21  37  69  90 111 165 199 240 309 344
#     4   9  20  40  60  88 119 152 202 247 282 359
#     4   9  20  42  57  93 122 147 205 252 284 355
#     4  10  23  43  54  87 130 152 197 250 295 355
#
# _framework density 19.780460000000001
#
# number of rings (size 3 to 8) (size 9 to 14) (size 15 to 20)
#    1.500    0.500    2.500    0.750    0.000    5.000 
#    4.500    0.000    0.000    0.000    0.000    0.000 
#    0.000    0.000    0.000    0.000    0.000    0.000 
#
# Total GULP energy -198242.149057 kJ/mol
# GULP energy per Si atom -12390.134316 kJ/mol
# Density = 1.973544 g / cm^3
# Si number density = 19.780460 Si / 1000 Ang^3
#
#
#
# Elastic Constant Matrix: (Units=GPa)
#
#
# Indices 1 2 3 4 5 6 
#
# 1 80.0707 -2.4270 2.1117 0.0000 -7.3360 0.0000
# 2 -2.4270 103.4181 15.3682 0.0000 -10.3498 0.0000
# 3 2.1117 15.3682 82.2764 0.0002 21.4144 0.0000
# 4 0.0000 0.0000 0.0002 9.7977 0.0000 1.7034
# 5 -7.3360 -10.3498 21.4144 0.0000 26.0694 0.0000
# 6 0.0000 0.0000 0.0000 1.7034 0.0000 19.1037
#
#
#
# Elastic Compliance Matrix: (Units=1/GPa)
#
#
# Indices 1 2 3 4 5 6 
#
# 1 0.013121 0.001210 -0.002097 0.000000 0.005895 0.000000
# 2 0.001210 0.011161 -0.004271 0.000000 0.008280 0.000000
# 3 -0.002097 -0.004271 0.017299 0.000000 -0.016496 0.000000
# 4 0.000000 0.000000 0.000000 0.103672 0.000000 -0.009244
# 5 0.005895 0.008280 -0.016496 0.000000 0.056855 0.000000
# 6 0.000000 0.000000 0.000000 -0.009244 0.000000 0.053170
#
#
# Mechanical properties :
#
#
# Convention : Reuss Voigt Hill
#
# Bulk Modulus (GPa) = 31.98492 32.87455 32.42973
# Shear Modulus (GPa) = 18.11484 27.70831 22.91158
#
# Velocity S-wave (km/s) = 3.02949 3.74678 3.40706
# Velocity P-wave (km/s) = 5.33312 5.94757 5.64870
#
# Compressibility (1/GPa) = 0.03126474
#
# Stress axis : x y z
#
# Youngs Moduli (GPa) = 76.21355 89.59677 57.80640
#
# Poissons Ratio (x) = -0.10837 0.12122
# Poissons Ratio (y) = -0.09218 0.24688
# Poissons Ratio (z) = 0.15982 0.38265
#
# Static dielectric constant tensor:
#      x y z
#    x 3.800760 0.000000 0.033970 
#    y 0.000000 3.355150 0.000000 
#    z 0.033970 0.000000 3.193170 
# 
# 
# High freq. dielectric constant tensor:
#      x y z
#    x 1.784960 0.000000 0.004250 
#    y 0.000000 1.758650 0.000000 
#    z 0.004250 0.000000 1.730100 
# 
# From -- ./inp_files/131780.got.cif
#   From: 2010.06.25/outbox.cif.g09.slc.cpg/sg15_66_cif.got.tgz:131780.got - 2010.06.28 07:06:18.
