data_PCOD8148728
_publ_section_title
;
Structure prediction by ZEFSAII (Michael W. Deem and Ramdas Pophale) SiO2 
 PCOD8148728
Probable space group: C 2/C
;
_chemical_formula_sum "Si O2"
_cell_formula_units_Z 48
_cell_length_a 10.494896
_cell_length_b 11.589580
_cell_length_c 16.550496
_cell_angle_alpha 90.000000
_cell_angle_beta 86.209522
_cell_angle_gamma 90.000000
_cell_volume 2008.656975
_symmetry_space_group_name_H-M "C 2/C"
_symmetry_group_IT_number 15
_symmetry_cell_setting 'monoclinic'
loop_
_space_group_symop_operation_xyz
x,y,z
-x,y,1/2-z
-x,-y,-z
x,-y,1/2+z
1/2+x,1/2+y,z
1/2-x,1/2+y,1/2-z
1/2-x,1/2-y,-z
1/2+x,1/2-y,1/2+z
loop_
_atom_site_type_symbol
_atom_site_label
_atom_site_fract_x
_atom_site_fract_y
_atom_site_fract_z
Si Si1 0.773355 0.274256 0.142463
Si Si2 0.058494 0.943690 0.335368
Si Si3 0.777885 0.733222 0.172406
Si Si4 0.812210 0.012386 0.410447
Si Si5 0.214196 0.542141 0.087852
Si Si6 0.964899 0.626236 0.843975
O O1 0.748577 0.222234 0.231671
O O2 0.697822 0.392141 0.137543
O O3 0.719530 0.180941 0.080629
O O4 0.920812 0.305679 0.117333
O O5 0.089742 0.805746 0.349276
O O6 0.000000 0.966220 0.250000
O O7 0.966946 0.016390 0.401187
O O8 0.195202 0.006062 0.340342
O O9 0.774188 0.606367 0.133059
O O10 0.660145 0.798103 0.135596
O O11 0.763568 0.013589 0.503260
O O12 0.069737 0.497099 0.112641
O O13 0.000000 0.603231 0.750000
#
# Coordination Sequence:
#
# PCOD8148728 Si02
#       6
#     8   8   8   8   8   8
#     4  11  23  42  66  95 139 180 234 282 342 422
#     4  11  22  44  69  98 130 181 237 281 342 420
#     4  10  23  42  68  96 130 181 237 288 332 426
#     4  12  25  41  66 106 139 177 228 289 359 408
#     4  11  25  42  70  99 142 180 225 293 354 414
#     4   9  22  43  66  97 130 183 234 281 344 413
#
# _framework density 23.896563
#
# number of rings (size 3 to 8) (size 9 to 14) (size 15 to 20)
#    0.000    1.333    1.667    3.000    4.667    7.333 
#    0.000    0.000    0.000    0.000    0.000    0.000 
#    0.000    0.000    0.000    0.000    0.000    0.000 
#
# Total GULP energy -297397.519774 kJ/mol
# GULP energy per Si atom -12391.563324 kJ/mol
# Density = 2.384217 g / cm^3
# Si number density = 23.896563 Si / 1000 Ang^3
#
#
#
# Elastic Constant Matrix: (Units=GPa)
#
#
# Indices 1 2 3 4 5 6 
#
# 1 42.7815 14.9922 34.3566 0.0000 -10.9891 0.0000
# 2 14.9922 133.2877 45.0432 0.0000 -4.7706 0.0000
# 3 34.3566 45.0432 78.5465 0.0000 -10.8195 0.0000
# 4 0.0000 0.0000 0.0000 32.8862 0.0000 0.8893
# 5 -10.9891 -4.7706 -10.8195 0.0000 30.6419 0.0000
# 6 0.0000 0.0000 0.0000 0.8893 0.0000 42.7115
#
#
#
# Elastic Compliance Matrix: (Units=1/GPa)
#
#
# Indices 1 2 3 4 5 6 
#
# 1 0.038124 0.001563 -0.016455 0.000000 0.008105 0.000000
# 2 0.001563 0.009376 -0.006078 0.000000 -0.000126 0.000000
# 3 -0.016455 -0.006078 0.023620 0.000000 0.001492 0.000000
# 4 0.000000 0.000000 0.000000 0.030425 0.000000 -0.000633
# 5 0.008105 -0.000126 0.001492 0.000000 0.036049 0.000000
# 6 0.000000 0.000000 0.000000 -0.000633 0.000000 0.023426
#
#
# Mechanical properties :
#
#
# Convention : Reuss Voigt Hill
#
# Bulk Modulus (GPa) = 34.27080 49.26663 41.76872
# Shear Modulus (GPa) = 23.50876 31.92950 27.71913
#
# Velocity S-wave (km/s) = 3.13992 3.65931 3.40952
# Velocity P-wave (km/s) = 5.24575 6.20608 5.74601
#
# Compressibility (1/GPa) = 0.02917936
#
# Stress axis : x y z
#
# Youngs Moduli (GPa) = 26.23051 106.65291 42.33729
#
# Poissons Ratio (x) = -0.16668 0.69667
# Poissons Ratio (y) = -0.04099 0.25732
# Poissons Ratio (z) = 0.43163 0.64821
#
# Static dielectric constant tensor:
#      x y z
#    x 4.727980 0.000000 -0.033530 
#    y 0.000000 4.586870 0.000000 
#    z -0.033530 0.000000 3.886170 
# 
# 
# High freq. dielectric constant tensor:
#      x y z
#    x 1.950210 0.000000 -0.004040 
#    y 0.000000 1.951720 0.000000 
#    z -0.004040 0.000000 1.928410 
# 
# From -- ./inp_files/196041.got.cif
#   From: 2010.06.25/outbox.cif.g09.slc.cpg/sg15_99_cif.got.tgz:196041.got - 2010.06.28 07:06:18.
