data_PCOD8148778
_publ_section_title
;
Structure prediction by ZEFSAII (Michael W. Deem and Ramdas Pophale) SiO2 
 PCOD8148778
Probable space group: C 2/C
;
_chemical_formula_sum "Si O2"
_cell_formula_units_Z 48
_cell_length_a 13.616749
_cell_length_b 13.312955
_cell_length_c 23.204349
_cell_angle_alpha 90.000000
_cell_angle_beta 30.453876
_cell_angle_gamma 90.000000
_cell_volume 2132.023985
_symmetry_space_group_name_H-M "C 2/C"
_symmetry_group_IT_number 15
_symmetry_cell_setting 'monoclinic'
loop_
_space_group_symop_operation_xyz
x,y,z
-x,y,1/2-z
-x,-y,-z
x,-y,1/2+z
1/2+x,1/2+y,z
1/2-x,1/2+y,1/2-z
1/2-x,1/2-y,-z
1/2+x,1/2-y,1/2+z
loop_
_atom_site_type_symbol
_atom_site_label
_atom_site_fract_x
_atom_site_fract_y
_atom_site_fract_z
Si Si1 0.231589 0.547955 0.626407
Si Si2 0.041761 0.118709 0.547828
Si Si3 0.086073 0.860012 0.762008
Si Si4 0.994593 0.661997 0.482600
Si Si5 0.422294 0.279859 0.952814
Si Si6 0.385777 0.429465 0.360689
O O1 0.336331 0.563979 0.635583
O O2 0.280172 0.439359 0.574237
O O3 0.343924 0.628952 0.530619
O O4 0.000000 0.561807 0.750000
O O5 0.049870 0.233967 0.526482
O O6 0.066661 0.122973 0.603532
O O7 0.305918 0.888577 0.638170
O O8 0.000000 0.795067 0.750000
O O9 0.090939 0.807258 0.821883
O O10 0.942688 0.954557 0.837184
O O11 0.838985 0.579005 0.542982
O O12 0.000739 0.687124 0.547838
O O13 0.250000 0.250000 0.000000
O O14 0.500000 0.376470 0.250000
#
# Coordination Sequence:
#
# PCOD8148778 Si02
#       6
#     8   8   8   8   8   8
#     4  10  23  42  71 100 134 184 232 300 351 407
#     4  10  23  46  64 103 140 176 244 284 347 430
#     4  11  24  46  68 100 143 179 234 289 354 421
#     4  11  26  43  73 101 137 192 237 289 354 423
#     4  11  23  42  70 102 134 179 242 288 343 422
#     4  11  26  45  66 102 147 181 227 289 364 428
#
# _framework density 22.513817
#
# number of rings (size 3 to 8) (size 9 to 14) (size 15 to 20)
#    0.000    1.333    3.333    0.500    7.000    4.667 
#    0.000    0.000    0.000    0.000    0.000    0.000 
#    0.000    0.000    0.000    0.000    0.000    0.000 
#
# Total GULP energy -297408.056442 kJ/mol
# GULP energy per Si atom -12392.002352 kJ/mol
# Density = 2.246257 g / cm^3
# Si number density = 22.513817 Si / 1000 Ang^3
#
#
#
# Elastic Constant Matrix: (Units=GPa)
#
#
# Indices 1 2 3 4 5 6 
#
# 1 170.9121 19.9636 72.8603 -0.0013 7.2672 -0.0003
# 2 19.9636 69.9302 19.8506 -0.0021 -2.6260 0.0001
# 3 72.8603 19.8506 144.5018 -0.0098 -10.5888 -0.0001
# 4 -0.0013 -0.0021 -0.0098 19.3081 0.0024 -7.2340
# 5 7.2672 -2.6260 -10.5888 0.0024 47.3854 0.0002
# 6 -0.0003 0.0001 -0.0001 -7.2340 0.0002 24.7912
#
#
#
# Elastic Compliance Matrix: (Units=1/GPa)
#
#
# Indices 1 2 3 4 5 6 
#
# 1 0.007740 -0.001184 -0.003896 -0.000001 -0.002123 0.000000
# 2 -0.001184 0.015068 -0.001422 0.000001 0.000699 0.000000
# 3 -0.003896 -0.001422 0.009270 0.000004 0.002590 0.000001
# 4 -0.000001 0.000001 0.000004 0.058149 -0.000002 0.016968
# 5 -0.002123 0.000699 0.002590 -0.000002 0.022047 -0.000001
# 6 0.000000 0.000000 0.000001 0.016968 -0.000001 0.045288
#
#
# Mechanical properties :
#
#
# Convention : Reuss Voigt Hill
#
# Bulk Modulus (GPa) = 52.42387 67.85479 60.13933
# Shear Modulus (GPa) = 28.26103 36.47490 32.36796
#
# Velocity S-wave (km/s) = 3.54683 4.02943 3.79581
# Velocity P-wave (km/s) = 6.33317 7.20090 6.78093
#
# Compressibility (1/GPa) = 0.01907528
#
# Stress axis : x y z
#
# Youngs Moduli (GPa) = 129.19455 66.36700 107.87750
#
# Poissons Ratio (x) = 0.07855 0.42027
# Poissons Ratio (y) = 0.15291 0.15339
# Poissons Ratio (z) = 0.50331 0.09437
#
# Static dielectric constant tensor:
#      x y z
#    x 4.422760 -0.000120 0.147100 
#    y -0.000120 8.713610 -0.006450 
#    z 0.147100 -0.006450 1.319200 
# 
# 
# High freq. dielectric constant tensor:
#      x y z
#    x 1.909940 0.000000 0.008960 
#    y 0.000000 1.871840 0.000000 
#    z 0.008960 0.000000 1.882910 
# 
# From -- ./inp_files/274283.got.cif
#   From: 2010.06.25/outbox.cif.g09.slc.cpg/sg15_138_cif.got.tgz:274283.got - 2010.06.28 07:06:18.
