data_PCOD8148554
_publ_section_title
;
Structure prediction by ZEFSAII (Michael W. Deem and Ramdas Pophale) SiO2 
 PCOD8148554
Probable space group: C 2/C
;
_chemical_formula_sum "Si O2"
_cell_formula_units_Z 40
_cell_length_a 23.871593
_cell_length_b 5.010505
_cell_length_c 13.563485
_cell_angle_alpha 90.000000
_cell_angle_beta 112.255075
_cell_angle_gamma 90.000000
_cell_volume 1501.460400
_symmetry_space_group_name_H-M "C 2/C"
_symmetry_group_IT_number 15
_symmetry_cell_setting 'monoclinic'
loop_
_space_group_symop_operation_xyz
x,y,z
-x,y,1/2-z
-x,-y,-z
x,-y,1/2+z
1/2+x,1/2+y,z
1/2-x,1/2+y,1/2-z
1/2-x,1/2-y,-z
1/2+x,1/2-y,1/2+z
loop_
_atom_site_type_symbol
_atom_site_label
_atom_site_fract_x
_atom_site_fract_y
_atom_site_fract_z
Si Si1 0.987947 0.662337 0.894033
Si Si2 0.178056 0.956046 0.144023
Si Si3 0.442443 0.660329 0.777730
Si Si4 0.616339 0.299144 0.900158
Si Si5 0.678711 0.046019 0.768878
O O1 0.051126 0.666913 0.877382
O O2 0.956220 0.955998 0.881256
O O3 0.938171 0.474714 0.803351
O O4 0.000000 0.500000 0.000000
O O5 0.249260 0.942374 0.177893
O O6 0.154939 0.739446 0.210292
O O7 0.156614 0.238563 0.172870
O O8 0.147729 0.894083 0.020432
O O9 0.500000 0.609489 0.750000
O O10 0.387135 0.558931 0.673126
O O11 0.656597 0.085075 0.866567
#
# Coordination Sequence:
#
# PCOD8148554 Si02
#       5
#     8   8   8   8   8
#     4  11  25  42  64  95 135 176 230 284 332 401
#     4  10  24  45  69 108 139 181 232 293 352 419
#     4  10  23  42  61  92 133 169 224 283 328 397
#     4  11  25  43  77  97 142 192 230 284 363 413
#     4  10  24  44  70 104 146 174 237 292 344 430
#
# _framework density 26.640730999999999
#
# number of rings (size 3 to 8) (size 9 to 14) (size 15 to 20)
#    0.000    1.600    0.000    3.000    5.600    9.600 
#    0.000    6.000    0.000    0.000    0.000    0.000 
#    0.000    0.000    0.000    0.000    0.000    0.000 
#
# Total GULP energy -247941.821088 kJ/mol
# GULP energy per Si atom -12397.091054 kJ/mol
# Density = 2.658010 g / cm^3
# Si number density = 26.640731 Si / 1000 Ang^3
#
#
#
# Elastic Constant Matrix: (Units=GPa)
#
#
# Indices 1 2 3 4 5 6 
#
# 1 77.8027 41.8759 20.3176 0.0000 -22.6831 0.0000
# 2 41.8759 190.4152 59.9577 0.0000 -1.6260 0.0000
# 3 20.3176 59.9577 148.3769 0.0000 -2.5754 0.0000
# 4 0.0000 0.0000 0.0000 32.5413 0.0000 1.3631
# 5 -22.6831 -1.6260 -2.5754 0.0000 36.6551 0.0000
# 6 0.0000 0.0000 0.0000 1.3631 0.0000 40.9839
#
#
#
# Elastic Compliance Matrix: (Units=1/GPa)
#
#
# Indices 1 2 3 4 5 6 
#
# 1 0.018274 -0.003663 -0.000830 0.000000 0.011087 0.000000
# 2 -0.003663 0.006752 -0.002264 0.000000 -0.002126 0.000000
# 3 -0.000830 -0.002264 0.007767 0.000000 -0.000068 0.000000
# 4 0.000000 0.000000 0.000000 0.030773 0.000000 -0.001024
# 5 0.011087 -0.002126 -0.000068 0.000000 0.034043 0.000000
# 6 0.000000 0.000000 0.000000 -0.001024 0.000000 0.024434
#
#
# Mechanical properties :
#
#
# Convention : Reuss Voigt Hill
#
# Bulk Modulus (GPa) = 51.86766 73.43301 62.65033
# Shear Modulus (GPa) = 35.21586 41.66563 38.44074
#
# Velocity S-wave (km/s) = 3.63971 3.95901 3.80271
# Velocity P-wave (km/s) = 6.09712 6.96580 6.54589
#
# Compressibility (1/GPa) = 0.01927984
#
# Stress axis : x y z
#
# Youngs Moduli (GPa) = 54.72375 148.10801 128.75368
#
# Poissons Ratio (x) = 0.54249 0.10683
# Poissons Ratio (y) = 0.20044 0.29146
# Poissons Ratio (z) = 0.04540 0.33527
#
# Static dielectric constant tensor:
#      x y z
#    x 5.470340 0.000000 -0.050000 
#    y 0.000000 6.034080 0.000000 
#    z -0.050000 0.000000 4.839150 
# 
# 
# High freq. dielectric constant tensor:
#      x y z
#    x 2.113210 0.000000 -0.000710 
#    y 0.000000 2.085310 0.000000 
#    z -0.000710 0.000000 2.063880 
# 
# From -- ./inp_files/179500.got.cif
#   From: 2010.06.25/outbox.cif.g09.slc.cpg/sg15_90_cif.got.tgz:179500.got - 2010.06.28 07:06:18.
