data_PCOD8148974
_publ_section_title
;
Structure prediction by ZEFSAII (Michael W. Deem and Ramdas Pophale) SiO2 
 PCOD8148974
Probable space group: C 2/C
;
_chemical_formula_sum "Si O2"
_cell_formula_units_Z 36
_cell_length_a 13.978860
_cell_length_b 5.441764
_cell_length_c 32.791482
_cell_angle_alpha 90.000000
_cell_angle_beta 144.969832
_cell_angle_gamma 90.000000
_cell_volume 1431.825840
_symmetry_space_group_name_H-M "C 2/C"
_symmetry_group_IT_number 15
_symmetry_cell_setting 'monoclinic'
loop_
_space_group_symop_operation_xyz
x,y,z
-x,y,1/2-z
-x,-y,-z
x,-y,1/2+z
1/2+x,1/2+y,z
1/2-x,1/2+y,1/2-z
1/2-x,1/2-y,-z
1/2+x,1/2-y,1/2+z
loop_
_atom_site_type_symbol
_atom_site_label
_atom_site_fract_x
_atom_site_fract_y
_atom_site_fract_z
Si Si1 0.345161 0.801919 0.771944
Si Si2 0.940024 0.704802 0.021737
Si Si3 0.730253 0.373866 0.894869
Si Si4 0.500000 0.620017 0.750000
Si Si5 0.870315 0.493034 0.578730
O O1 0.243685 0.559908 0.749640
O O2 0.379232 0.790470 0.735251
O O3 0.523788 0.794733 0.857603
O O4 0.953551 0.498336 0.062820
O O5 0.125029 0.802706 0.074425
O O6 0.840886 0.603364 0.947894
O O7 0.824392 0.927510 0.996781
O O8 0.601219 0.442194 0.815045
O O9 0.627628 0.250160 0.896174
#
# Coordination Sequence:
#
# PCOD8148974 Si02
#       5
#     8   8   8   4   8
#     4  12  28  49  74 110 150 198 251 303 375 442
#     4  10  23  43  69 105 137 190 244 302 365 436
#     4  11  23  45  69 105 141 190 243 298 370 437
#     4  12  26  48  74 106 150 194 244 310 370 446
#     4  11  23  44  71 100 143 189 244 304 361 436
#
# _framework density 25.142724000000001
#
# number of rings (size 3 to 8) (size 9 to 14) (size 15 to 20)
#    0.000    0.889    2.222    4.000    0.000    5.333 
#   16.000    0.000    0.000    0.000    0.000    0.000 
#    0.000    0.000    0.000    0.000    0.000    0.000 
#
# Total GULP energy -223086.729014 kJ/mol
# GULP energy per Si atom -12393.707167 kJ/mol
# Density = 2.508550 g / cm^3
# Si number density = 25.142724 Si / 1000 Ang^3
#
#
#
# Elastic Constant Matrix: (Units=GPa)
#
#
# Indices 1 2 3 4 5 6 
#
# 1 122.5849 32.2011 26.8821 0.0018 -11.1836 -0.0007
# 2 32.2011 88.7672 28.3356 0.0028 2.0739 -0.0003
# 3 26.8821 28.3356 133.2617 0.0019 -13.7791 -0.0012
# 4 0.0018 0.0028 0.0019 36.5818 -0.0001 -2.7862
# 5 -11.1836 2.0739 -13.7791 -0.0001 40.6629 0.0006
# 6 -0.0007 -0.0003 -0.0012 -2.7862 0.0006 22.5682
#
#
#
# Elastic Compliance Matrix: (Units=1/GPa)
#
#
# Indices 1 2 3 4 5 6 
#
# 1 0.009424 -0.003163 -0.000978 0.000000 0.002422 0.000000
# 2 -0.003163 0.013241 -0.002422 -0.000001 -0.002366 0.000000
# 3 -0.000978 -0.002422 0.008499 0.000000 0.002735 0.000000
# 4 0.000000 -0.000001 0.000000 0.027595 0.000000 0.003407
# 5 0.002422 -0.002366 0.002735 0.000000 0.026306 -0.000001
# 6 0.000000 0.000000 0.000000 0.003407 -0.000001 0.044731
#
#
# Mechanical properties :
#
#
# Convention : Reuss Voigt Hill
#
# Bulk Modulus (GPa) = 55.43864 57.71683 56.57773
# Shear Modulus (GPa) = 33.57165 37.10892 35.34028
#
# Velocity S-wave (km/s) = 3.65806 3.84595 3.75318
# Velocity P-wave (km/s) = 6.31976 6.53661 6.42910
#
# Compressibility (1/GPa) = 0.01803796
#
# Stress axis : x y z
#
# Youngs Moduli (GPa) = 106.11317 75.52148 117.65962
#
# Poissons Ratio (x) = 0.23887 0.11508
# Poissons Ratio (y) = 0.33563 0.28498
# Poissons Ratio (z) = 0.10379 0.18292
#
# Static dielectric constant tensor:
#      x y z
#    x 5.319810 0.000000 0.095150 
#    y 0.000000 4.001970 0.000000 
#    z 0.095150 0.000000 4.810780 
# 
# 
# High freq. dielectric constant tensor:
#      x y z
#    x 2.025650 0.000000 0.002300 
#    y 0.000000 1.966690 0.000000 
#    z 0.002300 0.000000 2.014000 
# 
# From -- ./inp_files/241439.got.cif
#   From: 2010.06.25/outbox.cif.g09.slc.cpg/sg15_121_cif.got.tgz:241439.got - 2010.06.28 07:06:18.
