data_PCOD8148123
_publ_section_title
;
Structure prediction by ZEFSAII (Michael W. Deem and Ramdas Pophale) SiO2 
 PCOD8148123
Probable space group: C 2/C
;
_chemical_formula_sum "Si O2"
_cell_formula_units_Z 40
_cell_length_a 32.390963
_cell_length_b 12.884170
_cell_length_c 12.236966
_cell_angle_alpha 90.000000
_cell_angle_beta 20.460576
_cell_angle_gamma 90.000000
_cell_volume 1785.168694
_symmetry_space_group_name_H-M "C 2/C"
_symmetry_group_IT_number 15
_symmetry_cell_setting 'monoclinic'
loop_
_space_group_symop_operation_xyz
x,y,z
-x,y,1/2-z
-x,-y,-z
x,-y,1/2+z
1/2+x,1/2+y,z
1/2-x,1/2+y,1/2-z
1/2-x,1/2-y,-z
1/2+x,1/2-y,1/2+z
loop_
_atom_site_type_symbol
_atom_site_label
_atom_site_fract_x
_atom_site_fract_y
_atom_site_fract_z
Si Si1 0.790147 0.939462 0.656197
Si Si2 0.444700 0.108365 0.673008
Si Si3 0.060862 0.253711 0.712949
Si Si4 0.132954 0.640757 0.365780
Si Si5 0.769184 0.848702 0.301552
O O1 0.906899 0.868539 0.353421
O O2 0.710964 0.942494 0.741300
O O3 0.835885 0.050615 0.587172
O O4 0.697298 0.895864 0.976694
O O5 0.476387 0.207498 0.520037
O O6 0.492118 0.121519 0.683000
O O7 0.500000 0.000000 0.500000
O O8 0.183284 0.315863 0.415190
O O9 0.000000 0.277718 0.750000
O O10 0.140588 0.756484 0.396866
O O11 0.188662 0.631241 0.106663
#
# Coordination Sequence:
#
# PCOD8148123 Si02
#       5
#     8   8   8   8   8
#     4  11  21  37  65  93 123 170 205 260 322 355
#     4  11  21  38  65  98 116 168 216 256 313 367
#     4  10  23  39  58  93 132 156 211 265 304 376
#     4   9  19  36  59  94 127 149 213 264 294 376
#     4   9  19  37  62  89 120 169 206 251 315 369
#
# _framework density 22.406846000000002
#
# number of rings (size 3 to 8) (size 9 to 14) (size 15 to 20)
#    0.000    2.000    4.000    1.800    2.800    0.800 
#    0.000    6.000    0.000   21.600    0.000    0.000 
#    0.000    0.000    0.000    0.000    0.000    0.000 
#
# Total GULP energy -247803.668727 kJ/mol
# GULP energy per Si atom -12390.183436 kJ/mol
# Density = 2.235585 g / cm^3
# Si number density = 22.406846 Si / 1000 Ang^3
#
#
#
# Elastic Constant Matrix: (Units=GPa)
#
#
# Indices 1 2 3 4 5 6 
#
# 1 149.6055 57.2006 15.9806 0.0000 -1.1025 0.0000
# 2 57.2006 149.5430 24.1852 0.0000 6.4840 0.0000
# 3 15.9806 24.1852 32.0463 0.0000 -6.6014 0.0000
# 4 0.0000 0.0000 0.0000 35.9315 0.0000 10.2997
# 5 -1.1025 6.4840 -6.6014 0.0000 18.7308 0.0000
# 6 0.0000 0.0000 0.0000 10.2997 0.0000 32.1242
#
#
#
# Elastic Compliance Matrix: (Units=1/GPa)
#
#
# Indices 1 2 3 4 5 6 
#
# 1 0.007941 -0.002805 -0.001668 0.000000 0.000850 0.000000
# 2 -0.002805 0.009073 -0.006610 0.000000 -0.005635 0.000000
# 3 -0.001668 -0.006610 0.040410 0.000000 0.016432 0.000000
# 4 0.000000 0.000000 0.000000 0.030647 0.000000 -0.009826
# 5 0.000850 -0.005635 0.016432 0.000000 0.061180 0.000000
# 6 0.000000 0.000000 0.000000 -0.009826 0.000000 0.034280
#
#
# Mechanical properties :
#
#
# Convention : Reuss Voigt Hill
#
# Bulk Modulus (GPa) = 28.36154 58.43642 43.39898
# Shear Modulus (GPa) = 22.99389 32.94586 27.96987
#
# Velocity S-wave (km/s) = 3.20691 3.83867 3.53692
# Velocity P-wave (km/s) = 5.13784 6.76635 6.00753
#
# Compressibility (1/GPa) = 0.03525902
#
# Stress axis : x y z
#
# Youngs Moduli (GPa) = 125.92873 110.21596 24.74639
#
# Poissons Ratio (x) = 0.30910 0.04128
# Poissons Ratio (y) = 0.35317 0.16357
# Poissons Ratio (z) = 0.21008 0.72850
#
# Static dielectric constant tensor:
#      x y z
#    x 4.306520 0.000000 0.137170 
#    y 0.000000 4.046690 0.000000 
#    z 0.137170 0.000000 4.101140 
# 
# 
# High freq. dielectric constant tensor:
#      x y z
#    x 1.899470 0.000000 0.008060 
#    y 0.000000 1.870810 0.000000 
#    z 0.008060 0.000000 1.872370 
# 
# From -- ./inp_files/126369.got.cif
#   From: 2010.06.25/outbox.cif.g09.slc.cpg/sg15_64_cif.got.tgz:126369.got - 2010.06.28 07:06:18.
