data_PCOD8148070
_publ_section_title
;
Structure prediction by ZEFSAII (Michael W. Deem and Ramdas Pophale) SiO2 
 PCOD8148070
Probable space group: C 2/C
;
_chemical_formula_sum "Si O2"
_cell_formula_units_Z 40
_cell_length_a 12.832658
_cell_length_b 25.550352
_cell_length_c 5.720717
_cell_angle_alpha 90.000000
_cell_angle_beta 65.944419
_cell_angle_gamma 90.000000
_cell_volume 1712.798666
_symmetry_space_group_name_H-M "C 2/C"
_symmetry_group_IT_number 15
_symmetry_cell_setting 'monoclinic'
loop_
_space_group_symop_operation_xyz
x,y,z
-x,y,1/2-z
-x,-y,-z
x,-y,1/2+z
1/2+x,1/2+y,z
1/2-x,1/2+y,1/2-z
1/2-x,1/2-y,-z
1/2+x,1/2-y,1/2+z
loop_
_atom_site_type_symbol
_atom_site_label
_atom_site_fract_x
_atom_site_fract_y
_atom_site_fract_z
Si Si1 0.364510 0.525969 0.873891
Si Si2 0.871349 0.520572 0.125542
Si Si3 0.299836 0.788130 0.141561
Si Si4 0.624556 0.692540 0.186883
Si Si5 0.273284 0.119789 0.379752
O O1 0.500000 0.529109 0.750000
O O2 0.325932 0.491577 0.679080
O O3 0.310317 0.583468 0.888120
O O4 0.816052 0.499779 0.428509
O O5 0.861745 0.583877 0.147318
O O6 0.000000 0.500000 0.000000
O O7 0.389345 0.753097 0.207056
O O8 0.192698 0.807199 0.386767
O O9 0.250000 0.750000 0.000000
O O10 0.349083 0.841081 0.974743
O O11 0.500000 0.669415 0.250000
O O12 0.690573 0.654496 0.298834
#
# Coordination Sequence:
#
# PCOD8148070 Si02
#       5
#     8   8   8   8   8
#     4  10  23  38  57  95 139 175 221 276 336 409
#     4  10  23  44  68  98 142 186 235 294 349 413
#     4   9  22  43  64  97 134 175 227 292 355 424
#     4  10  23  42  69  98 138 175 230 297 360 425
#     4  11  23  37  70  95 133 182 231 285 352 427
#
# _framework density 23.353588999999999
#
# number of rings (size 3 to 8) (size 9 to 14) (size 15 to 20)
#    0.000    2.000    0.000    1.200    8.400    3.200 
#    0.000   12.000    0.000    0.000    0.000    0.000 
#    0.000    0.000    0.000    0.000    0.000    0.000 
#
# Total GULP energy -247772.889000 kJ/mol
# GULP energy per Si atom -12388.644450 kJ/mol
# Density = 2.330044 g / cm^3
# Si number density = 23.353589 Si / 1000 Ang^3
#
#
#
# Elastic Constant Matrix: (Units=GPa)
#
#
# Indices 1 2 3 4 5 6 
#
# 1 103.2381 46.0025 38.4851 0.0000 3.6987 0.0000
# 2 46.0025 175.7648 53.5384 0.0000 4.3375 0.0000
# 3 38.4851 53.5384 127.3744 0.0000 -5.0769 0.0000
# 4 0.0000 0.0000 0.0000 37.3845 0.0000 1.6576
# 5 3.6987 4.3375 -5.0769 0.0000 22.2633 0.0000
# 6 0.0000 0.0000 0.0000 1.6576 0.0000 28.6495
#
#
#
# Elastic Compliance Matrix: (Units=1/GPa)
#
#
# Indices 1 2 3 4 5 6 
#
# 1 0.011754 -0.002197 -0.002713 0.000000 -0.002143 0.000000
# 2 -0.002197 0.007017 -0.002347 0.000000 -0.001537 0.000000
# 3 -0.002713 -0.002347 0.009782 0.000000 0.003139 0.000000
# 4 0.000000 0.000000 0.000000 0.026818 0.000000 -0.001552
# 5 -0.002143 -0.001537 0.003139 0.000000 0.046288 0.000000
# 6 0.000000 0.000000 0.000000 -0.001552 0.000000 0.034994
#
#
# Mechanical properties :
#
#
# Convention : Reuss Voigt Hill
#
# Bulk Modulus (GPa) = 71.23151 75.82548 73.52849
# Shear Modulus (GPa) = 32.08264 35.54954 33.81609
#
# Velocity S-wave (km/s) = 3.71047 3.90581 3.80939
# Velocity P-wave (km/s) = 6.99459 7.27182 7.13455
#
# Compressibility (1/GPa) = 0.01403873
#
# Stress axis : x y z
#
# Youngs Moduli (GPa) = 85.08100 142.50602 102.22571
#
# Poissons Ratio (x) = 0.31307 0.27737
# Poissons Ratio (y) = 0.18691 0.23993
# Poissons Ratio (z) = 0.23085 0.33446
#
# Static dielectric constant tensor:
#      x y z
#    x 4.371270 0.000000 0.310850 
#    y 0.000000 4.646230 0.000000 
#    z 0.310850 0.000000 4.886760 
# 
# 
# High freq. dielectric constant tensor:
#      x y z
#    x 1.937160 0.000000 0.010170 
#    y 0.000000 1.924610 0.000000 
#    z 0.010170 0.000000 1.949760 
# 
# From -- ./inp_files/7498.got.cif
#   From: 2010.06.25/outbox.cif.g09.slc.cpg/sg15_4_cif.got.tgz:7498.got - 2010.06.28 07:06:18.
