data_PCOD8148276
_publ_section_title
;
Structure prediction by ZEFSAII (Michael W. Deem and Ramdas Pophale) SiO2 
 PCOD8148276
Probable space group: C 2/C
;
_chemical_formula_sum "Si O2"
_cell_formula_units_Z 44
_cell_length_a 13.150184
_cell_length_b 14.745779
_cell_length_c 19.304823
_cell_angle_alpha 90.000000
_cell_angle_beta 37.145661
_cell_angle_gamma 90.000000
_cell_volume 2260.422968
_symmetry_space_group_name_H-M "C 2/C"
_symmetry_group_IT_number 15
_symmetry_cell_setting 'monoclinic'
loop_
_space_group_symop_operation_xyz
x,y,z
-x,y,1/2-z
-x,-y,-z
x,-y,1/2+z
1/2+x,1/2+y,z
1/2-x,1/2+y,1/2-z
1/2-x,1/2-y,-z
1/2+x,1/2-y,1/2+z
loop_
_atom_site_type_symbol
_atom_site_label
_atom_site_fract_x
_atom_site_fract_y
_atom_site_fract_z
Si Si1 0.094103 0.908414 0.465289
Si Si2 0.333933 0.123546 0.710307
Si Si3 0.172284 0.531600 0.549625
Si Si4 0.800974 0.912312 0.355411
Si Si5 0.000000 0.398088 0.750000
Si Si6 0.794354 0.226511 0.133697
O O1 0.249283 0.897110 0.329055
O O2 0.170709 0.915165 0.501034
O O3 0.967263 0.825225 0.524188
O O4 0.000000 0.000000 0.500000
O O5 0.532132 0.105525 0.607971
O O6 0.255559 0.059145 0.692030
O O7 0.305983 0.228975 0.704263
O O8 0.229755 0.483447 0.448325
O O9 0.102836 0.456825 0.639726
O O10 0.730061 0.809598 0.408350
O O11 0.000000 0.910496 0.250000
O O12 0.133678 0.338643 0.719832
#
# Coordination Sequence:
#
# PCOD8148276 Si02
#       6
#     8   8   8   8   4   8
#     4  12  22  41  66  96 130 173 217 269 325 390
#     4  10  23  43  60  96 132 168 216 265 327 386
#     4  12  23  41  68  92 130 170 220 263 329 385
#     4  10  23  40  65  93 129 167 216 268 322 383
#     4  12  22  38  64  98 116 172 216 276 318 374
#     4  10  24  38  63  94 129 168 212 270 325 377
#
# _framework density 19.465384
#
# number of rings (size 3 to 8) (size 9 to 14) (size 15 to 20)
#    1.091    0.000    4.545    1.636    2.545    1.455 
#    0.000    1.818    0.000    0.000    0.000    0.000 
#    0.000    0.000    0.000    0.000    0.000    0.000 
#
# Total GULP energy -272703.739375 kJ/mol
# GULP energy per Si atom -12395.624517 kJ/mol
# Density = 1.942108 g / cm^3
# Si number density = 19.465384 Si / 1000 Ang^3
#
#
#
# Elastic Constant Matrix: (Units=GPa)
#
#
# Indices 1 2 3 4 5 6 
#
# 1 100.6951 21.5220 14.8904 -0.0005 -24.2635 0.0001
# 2 21.5220 66.9523 28.3885 -0.0007 -11.0816 0.0002
# 3 14.8904 28.3885 70.3895 -0.0016 -13.1450 0.0008
# 4 -0.0005 -0.0007 -0.0016 28.8771 0.0007 -11.3367
# 5 -24.2635 -11.0816 -13.1450 0.0007 40.9926 -0.0002
# 6 0.0001 0.0002 0.0008 -11.3367 -0.0002 40.7052
#
#
#
# Elastic Compliance Matrix: (Units=1/GPa)
#
#
# Indices 1 2 3 4 5 6 
#
# 1 0.012077 -0.002718 -0.000278 0.000000 0.006325 0.000000
# 2 -0.002718 0.018914 -0.006807 0.000000 0.001322 0.000000
# 3 -0.000278 -0.006807 0.017696 0.000001 0.003670 0.000000
# 4 0.000000 0.000000 0.000001 0.038881 0.000000 0.010829
# 5 0.006325 0.001322 0.003670 0.000000 0.029672 0.000000
# 6 0.000000 0.000000 0.000000 0.010829 0.000000 0.027583
#
#
# Mechanical properties :
#
#
# Convention : Reuss Voigt Hill
#
# Bulk Modulus (GPa) = 34.38362 40.84874 37.61618
# Shear Modulus (GPa) = 28.71562 33.66403 31.18983
#
# Velocity S-wave (km/s) = 3.84502 4.16315 4.00724
# Velocity P-wave (km/s) = 6.11674 6.64380 6.38571
#
# Compressibility (1/GPa) = 0.02908361
#
# Stress axis : x y z
#
# Youngs Moduli (GPa) = 82.80308 52.86965 56.51022
#
# Poissons Ratio (x) = 0.14368 0.01569
# Poissons Ratio (y) = 0.22502 0.38464
# Poissons Ratio (z) = 0.02299 0.35986
#
# Static dielectric constant tensor:
#      x y z
#    x 16.168470 0.000140 22.434700 
#    y 0.000140 3.693070 0.000250 
#    z 22.434700 0.000250 45.061900 
# 
# 
# High freq. dielectric constant tensor:
#      x y z
#    x 1.773640 0.000000 -0.017320 
#    y 0.000000 1.747540 0.000000 
#    z -0.017320 0.000000 1.750300 
# 
# From -- ./inp_files/199406.got.cif
#   From: 2010.06.25/outbox.cif.g09.slc.cpg/sg15_100_cif.got.tgz:199406.got - 2010.06.28 07:06:18.
