data_PCOD8148459
_publ_section_title
;
Structure prediction by ZEFSAII (Michael W. Deem and Ramdas Pophale) SiO2 
 PCOD8148459
Probable space group: C 2/C
;
_chemical_formula_sum "Si O2"
_cell_formula_units_Z 56
_cell_length_a 17.340757
_cell_length_b 19.659407
_cell_length_c 9.297254
_cell_angle_alpha 90.000000
_cell_angle_beta 56.955646
_cell_angle_gamma 90.000000
_cell_volume 2656.843971
_symmetry_space_group_name_H-M "C 2/C"
_symmetry_group_IT_number 15
_symmetry_cell_setting 'monoclinic'
loop_
_space_group_symop_operation_xyz
x,y,z
-x,y,1/2-z
-x,-y,-z
x,-y,1/2+z
1/2+x,1/2+y,z
1/2-x,1/2+y,1/2-z
1/2-x,1/2-y,-z
1/2+x,1/2-y,1/2+z
loop_
_atom_site_type_symbol
_atom_site_label
_atom_site_fract_x
_atom_site_fract_y
_atom_site_fract_z
Si Si1 0.825137 0.123019 0.763274
Si Si2 0.492797 0.572461 0.428899
Si Si3 0.603681 0.786447 0.161416
Si Si4 0.788614 0.503996 0.187899
Si Si5 0.745002 0.762046 0.779730
Si Si6 0.842176 0.885847 0.565191
Si Si7 0.600677 0.942151 0.181603
O O1 0.746408 0.066396 0.842492
O O2 0.775582 0.195165 0.792088
O O3 0.896571 0.109277 0.561519
O O4 0.876615 0.117180 0.864818
O O5 0.500000 0.563542 0.250000
O O6 0.500000 0.500000 0.500000
O O7 0.572749 0.620920 0.411019
O O8 0.500000 0.755925 0.250000
O O9 0.665532 0.744893 0.210119
O O10 0.597362 0.863095 0.226736
O O11 0.652681 0.782263 0.957662
O O12 0.706088 0.542357 0.352347
O O13 0.868992 0.487983 0.216926
O O14 0.828717 0.550955 0.021823
O O15 0.769138 0.824722 0.652290
O O16 0.500000 0.970373 0.250000
#
# Coordination Sequence:
#
# PCOD8148459 Si02
#       7
#     8   8   8   8   8   8   8
#     4  12  26  45  68  98 140 177 228 277 344 402
#     4  12  28  44  72 106 138 177 224 285 344 414
#     4  10  23  41  66 103 132 172 231 281 329 411
#     4  12  23  41  68  98 128 176 216 281 327 404
#     4  11  25  42  70  94 138 186 226 278 348 396
#     4  12  26  45  68  98 140 177 228 277 344 402
#     4  11  23  43  67  96 131 168 219 276 334 392
#
# _framework density 21.077641
#
# number of rings (size 3 to 8) (size 9 to 14) (size 15 to 20)
#    0.000    0.571    5.714    2.143    8.000    0.000 
#    0.000    0.000    0.000    0.000    0.000    0.000 
#    0.000    0.000    0.000    0.000    0.000    0.000 
#
# Total GULP energy -347312.570721 kJ/mol
# GULP energy per Si atom -12404.020383 kJ/mol
# Density = 2.102967 g / cm^3
# Si number density = 21.077641 Si / 1000 Ang^3
#
#
#
# Elastic Constant Matrix: (Units=GPa)
#
#
# Indices 1 2 3 4 5 6 
#
# 1 117.6224 16.1952 38.6997 0.0000 -1.9738 0.0000
# 2 16.1952 83.9367 14.4480 0.0000 1.2021 0.0000
# 3 38.6997 14.4480 107.2294 0.0000 11.2529 0.0000
# 4 0.0000 0.0000 0.0000 25.9563 0.0000 -5.0114
# 5 -1.9738 1.2021 11.2529 0.0000 39.1688 0.0000
# 6 0.0000 0.0000 0.0000 -5.0114 0.0000 31.9209
#
#
#
# Elastic Compliance Matrix: (Units=1/GPa)
#
#
# Indices 1 2 3 4 5 6 
#
# 1 0.009878 -0.001317 -0.003551 0.000000 0.001558 0.000000
# 2 -0.001317 0.012373 -0.001181 0.000000 -0.000107 0.000000
# 3 -0.003551 -0.001181 0.011117 0.000000 -0.003336 0.000000
# 4 0.000000 0.000000 0.000000 0.039731 0.000000 0.006237
# 5 0.001558 -0.000107 -0.003336 0.000000 0.026571 0.000000
# 6 0.000000 0.000000 0.000000 0.006237 0.000000 0.032307
#
#
# Mechanical properties :
#
#
# Convention : Reuss Voigt Hill
#
# Bulk Modulus (GPa) = 47.01500 49.71936 48.36718
# Shear Modulus (GPa) = 33.07717 35.37224 34.22471
#
# Velocity S-wave (km/s) = 3.96574 4.10101 4.03394
# Velocity P-wave (km/s) = 6.58206 6.78707 6.68535
#
# Compressibility (1/GPa) = 0.02126981
#
# Stress axis : x y z
#
# Youngs Moduli (GPa) = 101.23929 80.82389 89.95582
#
# Poissons Ratio (x) = 0.10644 0.31943
# Poissons Ratio (y) = 0.13332 0.10620
# Poissons Ratio (z) = 0.35950 0.09542
#
# Static dielectric constant tensor:
#      x y z
#    x 3.861860 0.000000 -0.056590 
#    y 0.000000 3.735550 0.000000 
#    z -0.056590 0.000000 3.731930 
# 
# 
# High freq. dielectric constant tensor:
#      x y z
#    x 1.830830 0.000000 -0.002170 
#    y 0.000000 1.831820 0.000000 
#    z -0.002170 0.000000 1.823650 
# 
# From -- ./inp_files/50124.got.cif
#   From: 2010.06.25/outbox.cif.g09.slc.cpg/sg15_26_cif.got.tgz:50124.got - 2010.06.28 07:06:18.
