data_PCOD8148084
_publ_section_title
;
Structure prediction by ZEFSAII (Michael W. Deem and Ramdas Pophale) SiO2 
 PCOD8148084
Probable space group: C 2/C
;
_chemical_formula_sum "Si O2"
_cell_formula_units_Z 52
_cell_length_a 9.238982
_cell_length_b 25.553040
_cell_length_c 16.724740
_cell_angle_alpha 90.000000
_cell_angle_beta 41.212704
_cell_angle_gamma 90.000000
_cell_volume 2601.457630
_symmetry_space_group_name_H-M "C 2/C"
_symmetry_group_IT_number 15
_symmetry_cell_setting 'monoclinic'
loop_
_space_group_symop_operation_xyz
x,y,z
-x,y,1/2-z
-x,-y,-z
x,-y,1/2+z
1/2+x,1/2+y,z
1/2-x,1/2+y,1/2-z
1/2-x,1/2-y,-z
1/2+x,1/2-y,1/2+z
loop_
_atom_site_type_symbol
_atom_site_label
_atom_site_fract_x
_atom_site_fract_y
_atom_site_fract_z
Si Si1 0.696509 0.043908 0.325356
Si Si2 0.712008 0.346014 0.203730
Si Si3 0.243166 0.948305 0.086768
Si Si4 0.000000 0.866733 0.750000
Si Si5 0.258279 0.864634 0.358196
Si Si6 0.869771 0.026717 0.624200
Si Si7 0.289849 0.190033 0.001471
O O1 0.446915 0.061307 0.443174
O O2 0.848413 0.095329 0.259156
O O3 0.760591 0.005825 0.372206
O O4 0.712044 0.014834 0.233687
O O5 0.500000 0.318028 0.250000
O O6 0.739340 0.404790 0.157713
O O7 0.635971 0.346320 0.328323
O O8 0.947801 0.318138 0.094072
O O9 0.028500 0.945329 0.122001
O O10 0.158169 0.829030 0.633687
O O11 0.500000 0.841411 0.250000
O O12 0.269986 0.927498 0.359054
O O13 0.173144 0.841543 0.477099
O O14 0.000000 0.000000 0.500000
O O15 0.250000 0.250000 0.000000
#
# Coordination Sequence:
#
# PCOD8148084 Si02
#       7
#     8   8   8   4   8   8   8
#     4  11  22  36  57  92 129 174 219 254 327 408
#     4  11  20  43  71  97 127 172 221 280 334 405
#     4  11  21  36  60  93 132 177 216 263 323 409
#     4  12  22  42  66  92 138 178 224 270 342 406
#     4  10  23  38  62  94 129 162 223 274 321 391
#     4  12  23  34  57  89 135 173 216 262 325 396
#     4  11  27  46  71  98 127 177 235 291 341 395
#
# _framework density 19.988793000000001
#
# number of rings (size 3 to 8) (size 9 to 14) (size 15 to 20)
#    0.000    0.923    6.154    0.923    5.385    0.000 
#    0.000    0.769    3.385    0.000    0.000    0.000 
#    0.000    0.000    0.000    0.000    0.000    0.000 
#
# Total GULP energy -322213.459603 kJ/mol
# GULP energy per Si atom -12392.825369 kJ/mol
# Density = 1.994330 g / cm^3
# Si number density = 19.988793 Si / 1000 Ang^3
#
#
#
# Elastic Constant Matrix: (Units=GPa)
#
#
# Indices 1 2 3 4 5 6 
#
# 1 90.2090 35.7650 43.8098 0.0000 0.5266 0.0000
# 2 35.7650 110.6263 41.4863 0.0000 1.5512 0.0000
# 3 43.8098 41.4863 137.3511 0.0000 0.2259 0.0000
# 4 0.0000 0.0000 0.0000 25.5202 0.0000 1.1652
# 5 0.5266 1.5512 0.2259 0.0000 36.0326 0.0000
# 6 0.0000 0.0000 0.0000 1.1652 0.0000 27.2353
#
#
#
# Elastic Compliance Matrix: (Units=1/GPa)
#
#
# Indices 1 2 3 4 5 6 
#
# 1 0.014073 -0.003232 -0.003512 0.000000 -0.000045 0.000000
# 2 -0.003232 0.010943 -0.002274 0.000000 -0.000410 0.000000
# 3 -0.003512 -0.002274 0.009088 0.000000 0.000092 0.000000
# 4 0.000000 0.000000 0.000000 0.039261 0.000000 -0.001680
# 5 -0.000045 -0.000410 0.000092 0.000000 0.027770 0.000000
# 6 0.000000 0.000000 0.000000 -0.001680 0.000000 0.036789
#
#
# Mechanical properties :
#
#
# Convention : Reuss Voigt Hill
#
# Bulk Modulus (GPa) = 62.23904 64.47872 63.35888
# Shear Modulus (GPa) = 30.99522 32.23264 31.61393
#
# Velocity S-wave (km/s) = 3.94208 4.02000 3.98123
# Velocity P-wave (km/s) = 7.20587 7.33993 7.27321
#
# Compressibility (1/GPa) = 0.01606708
#
# Stress axis : x y z
#
# Youngs Moduli (GPa) = 71.05930 91.38527 110.04060
#
# Poissons Ratio (x) = 0.29534 0.38651
# Poissons Ratio (y) = 0.22965 0.25020
# Poissons Ratio (z) = 0.24959 0.20778
#
# Static dielectric constant tensor:
#      x y z
#    x 3.943180 0.000000 0.011370 
#    y 0.000000 3.388490 0.000000 
#    z 0.011370 0.000000 3.950250 
# 
# 
# High freq. dielectric constant tensor:
#      x y z
#    x 1.775750 0.000000 -0.000560 
#    y 0.000000 1.751320 0.000000 
#    z -0.000560 0.000000 1.795660 
# 
# From -- ./inp_files/138440.got.cif
#   From: 2010.06.25/outbox.cif.g09.slc.cpg/sg15_70_cif.got.tgz:138440.got - 2010.06.28 07:06:18.
