data_PCOD8148024
_publ_section_title
;
Structure prediction by ZEFSAII (Michael W. Deem and Ramdas Pophale) SiO2 
 PCOD8148024
Probable space group: C 2/C
;
_chemical_formula_sum "Si O2"
_cell_formula_units_Z 48
_cell_length_a 11.852568
_cell_length_b 22.099448
_cell_length_c 8.307395
_cell_angle_alpha 90.000000
_cell_angle_beta 98.106661
_cell_angle_gamma 90.000000
_cell_volume 2154.255083
_symmetry_space_group_name_H-M "C 2/C"
_symmetry_group_IT_number 15
_symmetry_cell_setting 'monoclinic'
loop_
_space_group_symop_operation_xyz
x,y,z
-x,y,1/2-z
-x,-y,-z
x,-y,1/2+z
1/2+x,1/2+y,z
1/2-x,1/2+y,1/2-z
1/2-x,1/2-y,-z
1/2+x,1/2-y,1/2+z
loop_
_atom_site_type_symbol
_atom_site_label
_atom_site_fract_x
_atom_site_fract_y
_atom_site_fract_z
Si Si1 0.000000 0.758782 0.250000
Si Si2 0.605483 0.575473 0.049747
Si Si3 0.639596 0.448186 0.927467
Si Si4 0.783993 0.812118 0.092776
Si Si5 0.113603 0.575534 0.980799
Si Si6 0.500000 0.976420 0.750000
Si Si7 0.466075 0.189596 0.905756
O O1 0.115272 0.798833 0.257670
O O2 0.009584 0.721502 0.418727
O O3 0.468135 0.578956 0.996247
O O4 0.628701 0.562067 0.237921
O O5 0.653063 0.520644 0.951755
O O6 0.666723 0.638193 0.019468
O O7 0.751523 0.413770 0.013354
O O8 0.664248 0.834354 0.141864
O O9 0.750000 0.750000 0.000000
O O10 0.082085 0.566509 0.161995
O O11 0.082116 0.515435 0.877987
O O12 0.047162 0.632445 0.901296
O O13 0.500000 0.228893 0.750000
#
# Coordination Sequence:
#
# PCOD8148024 Si02
#       7
#     4   8   8   8   8   4   8
#     4  10  25  50  72  94 130 194 227 302 374 384
#     4  10  23  44  66 107 142 182 241 292 358 444
#     4  10  23  39  70 105 143 184 228 293 363 432
#     4  10  25  47  71  98 139 188 243 299 353 434
#     4  11  22  38  60  99 134 181 218 281 352 419
#     4  10  23  34  56  94 138 176 223 258 352 430
#     4  11  25  44  70 103 134 176 245 293 346 438
#
# _framework density 22.281483000000001
#
# number of rings (size 3 to 8) (size 9 to 14) (size 15 to 20)
#    0.000    1.667    0.833    1.500   11.667    6.000 
#   12.000    0.000    0.000    0.000    0.000    0.000 
#    0.000    0.000    0.000    0.000    0.000    0.000 
#
# Total GULP energy -297448.252922 kJ/mol
# GULP energy per Si atom -12393.677205 kJ/mol
# Density = 2.223077 g / cm^3
# Si number density = 22.281483 Si / 1000 Ang^3
#
#
#
# Elastic Constant Matrix: (Units=GPa)
#
#
# Indices 1 2 3 4 5 6 
#
# 1 209.1332 55.7159 56.8270 0.0000 21.3236 0.0000
# 2 55.7159 97.3248 31.1211 0.0000 -3.3414 0.0000
# 3 56.8270 31.1211 115.5736 0.0000 -8.4508 0.0000
# 4 0.0000 0.0000 0.0000 -68.3896 0.0000 46.5301
# 5 21.3236 -3.3414 -8.4508 0.0000 38.2259 0.0000
# 6 0.0000 0.0000 0.0000 46.5301 0.0000 16.7202
#
#
#
# Elastic Compliance Matrix: (Units=1/GPa)
#
#
# Indices 1 2 3 4 5 6 
#
# 1 0.006901 -0.003193 -0.002882 0.000000 -0.004766 0.000000
# 2 -0.003193 0.012724 -0.001672 0.000000 0.002524 0.000000
# 3 -0.002882 -0.001672 0.010801 0.000000 0.003849 0.000000
# 4 0.000000 0.000000 0.000000 -0.005054 0.000000 0.014064
# 5 -0.004766 0.002524 0.003849 0.000000 0.029891 0.000000
# 6 0.000000 0.000000 0.000000 0.014064 0.000000 0.020671
#
#
# Mechanical properties :
#
#
# Convention : Reuss Voigt Hill
#
# Bulk Modulus (GPa) = 66.96565 78.81774 72.89170
# Shear Modulus (GPa) = 51.86438 15.86914 33.86676
#
# Velocity S-wave (km/s) = 4.82985 2.67163 3.90288
# Velocity P-wave (km/s) = 7.82451 6.70576 7.28664
#
# Compressibility (1/GPa) = 0.01493303
#
# Stress axis : x y z
#
# Youngs Moduli (GPa) = 144.89879 78.59205 92.58188
#
# Poissons Ratio (x) = 0.25094 0.26683
# Poissons Ratio (y) = 0.46265 0.15478
# Poissons Ratio (z) = 0.41761 0.13139
#
# Static dielectric constant tensor:
#      x y z
#    x 5.002370 0.000000 0.056520 
#    y 0.000000 3.831630 0.000000 
#    z 0.056520 0.000000 4.082670 
# 
# 
# High freq. dielectric constant tensor:
#      x y z
#    x 1.901640 0.000000 0.006110 
#    y 0.000000 1.855640 0.000000 
#    z 0.006110 0.000000 1.882220 
# 
# From -- ./inp_files/32188.got.cif
#   From: 2010.06.25/outbox.cif.g09.slc.cpg/sg15_17_cif.got.tgz:32188.got - 2010.06.28 07:06:18.
