data_PCOD8148340
_publ_section_title
;
Structure prediction by ZEFSAII (Michael W. Deem and Ramdas Pophale) SiO2 
 PCOD8148340
Probable space group: C 2/C
;
_chemical_formula_sum "Si O2"
_cell_formula_units_Z 56
_cell_length_a 15.730709
_cell_length_b 13.741547
_cell_length_c 16.533095
_cell_angle_alpha 90.000000
_cell_angle_beta 45.346612
_cell_angle_gamma 90.000000
_cell_volume 2542.345275
_symmetry_space_group_name_H-M "C 2/C"
_symmetry_group_IT_number 15
_symmetry_cell_setting 'monoclinic'
loop_
_space_group_symop_operation_xyz
x,y,z
-x,y,1/2-z
-x,-y,-z
x,-y,1/2+z
1/2+x,1/2+y,z
1/2-x,1/2+y,1/2-z
1/2-x,1/2-y,-z
1/2+x,1/2-y,1/2+z
loop_
_atom_site_type_symbol
_atom_site_label
_atom_site_fract_x
_atom_site_fract_y
_atom_site_fract_z
Si Si1 0.672793 0.323394 0.265336
Si Si2 0.000000 0.734459 0.750000
Si Si3 0.953851 0.892095 0.512223
Si Si4 0.831623 0.184358 0.244487
Si Si5 0.000000 0.433090 0.750000
Si Si6 0.780000 0.680991 0.407142
Si Si7 0.685529 0.998289 0.376569
Si Si8 0.006459 0.428311 0.114542
O O1 0.548285 0.334110 0.394785
O O2 0.770766 0.288994 0.266146
O O3 0.666058 0.237663 0.205333
O O4 0.703790 0.423117 0.196210
O O5 0.109587 0.804483 0.705139
O O6 0.028376 0.672609 0.648860
O O7 0.935870 0.836282 0.609016
O O8 0.829584 0.888953 0.545226
O O9 0.000000 0.000000 0.500000
O O10 0.733738 0.097662 0.303349
O O11 0.107910 0.378128 0.634969
O O12 0.942028 0.498710 0.719180
O O13 0.750000 0.750000 0.500000
O O14 0.584102 0.931895 0.400279
O O15 0.635361 0.031784 0.497305
#
# Coordination Sequence:
#
# PCOD8148340 Si02
#       8
#     8   4   8   8   4   8   8   8
#     4  11  23  42  70  95 136 181 233 276 351 425
#     4  11  24  46  61 110 136 176 225 302 345 412
#     4  11  24  44  68  99 139 189 227 282 350 422
#     4  11  25  43  68  97 140 180 230 287 355 413
#     4  11  22  42  63  98 130 168 223 284 339 406
#     4  11  24  42  69 101 137 174 228 289 349 404
#     4  11  22  43  66  98 125 187 227 279 339 423
#     4  10  23  40  70  89 134 173 234 277 340 409
#
# _framework density 22.026907000000001
#
# number of rings (size 3 to 8) (size 9 to 14) (size 15 to 20)
#    0.000    1.143    2.857    3.429    2.000    2.857 
#    5.143    0.000    0.000    0.000    0.000    0.000 
#    0.000    0.000    0.000    0.000    0.000    0.000 
#
# Total GULP energy -346915.184179 kJ/mol
# GULP energy per Si atom -12389.828006 kJ/mol
# Density = 2.197677 g / cm^3
# Si number density = 22.026907 Si / 1000 Ang^3
#
#
#
# Elastic Constant Matrix: (Units=GPa)
#
#
# Indices 1 2 3 4 5 6 
#
# 1 99.5643 27.2889 20.7264 0.0000 -3.9428 0.0000
# 2 27.2889 97.3856 34.9326 0.0000 -14.2175 0.0000
# 3 20.7264 34.9326 128.1853 0.0000 -13.5645 0.0000
# 4 0.0000 0.0000 0.0000 33.6666 0.0000 -0.9074
# 5 -3.9428 -14.2175 -13.5645 0.0000 28.8486 0.0000
# 6 0.0000 0.0000 0.0000 -0.9074 0.0000 34.6630
#
#
#
# Elastic Compliance Matrix: (Units=1/GPa)
#
#
# Indices 1 2 3 4 5 6 
#
# 1 0.011006 -0.002753 -0.001067 0.000000 -0.000354 0.000000
# 2 -0.002753 0.012618 -0.002500 0.000000 0.004667 0.000000
# 3 -0.001067 -0.002500 0.008955 0.000000 0.002833 0.000000
# 4 0.000000 0.000000 0.000000 0.029724 0.000000 0.000778
# 5 -0.000354 0.004667 0.002833 0.000000 0.038247 0.000000
# 6 0.000000 0.000000 0.000000 0.000778 0.000000 0.028870
#
#
# Mechanical properties :
#
#
# Convention : Reuss Voigt Hill
#
# Bulk Modulus (GPa) = 50.15106 54.55901 52.35503
# Shear Modulus (GPa) = 33.62349 35.58147 34.60248
#
# Velocity S-wave (km/s) = 3.91125 4.02352 3.96778
# Velocity P-wave (km/s) = 6.57379 6.81234 6.69413
#
# Compressibility (1/GPa) = 0.01993976
#
# Stress axis : x y z
#
# Youngs Moduli (GPa) = 90.85604 79.25256 111.67391
#
# Poissons Ratio (x) = 0.21820 0.11914
# Poissons Ratio (y) = 0.25015 0.27914
# Poissons Ratio (z) = 0.09693 0.19810
#
# Static dielectric constant tensor:
#      x y z
#    x 3.959230 0.000000 0.052080 
#    y 0.000000 4.002280 0.000000 
#    z 0.052080 0.000000 4.103160 
# 
# 
# High freq. dielectric constant tensor:
#      x y z
#    x 1.850560 0.000000 0.003230 
#    y 0.000000 1.871920 0.000000 
#    z 0.003230 0.000000 1.875970 
# 
# From -- ./inp_files/211219.got.cif
#   From: 2010.06.25/outbox.cif.g09.slc.cpg/sg15_106_cif.got.tgz:211219.got - 2010.06.28 07:06:18.
