data_PCOD8148371
_publ_section_title
;
Structure prediction by ZEFSAII (Michael W. Deem and Ramdas Pophale) SiO2 
 PCOD8148371
Probable space group: C 2/C
;
_chemical_formula_sum "Si O2"
_cell_formula_units_Z 48
_cell_length_a 26.014156
_cell_length_b 9.137340
_cell_length_c 9.910220
_cell_angle_alpha 90.000000
_cell_angle_beta 85.815506
_cell_angle_gamma 90.000000
_cell_volume 2349.381582
_symmetry_space_group_name_H-M "C 2/C"
_symmetry_group_IT_number 15
_symmetry_cell_setting 'monoclinic'
loop_
_space_group_symop_operation_xyz
x,y,z
-x,y,1/2-z
-x,-y,-z
x,-y,1/2+z
1/2+x,1/2+y,z
1/2-x,1/2+y,1/2-z
1/2-x,1/2-y,-z
1/2+x,1/2-y,1/2+z
loop_
_atom_site_type_symbol
_atom_site_label
_atom_site_fract_x
_atom_site_fract_y
_atom_site_fract_z
Si Si1 0.466603 0.431548 0.123922
Si Si2 0.107453 0.732187 0.486611
Si Si3 0.164885 0.525736 0.061813
Si Si4 0.628671 0.590161 0.241406
Si Si5 0.177824 0.790789 0.234821
Si Si6 0.204963 0.663826 0.792872
O O1 0.500000 0.408755 0.250000
O O2 0.418371 0.539886 0.155213
O O3 0.500000 0.500000 0.000000
O O4 0.444211 0.270194 0.088194
O O5 0.112099 0.562055 0.531911
O O6 0.104721 0.838936 0.613866
O O7 0.158962 0.765871 0.390894
O O8 0.149679 0.674899 0.140969
O O9 0.198556 0.423199 0.154253
O O10 0.197820 0.555977 0.920945
O O11 0.663416 0.452998 0.188786
O O12 0.663677 0.705720 0.315491
O O13 0.238757 0.764912 0.213900
#
# Coordination Sequence:
#
# PCOD8148371 Si02
#       6
#     8   8   8   8   8   8
#     4  11  22  43  73 101 126 166 222 283 337 390
#     4  10  23  41  62 100 128 173 218 280 331 400
#     4  11  23  41  59  92 134 181 216 275 329 387
#     4  10  24  38  67 100 132 168 230 270 327 399
#     4  11  23  38  64  95 132 184 223 266 325 398
#     4  11  24  40  63  93 140 182 222 265 331 398
#
# _framework density 20.430910000000001
#
# number of rings (size 3 to 8) (size 9 to 14) (size 15 to 20)
#    0.000    1.333    3.333    1.500    7.000    1.333 
#    0.000    0.000    0.000   10.000    0.000    0.000 
#    0.000    0.000    0.000    0.000    0.000    0.000 
#
# Total GULP energy -297605.102933 kJ/mol
# GULP energy per Si atom -12400.212622 kJ/mol
# Density = 2.038441 g / cm^3
# Si number density = 20.430910 Si / 1000 Ang^3
#
#
#
# Elastic Constant Matrix: (Units=GPa)
#
#
# Indices 1 2 3 4 5 6 
#
# 1 124.1425 58.7383 57.4567 0.0000 -3.0912 0.0000
# 2 58.7383 130.7624 50.0415 0.0000 10.0466 0.0000
# 3 57.4567 50.0415 116.3325 0.0000 1.4026 0.0000
# 4 0.0000 0.0000 0.0000 29.7241 0.0000 8.0897
# 5 -3.0912 10.0466 1.4026 0.0000 27.1827 0.0000
# 6 0.0000 0.0000 0.0000 8.0897 0.0000 24.6343
#
#
#
# Elastic Compliance Matrix: (Units=1/GPa)
#
#
# Indices 1 2 3 4 5 6 
#
# 1 0.011983 -0.003997 -0.004236 0.000000 0.003058 0.000000
# 2 -0.003997 0.010771 -0.002607 0.000000 -0.004301 0.000000
# 3 -0.004236 -0.002607 0.011811 0.000000 -0.000128 0.000000
# 4 0.000000 0.000000 0.000000 0.036945 0.000000 -0.012132
# 5 0.003058 -0.004301 -0.000128 0.000000 0.038732 0.000000
# 6 0.000000 0.000000 0.000000 -0.012132 0.000000 0.044578
#
#
# Mechanical properties :
#
#
# Convention : Reuss Voigt Hill
#
# Bulk Modulus (GPa) = 77.60917 78.19006 77.89962
# Shear Modulus (GPa) = 27.65555 29.97495 28.81525
#
# Velocity S-wave (km/s) = 3.68314 3.83448 3.75957
# Velocity P-wave (km/s) = 7.49373 7.61301 7.55360
#
# Compressibility (1/GPa) = 0.01288507
#
# Stress axis : x y z
#
# Youngs Moduli (GPa) = 83.45144 92.84163 84.66375
#
# Poissons Ratio (x) = 0.37105 0.35864
# Poissons Ratio (y) = 0.33352 0.22076
# Poissons Ratio (z) = 0.35351 0.24208
#
# Static dielectric constant tensor:
#      x y z
#    x 3.600240 0.000000 0.159600 
#    y 0.000000 3.886520 0.000000 
#    z 0.159600 0.000000 3.640740 
# 
# 
# High freq. dielectric constant tensor:
#      x y z
#    x 1.774810 0.000000 0.007420 
#    y 0.000000 1.803120 0.000000 
#    z 0.007420 0.000000 1.815270 
# 
# From -- ./inp_files/116259.got.cif
#   From: 2010.06.25/outbox.cif.g09.slc.cpg/sg15_59_cif.got.tgz:116259.got - 2010.06.28 07:06:18.
