data_PCOD8148543
_publ_section_title
;
Structure prediction by ZEFSAII (Michael W. Deem and Ramdas Pophale) SiO2 
 PCOD8148543
Probable space group: C 2/C
;
_chemical_formula_sum "Si O2"
_cell_formula_units_Z 44
_cell_length_a 14.263236
_cell_length_b 9.235506
_cell_length_c 24.444892
_cell_angle_alpha 90.000000
_cell_angle_beta 142.238621
_cell_angle_gamma 90.000000
_cell_volume 1971.895253
_symmetry_space_group_name_H-M "C 2/C"
_symmetry_group_IT_number 15
_symmetry_cell_setting 'monoclinic'
loop_
_space_group_symop_operation_xyz
x,y,z
-x,y,1/2-z
-x,-y,-z
x,-y,1/2+z
1/2+x,1/2+y,z
1/2-x,1/2+y,1/2-z
1/2-x,1/2-y,-z
1/2+x,1/2-y,1/2+z
loop_
_atom_site_type_symbol
_atom_site_label
_atom_site_fract_x
_atom_site_fract_y
_atom_site_fract_z
Si Si1 0.394975 0.317716 0.279812
Si Si2 0.755422 0.195161 0.064730
Si Si3 0.044693 0.839265 0.534458
Si Si4 0.717705 0.630663 0.894807
Si Si5 0.227159 0.529055 0.283676
Si Si6 0.500000 0.843111 0.250000
O O1 0.338268 0.363675 0.193651
O O2 0.576409 0.336575 0.369466
O O3 0.301266 0.417931 0.277133
O O4 0.381533 0.150011 0.293309
O O5 0.917892 0.242720 0.166546
O O6 0.726621 0.025214 0.058918
O O7 0.750000 0.250000 0.000000
O O8 0.613298 0.258490 0.031415
O O9 0.145547 0.749841 0.536026
O O10 0.144458 0.859335 0.634767
O O11 0.000000 0.000000 0.500000
O O12 0.131676 0.444082 0.285538
#
# Coordination Sequence:
#
# PCOD8148543 Si02
#       6
#     8   8   8   8   8   4
#     4  10  23  41  73 101 142 186 245 291 362 430
#     4  12  27  45  74 107 146 191 244 297 363 436
#     4  11  23  45  67  97 146 188 234 299 360 421
#     4  10  23  45  68 101 146 186 235 302 354 425
#     4  11  24  43  70 104 139 192 241 296 363 437
#     4  12  26  46  74 100 150 190 236 300 364 426
#
# _framework density 22.313558
#
# number of rings (size 3 to 8) (size 9 to 14) (size 15 to 20)
#    0.000    1.091    1.818    4.909   10.182    0.000 
#    3.273    1.818    0.000    0.000    0.000    0.000 
#    0.000    0.000    0.000    0.000    0.000    0.000 
#
# Total GULP energy -272578.633868 kJ/mol
# GULP energy per Si atom -12389.937903 kJ/mol
# Density = 2.226277 g / cm^3
# Si number density = 22.313558 Si / 1000 Ang^3
#
#
#
# Elastic Constant Matrix: (Units=GPa)
#
#
# Indices 1 2 3 4 5 6 
#
# 1 136.8599 74.0799 35.4583 0.0000 20.5114 0.0000
# 2 74.0799 200.2380 41.5328 0.0000 14.7320 0.0000
# 3 35.4583 41.5328 89.7108 0.0000 15.2523 0.0000
# 4 0.0000 0.0000 0.0000 41.2969 0.0000 11.3618
# 5 20.5114 14.7320 15.2523 0.0000 34.4512 0.0000
# 6 0.0000 0.0000 0.0000 11.3618 0.0000 39.6779
#
#
#
# Elastic Compliance Matrix: (Units=1/GPa)
#
#
# Indices 1 2 3 4 5 6 
#
# 1 0.010012 -0.003028 -0.001906 0.000000 -0.003823 0.000000
# 2 -0.003028 0.006497 -0.001779 0.000000 -0.000188 0.000000
# 3 -0.001906 -0.001779 0.013411 0.000000 -0.004042 0.000000
# 4 0.000000 0.000000 0.000000 0.026286 0.000000 -0.007527
# 5 -0.003823 -0.000188 -0.004042 0.000000 0.033172 0.000000
# 6 0.000000 0.000000 0.000000 -0.007527 0.000000 0.027358
#
#
# Mechanical properties :
#
#
# Convention : Reuss Voigt Hill
#
# Bulk Modulus (GPa) = 60.62404 80.99452 70.80928
# Shear Modulus (GPa) = 36.85682 41.46772 39.16227
#
# Velocity S-wave (km/s) = 4.06860 4.31560 4.19392
# Velocity P-wave (km/s) = 7.02136 7.82366 7.43335
#
# Compressibility (1/GPa) = 0.01649511
#
# Stress axis : x y z
#
# Youngs Moduli (GPa) = 99.87844 153.91690 74.56501
#
# Poissons Ratio (x) = 0.46599 0.14210
# Poissons Ratio (y) = 0.30239 0.13267
# Poissons Ratio (z) = 0.19034 0.27386
#
# Static dielectric constant tensor:
#      x y z
#    x 4.215200 0.000000 0.406290 
#    y 0.000000 4.572680 0.000000 
#    z 0.406290 0.000000 4.103270 
# 
# 
# High freq. dielectric constant tensor:
#      x y z
#    x 1.880450 0.000000 0.028420 
#    y 0.000000 1.902710 0.000000 
#    z 0.028420 0.000000 1.873910 
# 
# From -- ./inp_files/202806.got.cif
#   From: 2010.06.25/outbox.cif.g09.slc.cpg/sg15_102_cif.got.tgz:202806.got - 2010.06.28 07:06:18.
