data_PCOD8148317
_publ_section_title
;
Structure prediction by ZEFSAII (Michael W. Deem and Ramdas Pophale) SiO2 
 PCOD8148317
Probable space group: C 2/C
;
_chemical_formula_sum "Si O2"
_cell_formula_units_Z 56
_cell_length_a 10.694319
_cell_length_b 21.856844
_cell_length_c 11.369823
_cell_angle_alpha 90.000000
_cell_angle_beta 101.129568
_cell_angle_gamma 90.000000
_cell_volume 2607.647072
_symmetry_space_group_name_H-M "C 2/C"
_symmetry_group_IT_number 15
_symmetry_cell_setting 'monoclinic'
loop_
_space_group_symop_operation_xyz
x,y,z
-x,y,1/2-z
-x,-y,-z
x,-y,1/2+z
1/2+x,1/2+y,z
1/2-x,1/2+y,1/2-z
1/2-x,1/2-y,-z
1/2+x,1/2-y,1/2+z
loop_
_atom_site_type_symbol
_atom_site_label
_atom_site_fract_x
_atom_site_fract_y
_atom_site_fract_z
Si Si1 0.959883 0.066609 0.037063
Si Si2 0.181147 0.401941 0.092365
Si Si3 0.292851 0.041308 0.372722
Si Si4 0.774188 0.885101 0.848475
Si Si5 0.312337 0.352207 0.328098
Si Si6 0.122435 0.714733 0.197434
Si Si7 0.414264 0.855850 0.037001
O O1 0.850225 0.055543 0.111495
O O2 0.074862 0.102589 0.120504
O O3 0.913429 0.109528 0.921995
O O4 0.000000 0.000000 0.000000
O O5 0.157135 0.473721 0.098123
O O6 0.294581 0.388069 0.203112
O O7 0.058792 0.361945 0.109028
O O8 0.219424 0.382785 0.968857
O O9 0.295947 0.059883 0.235451
O O10 0.390459 0.081166 0.464784
O O11 0.744504 0.821133 0.775082
O O12 0.362568 0.286894 0.296317
O O13 0.178874 0.344909 0.371292
O O14 0.000000 0.694027 0.250000
O O15 0.103481 0.699620 0.056919
#
# Coordination Sequence:
#
# PCOD8148317 Si02
#       7
#     8   8   8   8   8   8   8
#     4  11  22  43  66  96 137 172 223 274 337 402
#     4  12  23  41  68  99 132 171 218 271 331 402
#     4  10  23  40  67  96 134 173 214 272 334 399
#     4  11  24  41  66  99 131 176 218 274 337 396
#     4  11  27  41  67  97 130 180 222 277 330 396
#     4  11  24  45  69  94 131 172 230 280 332 398
#     4  10  23  47  64  95 131 174 220 271 333 395
#
# _framework density 21.475299
#
# number of rings (size 3 to 8) (size 9 to 14) (size 15 to 20)
#    0.000    1.143    2.857    2.571    4.000    1.714 
#    2.571    4.286    0.000    0.000    0.000    0.000 
#    0.000    0.000    0.000    0.000    0.000    0.000 
#
# Total GULP energy -347256.779749 kJ/mol
# GULP energy per Si atom -12402.027848 kJ/mol
# Density = 2.142642 g / cm^3
# Si number density = 21.475299 Si / 1000 Ang^3
#
#
#
# Elastic Constant Matrix: (Units=GPa)
#
#
# Indices 1 2 3 4 5 6 
#
# 1 63.9878 2.3140 16.6358 0.0000 7.1959 0.0000
# 2 2.3140 78.9447 24.1686 0.0000 11.1237 0.0000
# 3 16.6358 24.1686 110.2381 0.0000 0.4226 0.0000
# 4 0.0000 0.0000 0.0000 19.2374 0.0000 -3.3499
# 5 7.1959 11.1237 0.4226 0.0000 32.4098 0.0000
# 6 0.0000 0.0000 0.0000 -3.3499 0.0000 29.2264
#
#
#
# Elastic Compliance Matrix: (Units=1/GPa)
#
#
# Indices 1 2 3 4 5 6 
#
# 1 0.016749 0.000901 -0.002710 0.000000 -0.003993 0.000000
# 2 0.000901 0.014356 -0.003264 0.000000 -0.005085 0.000000
# 3 -0.002710 -0.003264 0.010190 0.000000 0.001589 0.000000
# 4 0.000000 0.000000 0.000000 0.053041 0.000000 0.006080
# 5 -0.003993 -0.005085 0.001589 0.000000 0.033466 0.000000
# 6 0.000000 0.000000 0.000000 0.006080 0.000000 0.034913
#
#
# Mechanical properties :
#
#
# Convention : Reuss Voigt Hill
#
# Bulk Modulus (GPa) = 32.10284 37.71192 34.90738
# Shear Modulus (GPa) = 27.28622 30.17819 28.73220
#
# Velocity S-wave (km/s) = 3.56840 3.75274 3.66173
# Velocity P-wave (km/s) = 5.65324 6.03126 5.84531
#
# Compressibility (1/GPa) = 0.03114990
#
# Stress axis : x y z
#
# Youngs Moduli (GPa) = 59.70536 69.65515 98.13816
#
# Poissons Ratio (x) = -0.06278 0.26594
# Poissons Ratio (y) = -0.05381 0.32032
# Poissons Ratio (z) = 0.16179 0.22736
#
# Static dielectric constant tensor:
#      x y z
#    x 4.200780 0.000000 0.023010 
#    y 0.000000 3.743650 0.000000 
#    z 0.023010 0.000000 3.966760 
# 
# 
# High freq. dielectric constant tensor:
#      x y z
#    x 1.845070 0.000000 0.001150 
#    y 0.000000 1.839240 0.000000 
#    z 0.001150 0.000000 1.858800 
# 
# From -- ./inp_files/89645.got.cif
#   From: 2010.06.25/outbox.cif.g09.slc.cpg/sg15_45_cif.got.tgz:89645.got - 2010.06.28 07:06:18.
