data_PCOD8148468
_publ_section_title
;
Structure prediction by ZEFSAII (Michael W. Deem and Ramdas Pophale) SiO2 
 PCOD8148468
Probable space group: C 2/C
;
_chemical_formula_sum "Si O2"
_cell_formula_units_Z 56
_cell_length_a 21.591984
_cell_length_b 11.861708
_cell_length_c 10.942825
_cell_angle_alpha 90.000000
_cell_angle_beta 64.463929
_cell_angle_gamma 90.000000
_cell_volume 2528.872675
_symmetry_space_group_name_H-M "C 2/C"
_symmetry_group_IT_number 15
_symmetry_cell_setting 'monoclinic'
loop_
_space_group_symop_operation_xyz
x,y,z
-x,y,1/2-z
-x,-y,-z
x,-y,1/2+z
1/2+x,1/2+y,z
1/2-x,1/2+y,1/2-z
1/2-x,1/2-y,-z
1/2+x,1/2-y,1/2+z
loop_
_atom_site_type_symbol
_atom_site_label
_atom_site_fract_x
_atom_site_fract_y
_atom_site_fract_z
Si Si1 0.367073 0.712912 0.679947
Si Si2 0.017930 0.124910 0.526443
Si Si3 0.731015 0.440965 0.369278
Si Si4 0.074818 0.833119 0.734987
Si Si5 0.131638 0.064310 0.602182
Si Si6 0.646230 0.031491 0.353286
Si Si7 0.867178 0.595262 0.868219
O O1 0.448494 0.695762 0.596656
O O2 0.323964 0.657626 0.606661
O O3 0.339735 0.652229 0.824543
O O4 0.349235 0.842591 0.700734
O O5 0.068181 0.185537 0.386188
O O6 0.059785 0.116403 0.616439
O O7 0.000000 0.000000 0.500000
O O8 0.688562 0.551250 0.448498
O O9 0.776522 0.478754 0.212387
O O10 0.784259 0.398912 0.428905
O O11 0.102663 0.720689 0.646024
O O12 0.000000 0.863176 0.750000
O O13 0.122672 0.940638 0.669795
O O14 0.614955 0.029266 0.518314
O O15 0.603004 0.965655 0.281568
#
# Coordination Sequence:
#
# PCOD8148468 Si02
#       7
#     8   8   8   8   8   8   8
#     4  12  23  41  68  97 136 176 216 287 334 394
#     4  12  22  39  62 104 134 168 222 279 341 396
#     4  10  23  41  66  94 134 173 220 270 335 396
#     4  12  22  40  69  95 133 173 225 278 337 401
#     4  12  22  38  66 101 134 172 219 281 344 398
#     4  10  25  47  64  96 139 173 233 274 332 402
#     4  10  25  45  67  94 133 184 224 275 332 401
#
# _framework density 22.144255000000001
#
# number of rings (size 3 to 8) (size 9 to 14) (size 15 to 20)
#    0.857    0.000    4.286    3.000    0.000    6.286 
#    0.000    4.286    0.000    0.000    0.000    0.000 
#    0.000    0.000    0.000    0.000    0.000    0.000 
#
# Total GULP energy -346945.430590 kJ/mol
# GULP energy per Si atom -12390.908235 kJ/mol
# Density = 2.209385 g / cm^3
# Si number density = 22.144255 Si / 1000 Ang^3
#
#
#
# Elastic Constant Matrix: (Units=GPa)
#
#
# Indices 1 2 3 4 5 6 
#
# 1 50.9444 16.7925 5.2100 0.0000 8.5666 0.0000
# 2 16.7925 74.5375 18.3160 0.0000 11.6780 0.0000
# 3 5.2100 18.3160 93.5130 0.0000 15.3651 0.0000
# 4 0.0000 0.0000 0.0000 33.8979 0.0000 8.9129
# 5 8.5666 11.6780 15.3651 0.0000 39.3465 0.0000
# 6 0.0000 0.0000 0.0000 8.9129 0.0000 18.6487
#
#
#
# Elastic Compliance Matrix: (Units=1/GPa)
#
#
# Indices 1 2 3 4 5 6 
#
# 1 0.021639 -0.004383 0.000228 0.000000 -0.003499 0.000000
# 2 -0.004383 0.015400 -0.002327 0.000000 -0.002708 0.000000
# 3 0.000228 -0.002327 0.011788 0.000000 -0.003962 0.000000
# 4 0.000000 0.000000 0.000000 0.033740 0.000000 -0.016126
# 5 -0.003499 -0.002708 -0.003962 0.000000 0.028528 0.000000
# 6 0.000000 0.000000 0.000000 -0.016126 0.000000 0.061330
#
#
# Mechanical properties :
#
#
# Convention : Reuss Voigt Hill
#
# Bulk Modulus (GPa) = 27.88452 33.29242 30.58847
# Shear Modulus (GPa) = 25.33660 30.29039 27.81349
#
# Velocity S-wave (km/s) = 3.38621 3.70248 3.54787
# Velocity P-wave (km/s) = 5.28282 5.77449 5.53412
#
# Compressibility (1/GPa) = 0.03586219
#
# Stress axis : x y z
#
# Youngs Moduli (GPa) = 46.21274 64.93714 84.83321
#
# Poissons Ratio (x) = 0.28460 -0.01933
# Poissons Ratio (y) = 0.20254 0.19742
# Poissons Ratio (z) = -0.01053 0.15112
#
# Static dielectric constant tensor:
#      x y z
#    x 4.023300 0.000000 0.155770 
#    y 0.000000 3.696970 0.000000 
#    z 0.155770 0.000000 4.301930 
# 
# 
# High freq. dielectric constant tensor:
#      x y z
#    x 1.861440 0.000000 0.010670 
#    y 0.000000 1.850150 0.000000 
#    z 0.010670 0.000000 1.877720 
# 
# From -- ./inp_files/117474.got.cif
#   From: 2010.06.25/outbox.cif.g09.slc.cpg/sg15_59_cif.got.tgz:117474.got - 2010.06.28 07:06:18.
