data_PCOD8148334
_publ_section_title
;
Structure prediction by ZEFSAII (Michael W. Deem and Ramdas Pophale) SiO2 
 PCOD8148334
Probable space group: C 2/C
;
_chemical_formula_sum "Si O2"
_cell_formula_units_Z 56
_cell_length_a 17.090144
_cell_length_b 14.464008
_cell_length_c 10.542399
_cell_angle_alpha 90.000000
_cell_angle_beta 72.634586
_cell_angle_gamma 90.000000
_cell_volume 2487.216898
_symmetry_space_group_name_H-M "C 2/C"
_symmetry_group_IT_number 15
_symmetry_cell_setting 'monoclinic'
loop_
_space_group_symop_operation_xyz
x,y,z
-x,y,1/2-z
-x,-y,-z
x,-y,1/2+z
1/2+x,1/2+y,z
1/2-x,1/2+y,1/2-z
1/2-x,1/2-y,-z
1/2+x,1/2-y,1/2+z
loop_
_atom_site_type_symbol
_atom_site_label
_atom_site_fract_x
_atom_site_fract_y
_atom_site_fract_z
Si Si1 0.927553 0.731342 0.021603
Si Si2 0.798799 0.885106 0.143296
Si Si3 0.196847 0.429281 0.951021
Si Si4 0.500000 0.326676 0.750000
Si Si5 0.861334 0.822051 0.475953
Si Si6 0.000000 0.775615 0.250000
Si Si7 0.146486 0.929585 0.777264
Si Si8 0.698721 0.136206 0.922853
O O1 0.858673 0.809481 0.058775
O O2 0.882170 0.636071 0.008257
O O3 0.972078 0.718454 0.137316
O O4 0.991206 0.759815 0.878728
O O5 0.733294 0.836373 0.267919
O O6 0.850480 0.960655 0.199241
O O7 0.746363 0.932426 0.058179
O O8 0.262096 0.398486 0.810840
O O9 0.162245 0.532709 0.942369
O O10 0.578715 0.395746 0.708983
O O11 0.923598 0.839765 0.329187
O O12 0.888792 0.881237 0.581056
O O13 0.771361 0.857105 0.489214
O O14 0.867924 0.712277 0.505402
#
# Coordination Sequence:
#
# PCOD8148334 Si02
#       8
#     8   8   8   4   8   4   8   8
#     4  12  26  44  67  95 143 177 227 271 340 402
#     4  11  22  40  67  99 127 173 218 278 338 396
#     4  11  24  43  67 100 129 175 228 281 329 400
#     4  12  26  43  65 102 140 188 212 281 345 412
#     4  11  22  43  65  95 135 172 222 272 336 400
#     4  12  26  43  69 100 136 188 220 273 347 402
#     4  11  24  41  66  99 136 169 227 274 342 402
#     4  10  23  40  69  96 125 172 225 281 326 392
#
# _framework density 22.515124
#
# number of rings (size 3 to 8) (size 9 to 14) (size 15 to 20)
#    0.000    0.857    5.714    1.286    4.000    1.143 
#    0.000    1.429    0.000    0.000    0.000    0.000 
#    0.000    0.000    0.000    0.000    0.000    0.000 
#
# Total GULP energy -347043.298813 kJ/mol
# GULP energy per Si atom -12394.403529 kJ/mol
# Density = 2.246388 g / cm^3
# Si number density = 22.515124 Si / 1000 Ang^3
#
#
#
# Elastic Constant Matrix: (Units=GPa)
#
#
# Indices 1 2 3 4 5 6 
#
# 1 41.3065 19.5626 14.0453 0.0000 0.1049 0.0000
# 2 19.5626 89.6596 25.0433 0.0000 0.2450 0.0000
# 3 14.0453 25.0433 118.3294 0.0000 8.4041 0.0000
# 4 0.0000 0.0000 0.0000 23.3534 0.0000 6.9429
# 5 0.1049 0.2450 8.4041 0.0000 23.9195 0.0000
# 6 0.0000 0.0000 0.0000 6.9429 0.0000 22.1146
#
#
#
# Elastic Compliance Matrix: (Units=1/GPa)
#
#
# Indices 1 2 3 4 5 6 
#
# 1 0.027501 -0.005396 -0.002172 0.000000 0.000698 0.000000
# 2 -0.005396 0.012927 -0.002141 0.000000 0.000644 0.000000
# 3 -0.002172 -0.002141 0.009394 0.000000 -0.003269 0.000000
# 4 0.000000 0.000000 0.000000 0.047228 0.000000 -0.014828
# 5 0.000698 0.000644 -0.003269 0.000000 0.042946 0.000000
# 6 0.000000 0.000000 0.000000 -0.014828 0.000000 0.049874
#
#
# Mechanical properties :
#
#
# Convention : Reuss Voigt Hill
#
# Bulk Modulus (GPa) = 32.88946 40.73309 36.81128
# Shear Modulus (GPa) = 22.78701 26.58713 24.68707
#
# Velocity S-wave (km/s) = 3.18477 3.44009 3.31489
# Velocity P-wave (km/s) = 5.30689 5.82320 5.57103
#
# Compressibility (1/GPa) = 0.03040488
#
# Stress axis : x y z
#
# Youngs Moduli (GPa) = 36.36183 77.35838 106.44965
#
# Poissons Ratio (x) = 0.41740 0.23120
# Poissons Ratio (y) = 0.19620 0.22792
# Poissons Ratio (z) = 0.07898 0.16563
#
# Static dielectric constant tensor:
#      x y z
#    x 3.887670 0.000000 0.025090 
#    y 0.000000 3.934020 0.000000 
#    z 0.025090 0.000000 4.310520 
# 
# 
# High freq. dielectric constant tensor:
#      x y z
#    x 1.873040 0.000000 0.007450 
#    y 0.000000 1.871790 0.000000 
#    z 0.007450 0.000000 1.905080 
# 
# From -- ./inp_files/105320.got.cif
#   From: 2010.06.25/outbox.cif.g09.slc.cpg/sg15_53_cif.got.tgz:105320.got - 2010.06.28 07:06:18.
