data_PCOD8148748
_publ_section_title
;
Structure prediction by ZEFSAII (Michael W. Deem and Ramdas Pophale) SiO2 
 PCOD8148748
Probable space group: C 2/C
;
_chemical_formula_sum "Si O2"
_cell_formula_units_Z 40
_cell_length_a 5.204219
_cell_length_b 15.090571
_cell_length_c 21.476316
_cell_angle_alpha 90.000000
_cell_angle_beta 103.635257
_cell_angle_gamma 90.000000
_cell_volume 1639.098760
_symmetry_space_group_name_H-M "C 2/C"
_symmetry_group_IT_number 15
_symmetry_cell_setting 'monoclinic'
loop_
_space_group_symop_operation_xyz
x,y,z
-x,y,1/2-z
-x,-y,-z
x,-y,1/2+z
1/2+x,1/2+y,z
1/2-x,1/2+y,1/2-z
1/2-x,1/2-y,-z
1/2+x,1/2-y,1/2+z
loop_
_atom_site_type_symbol
_atom_site_label
_atom_site_fract_x
_atom_site_fract_y
_atom_site_fract_z
Si Si1 0.000000 0.523469 0.250000
Si Si2 0.047516 0.909615 0.105429
Si Si3 0.855030 0.369945 0.319460
Si Si4 0.934871 0.896600 0.854360
Si Si5 0.983870 0.805453 0.984765
Si Si6 0.000000 0.784346 0.750000
O O1 0.208115 0.458350 0.225142
O O2 0.848801 0.587783 0.194035
O O3 0.831094 0.854581 0.131969
O O4 0.338690 0.881040 0.143220
O O5 0.959300 0.010584 0.113774
O O6 0.019975 0.891920 0.030392
O O7 0.799640 0.282703 0.273934
O O8 0.906070 0.830936 0.910571
O O9 0.119421 0.849291 0.811485
O O10 0.250000 0.750000 0.000000
O O11 0.750000 0.750000 0.000000
#
# Coordination Sequence:
#
# PCOD8148748 Si02
#       6
#     4   8   8   8   8   4
#     4   9  22  42  66 101 136 176 224 277 340 404
#     4  11  23  46  69  97 131 176 225 277 333 394
#     4  10  23  42  69  96 134 173 218 276 334 398
#     4  11  24  42  69 102 138 180 227 280 338 411
#     4  12  27  47  70 100 136 180 231 285 341 402
#     4  11  22  38  62  99 134 174 216 267 334 400
#
# _framework density 24.403654
#
# number of rings (size 3 to 8) (size 9 to 14) (size 15 to 20)
#    0.000    1.200    0.000    5.400    0.000   14.400 
#    0.000    7.000    0.000    0.000    0.000    0.000 
#    0.000    0.000    0.000    0.000    0.000    0.000 
#
# Total GULP energy -247815.543142 kJ/mol
# GULP energy per Si atom -12390.777157 kJ/mol
# Density = 2.434811 g / cm^3
# Si number density = 24.403654 Si / 1000 Ang^3
#
#
#
# Elastic Constant Matrix: (Units=GPa)
#
#
# Indices 1 2 3 4 5 6 
#
# 1 129.4774 37.5976 50.9322 0.0000 -13.2933 0.0000
# 2 37.5976 153.4488 81.7544 0.0000 -6.9663 0.0000
# 3 50.9322 81.7544 202.3751 0.0000 -28.1445 0.0000
# 4 0.0000 0.0000 0.0000 62.3447 0.0000 -11.2657
# 5 -13.2933 -6.9663 -28.1445 0.0000 40.0461 0.0000
# 6 0.0000 0.0000 0.0000 -11.2657 0.0000 12.3487
#
#
#
# Elastic Compliance Matrix: (Units=1/GPa)
#
#
# Indices 1 2 3 4 5 6 
#
# 1 0.008853 -0.001313 -0.001464 0.000000 0.001682 0.000000
# 2 -0.001313 0.008536 -0.003294 0.000000 -0.001266 0.000000
# 3 -0.001464 -0.003294 0.007197 0.000000 0.003999 0.000000
# 4 0.000000 0.000000 0.000000 0.019206 0.000000 0.017521
# 5 0.001682 -0.001266 0.003999 0.000000 0.028120 0.000000
# 6 0.000000 0.000000 0.000000 0.017521 0.000000 0.096965
#
#
# Mechanical properties :
#
#
# Convention : Reuss Voigt Hill
#
# Bulk Modulus (GPa) = 80.35876 91.76329 86.06103
# Shear Modulus (GPa) = 27.00291 43.94904 35.47597
#
# Velocity S-wave (km/s) = 3.33003 4.24833 3.81690
# Velocity P-wave (km/s) = 6.91274 7.85801 7.40048
#
# Compressibility (1/GPa) = 0.01244419
#
# Stress axis : x y z
#
# Youngs Moduli (GPa) = 112.95518 117.15086 138.95613
#
# Poissons Ratio (x) = 0.15381 0.20341
# Poissons Ratio (y) = 0.14830 0.45772
# Poissons Ratio (z) = 0.16535 0.38589
#
# Static dielectric constant tensor:
#      x y z
#    x 3.993420 0.000000 -0.395400 
#    y 0.000000 4.816640 0.000000 
#    z -0.395400 0.000000 4.916410 
# 
# 
# High freq. dielectric constant tensor:
#      x y z
#    x 1.945150 0.000000 -0.024870 
#    y 0.000000 1.987190 0.000000 
#    z -0.024870 0.000000 1.983750 
# 
# From -- ./inp_files/260485.got.cif
#   From: 2010.06.25/outbox.cif.g09.slc.cpg/sg15_131_cif.got.tgz:260485.got - 2010.06.28 07:06:18.
