data_PCOD8148332
_publ_section_title
;
Structure prediction by ZEFSAII (Michael W. Deem and Ramdas Pophale) SiO2 
 PCOD8148332
Probable space group: C 2/C
;
_chemical_formula_sum "Si O2"
_cell_formula_units_Z 32
_cell_length_a 29.708643
_cell_length_b 9.558884
_cell_length_c 9.347980
_cell_angle_alpha 90.000000
_cell_angle_beta 26.295373
_cell_angle_gamma 90.000000
_cell_volume 1176.008128
_symmetry_space_group_name_H-M "C 2/C"
_symmetry_group_IT_number 15
_symmetry_cell_setting 'monoclinic'
loop_
_space_group_symop_operation_xyz
x,y,z
-x,y,1/2-z
-x,-y,-z
x,-y,1/2+z
1/2+x,1/2+y,z
1/2-x,1/2+y,1/2-z
1/2-x,1/2-y,-z
1/2+x,1/2-y,1/2+z
loop_
_atom_site_type_symbol
_atom_site_label
_atom_site_fract_x
_atom_site_fract_y
_atom_site_fract_z
Si Si1 0.714512 0.475637 0.192168
Si Si2 0.500000 0.491780 0.250000
Si Si3 0.864277 0.214934 0.261550
Si Si4 0.500000 0.048962 0.250000
Si Si5 0.170467 0.396227 0.893261
O O1 0.597001 0.419225 0.529360
O O2 0.716109 0.637490 0.118831
O O3 0.718306 0.125216 0.099447
O O4 0.759275 0.488915 0.223818
O O5 0.461385 0.390414 0.490110
O O6 0.824070 0.246498 0.538501
O O7 0.907269 0.365120 0.084722
O O8 0.554551 0.950314 0.212721
#
# Coordination Sequence:
#
# PCOD8148332 Si02
#       5
#     8   4   8   4   8
#     4  10  23  40  69  93 129 177 216 261 327 393
#     4   7  20  42  64  85 124 189 204 242 332 411
#     4   9  20  42  65  88 132 180 205 257 337 390
#     4  11  22  38  68  97 132 167 224 270 308 391
#     4  12  22  37  69 103 125 169 226 266 317 386
#
# _framework density 27.210698000000001
#
# number of rings (size 3 to 8) (size 9 to 14) (size 15 to 20)
#    1.500    0.500    2.500    1.500    0.000    1.000 
#    0.000    1.250    5.500    0.000    0.000    0.000 
#    0.000    0.000    0.000    0.000    0.000    0.000 
#
# Total GULP energy -198276.689827 kJ/mol
# GULP energy per Si atom -12392.293114 kJ/mol
# Density = 2.714876 g / cm^3
# Si number density = 27.210698 Si / 1000 Ang^3
#
#
#
# Elastic Constant Matrix: (Units=GPa)
#
#
# Indices 1 2 3 4 5 6 
#
# 1 99.9834 -5.5332 32.5449 0.0000 -30.8363 0.0000
# 2 -5.5332 52.9849 -6.5321 0.0000 -23.4393 0.0000
# 3 32.5449 -6.5321 110.9458 0.0000 -34.8358 0.0000
# 4 0.0000 0.0000 0.0000 11.3496 0.0000 -10.3754
# 5 -30.8363 -23.4393 -34.8358 0.0000 59.4136 0.0000
# 6 0.0000 0.0000 0.0000 -10.3754 0.0000 28.6078
#
#
#
# Elastic Compliance Matrix: (Units=1/GPa)
#
#
# Indices 1 2 3 4 5 6 
#
# 1 0.013100 0.004832 -0.001011 0.000000 0.008113 0.000000
# 2 0.004832 0.027295 0.005341 0.000000 0.016408 0.000000
# 3 -0.001011 0.005341 0.012405 0.000000 0.008856 0.000000
# 4 0.000000 0.000000 0.000000 0.131811 0.000000 0.047805
# 5 0.008113 0.016408 0.008856 0.000000 0.032708 0.000000
# 6 0.000000 0.000000 0.000000 0.047805 0.000000 0.052293
#
#
# Mechanical properties :
#
#
# Convention : Reuss Voigt Hill
#
# Bulk Modulus (GPa) = 14.05953 33.87482 23.96718
# Shear Modulus (GPa) = 18.18210 36.10314 27.14262
#
# Velocity S-wave (km/s) = 2.58775 3.64648 3.16175
# Velocity P-wave (km/s) = 3.75590 5.49592 4.70701
#
# Compressibility (1/GPa) = 0.07112611
#
# Stress axis : x y z
#
# Youngs Moduli (GPa) = 76.33418 36.63674 80.61163
#
# Poissons Ratio (x) = -0.17704 0.08150
# Poissons Ratio (y) = -0.36887 -0.43058
# Poissons Ratio (z) = 0.07717 -0.19569
#
# Static dielectric constant tensor:
#      x y z
#    x 4.680100 0.000000 -0.028230 
#    y 0.000000 4.571530 0.000000 
#    z -0.028230 0.000000 4.856730 
# 
# 
# High freq. dielectric constant tensor:
#      x y z
#    x 2.080320 0.000000 -0.003440 
#    y 0.000000 2.093420 0.000000 
#    z -0.003440 0.000000 2.112880 
# 
# From -- ./inp_files/102578.got.cif
#   From: 2010.06.25/outbox.cif.g09.slc.cpg/sg15_52_cif.got.tgz:102578.got - 2010.06.28 07:06:18.
