data_PCOD8148257
_publ_section_title
;
Structure prediction by ZEFSAII (Michael W. Deem and Ramdas Pophale) SiO2 
 PCOD8148257
Probable space group: C 2/C
;
_chemical_formula_sum "Si O2"
_cell_formula_units_Z 32
_cell_length_a 8.981470
_cell_length_b 8.593777
_cell_length_c 22.269464
_cell_angle_alpha 90.000000
_cell_angle_beta 56.050839
_cell_angle_gamma 90.000000
_cell_volume 1425.854322
_symmetry_space_group_name_H-M "C 2/C"
_symmetry_group_IT_number 15
_symmetry_cell_setting 'monoclinic'
loop_
_space_group_symop_operation_xyz
x,y,z
-x,y,1/2-z
-x,-y,-z
x,-y,1/2+z
1/2+x,1/2+y,z
1/2-x,1/2+y,1/2-z
1/2-x,1/2-y,-z
1/2+x,1/2-y,1/2+z
loop_
_atom_site_type_symbol
_atom_site_label
_atom_site_fract_x
_atom_site_fract_y
_atom_site_fract_z
Si Si1 0.637866 0.779734 0.965512
Si Si2 0.299068 0.807818 0.779848
Si Si3 0.125923 0.124823 0.850183
Si Si4 0.772757 0.622809 0.591253
O O1 0.693487 0.651200 0.903203
O O2 0.676434 0.943939 0.926186
O O3 0.750000 0.750000 0.000000
O O4 0.426780 0.768059 0.028088
O O5 0.500000 0.865285 0.750000
O O6 0.279850 0.746737 0.716208
O O7 0.245345 0.663187 0.834306
O O8 0.163555 0.949745 0.820722
O O9 0.913656 0.157606 0.899675
#
# Coordination Sequence:
#
# PCOD8148257 Si02
#       4
#     8   8   8   8
#     4  11  24  40  64  94 126 164 206 253 309 369
#     4  10  23  40  64  93 122 161 207 258 309 363
#     4  11  23  42  65  90 125 163 206 255 309 367
#     4  10  23  42  62  91 126 161 206 255 308 366
#
# _framework density 22.442684
#
# number of rings (size 3 to 8) (size 9 to 14) (size 15 to 20)
#    0.000    1.500    0.000    3.750    0.000   16.000 
#    0.000    0.000    0.000    0.000    0.000    0.000 
#    0.000    0.000    0.000    0.000    0.000    0.000 
#
# Total GULP energy -198442.048982 kJ/mol
# GULP energy per Si atom -12402.628061 kJ/mol
# Density = 2.239160 g / cm^3
# Si number density = 22.442684 Si / 1000 Ang^3
#
#
#
# Elastic Constant Matrix: (Units=GPa)
#
#
# Indices 1 2 3 4 5 6 
#
# 1 110.0625 50.3189 85.2130 0.0000 17.2000 0.0000
# 2 50.3189 85.2706 54.8355 0.0000 -3.4875 0.0000
# 3 85.2130 54.8355 153.4014 0.0000 9.3602 0.0000
# 4 0.0000 0.0000 0.0000 43.5833 0.0000 -1.2533
# 5 17.2000 -3.4875 9.3602 0.0000 34.3924 0.0000
# 6 0.0000 0.0000 0.0000 -1.2533 0.0000 28.6710
#
#
#
# Elastic Compliance Matrix: (Units=1/GPa)
#
#
# Indices 1 2 3 4 5 6 
#
# 1 0.019706 -0.006830 -0.007994 0.000000 -0.008372 0.000000
# 2 -0.006830 0.017922 -0.002981 0.000000 0.006045 0.000000
# 3 -0.007994 -0.002981 0.011999 0.000000 0.000430 0.000000
# 4 0.000000 0.000000 0.000000 0.022973 0.000000 0.001004
# 5 -0.008372 0.006045 0.000430 0.000000 0.033759 0.000000
# 6 0.000000 0.000000 0.000000 0.001004 0.000000 0.034922
#
#
# Mechanical properties :
#
#
# Convention : Reuss Voigt Hill
#
# Bulk Modulus (GPa) = 71.34674 81.05215 76.19944
# Shear Modulus (GPa) = 27.53827 31.88715 29.71271
#
# Velocity S-wave (km/s) = 3.50673 3.77347 3.64254
# Velocity P-wave (km/s) = 6.94664 7.42826 7.19148
#
# Compressibility (1/GPa) = 0.01401606
#
# Stress axis : x y z
#
# Youngs Moduli (GPa) = 50.74598 55.79605 83.34080
#
# Poissons Ratio (x) = 0.38110 0.66623
# Poissons Ratio (y) = 0.34661 0.24846
# Poissons Ratio (z) = 0.40567 0.16634
#
# Static dielectric constant tensor:
#      x y z
#    x 3.913780 0.000000 -0.151540 
#    y 0.000000 3.752730 0.000000 
#    z -0.151540 0.000000 4.423340 
# 
# 
# High freq. dielectric constant tensor:
#      x y z
#    x 1.873960 0.000000 -0.003280 
#    y 0.000000 1.875540 0.000000 
#    z -0.003280 0.000000 1.910190 
# 
# From -- ./inp_files/229161.got.cif
#   From: 2010.06.25/outbox.cif.g09.slc.cpg/sg15_115_cif.got.tgz:229161.got - 2010.06.28 07:06:18.
