data_PCOD8148150
_publ_section_title
;
Structure prediction by ZEFSAII (Michael W. Deem and Ramdas Pophale) SiO2 
 PCOD8148150
Probable space group: C 2/C
;
_chemical_formula_sum "Si O2"
_cell_formula_units_Z 48
_cell_length_a 24.488164
_cell_length_b 7.071859
_cell_length_c 13.713787
_cell_angle_alpha 90.000000
_cell_angle_beta 92.807816
_cell_angle_gamma 90.000000
_cell_volume 2372.059173
_symmetry_space_group_name_H-M "C 2/C"
_symmetry_group_IT_number 15
_symmetry_cell_setting 'monoclinic'
loop_
_space_group_symop_operation_xyz
x,y,z
-x,y,1/2-z
-x,-y,-z
x,-y,1/2+z
1/2+x,1/2+y,z
1/2-x,1/2+y,1/2-z
1/2-x,1/2-y,-z
1/2+x,1/2-y,1/2+z
loop_
_atom_site_type_symbol
_atom_site_label
_atom_site_fract_x
_atom_site_fract_y
_atom_site_fract_z
Si Si1 0.053516 0.888879 0.402484
Si Si2 0.625304 0.392952 0.229726
Si Si3 0.199148 0.583067 0.336459
Si Si4 0.809912 0.257245 0.309680
Si Si5 0.625079 0.912130 0.008338
Si Si6 0.939987 0.223077 0.955664
O O1 0.071426 0.909638 0.292108
O O2 0.099016 0.781446 0.469128
O O3 0.996672 0.773607 0.400507
O O4 0.049342 0.098260 0.447284
O O5 0.661315 0.218658 0.268914
O O6 0.658335 0.586890 0.239292
O O7 0.607646 0.360941 0.116658
O O8 0.210393 0.391616 0.278621
O O9 0.257260 0.681022 0.363730
O O10 0.171625 0.524380 0.436156
O O11 0.848634 0.375609 0.384492
O O12 0.577533 0.068438 0.012278
#
# Coordination Sequence:
#
# PCOD8148150 Si02
#       6
#     8   8   8   8   8   8
#     4  10  23  39  63  89 124 159 202 248 300 362
#     4  11  22  40  62  88 122 163 201 250 300 361
#     4  11  24  40  62  90 122 159 207 249 305 359
#     4  12  22  42  62  90 123 162 204 250 304 360
#     4  11  23  40  63  92 122 159 202 254 301 359
#     4  11  21  41  63  90 121 160 201 249 304 359
#
# _framework density 20.235582999999998
#
# number of rings (size 3 to 8) (size 9 to 14) (size 15 to 20)
#    0.000    1.000    5.000    2.500    0.000    0.000 
#    0.000    1.667    0.000    0.000    0.000    0.000 
#    0.000    0.000    0.000    0.000    0.000    0.000 
#
# Total GULP energy -297732.657987 kJ/mol
# GULP energy per Si atom -12405.527416 kJ/mol
# Density = 2.018953 g / cm^3
# Si number density = 20.235583 Si / 1000 Ang^3
#
#
#
# Elastic Constant Matrix: (Units=GPa)
#
#
# Indices 1 2 3 4 5 6 
#
# 1 100.7940 23.9678 13.8426 0.0000 -25.1110 0.0000
# 2 23.9678 70.8386 24.5636 0.0000 -15.1609 0.0000
# 3 13.8426 24.5636 59.3474 0.0000 -14.0645 0.0000
# 4 0.0000 0.0000 0.0000 25.0333 0.0000 -0.2401
# 5 -25.1110 -15.1609 -14.0645 0.0000 34.2232 0.0000
# 6 0.0000 0.0000 0.0000 -0.2401 0.0000 43.0950
#
#
#
# Elastic Compliance Matrix: (Units=1/GPa)
#
#
# Indices 1 2 3 4 5 6 
#
# 1 0.012532 -0.002521 0.000039 0.000000 0.008094 0.000000
# 2 -0.002521 0.017794 -0.005924 0.000000 0.003598 0.000000
# 3 0.000039 -0.005924 0.020693 0.000000 0.005908 0.000000
# 4 0.000000 0.000000 0.000000 0.039949 0.000000 0.000223
# 5 0.008094 0.003598 0.005908 0.000000 0.039181 0.000000
# 6 0.000000 0.000000 0.000000 0.000223 0.000000 0.023206
#
#
# Mechanical properties :
#
#
# Convention : Reuss Voigt Hill
#
# Bulk Modulus (GPa) = 29.23484 39.52534 34.38009
# Shear Modulus (GPa) = 27.53767 31.71072 29.62419
#
# Velocity S-wave (km/s) = 3.69298 3.96293 3.83033
# Velocity P-wave (km/s) = 5.71513 6.36512 6.04886
#
# Compressibility (1/GPa) = 0.03420577
#
# Stress axis : x y z
#
# Youngs Moduli (GPa) = 79.79589 56.19905 48.32561
#
# Poissons Ratio (x) = 0.14169 -0.00187
# Poissons Ratio (y) = 0.20118 0.28628
# Poissons Ratio (z) = -0.00309 0.33292
#
# Static dielectric constant tensor:
#      x y z
#    x 3.724410 0.000000 -0.152070 
#    y 0.000000 3.568990 0.000000 
#    z -0.152070 0.000000 3.520040 
# 
# 
# High freq. dielectric constant tensor:
#      x y z
#    x 1.799820 0.000000 -0.005330 
#    y 0.000000 1.792180 0.000000 
#    z -0.005330 0.000000 1.785840 
# 
# From -- ./inp_files/116357.got.cif
#   From: 2010.06.25/outbox.cif.g09.slc.cpg/sg15_59_cif.got.tgz:116357.got - 2010.06.28 07:06:18.
