data_PCOD8148246
_publ_section_title
;
Structure prediction by ZEFSAII (Michael W. Deem and Ramdas Pophale) SiO2 
 PCOD8148246
Probable space group: C 2/C
;
_chemical_formula_sum "Si O2"
_cell_formula_units_Z 32
_cell_length_a 11.817616
_cell_length_b 25.300307
_cell_length_c 5.149528
_cell_angle_alpha 90.000000
_cell_angle_beta 74.406029
_cell_angle_gamma 90.000000
_cell_volume 1482.980502
_symmetry_space_group_name_H-M "C 2/C"
_symmetry_group_IT_number 15
_symmetry_cell_setting 'monoclinic'
loop_
_space_group_symop_operation_xyz
x,y,z
-x,y,1/2-z
-x,-y,-z
x,-y,1/2+z
1/2+x,1/2+y,z
1/2-x,1/2+y,1/2-z
1/2-x,1/2-y,-z
1/2+x,1/2-y,1/2+z
loop_
_atom_site_type_symbol
_atom_site_label
_atom_site_fract_x
_atom_site_fract_y
_atom_site_fract_z
Si Si1 0.573601 0.231336 0.945731
Si Si2 0.371223 0.347253 0.742008
Si Si3 0.268234 0.134093 0.655629
Si Si4 0.631596 0.976548 0.418912
O O1 0.500000 0.207055 0.750000
O O2 0.632842 0.284475 0.802680
O O3 0.670252 0.188550 0.965110
O O4 0.500000 0.244970 0.250000
O O5 0.500000 0.366355 0.750000
O O6 0.332806 0.376137 0.498382
O O7 0.282155 0.362149 0.025148
O O8 0.363956 0.086968 0.586447
O O9 0.500000 0.000000 0.500000
O O10 0.698740 0.999785 0.627976
#
# Coordination Sequence:
#
# PCOD8148246 Si02
#       4
#     8   8   8   8
#     4  11  23  37  62  97 138 166 215 263 319 395
#     4  11  23  42  61  93 129 174 226 263 298 383
#     4  12  23  39  69  90 130 180 208 260 341 373
#     4  10  23  40  63  92 131 155 207 268 326 390
#
# _framework density 21.578168000000002
#
# number of rings (size 3 to 8) (size 9 to 14) (size 15 to 20)
#    0.000    1.000    0.000    8.250    7.000    0.000 
#    0.000    0.000    0.000   15.000    0.000    0.000 
#    0.000    0.000    0.000    0.000    0.000    0.000 
#
# Total GULP energy -198359.973054 kJ/mol
# GULP energy per Si atom -12397.498316 kJ/mol
# Density = 2.152905 g / cm^3
# Si number density = 21.578168 Si / 1000 Ang^3
#
#
#
# Elastic Constant Matrix: (Units=GPa)
#
#
# Indices 1 2 3 4 5 6 
#
# 1 85.7039 42.3884 38.0958 0.0000 9.1511 0.0000
# 2 42.3884 99.5864 38.8914 0.0000 -5.5061 0.0000
# 3 38.0958 38.8914 159.9068 0.0000 31.6717 0.0000
# 4 0.0000 0.0000 0.0000 24.2998 0.0000 -4.4475
# 5 9.1511 -5.5061 31.6717 0.0000 35.0918 0.0000
# 6 0.0000 0.0000 0.0000 -4.4475 0.0000 30.5008
#
#
#
# Elastic Compliance Matrix: (Units=1/GPa)
#
#
# Indices 1 2 3 4 5 6 
#
# 1 0.015898 -0.006402 -0.001474 0.000000 -0.003820 0.000000
# 2 -0.006402 0.014473 -0.003379 0.000000 0.006990 0.000000
# 3 -0.001474 -0.003379 0.009078 0.000000 -0.008339 0.000000
# 4 0.000000 0.000000 0.000000 0.042281 0.000000 0.006165
# 5 -0.003820 0.006990 -0.008339 0.000000 0.038116 0.000000
# 6 0.000000 0.000000 0.000000 0.006165 0.000000 0.033685
#
#
# Mechanical properties :
#
#
# Convention : Reuss Voigt Hill
#
# Bulk Modulus (GPa) = 59.03789 64.88315 61.96052
# Shear Modulus (GPa) = 27.51972 33.03325 30.27648
#
# Velocity S-wave (km/s) = 3.57508 3.91687 3.74987
# Velocity P-wave (km/s) = 6.66791 7.11266 6.89387
#
# Compressibility (1/GPa) = 0.01693828
#
# Stress axis : x y z
#
# Youngs Moduli (GPa) = 62.90249 69.09467 110.15259
#
# Poissons Ratio (x) = 0.44238 0.16232
# Poissons Ratio (y) = 0.40273 0.37223
# Poissons Ratio (z) = 0.09269 0.23349
#
# Static dielectric constant tensor:
#      x y z
#    x 2.466170 0.000000 -4.115760 
#    y 0.000000 3.681860 0.000000 
#    z -4.115760 0.000000 -9.685650 
# 
# 
# High freq. dielectric constant tensor:
#      x y z
#    x 1.830800 0.000000 0.028310 
#    y 0.000000 1.828470 0.000000 
#    z 0.028310 0.000000 1.875540 
# 
# From -- ./inp_files/3966.got.cif
#   From: 2010.06.25/outbox.cif.g09.slc.cpg/sg15_2_cif.got.tgz:3966.got - 2010.06.28 07:06:18.
