data_PCOD8148446
_publ_section_title
;
Structure prediction by ZEFSAII (Michael W. Deem and Ramdas Pophale) SiO2 
 PCOD8148446
Probable space group: C 2/C
;
_chemical_formula_sum "Si O2"
_cell_formula_units_Z 64
_cell_length_a 10.509236
_cell_length_b 14.351657
_cell_length_c 19.601456
_cell_angle_alpha 90.000000
_cell_angle_beta 90.584953
_cell_angle_gamma 90.000000
_cell_volume 2956.234557
_symmetry_space_group_name_H-M "C 2/C"
_symmetry_group_IT_number 15
_symmetry_cell_setting 'monoclinic'
loop_
_space_group_symop_operation_xyz
x,y,z
-x,y,1/2-z
-x,-y,-z
x,-y,1/2+z
1/2+x,1/2+y,z
1/2-x,1/2+y,1/2-z
1/2-x,1/2-y,-z
1/2+x,1/2-y,1/2+z
loop_
_atom_site_type_symbol
_atom_site_label
_atom_site_fract_x
_atom_site_fract_y
_atom_site_fract_z
Si Si1 0.023657 0.594570 0.823939
Si Si2 0.803393 0.499333 0.888602
Si Si3 0.676590 0.468935 0.527686
Si Si4 0.442547 0.809427 0.897021
Si Si5 0.334585 0.086455 0.154142
Si Si6 0.176915 0.759709 0.866194
Si Si7 0.055899 0.845788 0.994920
Si Si8 0.136970 0.912619 0.769317
O O1 0.086745 0.494994 0.809351
O O2 0.118902 0.657149 0.869427
O O3 0.000000 0.640720 0.750000
O O4 0.893991 0.583620 0.865648
O O5 0.888910 0.412376 0.915428
O O6 0.713309 0.475578 0.823784
O O7 0.720015 0.538884 0.949621
O O8 0.791418 0.447487 0.579131
O O9 0.570182 0.389622 0.539497
O O10 0.622241 0.573287 0.541026
O O11 0.571572 0.823869 0.853433
O O12 0.329990 0.756383 0.854959
O O13 0.477983 0.746209 0.962179
O O14 0.214948 0.108415 0.200919
O O15 0.109693 0.813097 0.803718
O O16 0.153730 0.815705 0.936376
O O17 0.000000 0.958569 0.750000
#
# Coordination Sequence:
#
# PCOD8148446 Si02
#       8
#     8   8   8   8   8   8   8   8
#     4  11  23  42  68  99 132 173 229 277 325 409
#     4  10  23  43  68  96 131 175 222 275 333 399
#     4  11  24  42  66  97 135 176 221 280 336 402
#     4  10  23  41  65  96 130 173 215 280 331 397
#     4  11  25  41  71  98 134 177 225 276 340 401
#     4  11  23  41  68  95 132 177 223 274 339 403
#     4  11  23  42  65  98 135 171 224 278 337 402
#     4  11  22  44  69  93 134 180 220 271 341 402
#
# _framework density 21.649163000000001
#
# number of rings (size 3 to 8) (size 9 to 14) (size 15 to 20)
#    0.000    1.250    3.750    2.250    5.250    1.500 
#    4.500    0.000    0.000    0.000    0.000    0.000 
#    0.000    0.000    0.000    0.000    0.000    0.000 
#
# Total GULP energy -396762.931914 kJ/mol
# GULP energy per Si atom -12398.841622 kJ/mol
# Density = 2.159989 g / cm^3
# Si number density = 21.649163 Si / 1000 Ang^3
#
#
#
# Elastic Constant Matrix: (Units=GPa)
#
#
# Indices 1 2 3 4 5 6 
#
# 1 139.9689 42.9023 50.9159 0.0000 -7.6518 0.0000
# 2 42.9023 83.6086 35.8083 0.0000 0.1589 0.0000
# 3 50.9159 35.8083 104.2380 0.0000 -6.7619 0.0000
# 4 0.0000 0.0000 0.0000 25.8879 0.0000 0.9555
# 5 -7.6518 0.1589 -6.7619 0.0000 39.8890 0.0000
# 6 0.0000 0.0000 0.0000 0.9555 0.0000 32.4477
#
#
#
# Elastic Compliance Matrix: (Units=1/GPa)
#
#
# Indices 1 2 3 4 5 6 
#
# 1 0.009492 -0.003427 -0.003378 0.000000 0.001262 0.000000
# 2 -0.003427 0.015292 -0.003666 0.000000 -0.001340 0.000000
# 3 -0.003378 -0.003666 0.012600 0.000000 0.001503 0.000000
# 4 0.000000 0.000000 0.000000 0.038670 0.000000 -0.001139
# 5 0.001262 -0.001340 0.001503 0.000000 0.025572 0.000000
# 6 0.000000 0.000000 0.000000 -0.001139 0.000000 0.030852
#
#
# Mechanical properties :
#
#
# Convention : Reuss Voigt Hill
#
# Bulk Modulus (GPa) = 60.81539 65.22983 63.02261
# Shear Modulus (GPa) = 31.46630 32.85754 32.16192
#
# Velocity S-wave (km/s) = 3.81657 3.90003 3.85852
# Velocity P-wave (km/s) = 6.89739 7.10466 7.00179
#
# Compressibility (1/GPa) = 0.01644321
#
# Stress axis : x y z
#
# Youngs Moduli (GPa) = 105.34710 65.39565 79.36411
#
# Poissons Ratio (x) = 0.22409 0.26806
# Poissons Ratio (y) = 0.36099 0.29096
# Poissons Ratio (z) = 0.35583 0.23975
#
# Static dielectric constant tensor:
#      x y z
#    x 4.035190 0.000000 -0.069900 
#    y 0.000000 3.752290 0.000000 
#    z -0.069900 0.000000 3.737350 
# 
# 
# High freq. dielectric constant tensor:
#      x y z
#    x 1.862820 0.000000 0.002210 
#    y 0.000000 1.832580 0.000000 
#    z 0.002210 0.000000 1.842650 
# 
# From -- ./inp_files/198326.got.cif
#   From: 2010.06.25/outbox.cif.g09.slc.cpg/sg15_100_cif.got.tgz:198326.got - 2010.06.28 07:06:18.
