data_PCOD8148510
_publ_section_title
;
Structure prediction by ZEFSAII (Michael W. Deem and Ramdas Pophale) SiO2 
 PCOD8148510
Probable space group: C 2/C
;
_chemical_formula_sum "Si O2"
_cell_formula_units_Z 56
_cell_length_a 8.754253
_cell_length_b 17.746394
_cell_length_c 19.934323
_cell_angle_alpha 90.000000
_cell_angle_beta 120.929557
_cell_angle_gamma 90.000000
_cell_volume 2656.541969
_symmetry_space_group_name_H-M "C 2/C"
_symmetry_group_IT_number 15
_symmetry_cell_setting 'monoclinic'
loop_
_space_group_symop_operation_xyz
x,y,z
-x,y,1/2-z
-x,-y,-z
x,-y,1/2+z
1/2+x,1/2+y,z
1/2-x,1/2+y,1/2-z
1/2-x,1/2-y,-z
1/2+x,1/2-y,1/2+z
loop_
_atom_site_type_symbol
_atom_site_label
_atom_site_fract_x
_atom_site_fract_y
_atom_site_fract_z
Si Si1 0.000000 0.742523 0.750000
Si Si2 0.862460 0.186601 0.489091
Si Si3 0.157944 0.858708 0.161101
Si Si4 0.383190 0.948296 0.552398
Si Si5 0.688869 0.985687 0.825114
Si Si6 0.500000 0.416877 0.250000
Si Si7 0.560560 0.649453 0.138745
Si Si8 0.770607 0.972300 0.609290
O O1 0.163027 0.689139 0.807862
O O2 0.061389 0.794004 0.701679
O O3 0.750000 0.250000 0.500000
O O4 0.711415 0.126077 0.444769
O O5 0.941496 0.198889 0.431103
O O6 0.026627 0.164604 0.572586
O O7 0.075390 0.852871 0.216363
O O8 0.178204 0.949238 0.167000
O O9 0.337311 0.004999 0.602068
O O10 0.594281 0.932394 0.598462
O O11 0.296498 0.973334 0.464076
O O12 0.500000 0.995551 0.750000
O O13 0.767293 0.904710 0.820926
O O14 0.644491 0.473640 0.315373
O O15 0.390984 0.594229 0.106757
#
# Coordination Sequence:
#
# PCOD8148510 Si02
#       8
#     4   8   8   8   8   4   8   8
#     4  12  31  44  68 109 148 180 232 294 375 414
#     4  11  26  48  68  96 140 196 235 282 362 428
#     4  12  26  46  69 102 142 183 236 294 355 426
#     4  10  23  41  69 101 135 176 235 294 343 422
#     4  11  22  43  73 101 132 182 240 288 351 419
#     4  12  23  42  76 101 140 184 234 296 349 426
#     4  11  26  46  71 100 141 186 233 299 349 426
#     4  11  22  41  70 106 134 173 238 299 349 406
#
# _framework density 21.080034999999999
#
# number of rings (size 3 to 8) (size 9 to 14) (size 15 to 20)
#    0.000    0.857    3.571    2.143    6.000    4.000 
#    2.571    0.000    0.000    0.000    0.000    0.000 
#    0.000    0.000    0.000    0.000    0.000    0.000 
#
# Total GULP energy -346941.756272 kJ/mol
# GULP energy per Si atom -12390.777010 kJ/mol
# Density = 2.103206 g / cm^3
# Si number density = 21.080035 Si / 1000 Ang^3
#
#
#
# Elastic Constant Matrix: (Units=GPa)
#
#
# Indices 1 2 3 4 5 6 
#
# 1 103.1415 28.8930 56.5010 0.0000 -11.1073 0.0000
# 2 28.8930 71.5874 43.8231 0.0000 -5.0792 0.0000
# 3 56.5010 43.8231 147.1057 0.0000 -7.0027 0.0000
# 4 0.0000 0.0000 0.0000 744.4733 0.0001 458.1328
# 5 -11.1073 -5.0792 -7.0027 0.0001 44.5711 0.0000
# 6 0.0000 0.0000 0.0000 458.1328 0.0000 334.3782
#
#
#
# Elastic Compliance Matrix: (Units=1/GPa)
#
#
# Indices 1 2 3 4 5 6 
#
# 1 0.012891 -0.002540 -0.004086 0.000000 0.002281 0.000000
# 2 -0.002540 0.017644 -0.004247 0.000000 0.000711 0.000000
# 3 -0.004086 -0.004247 0.009633 0.000000 0.000011 0.000000
# 4 0.000000 0.000000 0.000000 0.008563 0.000000 -0.011732
# 5 0.002281 0.000711 0.000011 0.000000 0.023087 0.000000
# 6 0.000000 0.000000 0.000000 -0.011732 0.000000 0.019065
#
#
# Mechanical properties :
#
#
# Convention : Reuss Voigt Hill
#
# Bulk Modulus (GPa) = 54.28094 64.47429 59.37762
# Shear Modulus (GPa) = 42.09859 237.52567 139.81213
#
# Velocity S-wave (km/s) = 4.47372 10.62651 8.15282
# Velocity P-wave (km/s) = 7.24510 13.46163 10.80988
#
# Compressibility (1/GPa) = 0.01842267
#
# Stress axis : x y z
#
# Youngs Moduli (GPa) = 77.57462 56.67580 103.81061
#
# Poissons Ratio (x) = 0.14394 0.42417
# Poissons Ratio (y) = 0.19701 0.44088
# Poissons Ratio (z) = 0.31697 0.24070
#
# Static dielectric constant tensor:
#      x y z
#    x 4.206930 0.000000 -0.182040 
#    y 0.000000 6.348690 0.000000 
#    z -0.182040 0.000000 3.714180 
# 
# 
# High freq. dielectric constant tensor:
#      x y z
#    x 1.852580 0.000000 -0.008090 
#    y 0.000000 1.808880 0.000000 
#    z -0.008090 0.000000 1.842970 
# 
# From -- ./inp_files/232847.got.cif
#   From: 2010.06.25/outbox.cif.g09.slc.cpg/sg15_117_cif.got.tgz:232847.got - 2010.06.28 07:06:18.
