data_PCOD8148977
_publ_section_title
;
Structure prediction by ZEFSAII (Michael W. Deem and Ramdas Pophale) SiO2 
 PCOD8148977
Probable space group: C 2/C
;
_chemical_formula_sum "Si O2"
_cell_formula_units_Z 44
_cell_length_a 23.066854
_cell_length_b 6.340961
_cell_length_c 13.912491
_cell_angle_alpha 90.000000
_cell_angle_beta 88.995681
_cell_angle_gamma 90.000000
_cell_volume 2034.612097
_symmetry_space_group_name_H-M "C 2/C"
_symmetry_group_IT_number 15
_symmetry_cell_setting 'monoclinic'
loop_
_space_group_symop_operation_xyz
x,y,z
-x,y,1/2-z
-x,-y,-z
x,-y,1/2+z
1/2+x,1/2+y,z
1/2-x,1/2+y,1/2-z
1/2-x,1/2-y,-z
1/2+x,1/2-y,1/2+z
loop_
_atom_site_type_symbol
_atom_site_label
_atom_site_fract_x
_atom_site_fract_y
_atom_site_fract_z
Si Si1 0.524116 0.084546 0.599857
Si Si2 0.635506 0.678810 0.140214
Si Si3 0.500000 0.758770 0.750000
Si Si4 0.428099 0.398198 0.665744
Si Si5 0.164793 0.841042 0.985828
Si Si6 0.724592 0.053536 0.557484
O O1 0.581782 0.222489 0.581011
O O2 0.477552 0.223289 0.659116
O O3 0.500000 0.000000 0.500000
O O4 0.537818 0.891988 0.672263
O O5 0.617607 0.641872 0.249183
O O6 0.658491 0.466598 0.087058
O O7 0.688252 0.847611 0.146287
O O8 0.456852 0.623782 0.684674
O O9 0.394801 0.387220 0.566370
O O10 0.177525 0.593619 0.002450
O O11 0.218941 0.917420 0.917377
O O12 0.750000 0.250000 0.500000
#
# Coordination Sequence:
#
# PCOD8148977 Si02
#       6
#     8   8   4   8   8   8
#     4  12  25  42  67  97 135 182 220 280 346 407
#     4  11  22  42  63  97 132 166 228 276 330 413
#     4  12  24  44  62  96 146 168 228 284 324 428
#     4  12  25  42  63 105 133 174 231 268 357 414
#     4  10  23  43  69  93 130 179 215 286 342 406
#     4   9  21  45  65  93 129 168 226 273 338 408
#
# _framework density 21.625745999999999
#
# number of rings (size 3 to 8) (size 9 to 14) (size 15 to 20)
#    0.000    1.091    3.636    2.182    5.091    2.909 
#    9.818    0.000    0.000    0.000    0.000    0.000 
#    0.000    0.000    0.000    0.000    0.000    0.000 
#
# Total GULP energy -272608.427128 kJ/mol
# GULP energy per Si atom -12391.292142 kJ/mol
# Density = 2.157652 g / cm^3
# Si number density = 21.625746 Si / 1000 Ang^3
#
#
#
# Elastic Constant Matrix: (Units=GPa)
#
#
# Indices 1 2 3 4 5 6 
#
# 1 75.7824 37.2578 10.6881 0.0000 -19.3842 0.0000
# 2 37.2578 130.8831 39.4552 0.0000 -8.5646 0.0000
# 3 10.6881 39.4552 63.4612 0.0000 -19.6802 0.0000
# 4 0.0000 0.0000 0.0000 26.7643 0.0000 -2.2835
# 5 -19.3842 -8.5646 -19.6802 0.0000 42.4770 0.0000
# 6 0.0000 0.0000 0.0000 -2.2835 0.0000 45.0426
#
#
#
# Elastic Compliance Matrix: (Units=1/GPa)
#
#
# Indices 1 2 3 4 5 6 
#
# 1 0.017520 -0.005329 0.002929 0.000000 0.008278 0.000000
# 2 -0.005329 0.011056 -0.007053 0.000000 -0.003470 0.000000
# 3 0.002929 -0.007053 0.022915 0.000000 0.010532 0.000000
# 4 0.000000 0.000000 0.000000 0.037525 0.000000 0.001902
# 5 0.008278 -0.003470 0.010532 0.000000 0.031500 0.000000
# 6 0.000000 0.000000 0.000000 0.001902 0.000000 0.022298
#
#
# Mechanical properties :
#
#
# Convention : Reuss Voigt Hill
#
# Bulk Modulus (GPa) = 30.68688 49.43655 40.06172
# Shear Modulus (GPa) = 28.97215 35.03849 32.00532
#
# Velocity S-wave (km/s) = 3.66417 4.02956 3.85120
# Velocity P-wave (km/s) = 5.66765 6.67529 6.19200
#
# Compressibility (1/GPa) = 0.03258722
#
# Stress axis : x y z
#
# Youngs Moduli (GPa) = 57.07877 90.44689 43.63958
#
# Poissons Ratio (x) = 0.48195 -0.12783
# Poissons Ratio (y) = 0.30415 0.30777
# Poissons Ratio (z) = -0.16720 0.63788
#
# Static dielectric constant tensor:
#      x y z
#    x 4.321530 0.000000 -0.306010 
#    y 0.000000 4.299350 0.000000 
#    z -0.306010 0.000000 3.655340 
# 
# 
# High freq. dielectric constant tensor:
#      x y z
#    x 1.857790 0.000000 -0.025820 
#    y 0.000000 1.867190 0.000000 
#    z -0.025820 0.000000 1.826090 
# 
# From -- ./inp_files/170793.got.cif
#   From: 2010.06.25/outbox.cif.g09.slc.cpg/sg15_86_cif.got.tgz:170793.got - 2010.06.28 07:06:18.
