data_PCOD8148909
_publ_section_title
;
Structure prediction by ZEFSAII (Michael W. Deem and Ramdas Pophale) SiO2 
 PCOD8148909
Probable space group: C 2/C
;
_chemical_formula_sum "Si O2"
_cell_formula_units_Z 44
_cell_length_a 12.056981
_cell_length_b 22.414175
_cell_length_c 12.624215
_cell_angle_alpha 90.000000
_cell_angle_beta 144.042658
_cell_angle_gamma 90.000000
_cell_volume 2003.267806
_symmetry_space_group_name_H-M "C 2/C"
_symmetry_group_IT_number 15
_symmetry_cell_setting 'monoclinic'
loop_
_space_group_symop_operation_xyz
x,y,z
-x,y,1/2-z
-x,-y,-z
x,-y,1/2+z
1/2+x,1/2+y,z
1/2-x,1/2+y,1/2-z
1/2-x,1/2-y,-z
1/2+x,1/2-y,1/2+z
loop_
_atom_site_type_symbol
_atom_site_label
_atom_site_fract_x
_atom_site_fract_y
_atom_site_fract_z
Si Si1 0.500000 0.996403 0.250000
Si Si2 0.153040 0.052285 0.102623
Si Si3 0.500204 0.330118 0.124472
Si Si4 0.795514 0.928512 0.619376
Si Si5 0.623589 0.235235 0.618225
Si Si6 0.247549 0.202783 0.405758
O O1 0.613812 0.958150 0.424573
O O2 0.340104 0.035604 0.182438
O O3 0.233024 0.071951 0.277364
O O4 0.049603 0.106039 0.962566
O O5 0.000000 0.000000 0.000000
O O6 0.500000 0.334175 0.250000
O O7 0.707254 0.311664 0.244539
O O8 0.360304 0.277973 0.973320
O O9 0.803556 0.860777 0.583188
O O10 0.000000 0.959118 0.750000
O O11 0.434264 0.196254 0.476007
O O12 0.595286 0.276075 0.701400
O O13 0.250000 0.250000 0.500000
#
# Coordination Sequence:
#
# PCOD8148909 Si02
#       6
#     4   8   8   8   8   8
#     4  12  30  48  80 102 146 206 246 318 370 430
#     4  12  28  51  74 109 149 192 260 305 369 447
#     4  11  25  46  74 102 145 194 247 311 368 440
#     4  12  26  48  74 108 150 195 250 306 371 451
#     4  10  23  43  67 106 140 189 239 303 367 437
#     4  11  23  38  68 105 147 181 232 292 373 445
#
# _framework density 21.964112
#
# number of rings (size 3 to 8) (size 9 to 14) (size 15 to 20)
#    0.000    0.727    3.636    2.727   10.182    1.455 
#    1.636    0.000    0.000    0.000    0.000    0.000 
#    0.000    0.000    0.000    0.000    0.000    0.000 
#
# Total GULP energy -272681.428761 kJ/mol
# GULP energy per Si atom -12394.610398 kJ/mol
# Density = 2.191412 g / cm^3
# Si number density = 21.964112 Si / 1000 Ang^3
#
#
#
# Elastic Constant Matrix: (Units=GPa)
#
#
# Indices 1 2 3 4 5 6 
#
# 1 119.9574 58.3102 59.4492 0.0000 4.0127 0.0000
# 2 58.3102 125.4214 69.7785 0.0000 10.1402 0.0000
# 3 59.4492 69.7785 151.9634 0.0000 -12.2831 0.0000
# 4 0.0000 0.0000 0.0000 29.3021 0.0000 -1.2712
# 5 4.0127 10.1402 -12.2831 0.0000 55.7994 0.0000
# 6 0.0000 0.0000 0.0000 -1.2712 0.0000 31.1196
#
#
#
# Elastic Compliance Matrix: (Units=1/GPa)
#
#
# Indices 1 2 3 4 5 6 
#
# 1 0.011607 -0.003720 -0.002897 0.000000 -0.000796 0.000000
# 2 -0.003720 0.012449 -0.004502 0.000000 -0.002986 0.000000
# 3 -0.002897 -0.004502 0.010043 0.000000 0.003237 0.000000
# 4 0.000000 0.000000 0.000000 0.034188 0.000000 0.001397
# 5 -0.000796 -0.002986 0.003237 0.000000 0.019234 0.000000
# 6 0.000000 0.000000 0.000000 0.001397 0.000000 0.032191
#
#
# Mechanical properties :
#
#
# Convention : Reuss Voigt Hill
#
# Bulk Modulus (GPa) = 84.31658 85.82422 85.07040
# Shear Modulus (GPa) = 34.26922 37.23115 35.75019
#
# Velocity S-wave (km/s) = 3.95427 4.12161 4.03881
# Velocity P-wave (km/s) = 7.70195 7.86192 7.78235
#
# Compressibility (1/GPa) = 0.01186006
#
# Stress axis : x y z
#
# Youngs Moduli (GPa) = 86.15561 80.32813 99.57360
#
# Poissons Ratio (x) = 0.29883 0.28845
# Poissons Ratio (y) = 0.32051 0.44831
# Poissons Ratio (z) = 0.24958 0.36166
#
# Static dielectric constant tensor:
#      x y z
#    x 4.039360 0.000000 0.053240 
#    y 0.000000 3.913840 0.000000 
#    z 0.053240 0.000000 4.382340 
# 
# 
# High freq. dielectric constant tensor:
#      x y z
#    x 1.872030 0.000000 0.000800 
#    y 0.000000 1.857270 0.000000 
#    z 0.000800 0.000000 1.886760 
# 
# From -- ./inp_files/91359.got.cif
#   From: 2010.06.25/outbox.cif.g09.slc.cpg/sg15_46_cif.got.tgz:91359.got - 2010.06.28 07:06:18.
