data_PCOD8148585
_publ_section_title
;
Structure prediction by ZEFSAII (Michael W. Deem and Ramdas Pophale) SiO2 
 PCOD8148585
Probable space group: C 2/C
;
_chemical_formula_sum "Si O2"
_cell_formula_units_Z 52
_cell_length_a 20.858471
_cell_length_b 15.799169
_cell_length_c 15.015643
_cell_angle_alpha 90.000000
_cell_angle_beta 150.931517
_cell_angle_gamma 90.000000
_cell_volume 2404.180260
_symmetry_space_group_name_H-M "C 2/C"
_symmetry_group_IT_number 15
_symmetry_cell_setting 'monoclinic'
loop_
_space_group_symop_operation_xyz
x,y,z
-x,y,1/2-z
-x,-y,-z
x,-y,1/2+z
1/2+x,1/2+y,z
1/2-x,1/2+y,1/2-z
1/2-x,1/2-y,-z
1/2+x,1/2-y,1/2+z
loop_
_atom_site_type_symbol
_atom_site_label
_atom_site_fract_x
_atom_site_fract_y
_atom_site_fract_z
Si Si1 0.278569 0.444821 0.113096
Si Si2 0.802544 0.904796 0.772410
Si Si3 0.498142 0.925736 0.424551
Si Si4 0.682930 0.736926 0.783036
Si Si5 0.109249 0.729137 0.620892
Si Si6 0.000000 0.512044 0.250000
Si Si7 0.360845 0.615100 0.544084
O O1 0.335512 0.515936 0.248814
O O2 0.344466 0.354460 0.209002
O O3 0.312320 0.462533 0.049561
O O4 0.121162 0.433608 0.935452
O O5 0.646534 0.889658 0.595330
O O6 0.866954 0.821232 0.804198
O O7 0.866074 0.917549 0.948141
O O8 0.390986 0.852208 0.315089
O O9 0.445960 0.956221 0.265685
O O10 0.500000 0.000000 0.500000
O O11 0.769981 0.720267 0.800668
O O12 0.537622 0.775884 0.597581
O O13 0.762605 0.805060 0.938482
O O14 0.500000 0.647124 0.750000
#
# Coordination Sequence:
#
# PCOD8148585 Si02
#       7
#     8   8   8   8   8   4   8
#     4  11  23  39  62  95 127 173 210 269 330 388
#     4  10  23  42  63  94 132 166 225 266 319 399
#     4  11  21  43  68  93 134 174 221 275 328 392
#     4  11  24  37  65  96 132 170 214 267 338 397
#     4  11  21  42  67  92 130 178 215 267 330 391
#     4  10  24  36  66  98 122 164 236 268 304 400
#     4  11  23  39  61  93 135 167 213 274 323 398
#
# _framework density 21.628993000000001
#
# number of rings (size 3 to 8) (size 9 to 14) (size 15 to 20)
#    0.000    1.231    3.077    5.077    3.231    2.462 
#    0.000    3.077    5.077    0.000    0.000    0.000 
#    0.000    0.000    0.000    0.000    0.000    0.000 
#
# Total GULP energy -322116.192106 kJ/mol
# GULP energy per Si atom -12389.084312 kJ/mol
# Density = 2.157976 g / cm^3
# Si number density = 21.628993 Si / 1000 Ang^3
#
#
#
# Elastic Constant Matrix: (Units=GPa)
#
#
# Indices 1 2 3 4 5 6 
#
# 1 102.6259 54.7987 5.9545 0.0000 -14.1358 0.0000
# 2 54.7987 123.3716 16.8265 0.0000 -19.2581 0.0000
# 3 5.9545 16.8265 57.8728 0.0000 4.9370 0.0000
# 4 0.0000 0.0000 0.0000 28.7144 0.0000 6.0500
# 5 -14.1358 -19.2581 4.9370 0.0000 39.4903 0.0000
# 6 0.0000 0.0000 0.0000 6.0500 0.0000 39.1010
#
#
#
# Elastic Compliance Matrix: (Units=1/GPa)
#
#
# Indices 1 2 3 4 5 6 
#
# 1 0.012915 -0.005443 0.000087 0.000000 0.001958 0.000000
# 2 -0.005443 0.011594 -0.003161 0.000000 0.004101 0.000000
# 3 0.000087 -0.003161 0.018516 0.000000 -0.003825 0.000000
# 4 0.000000 0.000000 0.000000 0.035999 0.000000 -0.005570
# 5 0.001958 0.004101 -0.003825 0.000000 0.028502 0.000000
# 6 0.000000 0.000000 0.000000 -0.005570 0.000000 0.026437
#
#
# Mechanical properties :
#
#
# Convention : Reuss Voigt Hill
#
# Bulk Modulus (GPa) = 38.47473 48.78109 43.62791
# Shear Modulus (GPa) = 31.31642 35.21385 33.26513
#
# Velocity S-wave (km/s) = 3.80924 4.03933 3.92597
# Velocity P-wave (km/s) = 6.09707 6.66014 6.38481
#
# Compressibility (1/GPa) = 0.02599109
#
# Stress axis : x y z
#
# Youngs Moduli (GPa) = 77.42923 86.24841 54.00810
#
# Poissons Ratio (x) = 0.46943 -0.00468
# Poissons Ratio (y) = 0.42143 0.17072
# Poissons Ratio (z) = -0.00671 0.27263
#
# Static dielectric constant tensor:
#      x y z
#    x 4.227370 0.000000 -0.009460 
#    y 0.000000 4.031480 0.000000 
#    z -0.009460 0.000000 3.890230 
# 
# 
# High freq. dielectric constant tensor:
#      x y z
#    x 1.855840 0.000000 0.015650 
#    y 0.000000 1.840820 0.000000 
#    z 0.015650 0.000000 1.843510 
# 
# From -- ./inp_files/118806.got.cif
#   From: 2010.06.25/outbox.cif.g09.slc.cpg/sg15_60_cif.got.tgz:118806.got - 2010.06.28 07:06:18.
