data_PCOD8148252
_publ_section_title
;
Structure prediction by ZEFSAII (Michael W. Deem and Ramdas Pophale) SiO2 
 PCOD8148252
Probable space group: C 2/C
;
_chemical_formula_sum "Si O2"
_cell_formula_units_Z 40
_cell_length_a 11.472858
_cell_length_b 7.475226
_cell_length_c 23.803286
_cell_angle_alpha 90.000000
_cell_angle_beta 108.256824
_cell_angle_gamma 90.000000
_cell_volume 1938.660845
_symmetry_space_group_name_H-M "C 2/C"
_symmetry_group_IT_number 15
_symmetry_cell_setting 'monoclinic'
loop_
_space_group_symop_operation_xyz
x,y,z
-x,y,1/2-z
-x,-y,-z
x,-y,1/2+z
1/2+x,1/2+y,z
1/2-x,1/2+y,1/2-z
1/2-x,1/2-y,-z
1/2+x,1/2-y,1/2+z
loop_
_atom_site_type_symbol
_atom_site_label
_atom_site_fract_x
_atom_site_fract_y
_atom_site_fract_z
Si Si1 0.940089 0.493046 0.627901
Si Si2 0.608870 0.787182 0.725241
Si Si3 0.614817 0.689852 0.963989
Si Si4 0.785525 0.973921 0.831169
Si Si5 0.498873 0.676525 0.063393
O O1 0.923814 0.301661 0.595958
O O2 0.827246 0.551065 0.650082
O O3 0.061053 0.464609 0.684732
O O4 0.947854 0.645073 0.582979
O O5 0.500000 0.719504 0.750000
O O6 0.732693 0.835636 0.777287
O O7 0.639905 0.630997 0.686850
O O8 0.603999 0.479242 0.946679
O O9 0.750000 0.750000 0.000000
O O10 0.522711 0.723072 0.001954
O O11 0.874783 0.873792 0.887363
#
# Coordination Sequence:
#
# PCOD8148252 Si02
#       5
#     8   8   8   8   8
#     4  11  23  42  64  94 126 164 211 257 314 373
#     4  10  23  40  64  90 128 160 208 268 308 372
#     4  11  23  43  63  94 132 164 211 258 306 374
#     4  11  22  42  63  95 123 164 214 255 317 376
#     4  11  24  40  66  93 127 168 207 256 315 372
#
# _framework density 20.632798999999999
#
# number of rings (size 3 to 8) (size 9 to 14) (size 15 to 20)
#    0.000    1.200    4.000    1.800    0.000    4.000 
#    0.000    0.000    0.000    0.000    0.000    0.000 
#    0.000    0.000    0.000    0.000    0.000    0.000 
#
# Total GULP energy -248027.250354 kJ/mol
# GULP energy per Si atom -12401.362518 kJ/mol
# Density = 2.058584 g / cm^3
# Si number density = 20.632799 Si / 1000 Ang^3
#
#
#
# Elastic Constant Matrix: (Units=GPa)
#
#
# Indices 1 2 3 4 5 6 
#
# 1 77.6224 35.1480 18.6187 0.0000 -1.1381 0.0000
# 2 35.1480 79.7083 17.6786 0.0000 -22.0887 0.0000
# 3 18.6187 17.6786 77.7948 0.0000 -5.9638 0.0000
# 4 0.0000 0.0000 0.0000 38.4601 0.0000 -1.6441
# 5 -1.1381 -22.0887 -5.9638 0.0000 46.5885 0.0000
# 6 0.0000 0.0000 0.0000 -1.6441 0.0000 24.3755
#
#
#
# Elastic Compliance Matrix: (Units=1/GPa)
#
#
# Indices 1 2 3 4 5 6 
#
# 1 0.017053 -0.007977 -0.002552 0.000000 -0.003692 0.000000
# 2 -0.007977 0.018798 -0.001711 0.000000 0.008499 0.000000
# 3 -0.002552 -0.001711 0.013924 0.000000 0.000909 0.000000
# 4 0.000000 0.000000 0.000000 0.026076 0.000000 0.001759
# 5 -0.003692 0.008499 0.000909 0.000000 0.025520 0.000000
# 6 0.000000 0.000000 0.000000 0.001759 0.000000 0.041143
#
#
# Mechanical properties :
#
#
# Convention : Reuss Voigt Hill
#
# Bulk Modulus (GPa) = 39.53338 42.00179 40.76759
# Shear Modulus (GPa) = 28.50233 32.79683 30.64958
#
# Velocity S-wave (km/s) = 3.72076 3.99124 3.85837
# Velocity P-wave (km/s) = 6.13684 6.45298 6.29690
#
# Compressibility (1/GPa) = 0.02529508
#
# Stress axis : x y z
#
# Youngs Moduli (GPa) = 58.64177 53.19776 71.82088
#
# Poissons Ratio (x) = 0.42434 0.18326
# Poissons Ratio (y) = 0.46777 0.12290
# Poissons Ratio (z) = 0.14963 0.09103
#
# Static dielectric constant tensor:
#      x y z
#    x 3.683070 0.000000 0.051490 
#    y 0.000000 3.610790 0.000000 
#    z 0.051490 0.000000 4.162120 
# 
# 
# High freq. dielectric constant tensor:
#      x y z
#    x 1.804910 0.000000 0.002720 
#    y 0.000000 1.794550 0.000000 
#    z 0.002720 0.000000 1.834410 
# 
# From -- ./inp_files/235732.got.cif
#   From: 2010.06.25/outbox.cif.g09.slc.cpg/sg15_118_cif.got.tgz:235732.got - 2010.06.28 07:06:18.
