data_PCOD8148949
_publ_section_title
;
Structure prediction by ZEFSAII (Michael W. Deem and Ramdas Pophale) SiO2 
 PCOD8148949
Probable space group: C 2/C
;
_chemical_formula_sum "Si O2"
_cell_formula_units_Z 28
_cell_length_a 4.783825
_cell_length_b 13.044032
_cell_length_c 15.824181
_cell_angle_alpha 90.000000
_cell_angle_beta 101.749726
_cell_angle_gamma 90.000000
_cell_volume 966.744426
_symmetry_space_group_name_H-M "C 2/C"
_symmetry_group_IT_number 15
_symmetry_cell_setting 'monoclinic'
loop_
_space_group_symop_operation_xyz
x,y,z
-x,y,1/2-z
-x,-y,-z
x,-y,1/2+z
1/2+x,1/2+y,z
1/2-x,1/2+y,1/2-z
1/2-x,1/2-y,-z
1/2+x,1/2-y,1/2+z
loop_
_atom_site_type_symbol
_atom_site_label
_atom_site_fract_x
_atom_site_fract_y
_atom_site_fract_z
Si Si1 0.214963 0.580957 0.621067
Si Si2 0.870830 0.697964 0.103521
Si Si3 0.825131 0.895783 0.517199
Si Si4 0.500000 0.951533 0.750000
O O1 0.377630 0.687803 0.640952
O O2 0.377932 0.512379 0.557627
O O3 0.881504 0.597028 0.576175
O O4 0.218163 0.522885 0.710625
O O5 0.615577 0.672377 0.018609
O O6 0.173441 0.670029 0.081713
O O7 0.809412 0.620241 0.177215
#
# Coordination Sequence:
#
# PCOD8148949 Si02
#       4
#     8   8   8   4
#     4  10  23  43  68  94 132 169 211 271 317 374
#     4  11  24  44  66  95 130 169 215 264 320 380
#     4  10  24  43  69  98 122 167 225 262 314 381
#     4  10  26  40  62 100 132 170 214 256 326 392
#
# _framework density 28.963187000000001
#
# number of rings (size 3 to 8) (size 9 to 14) (size 15 to 20)
#    0.000    1.714    0.000    1.714    0.000   26.286 
#    0.000    0.000    0.000    0.000    0.000    0.000 
#    0.000    0.000    0.000    0.000    0.000    0.000 
#
# Total GULP energy -173750.253075 kJ/mol
# GULP energy per Si atom -12410.732362 kJ/mol
# Density = 2.889727 g / cm^3
# Si number density = 28.963187 Si / 1000 Ang^3
#
#
#
# Elastic Constant Matrix: (Units=GPa)
#
#
# Indices 1 2 3 4 5 6 
#
# 1 120.3692 51.6751 -2.5144 0.0000 0.0631 0.0000
# 2 51.6751 239.0572 22.6033 0.0000 -23.6901 0.0000
# 3 -2.5144 22.6033 70.2545 0.0000 -32.3778 0.0000
# 4 0.0000 0.0000 0.0000 40.8983 0.0000 8.5008
# 5 0.0631 -23.6901 -32.3778 0.0000 40.4523 0.0000
# 6 0.0000 0.0000 0.0000 8.5008 0.0000 47.0004
#
#
#
# Elastic Compliance Matrix: (Units=1/GPa)
#
#
# Indices 1 2 3 4 5 6 
#
# 1 0.009238 -0.002133 0.000688 0.000000 -0.000712 0.000000
# 2 -0.002133 0.004939 -0.000524 0.000000 0.002476 0.000000
# 3 0.000688 -0.000524 0.022635 0.000000 0.017809 0.000000
# 4 0.000000 0.000000 0.000000 0.025406 0.000000 -0.004595
# 5 -0.000712 0.002476 0.017809 0.000000 0.040426 0.000000
# 6 0.000000 0.000000 0.000000 -0.004595 0.000000 0.022108
#
#
# Mechanical properties :
#
#
# Convention : Reuss Voigt Hill
#
# Bulk Modulus (GPa) = 30.41815 63.68988 47.05402
# Shear Modulus (GPa) = 35.80491 49.53134 42.66812
#
# Velocity S-wave (km/s) = 3.51981 4.13988 3.84237
# Velocity P-wave (km/s) = 5.20037 6.69994 5.99721
#
# Compressibility (1/GPa) = 0.03287511
#
# Stress axis : x y z
#
# Youngs Moduli (GPa) = 108.24779 202.46860 44.18023
#
# Poissons Ratio (x) = 0.43178 -0.03042
# Poissons Ratio (y) = 0.23085 0.02316
# Poissons Ratio (z) = -0.07453 0.10613
#
# Static dielectric constant tensor:
#      x y z
#    x 5.052660 0.000000 -0.217310 
#    y 0.000000 5.925020 0.000000 
#    z -0.217310 0.000000 5.308990 
# 
# 
# High freq. dielectric constant tensor:
#      x y z
#    x 2.180400 0.000000 -0.025370 
#    y 0.000000 2.218890 0.000000 
#    z -0.025370 0.000000 2.164690 
# 
# From -- ./inp_files/183563.got.cif
#   From: 2010.06.25/outbox.cif.g09.slc.cpg/sg15_92_cif.got.tgz:183563.got - 2010.06.28 07:06:18.
