data_PCOD8148553
_publ_section_title
;
Structure prediction by ZEFSAII (Michael W. Deem and Ramdas Pophale) SiO2 
 PCOD8148553
Probable space group: C 2/C
;
_chemical_formula_sum "Si O2"
_cell_formula_units_Z 36
_cell_length_a 22.678396
_cell_length_b 6.877262
_cell_length_c 10.027523
_cell_angle_alpha 90.000000
_cell_angle_beta 94.978323
_cell_angle_gamma 90.000000
_cell_volume 1558.045516
_symmetry_space_group_name_H-M "C 2/C"
_symmetry_group_IT_number 15
_symmetry_cell_setting 'monoclinic'
loop_
_space_group_symop_operation_xyz
x,y,z
-x,y,1/2-z
-x,-y,-z
x,-y,1/2+z
1/2+x,1/2+y,z
1/2-x,1/2+y,1/2-z
1/2-x,1/2-y,-z
1/2+x,1/2-y,1/2+z
loop_
_atom_site_type_symbol
_atom_site_label
_atom_site_fract_x
_atom_site_fract_y
_atom_site_fract_z
Si Si1 0.188056 0.706853 0.663073
Si Si2 0.079084 0.673409 0.315518
Si Si3 0.442632 0.158638 0.895810
Si Si4 0.000000 0.973281 0.750000
Si Si5 0.294939 0.956161 0.599358
O O1 0.120144 0.769188 0.637490
O O2 0.230617 0.876157 0.623181
O O3 0.200983 0.658478 0.820477
O O4 0.199004 0.524761 0.560290
O O5 0.051062 0.592011 0.449097
O O6 0.054084 0.532470 0.196092
O O7 0.150599 0.677434 0.334947
O O8 0.057399 0.893221 0.287204
O O9 0.490566 0.325947 0.872606
#
# Coordination Sequence:
#
# PCOD8148553 Si02
#       5
#     8   8   8   4   8
#     4   9  19  36  58  84 116 150 189 238 292 347
#     4  10  23  42  61  88 123 159 200 247 298 353
#     4  10  23  42  61  88 123 159 200 247 298 353
#     4  12  24  36  64  92 118 160 202 248 290 358
#     4   9  19  36  58  84 116 150 189 238 292 347
#
# _framework density 23.105874
#
# number of rings (size 3 to 8) (size 9 to 14) (size 15 to 20)
#    0.000    2.222    0.000    1.333    3.111    6.222 
#    0.000    0.000    0.000    0.000    0.000    0.000 
#    0.000    0.000    0.000    0.000    0.000    0.000 
#
# Total GULP energy -223043.582153 kJ/mol
# GULP energy per Si atom -12391.310120 kJ/mol
# Density = 2.305328 g / cm^3
# Si number density = 23.105874 Si / 1000 Ang^3
#
#
#
# Elastic Constant Matrix: (Units=GPa)
#
#
# Indices 1 2 3 4 5 6 
#
# 1 77.3933 23.6987 8.3327 0.0000 -8.5965 0.0000
# 2 23.6987 81.0152 28.8869 0.0000 -6.9029 0.0000
# 3 8.3327 28.8869 94.8663 0.0000 -2.7538 0.0000
# 4 0.0000 0.0000 0.0000 33.2024 0.0000 -3.7832
# 5 -8.5965 -6.9029 -2.7538 0.0000 31.3830 0.0000
# 6 0.0000 0.0000 0.0000 -3.7832 0.0000 31.0367
#
#
#
# Elastic Compliance Matrix: (Units=1/GPa)
#
#
# Indices 1 2 3 4 5 6 
#
# 1 0.014481 -0.003983 0.000031 0.000000 0.003093 0.000000
# 2 -0.003983 0.015171 -0.004215 0.000000 0.001876 0.000000
# 3 0.000031 -0.004215 0.011825 0.000000 0.000119 0.000000
# 4 0.000000 0.000000 0.000000 0.030543 0.000000 0.003723
# 5 0.003093 0.001876 0.000119 0.000000 0.033135 0.000000
# 6 0.000000 0.000000 0.000000 0.003723 0.000000 0.032674
#
#
# Mechanical properties :
#
#
# Convention : Reuss Voigt Hill
#
# Bulk Modulus (GPa) = 39.77414 41.67903 40.72658
# Shear Modulus (GPa) = 30.76058 31.94819 31.35438
#
# Velocity S-wave (km/s) = 3.65264 3.72248 3.68773
# Velocity P-wave (km/s) = 5.91948 6.04593 5.98304
#
# Compressibility (1/GPa) = 0.02514196
#
# Stress axis : x y z
#
# Youngs Moduli (GPa) = 69.05578 65.91308 84.56310
#
# Poissons Ratio (x) = 0.26256 -0.00260
# Poissons Ratio (y) = 0.27508 0.35647
# Poissons Ratio (z) = -0.00213 0.27785
#
# Static dielectric constant tensor:
#      x y z
#    x 4.410590 0.000000 -0.137620 
#    y 0.000000 3.456520 0.000000 
#    z -0.137620 0.000000 4.576860 
# 
# 
# High freq. dielectric constant tensor:
#      x y z
#    x 1.937810 0.000000 -0.009060 
#    y 0.000000 1.860010 0.000000 
#    z -0.009060 0.000000 1.926320 
# 
# From -- ./inp_files/59736.got.cif
#   From: 2010.06.25/outbox.cif.g09.slc.cpg/sg15_30_cif.got.tgz:59736.got - 2010.06.28 07:06:18.
