data_PCOD8148205
_publ_section_title
;
Structure prediction by ZEFSAII (Michael W. Deem and Ramdas Pophale) SiO2 
 PCOD8148205
Probable space group: C 2/C
;
_chemical_formula_sum "Si O2"
_cell_formula_units_Z 64
_cell_length_a 27.679688
_cell_length_b 9.572493
_cell_length_c 18.179368
_cell_angle_alpha 90.000000
_cell_angle_beta 37.417127
_cell_angle_gamma 90.000000
_cell_volume 2926.794882
_symmetry_space_group_name_H-M "C 2/C"
_symmetry_group_IT_number 15
_symmetry_cell_setting 'monoclinic'
loop_
_space_group_symop_operation_xyz
x,y,z
-x,y,1/2-z
-x,-y,-z
x,-y,1/2+z
1/2+x,1/2+y,z
1/2-x,1/2+y,1/2-z
1/2-x,1/2-y,-z
1/2+x,1/2-y,1/2+z
loop_
_atom_site_type_symbol
_atom_site_label
_atom_site_fract_x
_atom_site_fract_y
_atom_site_fract_z
Si Si1 0.836613 0.825260 0.079992
Si Si2 0.653789 0.224499 0.775940
Si Si3 0.837764 0.925495 0.483673
Si Si4 0.411518 0.286490 0.258793
Si Si5 0.834645 0.502260 0.861246
Si Si6 0.583436 0.224109 0.012552
Si Si7 0.324832 0.539994 0.745708
Si Si8 0.348532 0.965892 0.511748
O O1 0.742724 0.801984 0.194511
O O2 0.861786 0.901304 0.124940
O O3 0.877523 0.674852 0.018087
O O4 0.862917 0.920187 0.979151
O O5 0.639747 0.388225 0.775129
O O6 0.636151 0.127526 0.726784
O O7 0.594663 0.184445 0.913590
O O8 0.900183 0.865706 0.349554
O O9 0.748708 0.931289 0.560251
O O10 0.843619 0.822711 0.547580
O O11 0.398394 0.121206 0.282599
O O12 0.501413 0.307739 0.122922
O O13 0.348465 0.350032 0.278854
O O14 0.829287 0.565981 0.949661
O O15 0.582614 0.080580 0.060827
O O16 0.229816 0.529282 0.854588
#
# Coordination Sequence:
#
# PCOD8148205 Si02
#       8
#     8   8   8   8   8   8   8   8
#     4  10  23  39  71  98 127 170 221 274 328 379
#     4  10  24  40  67  97 133 163 216 273 327 384
#     4  11  22  43  67  94 125 170 225 267 317 389
#     4  12  26  39  68  93 133 173 222 261 330 392
#     4  11  24  42  66  99 125 171 218 273 322 384
#     4  12  24  43  64  93 134 176 208 269 324 395
#     4  11  22  42  65 100 124 170 220 268 323 388
#     4  11  23  41  69  96 133 165 220 275 325 384
#
# _framework density 21.866924000000001
#
# number of rings (size 3 to 8) (size 9 to 14) (size 15 to 20)
#    0.000    1.000    5.000    1.500    3.500    2.500 
#    0.000    0.000    2.750    0.000    0.000    0.000 
#    0.000    0.000    0.000    0.000    0.000    0.000 
#
# Total GULP energy -396829.955181 kJ/mol
# GULP energy per Si atom -12400.936099 kJ/mol
# Density = 2.181715 g / cm^3
# Si number density = 21.866924 Si / 1000 Ang^3
#
#
#
# Elastic Constant Matrix: (Units=GPa)
#
#
# Indices 1 2 3 4 5 6 
#
# 1 40.5756 36.7342 26.1558 -0.0052 17.4930 0.0014
# 2 36.7342 151.5143 43.7940 -0.0215 13.4335 0.0133
# 3 26.1558 43.7940 90.2642 -0.0099 16.4558 0.0058
# 4 -0.0052 -0.0215 -0.0099 36.1465 0.0045 17.6350
# 5 17.4930 13.4335 16.4558 0.0045 29.0410 -0.0017
# 6 0.0014 0.0133 0.0058 17.6350 -0.0017 26.2288
#
#
#
# Elastic Compliance Matrix: (Units=1/GPa)
#
#
# Indices 1 2 3 4 5 6 
#
# 1 0.043032 -0.007125 -0.005451 0.000003 -0.019536 -0.000001
# 2 -0.007125 0.008924 -0.002559 0.000008 0.001614 -0.000009
# 3 -0.005451 -0.002559 0.014593 0.000005 -0.003802 -0.000005
# 4 0.000003 0.000008 0.000005 0.041170 -0.000016 -0.027681
# 5 -0.019536 0.001614 -0.003802 -0.000016 0.047609 0.000015
# 6 -0.000001 -0.000009 -0.000005 -0.027681 0.000015 0.056737
#
#
# Mechanical properties :
#
#
# Convention : Reuss Voigt Hill
#
# Bulk Modulus (GPa) = 27.56464 55.08022 41.32243
# Shear Modulus (GPa) = 19.65176 29.99459 24.82317
#
# Velocity S-wave (km/s) = 3.00108 3.70765 3.37292
# Velocity P-wave (km/s) = 4.96404 6.60094 5.84012
#
# Compressibility (1/GPa) = 0.03627836
#
# Stress axis : x y z
#
# Youngs Moduli (GPa) = 23.23828 112.05453 68.52654
#
# Poissons Ratio (x) = 0.79844 0.37352
# Poissons Ratio (y) = 0.16558 0.17538
# Poissons Ratio (z) = 0.12667 0.28679
#
# Static dielectric constant tensor:
#      x y z
#    x 3.725430 -0.000010 0.270480 
#    y -0.000010 4.163630 0.000020 
#    z 0.270480 0.000020 3.711800 
# 
# 
# High freq. dielectric constant tensor:
#      x y z
#    x 1.841320 0.000000 0.025240 
#    y 0.000000 1.873860 0.000000 
#    z 0.025240 0.000000 1.845510 
# 
# From -- ./inp_files/224610.got.cif
#   From: 2010.06.25/outbox.cif.g09.slc.cpg/sg15_113_cif.got.tgz:224610.got - 2010.06.28 07:06:18.
