data_PCOD8148697
_publ_section_title
;
Structure prediction by ZEFSAII (Michael W. Deem and Ramdas Pophale) SiO2 
 PCOD8148697
Probable space group: C 2/C
;
_chemical_formula_sum "Si O2"
_cell_formula_units_Z 56
_cell_length_a 20.051098
_cell_length_b 12.804831
_cell_length_c 13.037332
_cell_angle_alpha 90.000000
_cell_angle_beta 127.165207
_cell_angle_gamma 90.000000
_cell_volume 2667.490500
_symmetry_space_group_name_H-M "C 2/C"
_symmetry_group_IT_number 15
_symmetry_cell_setting 'monoclinic'
loop_
_space_group_symop_operation_xyz
x,y,z
-x,y,1/2-z
-x,-y,-z
x,-y,1/2+z
1/2+x,1/2+y,z
1/2-x,1/2+y,1/2-z
1/2-x,1/2-y,-z
1/2+x,1/2-y,1/2+z
loop_
_atom_site_type_symbol
_atom_site_label
_atom_site_fract_x
_atom_site_fract_y
_atom_site_fract_z
Si Si1 0.704292 0.205645 0.732875
Si Si2 0.988618 0.331360 0.847931
Si Si3 0.452508 0.662235 0.445852
Si Si4 0.646454 0.038098 0.519239
Si Si5 0.555067 0.520440 0.398327
Si Si6 0.677822 0.121537 0.215118
Si Si7 0.755345 0.032276 0.928840
O O1 0.632636 0.292937 0.682978
O O2 0.687370 0.134391 0.618313
O O3 0.790687 0.264824 0.789151
O O4 0.714431 0.138764 0.846322
O O5 0.894221 0.372482 0.766039
O O6 0.000000 0.270464 0.750000
O O7 0.001046 0.257575 0.956420
O O8 0.052237 0.429549 0.902180
O O9 0.510947 0.620277 0.409175
O O10 0.435528 0.572999 0.512763
O O11 0.639272 0.935214 0.580912
O O12 0.704374 0.009433 0.477819
O O13 0.500000 0.484495 0.250000
O O14 0.648488 0.551760 0.449453
O O15 0.752563 0.054666 0.336055
#
# Coordination Sequence:
#
# PCOD8148697 Si02
#       7
#     8   8   8   8   8   8   8
#     4  10  23  42  67  96 132 173 222 273 328 392
#     4  11  21  40  66  96 125 171 221 271 330 391
#     4  10  23  43  62  97 135 173 223 271 325 397
#     4  10  24  40  65  93 132 169 218 273 326 396
#     4  11  24  41  67  96 139 175 218 273 332 392
#     4  11  22  41  65  92 132 171 213 274 330 390
#     4  11  23  42  66  99 126 174 222 270 333 391
#
# _framework density 20.993514000000001
#
# number of rings (size 3 to 8) (size 9 to 14) (size 15 to 20)
#    0.000    1.429    2.857    1.714    2.000    4.571 
#    2.571    0.000    0.000    0.000    0.000    0.000 
#    0.000    0.000    0.000    0.000    0.000    0.000 
#
# Total GULP energy -347232.253637 kJ/mol
# GULP energy per Si atom -12401.151916 kJ/mol
# Density = 2.094573 g / cm^3
# Si number density = 20.993514 Si / 1000 Ang^3
#
#
#
# Elastic Constant Matrix: (Units=GPa)
#
#
# Indices 1 2 3 4 5 6 
#
# 1 136.5122 55.5619 41.6832 0.0000 16.2243 0.0000
# 2 55.5619 98.9185 28.1517 0.0000 5.2896 0.0000
# 3 41.6832 28.1517 65.5567 0.0000 18.1770 0.0000
# 4 0.0000 0.0000 0.0000 23.4346 0.0000 2.6813
# 5 16.2243 5.2896 18.1770 0.0000 33.1738 0.0000
# 6 0.0000 0.0000 0.0000 2.6813 0.0000 30.4808
#
#
#
# Elastic Compliance Matrix: (Units=1/GPa)
#
#
# Indices 1 2 3 4 5 6 
#
# 1 0.010812 -0.004754 -0.004218 0.000000 -0.002219 0.000000
# 2 -0.004754 0.013637 -0.003390 0.000000 0.002008 0.000000
# 3 -0.004218 -0.003390 0.022014 0.000000 -0.009459 0.000000
# 4 0.000000 0.000000 0.000000 0.043106 0.000000 -0.003792
# 5 -0.002219 0.002008 -0.009459 0.000000 0.036092 0.000000
# 6 0.000000 0.000000 0.000000 -0.003792 0.000000 0.033141
#
#
# Mechanical properties :
#
#
# Convention : Reuss Voigt Hill
#
# Bulk Modulus (GPa) = 45.99982 61.30899 53.65440
# Shear Modulus (GPa) = 26.20921 29.12389 27.66655
#
# Velocity S-wave (km/s) = 3.53717 3.72866 3.63417
# Velocity P-wave (km/s) = 6.21619 6.91407 6.57440
#
# Compressibility (1/GPa) = 0.02173922
#
# Stress axis : x y z
#
# Youngs Moduli (GPa) = 92.49124 73.32986 45.42476
#
# Poissons Ratio (x) = 0.34860 0.19160
# Poissons Ratio (y) = 0.43969 0.15400
# Poissons Ratio (z) = 0.39012 0.24860
#
# Static dielectric constant tensor:
#      x y z
#    x 3.699840 0.000000 0.086740 
#    y 0.000000 3.768710 0.000000 
#    z 0.086740 0.000000 3.853640 
# 
# 
# High freq. dielectric constant tensor:
#      x y z
#    x 1.824720 0.000000 0.005640 
#    y 0.000000 1.820350 0.000000 
#    z 0.005640 0.000000 1.827540 
# 
# From -- ./inp_files/105807.got.cif
#   From: 2010.06.25/outbox.cif.g09.slc.cpg/sg15_53_cif.got.tgz:105807.got - 2010.06.28 07:06:18.
