data_PCOD8148450
_publ_section_title
;
Structure prediction by ZEFSAII (Michael W. Deem and Ramdas Pophale) SiO2 
 PCOD8148450
Probable space group: C 2/C
;
_chemical_formula_sum "Si O2"
_cell_formula_units_Z 48
_cell_length_a 19.127095
_cell_length_b 12.580383
_cell_length_c 25.418213
_cell_angle_alpha 90.000000
_cell_angle_beta 21.619558
_cell_angle_gamma 90.000000
_cell_volume 2253.496666
_symmetry_space_group_name_H-M "C 2/C"
_symmetry_group_IT_number 15
_symmetry_cell_setting 'monoclinic'
loop_
_space_group_symop_operation_xyz
x,y,z
-x,y,1/2-z
-x,-y,-z
x,-y,1/2+z
1/2+x,1/2+y,z
1/2-x,1/2+y,1/2-z
1/2-x,1/2-y,-z
1/2+x,1/2-y,1/2+z
loop_
_atom_site_type_symbol
_atom_site_label
_atom_site_fract_x
_atom_site_fract_y
_atom_site_fract_z
Si Si1 0.233665 0.019233 0.729106
Si Si2 0.293863 0.369985 0.143778
Si Si3 0.712698 0.236222 0.087458
Si Si4 0.914076 0.323501 0.364465
Si Si5 0.975424 0.666913 0.488063
Si Si6 0.179627 0.001376 0.981226
O O1 0.184993 0.051160 0.822517
O O2 0.337127 0.116019 0.627896
O O3 0.354853 0.912472 0.644470
O O4 0.028263 0.999836 0.845743
O O5 0.441341 0.273693 0.045231
O O6 0.337918 0.433304 0.060210
O O7 0.077603 0.327243 0.293938
O O8 0.500000 0.272248 0.250000
O O9 0.743959 0.115709 0.083943
O O10 0.750000 0.250000 0.000000
O O11 0.859414 0.311021 0.015995
O O12 0.750000 0.250000 0.500000
O O13 0.829310 0.441584 0.415061
O O14 0.000000 0.277070 0.250000
#
# Coordination Sequence:
#
# PCOD8148450 Si02
#       6
#     8   8   8   8   8   8
#     4  11  25  44  69 103 138 176 231 288 344 412
#     4  11  24  42  74  96 136 181 231 285 342 418
#     4  12  27  45  70  99 141 184 231 287 345 420
#     4  10  23  41  65  99 133 177 225 283 344 406
#     4  11  27  44  69 103 138 180 230 288 351 403
#     4  11  24  44  68 102 131 179 234 278 345 416
#
# _framework density 21.300232000000001
#
# number of rings (size 3 to 8) (size 9 to 14) (size 15 to 20)
#    0.000    1.000    1.667    4.000   11.667    0.000 
#    0.000    0.833    0.000    0.000    0.000    0.000 
#    0.000    0.000    0.000    0.000    0.000    0.000 
#
# Total GULP energy -297709.917101 kJ/mol
# GULP energy per Si atom -12404.579879 kJ/mol
# Density = 2.125175 g / cm^3
# Si number density = 21.300232 Si / 1000 Ang^3
#
#
#
# Elastic Constant Matrix: (Units=GPa)
#
#
# Indices 1 2 3 4 5 6 
#
# 1 94.9024 29.7705 28.6960 -0.0404 -15.3495 0.0314
# 2 29.7705 81.2725 22.0723 -0.1019 7.2485 0.0406
# 3 28.6960 22.0723 126.3670 -0.1736 -13.1151 0.1099
# 4 -0.0404 -0.1019 -0.1736 33.2324 0.0188 -2.5791
# 5 -15.3495 7.2485 -13.1151 0.0188 32.3306 0.0013
# 6 0.0314 0.0406 0.1099 -2.5791 0.0013 28.2156
#
#
#
# Elastic Compliance Matrix: (Units=1/GPa)
#
#
# Indices 1 2 3 4 5 6 
#
# 1 0.013796 -0.005292 -0.001467 -0.000011 0.007141 -0.000003
# 2 -0.005292 0.015457 -0.002212 0.000033 -0.006875 -0.000004
# 3 -0.001467 -0.002212 0.008991 0.000034 0.003446 -0.000027
# 4 -0.000011 0.000033 0.000034 0.030306 -0.000017 0.002770
# 5 0.007141 -0.006875 0.003446 -0.000017 0.037260 -0.000015
# 6 -0.000003 -0.000004 -0.000027 0.002770 -0.000015 0.035695
#
#
# Mechanical properties :
#
#
# Convention : Reuss Voigt Hill
#
# Bulk Modulus (GPa) = 49.25734 51.51327 50.38530
# Shear Modulus (GPa) = 30.08186 33.55591 31.81889
#
# Velocity S-wave (km/s) = 3.76211 3.97341 3.86920
# Velocity P-wave (km/s) = 6.48434 6.72960 6.60811
#
# Compressibility (1/GPa) = 0.02030154
#
# Stress axis : x y z
#
# Youngs Moduli (GPa) = 72.48550 64.69753 111.22590
#
# Poissons Ratio (x) = 0.34237 0.16321
# Poissons Ratio (y) = 0.38358 0.24598
# Poissons Ratio (z) = 0.10636 0.14308
#
# Static dielectric constant tensor:
#      x y z
#    x 4.165380 -0.000260 -0.506820 
#    y -0.000260 3.897890 0.000670 
#    z -0.506820 0.000670 4.325770 
# 
# 
# High freq. dielectric constant tensor:
#      x y z
#    x 1.834800 0.000000 -0.018400 
#    y 0.000000 1.839690 0.000040 
#    z -0.018400 0.000040 1.857240 
# 
# From -- ./inp_files/300915.got.cif
#   From: 2010.06.25/outbox.cif.g09.slc.cpg/sg15_151_cif.got.tgz:300915.got - 2010.06.28 07:06:18.
