data_PCOD8148569
_publ_section_title
;
Structure prediction by ZEFSAII (Michael W. Deem and Ramdas Pophale) SiO2 
 PCOD8148569
Probable space group: C 2/C
;
_chemical_formula_sum "Si O2"
_cell_formula_units_Z 52
_cell_length_a 8.523403
_cell_length_b 19.956126
_cell_length_c 21.917504
_cell_angle_alpha 90.000000
_cell_angle_beta 37.994883
_cell_angle_gamma 90.000000
_cell_volume 2294.947130
_symmetry_space_group_name_H-M "C 2/C"
_symmetry_group_IT_number 15
_symmetry_cell_setting 'monoclinic'
loop_
_space_group_symop_operation_xyz
x,y,z
-x,y,1/2-z
-x,-y,-z
x,-y,1/2+z
1/2+x,1/2+y,z
1/2-x,1/2+y,1/2-z
1/2-x,1/2-y,-z
1/2+x,1/2-y,1/2+z
loop_
_atom_site_type_symbol
_atom_site_label
_atom_site_fract_x
_atom_site_fract_y
_atom_site_fract_z
Si Si1 0.500000 0.331457 0.750000
Si Si2 0.922322 0.561406 0.872548
Si Si3 0.965175 0.424719 0.621137
Si Si4 0.488754 0.647859 0.949667
Si Si5 0.450345 0.366942 0.201410
Si Si6 0.529432 0.081395 0.969160
Si Si7 0.820404 0.726028 0.045929
O O1 0.414013 0.285754 0.834245
O O2 0.720433 0.379515 0.709511
O O3 0.165380 0.606361 0.785367
O O4 0.848449 0.565441 0.967089
O O5 0.999116 0.483161 0.839021
O O6 0.690186 0.587523 0.902512
O O7 0.210234 0.378667 0.547872
O O8 0.943170 0.457638 0.558072
O O9 0.517279 0.673690 0.871124
O O10 0.514012 0.712068 0.982871
O O11 0.500000 0.325606 0.250000
O O12 0.665589 0.426668 0.137073
O O13 0.493938 0.160645 0.993876
O O14 0.750000 0.750000 0.000000
#
# Coordination Sequence:
#
# PCOD8148569 Si02
#       7
#     4   8   8   8   8   8   8
#     4  10  26  42  70  98 134 188 226 280 346 398
#     4  11  20  38  66  97 136 170 223 275 336 407
#     4  10  23  42  62  97 135 176 221 276 345 406
#     4  11  23  41  66  96 136 177 221 284 338 398
#     4   9  21  36  60  99 125 170 226 269 334 396
#     4   9  20  39  62  93 124 183 218 270 337 398
#     4  11  23  45  68  96 140 176 231 280 338 408
#
# _framework density 22.658474999999999
#
# number of rings (size 3 to 8) (size 9 to 14) (size 15 to 20)
#    0.000    1.846    1.538    1.385    5.385    5.538 
#    2.769    2.308    0.000    0.000    0.000    0.000 
#    0.000    0.000    0.000    0.000    0.000    0.000 
#
# Total GULP energy -322101.608748 kJ/mol
# GULP energy per Si atom -12388.523413 kJ/mol
# Density = 2.260690 g / cm^3
# Si number density = 22.658475 Si / 1000 Ang^3
#
#
#
# Elastic Constant Matrix: (Units=GPa)
#
#
# Indices 1 2 3 4 5 6 
#
# 1 129.9247 31.9440 46.8211 0.0160 6.0615 0.0625
# 2 31.9440 61.6452 17.2127 0.0527 2.0193 0.0118
# 3 46.8211 17.2127 90.8485 0.2775 -9.3500 -0.0475
# 4 0.0160 0.0527 0.2775 19.9726 0.0000 2.2696
# 5 6.0615 2.0193 -9.3500 0.0000 47.1607 -0.0493
# 6 0.0625 0.0118 -0.0475 2.2696 -0.0493 38.0404
#
#
#
# Elastic Compliance Matrix: (Units=1/GPa)
#
#
# Indices 1 2 3 4 5 6 
#
# 1 0.010553 -0.004031 -0.004897 0.000074 -0.002155 -0.000029
# 2 -0.004031 0.018759 -0.001538 -0.000025 -0.000590 0.000000
# 3 -0.004897 -0.001538 0.014184 -0.000194 0.003507 0.000042
# 4 0.000074 -0.000025 -0.000194 0.050413 -0.000050 -0.003008
# 5 -0.002155 -0.000590 0.003507 -0.000050 0.022202 0.000040
# 6 -0.000029 0.000000 0.000042 -0.003008 0.000040 0.026467
#
#
# Mechanical properties :
#
#
# Convention : Reuss Voigt Hill
#
# Bulk Modulus (GPa) = 44.31505 52.70822 48.51164
# Shear Modulus (GPa) = 29.23441 33.46410 31.34925
#
# Velocity S-wave (km/s) = 3.59586 3.84720 3.72365
# Velocity P-wave (km/s) = 6.06964 6.56103 6.32012
#
# Compressibility (1/GPa) = 0.02256569
#
# Stress axis : x y z
#
# Youngs Moduli (GPa) = 94.75918 53.30731 70.50134
#
# Poissons Ratio (x) = 0.21486 0.34526
# Poissons Ratio (y) = 0.38194 0.10840
# Poissons Ratio (z) = 0.46405 0.08197
#
# Static dielectric constant tensor:
#      x y z
#    x 4.506470 -0.000030 0.240980 
#    y -0.000030 4.062710 0.000090 
#    z 0.240980 0.000090 4.239350 
# 
# 
# High freq. dielectric constant tensor:
#      x y z
#    x 1.904470 -0.000010 0.003230 
#    y -0.000010 1.881340 0.000010 
#    z 0.003230 0.000010 1.894960 
# 
# From -- ./inp_files/266050.got.cif
#   From: 2010.06.25/outbox.cif.g09.slc.cpg/sg15_134_cif.got.tgz:266050.got - 2010.06.28 07:06:18.
