data_PCOD8148653
_publ_section_title
;
Structure prediction by ZEFSAII (Michael W. Deem and Ramdas Pophale) SiO2 
 PCOD8148653
Probable space group: C 2/C
;
_chemical_formula_sum "Si O2"
_cell_formula_units_Z 52
_cell_length_a 8.189886
_cell_length_b 18.345655
_cell_length_c 24.234954
_cell_angle_alpha 90.000000
_cell_angle_beta 138.723744
_cell_angle_gamma 90.000000
_cell_volume 2402.112610
_symmetry_space_group_name_H-M "C 2/C"
_symmetry_group_IT_number 15
_symmetry_cell_setting 'monoclinic'
loop_
_space_group_symop_operation_xyz
x,y,z
-x,y,1/2-z
-x,-y,-z
x,-y,1/2+z
1/2+x,1/2+y,z
1/2-x,1/2+y,1/2-z
1/2-x,1/2-y,-z
1/2+x,1/2-y,1/2+z
loop_
_atom_site_type_symbol
_atom_site_label
_atom_site_fract_x
_atom_site_fract_y
_atom_site_fract_z
Si Si1 0.500000 0.110044 0.750000
Si Si2 0.753760 0.784534 0.927763
Si Si3 0.029555 0.150827 0.910852
Si Si4 0.742474 0.134038 0.210389
Si Si5 0.043219 0.503083 0.354968
Si Si6 0.358147 0.616118 0.362508
Si Si7 0.261403 0.006991 0.476705
O O1 0.744727 0.159273 0.818979
O O2 0.537895 0.063574 0.703750
O O3 0.712217 0.696824 0.916704
O O4 0.482235 0.818884 0.871185
O O5 0.877086 0.808968 0.901776
O O6 0.942541 0.811584 0.022540
O O7 0.096600 0.065721 0.929119
O O8 0.696267 0.048389 0.184474
O O9 0.733806 0.140757 0.274309
O O10 0.000000 0.160810 0.250000
O O11 0.204173 0.558157 0.359032
O O12 0.188748 0.476573 0.446106
O O13 0.620167 0.577694 0.417027
O O14 0.500000 0.000000 0.500000
#
# Coordination Sequence:
#
# PCOD8148653 Si02
#       7
#     4   8   8   8   8   8   8
#     4  12  22  38  68 100 124 174 224 288 332 396
#     4  10  23  42  66  89 130 181 218 266 331 413
#     4  11  23  42  65  93 135 169 225 270 342 389
#     4  11  21  36  64  98 126 165 223 275 323 397
#     4  11  19  37  62  94 128 171 219 269 340 399
#     4  11  20  39  65  96 127 174 224 268 332 405
#     4  12  23  39  66 100 134 170 218 286 336 391
#
# _framework density 21.647611999999999
#
# number of rings (size 3 to 8) (size 9 to 14) (size 15 to 20)
#    0.000    0.923    6.154    3.692    1.077    0.000 
#    0.000    3.846    0.000    0.000    0.000    0.000 
#    0.000    0.000    0.000    0.000    0.000    0.000 
#
# Total GULP energy -322325.490741 kJ/mol
# GULP energy per Si atom -12397.134259 kJ/mol
# Density = 2.159834 g / cm^3
# Si number density = 21.647612 Si / 1000 Ang^3
#
#
#
# Elastic Constant Matrix: (Units=GPa)
#
#
# Indices 1 2 3 4 5 6 
#
# 1 59.2293 1.0616 24.4302 0.0011 5.9163 0.0006
# 2 1.0616 74.1758 32.7188 0.0006 -5.4631 0.0003
# 3 24.4302 32.7188 136.1403 0.0011 -1.2252 0.0005
# 4 0.0011 0.0006 0.0011 19.8830 0.0006 0.0150
# 5 5.9163 -5.4631 -1.2252 0.0006 31.5733 0.0002
# 6 0.0006 0.0003 0.0005 0.0150 0.0002 36.1922
#
#
#
# Elastic Compliance Matrix: (Units=1/GPa)
#
#
# Indices 1 2 3 4 5 6 
#
# 1 0.018716 0.001088 -0.003651 -0.000001 -0.003460 0.000000
# 2 0.001088 0.015338 -0.003861 0.000000 0.002300 0.000000
# 3 -0.003651 -0.003861 0.008932 0.000000 0.000363 0.000000
# 4 -0.000001 0.000000 0.000000 0.050294 -0.000001 -0.000021
# 5 -0.003460 0.002300 0.000363 -0.000001 0.032733 0.000000
# 6 0.000000 0.000000 0.000000 -0.000021 0.000000 0.027630
#
#
# Mechanical properties :
#
#
# Convention : Reuss Voigt Hill
#
# Bulk Modulus (GPa) = 33.18127 42.88518 38.03322
# Shear Modulus (GPa) = 28.32266 31.61867 29.97067
#
# Velocity S-wave (km/s) = 3.62104 3.82594 3.72490
# Velocity P-wave (km/s) = 5.73094 6.27460 6.00893
#
# Compressibility (1/GPa) = 0.03013749
#
# Stress axis : x y z
#
# Youngs Moduli (GPa) = 53.43121 65.19616 111.96108
#
# Poissons Ratio (x) = -0.07092 0.40878
# Poissons Ratio (y) = -0.05812 0.43226
# Poissons Ratio (z) = 0.19508 0.25171
#
# Static dielectric constant tensor:
#      x y z
#    x 3.857660 0.000000 0.020990 
#    y 0.000000 4.006670 0.000000 
#    z 0.020990 0.000000 4.187470 
# 
# 
# High freq. dielectric constant tensor:
#      x y z
#    x 1.829640 0.000000 -0.000700 
#    y 0.000000 1.834030 0.000000 
#    z -0.000700 0.000000 1.871390 
# 
# From -- ./inp_files/266166.got.cif
#   From: 2010.06.25/outbox.cif.g09.slc.cpg/sg15_134_cif.got.tgz:266166.got - 2010.06.28 07:06:18.
