data_PCOD8148477
_publ_section_title
;
Structure prediction by ZEFSAII (Michael W. Deem and Ramdas Pophale) SiO2 
 PCOD8148477
Probable space group: C 2/C
;
_chemical_formula_sum "Si O2"
_cell_formula_units_Z 40
_cell_length_a 15.031791
_cell_length_b 11.636503
_cell_length_c 17.787565
_cell_angle_alpha 90.000000
_cell_angle_beta 149.518392
_cell_angle_gamma 90.000000
_cell_volume 1578.271931
_symmetry_space_group_name_H-M "C 2/C"
_symmetry_group_IT_number 15
_symmetry_cell_setting 'monoclinic'
loop_
_space_group_symop_operation_xyz
x,y,z
-x,y,1/2-z
-x,-y,-z
x,-y,1/2+z
1/2+x,1/2+y,z
1/2-x,1/2+y,1/2-z
1/2-x,1/2-y,-z
1/2+x,1/2-y,1/2+z
loop_
_atom_site_type_symbol
_atom_site_label
_atom_site_fract_x
_atom_site_fract_y
_atom_site_fract_z
Si Si1 0.624935 0.518111 0.235816
Si Si2 0.857556 0.679297 0.486867
Si Si3 0.703214 0.903052 0.786561
Si Si4 0.886017 0.673080 0.955215
Si Si5 0.751947 0.926400 0.445669
O O1 0.679820 0.635011 0.318286
O O2 0.677488 0.529750 0.186686
O O3 0.723602 0.412217 0.347336
O O4 0.417455 0.499247 0.096573
O O5 0.844713 0.816064 0.475565
O O6 0.877956 0.621052 0.584089
O O7 0.026203 0.641572 0.561398
O O8 0.819894 0.803364 0.909773
O O9 0.526681 0.847839 0.623780
O O10 0.647776 0.994816 0.810419
#
# Coordination Sequence:
#
# PCOD8148477 Si02
#       5
#     8   8   8   8   8
#     4  11  23  41  68  98 142 186 244 298 347 444
#     4  10  23  41  67 106 145 177 236 300 371 418
#     4  11  23  40  71 102 143 189 247 293 353 435
#     4  11  24  44  69 106 141 193 248 293 350 438
#     4  11  23  42  71 105 142 188 231 308 369 417
#
# _framework density 25.344173999999999
#
# number of rings (size 3 to 8) (size 9 to 14) (size 15 to 20)
#    0.000    1.200    2.000    4.800    5.600    1.600 
#    0.000    7.000    0.000    2.400    0.000    0.000 
#    0.000    0.000    0.000    0.000    0.000    0.000 
#
# Total GULP energy -248064.795986 kJ/mol
# GULP energy per Si atom -12403.239799 kJ/mol
# Density = 2.528649 g / cm^3
# Si number density = 25.344174 Si / 1000 Ang^3
#
#
#
# Elastic Constant Matrix: (Units=GPa)
#
#
# Indices 1 2 3 4 5 6 
#
# 1 87.8907 57.7927 35.9237 0.0068 -18.0518 0.0027
# 2 57.7927 110.2811 53.6247 -0.0080 -12.2282 -0.0018
# 3 35.9237 53.6247 89.5550 -0.0099 -2.9174 -0.0031
# 4 0.0068 -0.0080 -0.0099 48.1352 0.0047 -8.8651
# 5 -18.0518 -12.2282 -2.9174 0.0047 34.6894 0.0032
# 6 0.0027 -0.0018 -0.0031 -8.8651 0.0032 37.0506
#
#
#
# Elastic Compliance Matrix: (Units=1/GPa)
#
#
# Indices 1 2 3 4 5 6 
#
# 1 0.019124 -0.007948 -0.002687 -0.000006 0.006924 -0.000004
# 2 -0.007948 0.016637 -0.006736 0.000003 0.001162 0.000001
# 3 -0.002687 -0.006736 0.016199 0.000003 -0.002410 0.000002
# 4 -0.000006 0.000003 0.000003 0.021732 -0.000005 0.005200
# 5 0.006924 0.001162 -0.002410 -0.000005 0.032637 -0.000005
# 6 -0.000004 0.000001 0.000002 0.005200 -0.000005 0.028234
#
#
# Mechanical properties :
#
#
# Convention : Reuss Voigt Hill
#
# Bulk Modulus (GPa) = 58.07534 64.71213 61.39374
# Shear Modulus (GPa) = 28.56394 33.33408 30.94901
#
# Velocity S-wave (km/s) = 3.36079 3.63058 3.49829
# Velocity P-wave (km/s) = 6.16638 6.56990 6.37134
#
# Compressibility (1/GPa) = 0.01721901
#
# Stress axis : x y z
#
# Youngs Moduli (GPa) = 52.28976 60.10645 61.73172
#
# Poissons Ratio (x) = 0.47771 0.16586
# Poissons Ratio (y) = 0.41559 0.41584
# Poissons Ratio (z) = 0.14049 0.40489
#
# Static dielectric constant tensor:
#      x y z
#    x 4.421370 0.000000 -0.106510 
#    y 0.000000 4.532280 -0.000010 
#    z -0.106510 -0.000010 4.474510 
# 
# 
# High freq. dielectric constant tensor:
#      x y z
#    x 1.993470 0.000000 -0.001310 
#    y 0.000000 2.012790 0.000000 
#    z -0.001310 0.000000 2.017560 
# 
# From -- ./inp_files/248706.got.cif
#   From: 2010.06.25/outbox.cif.g09.slc.cpg/sg15_125_cif.got.tgz:248706.got - 2010.06.28 07:06:18.
