data_PCOD8148000
_publ_section_title
;
Structure prediction by ZEFSAII (Michael W. Deem and Ramdas Pophale) SiO2 
 PCOD8148000
Probable space group: C 2/C
;
_chemical_formula_sum "Si O2"
_cell_formula_units_Z 52
_cell_length_a 24.500939
_cell_length_b 8.538649
_cell_length_c 10.332654
_cell_angle_alpha 90.000000
_cell_angle_beta 73.582035
_cell_angle_gamma 90.000000
_cell_volume 2073.501946
_symmetry_space_group_name_H-M "C 2/C"
_symmetry_group_IT_number 15
_symmetry_cell_setting 'monoclinic'
loop_
_space_group_symop_operation_xyz
x,y,z
-x,y,1/2-z
-x,-y,-z
x,-y,1/2+z
1/2+x,1/2+y,z
1/2-x,1/2+y,1/2-z
1/2-x,1/2-y,-z
1/2+x,1/2-y,1/2+z
loop_
_atom_site_type_symbol
_atom_site_label
_atom_site_fract_x
_atom_site_fract_y
_atom_site_fract_z
Si Si1 0.343113 0.093248 0.139704
Si Si2 0.217756 0.583937 0.043256
Si Si3 0.500000 0.517560 0.750000
Si Si4 0.826444 0.105127 0.490269
Si Si5 0.090191 0.182212 0.537186
Si Si6 0.435320 0.935676 0.762584
Si Si7 0.409070 0.731180 0.246138
O O1 0.310611 0.067420 0.297210
O O2 0.411320 0.076358 0.130711
O O3 0.332044 0.270000 0.101373
O O4 0.324859 0.960555 0.047101
O O5 0.250000 0.750000 0.000000
O O6 0.262238 0.441638 0.009254
O O7 0.527023 0.618313 0.614817
O O8 0.549257 0.414638 0.776740
O O9 0.848107 0.181199 0.341778
O O10 0.863563 0.953688 0.500800
O O11 0.106055 0.314068 0.632933
O O12 0.092775 0.276505 0.401983
O O13 0.500000 0.883988 0.750000
O O14 0.429164 0.116252 0.814217
#
# Coordination Sequence:
#
# PCOD8148000 Si02
#       7
#     8   8   4   8   8   8   8
#     4  12  29  52  77 119 159 214 273 338 409 492
#     4  12  28  52  86 117 159 210 271 342 416 488
#     4  10  22  48  68 118 148 216 262 336 382 478
#     4  11  28  49  83 118 160 207 268 339 413 491
#     4  11  26  46  78 112 160 208 270 323 406 476
#     4  12  28  50  76 117 163 215 271 334 393 476
#     4  11  26  45  76 111 162 209 268 328 403 467
#
# _framework density 25.078346
#
# number of rings (size 3 to 8) (size 9 to 14) (size 15 to 20)
#    0.000    0.615    1.538    3.692   15.077    3.077 
#    0.000    0.000    0.000    0.000    0.000    0.000 
#    0.000    0.000    0.000    0.000    0.000    0.000 
#
# Total GULP energy -322218.698305 kJ/mol
# GULP energy per Si atom -12393.026858 kJ/mol
# Density = 2.502127 g / cm^3
# Si number density = 25.078346 Si / 1000 Ang^3
#
#
#
# Elastic Constant Matrix: (Units=GPa)
#
#
# Indices 1 2 3 4 5 6 
#
# 1 151.3331 46.3578 56.9930 0.0000 18.4079 0.0000
# 2 46.3578 151.9460 62.2075 0.0000 13.8255 0.0000
# 3 56.9930 62.2075 159.7051 0.0000 13.1907 0.0000
# 4 0.0000 0.0000 0.0000 45.4803 0.0000 -1.0208
# 5 18.4079 13.8255 13.1907 0.0000 29.9286 0.0000
# 6 0.0000 0.0000 0.0000 -1.0208 0.0000 33.6722
#
#
#
# Elastic Compliance Matrix: (Units=1/GPa)
#
#
# Indices 1 2 3 4 5 6 
#
# 1 0.008246 -0.001320 -0.002138 0.000000 -0.003519 0.000000
# 2 -0.001320 0.008205 -0.002573 0.000000 -0.001845 0.000000
# 3 -0.002138 -0.002573 0.008115 0.000000 -0.001073 0.000000
# 4 0.000000 0.000000 0.000000 0.022003 0.000000 0.000667
# 5 -0.003519 -0.001845 -0.001073 0.000000 0.036903 0.000000
# 6 0.000000 0.000000 0.000000 0.000667 0.000000 0.029718
#
#
# Mechanical properties :
#
#
# Convention : Reuss Voigt Hill
#
# Bulk Modulus (GPa) = 79.96824 88.23342 84.10083
# Shear Modulus (GPa) = 38.63441 41.64462 40.13952
#
# Velocity S-wave (km/s) = 3.92924 4.07944 4.00505
# Velocity P-wave (km/s) = 7.24857 7.57949 7.41588
#
# Compressibility (1/GPa) = 0.01250496
#
# Stress axis : x y z
#
# Youngs Moduli (GPa) = 121.27812 121.87505 123.22778
#
# Poissons Ratio (x) = 0.16091 0.26341
# Poissons Ratio (y) = 0.16012 0.31700
# Poissons Ratio (z) = 0.25924 0.31352
#
# Static dielectric constant tensor:
#      x y z
#    x 4.764550 0.000000 -0.193390 
#    y 0.000000 4.827830 0.000000 
#    z -0.193390 0.000000 4.566500 
# 
# 
# High freq. dielectric constant tensor:
#      x y z
#    x 1.999960 0.000000 -0.009360 
#    y 0.000000 2.035610 0.000000 
#    z -0.009360 0.000000 1.997260 
# 
# From -- ./inp_files/121446.got.cif
#   From: 2010.06.25/outbox.cif.g09.slc.cpg/sg15_61_cif.got.tgz:121446.got - 2010.06.28 07:06:18.
