data_PCOD8148016
_publ_section_title
;
Structure prediction by ZEFSAII (Michael W. Deem and Ramdas Pophale) SiO2 
 PCOD8148016
Probable space group: C 2/C
;
_chemical_formula_sum "Si O2"
_cell_formula_units_Z 56
_cell_length_a 11.218151
_cell_length_b 8.520260
_cell_length_c 30.031408
_cell_angle_alpha 90.000000
_cell_angle_beta 113.551089
_cell_angle_gamma 90.000000
_cell_volume 2631.352459
_symmetry_space_group_name_H-M "C 2/C"
_symmetry_group_IT_number 15
_symmetry_cell_setting 'monoclinic'
loop_
_space_group_symop_operation_xyz
x,y,z
-x,y,1/2-z
-x,-y,-z
x,-y,1/2+z
1/2+x,1/2+y,z
1/2-x,1/2+y,1/2-z
1/2-x,1/2-y,-z
1/2+x,1/2-y,1/2+z
loop_
_atom_site_type_symbol
_atom_site_label
_atom_site_fract_x
_atom_site_fract_y
_atom_site_fract_z
Si Si1 0.668606 0.618942 0.914617
Si Si2 0.500000 0.728060 0.250000
Si Si3 0.344463 0.980004 0.585792
Si Si4 0.456673 0.474893 0.315832
Si Si5 0.000000 0.728885 0.250000
Si Si6 0.150272 0.888822 0.994178
Si Si7 0.683481 0.023333 0.815885
Si Si8 0.030387 0.623772 0.542879
O O1 0.622001 0.796760 0.915999
O O2 0.590619 0.539927 0.862777
O O3 0.645431 0.516915 0.954808
O O4 0.818692 0.623076 0.922753
O O5 0.459457 0.630679 0.287032
O O6 0.374367 0.829205 0.218783
O O7 0.350531 0.033946 0.637388
O O8 0.200053 0.020779 0.545629
O O9 0.454209 0.078100 0.576267
O O10 0.438081 0.329105 0.280321
O O11 0.338121 0.481650 0.332754
O O12 0.120858 0.632052 0.286424
O O13 0.011426 0.800681 0.979438
O O14 0.250000 0.750000 0.000000
O O15 0.000000 0.500000 0.500000
#
# Coordination Sequence:
#
# PCOD8148016 Si02
#       8
#     8   4   8   8   4   8   8   8
#     4  12  25  44  69 102 137 180 231 279 342 404
#     4  10  26  44  74  98 130 182 222 272 348 412
#     4  11  25  44  68 103 134 182 230 280 340 403
#     4  11  25  44  70 101 133 175 224 278 342 403
#     4  10  22  50  64  98 136 168 224 284 344 398
#     4  10  23  43  65  97 137 179 227 275 334 408
#     4  11  24  46  69 100 136 171 226 280 341 404
#     4  11  25  46  68  95 144 183 222 286 334 400
#
# _framework density 21.281831
#
# number of rings (size 3 to 8) (size 9 to 14) (size 15 to 20)
#    0.000    1.143    4.286    1.286    6.000    2.857 
#   10.286    0.000    0.000    0.000    0.000    0.000 
#    0.000    0.000    0.000    0.000    0.000    0.000 
#
# Total GULP energy -347260.920908 kJ/mol
# GULP energy per Si atom -12402.175747 kJ/mol
# Density = 2.123339 g / cm^3
# Si number density = 21.281831 Si / 1000 Ang^3
#
#
#
# Elastic Constant Matrix: (Units=GPa)
#
#
# Indices 1 2 3 4 5 6 
#
# 1 102.8557 10.0350 31.1113 0.0000 20.1928 0.0000
# 2 10.0350 95.5736 31.9845 0.0000 8.9219 0.0000
# 3 31.1113 31.9845 133.4054 0.0000 6.1320 0.0000
# 4 0.0000 0.0000 0.0000 67.6016 0.0000 -0.2540
# 5 20.1928 8.9219 6.1320 0.0000 20.8634 0.0000
# 6 0.0000 0.0000 0.0000 -0.2540 0.0000 23.8777
#
#
#
# Elastic Compliance Matrix: (Units=1/GPa)
#
#
# Indices 1 2 3 4 5 6 
#
# 1 0.012774 0.000632 -0.002585 0.000000 -0.011874 0.000000
# 2 0.000632 0.011767 -0.002746 0.000000 -0.004837 0.000000
# 3 -0.002585 -0.002746 0.008706 0.000000 0.001117 0.000000
# 4 0.000000 0.000000 0.000000 0.014793 0.000000 0.000157
# 5 -0.011874 -0.004837 0.001117 0.000000 0.061163 0.000000
# 6 0.000000 0.000000 0.000000 0.000157 0.000000 0.041882
#
#
# Mechanical properties :
#
#
# Convention : Reuss Voigt Hill
#
# Bulk Modulus (GPa) = 41.93047 53.12180 47.52614
# Shear Modulus (GPa) = 29.68557 39.71546 34.70051
#
# Velocity S-wave (km/s) = 3.73886 4.32460 4.04235
# Velocity P-wave (km/s) = 6.19548 7.06764 6.64588
#
# Compressibility (1/GPa) = 0.02384901
#
# Stress axis : x y z
#
# Youngs Moduli (GPa) = 78.28682 84.98061 114.86563
#
# Poissons Ratio (x) = -0.05373 0.29689
# Poissons Ratio (y) = -0.04949 0.31547
# Poissons Ratio (z) = 0.20235 0.23339
#
# Static dielectric constant tensor:
#      x y z
#    x 3.843660 0.000000 0.166250 
#    y 0.000000 4.457580 0.000000 
#    z 0.166250 0.000000 4.012620 
# 
# 
# High freq. dielectric constant tensor:
#      x y z
#    x 1.829330 0.000000 0.005170 
#    y 0.000000 1.854000 0.000000 
#    z 0.005170 0.000000 1.846070 
# 
# From -- ./inp_files/310409.got.cif
#   From: 2010.06.25/outbox.cif.g09.slc.cpg/sg15_156_cif.got.tgz:310409.got - 2010.06.28 07:06:18.
