data_PCOD8149639
_publ_section_title
;
Structure prediction by ZEFSAII (Michael W. Deem and Ramdas Pophale) SiO2 
 PCOD8149639
Probable space group: C 2/C
;
_chemical_formula_sum "Si O2"
_cell_formula_units_Z 60
_cell_length_a 28.149060
_cell_length_b 8.349051
_cell_length_c 12.008738
_cell_angle_alpha 90.000000
_cell_angle_beta 102.594444
_cell_angle_gamma 90.000000
_cell_volume 2754.359153
_symmetry_space_group_name_H-M "C 2/C"
_symmetry_group_IT_number 15
_symmetry_cell_setting 'monoclinic'
loop_
_space_group_symop_operation_xyz
x,y,z
-x,y,1/2-z
-x,-y,-z
x,-y,1/2+z
1/2+x,1/2+y,z
1/2-x,1/2+y,1/2-z
1/2-x,1/2-y,-z
1/2+x,1/2-y,1/2+z
loop_
_atom_site_type_symbol
_atom_site_label
_atom_site_fract_x
_atom_site_fract_y
_atom_site_fract_z
Si Si1 0.307345 0.050306 0.795992
Si Si2 0.307006 0.239434 0.007990
Si Si3 0.247161 0.217819 0.368307
Si Si4 0.421341 0.665314 0.817646
Si Si5 0.000000 0.946904 0.750000
Si Si6 0.654809 0.472794 0.846723
Si Si7 0.883776 0.456896 0.674410
Si Si8 0.578861 0.254954 0.923187
O O1 0.262811 0.110199 0.694057
O O2 0.294513 0.875869 0.843634
O O3 0.361108 0.047355 0.769297
O O4 0.314869 0.193863 0.885520
O O5 0.332321 0.406631 0.047067
O O6 0.333376 0.103413 0.094132
O O7 0.250000 0.250000 0.000000
O O8 0.250000 0.250000 0.500000
O O9 0.202825 0.099460 0.317255
O O10 0.468451 0.559857 0.814120
O O11 0.373904 0.557185 0.769054
O O12 0.419989 0.816815 0.733250
O O13 0.422656 0.725401 0.944946
O O14 0.030777 0.832650 0.846383
O O15 0.625865 0.335131 0.894488
O O16 0.915883 0.567940 0.608474
#
# Coordination Sequence:
#
# PCOD8149639 Si02
#       8
#     8   8   8   8   4   8   8   8
#     4  12  25  39  63  90 134 187 231 284 335 382
#     4  11  22  40  57  87 135 180 232 274 322 385
#     4  12  27  41  62  94 138 184 247 286 333 393
#     4  10  24  45  72  97 138 171 215 280 355 417
#     4  10  24  48  74 110 124 168 222 274 356 448
#     4  10  24  40  62  95 132 178 233 277 334 405
#     4  11  24  42  62 104 133 178 226 279 333 405
#     4  11  23  45  73  98 138 168 222 285 346 420
#
# _framework density 21.783650999999999
#
# number of rings (size 3 to 8) (size 9 to 14) (size 15 to 20)
#    0.000    1.067    2.667    2.800    7.467    0.533 
#    0.000    5.333    0.000    0.000    0.000    0.000 
#    0.000    0.000    0.000    0.000    0.000    0.000 
#
# Total GULP energy -371946.300858 kJ/mol
# GULP energy per Si atom -12398.210029 kJ/mol
# Density = 2.173407 g / cm^3
# Si number density = 21.783651 Si / 1000 Ang^3
#
#
#
# Elastic Constant Matrix: (Units=GPa)
#
#
# Indices 1 2 3 4 5 6 
#
# 1 89.9846 36.9759 34.5009 0.0000 6.4213 0.0000
# 2 36.9759 109.3246 44.0049 0.0000 4.7810 0.0000
# 3 34.5009 44.0049 127.0107 0.0000 3.9822 0.0000
# 4 0.0000 0.0000 0.0000 39.8791 0.0000 -5.5557
# 5 6.4213 4.7810 3.9822 0.0000 24.1286 0.0000
# 6 0.0000 0.0000 0.0000 -5.5557 0.0000 34.5140
#
#
#
# Elastic Compliance Matrix: (Units=1/GPa)
#
#
# Indices 1 2 3 4 5 6 
#
# 1 0.013674 -0.003545 -0.002406 0.000000 -0.002539 0.000000
# 2 -0.003545 0.011603 -0.003030 0.000000 -0.000856 0.000000
# 3 -0.002406 -0.003030 0.009588 0.000000 -0.000341 0.000000
# 4 0.000000 0.000000 0.000000 0.025651 0.000000 0.004129
# 5 -0.002539 -0.000856 -0.000341 0.000000 0.042346 0.000000
# 6 0.000000 0.000000 0.000000 0.004129 0.000000 0.029638
#
#
# Mechanical properties :
#
#
# Convention : Reuss Voigt Hill
#
# Bulk Modulus (GPa) = 59.16840 61.92033 60.54437
# Shear Modulus (GPa) = 32.03130 33.76022 32.89576
#
# Velocity S-wave (km/s) = 3.83878 3.94102 3.89023
# Velocity P-wave (km/s) = 6.84610 7.01396 6.93054
#
# Compressibility (1/GPa) = 0.01690091
#
# Stress axis : x y z
#
# Youngs Moduli (GPa) = 73.13386 86.18272 104.30094
#
# Poissons Ratio (x) = 0.30552 0.25099
# Poissons Ratio (y) = 0.25926 0.31607
# Poissons Ratio (z) = 0.17599 0.26116
#
# Static dielectric constant tensor:
#      x y z
#    x 3.841910 0.000000 0.117870 
#    y 0.000000 4.038900 0.000000 
#    z 0.117870 0.000000 4.123680 
# 
# 
# High freq. dielectric constant tensor:
#      x y z
#    x 1.839150 0.000000 0.005820 
#    y 0.000000 1.870030 0.000000 
#    z 0.005820 0.000000 1.864130 
# 
# From -- ./inp_files/121945.got.cif
#   From: 2010.06.25/outbox.cif.g09.slc.cpg/sg15_61_cif.got.tgz:121945.got - 2010.06.28 07:06:18.
