data_PCOD8149163
_publ_section_title
;
Structure prediction by ZEFSAII (Michael W. Deem and Ramdas Pophale) SiO2 
 PCOD8149163
Probable space group: C 2/C
;
_chemical_formula_sum "Si O2"
_cell_formula_units_Z 36
_cell_length_a 12.031489
_cell_length_b 10.192675
_cell_length_c 14.418299
_cell_angle_alpha 90.000000
_cell_angle_beta 110.310779
_cell_angle_gamma 90.000000
_cell_volume 1658.222344
_symmetry_space_group_name_H-M "C 2/C"
_symmetry_group_IT_number 15
_symmetry_cell_setting 'monoclinic'
loop_
_space_group_symop_operation_xyz
x,y,z
-x,y,1/2-z
-x,-y,-z
x,-y,1/2+z
1/2+x,1/2+y,z
1/2-x,1/2+y,1/2-z
1/2-x,1/2-y,-z
1/2+x,1/2-y,1/2+z
loop_
_atom_site_type_symbol
_atom_site_label
_atom_site_fract_x
_atom_site_fract_y
_atom_site_fract_z
Si Si1 0.507348 0.803130 0.942311
Si Si2 0.137246 0.545378 0.631992
Si Si3 0.500000 0.806404 0.250000
Si Si4 0.868432 0.828090 0.555512
Si Si5 0.891557 0.085978 0.654630
O O1 0.574959 0.728491 0.878330
O O2 0.393825 0.889343 0.874948
O O3 0.599356 0.899212 0.020143
O O4 0.463235 0.694981 0.002355
O O5 0.067347 0.603225 0.697293
O O6 0.274667 0.585068 0.685833
O O7 0.591974 0.717355 0.331364
O O8 0.750000 0.750000 0.500000
O O9 0.857847 0.985283 0.561405
O O10 0.000000 0.037795 0.750000
#
# Coordination Sequence:
#
# PCOD8149163 Si02
#       5
#     8   8   4   8   8
#     4  10  23  44  68  97 130 185 229 285 349 411
#     4  10  23  45  67  97 140 174 234 283 347 419
#     4  10  24  44  66  92 132 188 216 282 360 406
#     4  11  22  44  67  91 139 180 223 282 353 411
#     4  12  25  41  68 106 137 174 236 288 342 424
#
# _framework density 21.709997000000001
#
# number of rings (size 3 to 8) (size 9 to 14) (size 15 to 20)
#    0.000    1.333    3.333    1.333    4.667    0.000 
#    0.000    0.000    0.000    0.000    0.000    0.000 
#    0.000    0.000    0.000    0.000    0.000    0.000 
#
# Total GULP energy -223137.050265 kJ/mol
# GULP energy per Si atom -12396.502792 kJ/mol
# Density = 2.166058 g / cm^3
# Si number density = 21.709997 Si / 1000 Ang^3
#
#
#
# Elastic Constant Matrix: (Units=GPa)
#
#
# Indices 1 2 3 4 5 6 
#
# 1 130.2312 53.4493 46.0158 0.0000 15.0967 0.0000
# 2 53.4493 114.6741 26.7134 0.0000 -5.1683 0.0000
# 3 46.0158 26.7134 86.1806 0.0000 9.9081 0.0000
# 4 0.0000 0.0000 0.0000 21.8815 0.0000 -3.6103
# 5 15.0967 -5.1683 9.9081 0.0000 36.5142 0.0000
# 6 0.0000 0.0000 0.0000 -3.6103 0.0000 39.2507
#
#
#
# Elastic Compliance Matrix: (Units=1/GPa)
#
#
# Indices 1 2 3 4 5 6 
#
# 1 0.011563 -0.004590 -0.004260 0.000000 -0.004274 0.000000
# 2 -0.004590 0.011394 -0.001532 0.000000 0.003926 0.000000
# 3 -0.004260 -0.001532 0.014632 0.000000 -0.002426 0.000000
# 4 0.000000 0.000000 0.000000 0.046405 0.000000 0.004268
# 5 -0.004274 0.003926 -0.002426 0.000000 0.030368 0.000000
# 6 0.000000 0.000000 0.000000 0.004268 0.000000 0.025870
#
#
# Mechanical properties :
#
#
# Convention : Reuss Voigt Hill
#
# Bulk Modulus (GPa) = 59.43711 64.82699 62.13205
# Shear Modulus (GPa) = 30.01131 33.18976 31.60054
#
# Velocity S-wave (km/s) = 3.72206 3.91420 3.81934
# Velocity P-wave (km/s) = 6.77561 7.09600 6.93765
#
# Compressibility (1/GPa) = 0.01682451
#
# Stress axis : x y z
#
# Youngs Moduli (GPa) = 86.48187 87.76867 68.34331
#
# Poissons Ratio (x) = 0.40284 0.29114
# Poissons Ratio (y) = 0.39694 0.10472
# Poissons Ratio (z) = 0.36841 0.13449
#
# Static dielectric constant tensor:
#      x y z
#    x 3.865050 0.000000 0.095490 
#    y 0.000000 3.956010 0.000000 
#    z 0.095490 0.000000 3.853020 
# 
# 
# High freq. dielectric constant tensor:
#      x y z
#    x 1.856610 0.000000 0.000880 
#    y 0.000000 1.857490 0.000000 
#    z 0.000880 0.000000 1.843010 
# 
# From -- ./inp_files/141356.got.cif
#   From: 2010.06.25/outbox.cif.g09.slc.cpg/sg15_71_cif.got.tgz:141356.got - 2010.06.28 07:06:18.
