data_PCOD8149174
_publ_section_title
;
Structure prediction by ZEFSAII (Michael W. Deem and Ramdas Pophale) SiO2 
 PCOD8149174
Probable space group: C 2/C
;
_chemical_formula_sum "Si O2"
_cell_formula_units_Z 32
_cell_length_a 13.211990
_cell_length_b 22.999025
_cell_length_c 8.667829
_cell_angle_alpha 90.000000
_cell_angle_beta 148.145011
_cell_angle_gamma 90.000000
_cell_volume 1390.060514
_symmetry_space_group_name_H-M "C 2/C"
_symmetry_group_IT_number 15
_symmetry_cell_setting 'monoclinic'
loop_
_space_group_symop_operation_xyz
x,y,z
-x,y,1/2-z
-x,-y,-z
x,-y,1/2+z
1/2+x,1/2+y,z
1/2-x,1/2+y,1/2-z
1/2-x,1/2-y,-z
1/2+x,1/2-y,1/2+z
loop_
_atom_site_type_symbol
_atom_site_label
_atom_site_fract_x
_atom_site_fract_y
_atom_site_fract_z
Si Si1 0.401451 0.732415 0.327738
Si Si2 0.212627 0.147404 0.066227
Si Si3 0.503896 0.063903 0.571906
Si Si4 0.786619 0.662195 0.818178
O O1 0.284597 0.701945 0.314435
O O2 0.579907 0.692142 0.506352
O O3 0.457469 0.795880 0.472310
O O4 0.250000 0.750000 0.000000
O O5 0.304874 0.092133 0.265516
O O6 0.319188 0.159249 0.042536
O O7 0.000000 0.127708 0.750000
O O8 0.500000 0.062627 0.750000
O O9 0.684466 0.100464 0.732663
O O10 0.500000 0.000000 0.500000
#
# Coordination Sequence:
#
# PCOD8149174 Si02
#       4
#     8   8   8   8
#     4  11  22  39  66 104 145 183 225 279 342 413
#     4  10  23  44  69 101 141 187 232 283 348 415
#     4  12  26  48  73  99 132 179 237 297 352 416
#     4  11  23  41  66 100 138 183 228 279 344 412
#
# _framework density 23.020579999999999
#
# number of rings (size 3 to 8) (size 9 to 14) (size 15 to 20)
#    0.000    1.000    0.000    6.750    0.000    6.000 
#    0.000   13.750    0.000    0.000    0.000    0.000 
#    0.000    0.000    0.000    0.000    0.000    0.000 
#
# Total GULP energy -198239.782529 kJ/mol
# GULP energy per Si atom -12389.986408 kJ/mol
# Density = 2.296818 g / cm^3
# Si number density = 23.020580 Si / 1000 Ang^3
#
#
#
# Elastic Constant Matrix: (Units=GPa)
#
#
# Indices 1 2 3 4 5 6 
#
# 1 184.5616 80.6513 68.6275 0.0000 -23.3950 0.0000
# 2 80.6513 196.2992 60.6421 0.0000 -20.6500 0.0000
# 3 68.6275 60.6421 134.1744 0.0000 -32.4873 0.0000
# 4 0.0000 0.0000 0.0000 36.2275 0.0000 -6.8813
# 5 -23.3950 -20.6500 -32.4873 0.0000 51.4863 0.0000
# 6 0.0000 0.0000 0.0000 -6.8813 0.0000 46.8186
#
#
#
# Elastic Compliance Matrix: (Units=1/GPa)
#
#
# Indices 1 2 3 4 5 6 
#
# 1 0.007446 -0.002158 -0.002625 0.000000 0.000862 0.000000
# 2 -0.002158 0.006575 -0.001731 0.000000 0.000564 0.000000
# 3 -0.002625 -0.001731 0.010766 0.000000 0.004906 0.000000
# 4 0.000000 0.000000 0.000000 0.028396 0.000000 0.004174
# 5 0.000862 0.000564 0.004906 0.000000 0.023136 0.000000
# 6 0.000000 0.000000 0.000000 0.004174 0.000000 0.021972
#
#
# Mechanical properties :
#
#
# Convention : Reuss Voigt Hill
#
# Bulk Modulus (GPa) = 85.03835 103.87522 94.45678
# Shear Modulus (GPa) = 43.38767 47.24743 45.31755
#
# Velocity S-wave (km/s) = 4.34606 4.53526 4.44167
# Velocity P-wave (km/s) = 7.88699 8.52323 8.21128
#
# Compressibility (1/GPa) = 0.01175940
#
# Stress axis : x y z
#
# Youngs Moduli (GPa) = 134.29181 152.08938 92.88601
#
# Poissons Ratio (x) = 0.32820 0.24380
# Poissons Ratio (y) = 0.28979 0.16082
# Poissons Ratio (z) = 0.35248 0.26333
#
# Static dielectric constant tensor:
#      x y z
#    x 5.007710 0.000000 -0.090560 
#    y 0.000000 4.132570 0.000000 
#    z -0.090560 0.000000 3.670170 
# 
# 
# High freq. dielectric constant tensor:
#      x y z
#    x 1.945940 0.000000 -0.005000 
#    y 0.000000 1.893600 0.000000 
#    z -0.005000 0.000000 1.930260 
# 
# From -- ./inp_files/42477.got.cif
#   From: 2010.06.25/outbox.cif.g09.slc.cpg/sg15_22_cif.got.tgz:42477.got - 2010.06.28 07:06:18.
