data_PCOD8149820
_publ_section_title
;
Structure prediction by ZEFSAII (Michael W. Deem and Ramdas Pophale) SiO2 
 PCOD8149820
Probable space group: C 2/C
;
_chemical_formula_sum "Si O2"
_cell_formula_units_Z 40
_cell_length_a 7.947446
_cell_length_b 10.114164
_cell_length_c 18.976244
_cell_angle_alpha 90.000000
_cell_angle_beta 104.423688
_cell_angle_gamma 90.000000
_cell_volume 1477.265675
_symmetry_space_group_name_H-M "C 2/C"
_symmetry_group_IT_number 15
_symmetry_cell_setting 'monoclinic'
loop_
_space_group_symop_operation_xyz
x,y,z
-x,y,1/2-z
-x,-y,-z
x,-y,1/2+z
1/2+x,1/2+y,z
1/2-x,1/2+y,1/2-z
1/2-x,1/2-y,-z
1/2+x,1/2-y,1/2+z
loop_
_atom_site_type_symbol
_atom_site_label
_atom_site_fract_x
_atom_site_fract_y
_atom_site_fract_z
Si Si1 0.700674 0.021509 0.325920
Si Si2 0.749064 0.743092 0.597397
Si Si3 0.635141 0.740269 0.903303
Si Si4 0.031959 0.877694 0.551696
Si Si5 0.320894 0.503472 0.192010
O O1 0.660390 0.892568 0.368861
O O2 0.677123 0.986488 0.240782
O O3 0.582880 0.145443 0.340343
O O4 0.903849 0.067908 0.364128
O O5 0.538349 0.720721 0.565545
O O6 0.852387 0.794469 0.538656
O O7 0.783351 0.851219 0.660294
O O8 0.805641 0.793813 0.963872
O O9 0.697430 0.606510 0.870864
O O10 0.000000 0.000000 0.500000
O O11 0.500000 0.482202 0.250000
#
# Coordination Sequence:
#
# PCOD8149820 Si02
#       5
#     8   8   8   8   8
#     4  10  24  42  65 104 131 176 227 270 339 413
#     4  12  23  43  70  97 135 178 219 283 342 391
#     4  10  25  43  66 104 130 176 228 271 340 406
#     4  10  25  47  67  98 138 179 233 279 328 402
#     4  12  21  43  67 101 144 165 220 288 339 407
#
# _framework density 27.077051999999998
#
# number of rings (size 3 to 8) (size 9 to 14) (size 15 to 20)
#    1.200    0.000    4.000    1.200    2.800    1.600 
#    0.000    4.000    0.000    0.000    0.000    0.000 
#    0.000    0.000    0.000    0.000    0.000    0.000 
#
# Total GULP energy -247863.310083 kJ/mol
# GULP energy per Si atom -12393.165504 kJ/mol
# Density = 2.701542 g / cm^3
# Si number density = 27.077052 Si / 1000 Ang^3
#
#
#
# Elastic Constant Matrix: (Units=GPa)
#
#
# Indices 1 2 3 4 5 6 
#
# 1 90.9455 30.4229 62.6788 0.0000 -33.3608 0.0000
# 2 30.4229 169.9736 38.1710 0.0000 -16.8176 0.0000
# 3 62.6788 38.1710 89.4100 0.0000 -31.0613 0.0000
# 4 0.0000 0.0000 0.0000 64.8644 0.0000 -3.7111
# 5 -33.3608 -16.8176 -31.0613 0.0000 62.3120 0.0000
# 6 0.0000 0.0000 0.0000 -3.7111 0.0000 40.6345
#
#
#
# Elastic Compliance Matrix: (Units=1/GPa)
#
#
# Indices 1 2 3 4 5 6 
#
# 1 0.022549 -0.000421 -0.013877 0.000000 0.005042 0.000000
# 2 -0.000421 0.006525 -0.002367 0.000000 0.000356 0.000000
# 3 -0.013877 -0.002367 0.023124 0.000000 0.003459 0.000000
# 4 0.000000 0.000000 0.000000 0.015498 0.000000 0.001415
# 5 0.005042 0.000356 0.003459 0.000000 0.020568 0.000000
# 6 0.000000 0.000000 0.000000 0.001415 0.000000 0.024739
#
#
# Mechanical properties :
#
#
# Convention : Reuss Voigt Hill
#
# Bulk Modulus (GPa) = 52.99373 68.09716 60.54545
# Shear Modulus (GPa) = 32.76047 48.16594 40.46320
#
# Velocity S-wave (km/s) = 3.48213 4.22221 3.86991
# Velocity P-wave (km/s) = 5.98172 6.99810 6.50978
#
# Compressibility (1/GPa) = 0.01887016
#
# Stress axis : x y z
#
# Youngs Moduli (GPa) = 44.34704 153.24728 43.24422
#
# Poissons Ratio (x) = 0.06451 0.60008
# Poissons Ratio (y) = 0.01867 0.10236
# Poissons Ratio (z) = 0.61538 0.36276
#
# Static dielectric constant tensor:
#      x y z
#    x 5.301020 0.000000 -0.153620 
#    y 0.000000 5.154370 0.000000 
#    z -0.153620 0.000000 5.307600 
# 
# 
# High freq. dielectric constant tensor:
#      x y z
#    x 2.103330 0.000000 -0.004470 
#    y 0.000000 2.101510 0.000000 
#    z -0.004470 0.000000 2.123750 
# 
# From -- ./inp_files/229899.got.cif
#   From: 2010.06.25/outbox.cif.g09.slc.cpg/sg15_115_cif.got.tgz:229899.got - 2010.06.28 07:06:18.
