data_PCOD8149766
_publ_section_title
;
Structure prediction by ZEFSAII (Michael W. Deem and Ramdas Pophale) SiO2 
 PCOD8149766
Probable space group: C 2/C
;
_chemical_formula_sum "Si O2"
_cell_formula_units_Z 56
_cell_length_a 14.376295
_cell_length_b 11.680699
_cell_length_c 16.101213
_cell_angle_alpha 90.000000
_cell_angle_beta 102.352070
_cell_angle_gamma 90.000000
_cell_volume 2641.210304
_symmetry_space_group_name_H-M "C 2/C"
_symmetry_group_IT_number 15
_symmetry_cell_setting 'monoclinic'
loop_
_space_group_symop_operation_xyz
x,y,z
-x,y,1/2-z
-x,-y,-z
x,-y,1/2+z
1/2+x,1/2+y,z
1/2-x,1/2+y,1/2-z
1/2-x,1/2-y,-z
1/2+x,1/2-y,1/2+z
loop_
_atom_site_type_symbol
_atom_site_label
_atom_site_fract_x
_atom_site_fract_y
_atom_site_fract_z
Si Si1 0.764237 0.607996 0.834064
Si Si2 0.646536 0.230974 0.948971
Si Si3 0.594047 0.501031 0.216933
Si Si4 0.396776 0.247323 0.743507
Si Si5 0.893748 0.481753 0.509960
Si Si6 0.023444 0.883093 0.047801
Si Si7 0.843606 0.254955 0.572490
O O1 0.693479 0.513681 0.783853
O O2 0.835107 0.652502 0.777585
O O3 0.823550 0.550122 0.920288
O O4 0.695130 0.714763 0.845488
O O5 0.642374 0.279662 0.854970
O O6 0.750000 0.250000 0.000000
O O7 0.571643 0.293602 0.994668
O O8 0.633810 0.095277 0.946940
O O9 0.500000 0.466696 0.250000
O O10 0.591966 0.637738 0.197809
O O11 0.593954 0.418215 0.136553
O O12 0.500000 0.190443 0.750000
O O13 0.888051 0.381986 0.578617
O O14 0.000000 0.500000 0.500000
O O15 0.923394 0.833212 0.058129
O O16 0.000000 0.000000 0.000000
O O17 0.750000 0.250000 0.500000
#
# Coordination Sequence:
#
# PCOD8149766 Si02
#       7
#     8   8   8   8   8   8   8
#     4  11  24  44  67  99 139 180 233 285 347 415
#     4  12  26  43  68 103 137 178 231 282 341 413
#     4  11  23  42  67  99 136 176 230 292 344 406
#     4  11  25  44  67  96 138 181 227 279 350 413
#     4  11  23  44  71  98 141 180 228 284 349 416
#     4  12  25  42  72 100 132 179 235 286 337 415
#     4  10  24  41  70 100 133 181 229 280 349 411
#
# _framework density 21.202400999999998
#
# number of rings (size 3 to 8) (size 9 to 14) (size 15 to 20)
#    0.000    0.857    2.857    4.286   10.000    1.143 
#    0.000    0.000    3.143    0.000    0.000    0.000 
#    0.000    0.000    0.000    0.000    0.000    0.000 
#
# Total GULP energy -347097.793775 kJ/mol
# GULP energy per Si atom -12396.349778 kJ/mol
# Density = 2.115414 g / cm^3
# Si number density = 21.202401 Si / 1000 Ang^3
#
#
#
# Elastic Constant Matrix: (Units=GPa)
#
#
# Indices 1 2 3 4 5 6 
#
# 1 134.0296 44.7543 20.0078 0.0000 -2.9450 0.0000
# 2 44.7543 126.7552 25.1362 0.0000 -10.3207 0.0000
# 3 20.0078 25.1362 77.2165 0.0000 0.4382 0.0000
# 4 0.0000 0.0000 0.0000 33.2971 0.0000 -1.1306
# 5 -2.9450 -10.3207 0.4382 0.0000 38.7042 0.0000
# 6 0.0000 0.0000 0.0000 -1.1306 0.0000 36.1924
#
#
#
# Elastic Compliance Matrix: (Units=1/GPa)
#
#
# Indices 1 2 3 4 5 6 
#
# 1 0.008583 -0.002774 -0.001320 0.000000 -0.000072 0.000000
# 2 -0.002774 0.009537 -0.002399 0.000000 0.002359 0.000000
# 3 -0.001320 -0.002399 0.014079 0.000000 -0.000900 0.000000
# 4 0.000000 0.000000 0.000000 0.030065 0.000000 0.000939
# 5 -0.000072 0.002359 -0.000900 0.000000 0.026471 0.000000
# 6 0.000000 0.000000 0.000000 0.000939 0.000000 0.027659
#
#
# Mechanical properties :
#
#
# Convention : Reuss Voigt Hill
#
# Bulk Modulus (GPa) = 52.05405 57.53309 54.79357
# Shear Modulus (GPa) = 36.82310 38.17893 37.50101
#
# Velocity S-wave (km/s) = 4.17194 4.24806 4.21017
# Velocity P-wave (km/s) = 6.91456 7.15929 7.03799
#
# Compressibility (1/GPa) = 0.01921080
#
# Stress axis : x y z
#
# Youngs Moduli (GPa) = 116.50944 104.85898 71.02902
#
# Poissons Ratio (x) = 0.29093 0.09379
# Poissons Ratio (y) = 0.32325 0.17039
# Poissons Ratio (z) = 0.15384 0.25155
#
# Static dielectric constant tensor:
#      x y z
#    x 4.084850 0.000000 -0.003670 
#    y 0.000000 4.191130 0.000000 
#    z -0.003670 0.000000 3.845530 
# 
# 
# High freq. dielectric constant tensor:
#      x y z
#    x 1.853440 0.000000 -0.000040 
#    y 0.000000 1.836650 0.000000 
#    z -0.000040 0.000000 1.821770 
# 
# From -- ./inp_files/152593.got.cif
#   From: 2010.06.25/outbox.cif.g09.slc.cpg/sg15_77_cif.got.tgz:152593.got - 2010.06.28 07:06:18.
