data_PCOD8149675
_publ_section_title
;
Structure prediction by ZEFSAII (Michael W. Deem and Ramdas Pophale) SiO2 
 PCOD8149675
Probable space group: C 2/C
;
_chemical_formula_sum "Si O2"
_cell_formula_units_Z 56
_cell_length_a 21.969240
_cell_length_b 7.393219
_cell_length_c 17.361694
_cell_angle_alpha 90.000000
_cell_angle_beta 52.911470
_cell_angle_gamma 90.000000
_cell_volume 2249.483622
_symmetry_space_group_name_H-M "C 2/C"
_symmetry_group_IT_number 15
_symmetry_cell_setting 'monoclinic'
loop_
_space_group_symop_operation_xyz
x,y,z
-x,y,1/2-z
-x,-y,-z
x,-y,1/2+z
1/2+x,1/2+y,z
1/2-x,1/2+y,1/2-z
1/2-x,1/2-y,-z
1/2+x,1/2-y,1/2+z
loop_
_atom_site_type_symbol
_atom_site_label
_atom_site_fract_x
_atom_site_fract_y
_atom_site_fract_z
Si Si1 0.473612 0.848414 0.140278
Si Si2 0.874125 0.080265 0.299548
Si Si3 0.644790 0.725890 0.025361
Si Si4 0.569333 0.795997 0.744447
Si Si5 0.817568 0.385824 0.971193
Si Si6 0.270182 0.772289 0.675407
Si Si7 0.345851 0.126632 0.621161
O O1 0.441572 0.722761 0.232919
O O2 0.562496 0.806798 0.061046
O O3 0.423699 0.803562 0.101737
O O4 0.459791 0.059111 0.171002
O O5 0.862804 0.077126 0.401423
O O6 0.797268 0.128657 0.317035
O O7 0.891345 0.882241 0.250652
O O8 0.699764 0.898166 0.006837
O O9 0.688351 0.633825 0.917850
O O10 0.500000 0.711936 0.750000
O O11 0.622944 0.895780 0.643037
O O12 0.750000 0.250000 0.000000
O O13 0.849939 0.315307 0.028812
O O14 0.234571 0.692220 0.779691
O O15 0.338894 0.911551 0.640613
#
# Coordination Sequence:
#
# PCOD8149675 Si02
#       7
#     8   8   8   8   8   8   8
#     4  11  23  44  71  96 145 177 227 288 350 415
#     4  11  23  41  68 102 136 179 234 281 344 418
#     4  11  21  44  67 101 136 186 227 288 349 412
#     4  12  22  40  70 101 132 180 223 287 346 407
#     4  11  24  41  67 100 134 176 237 277 338 411
#     4  10  24  40  66  96 135 183 229 283 352 401
#     4  10  25  43  63  99 136 182 227 287 342 413
#
# _framework density 24.894603
#
# number of rings (size 3 to 8) (size 9 to 14) (size 15 to 20)
#    0.000    1.143    2.857    3.429    4.000    3.429 
#    0.000    0.000    0.000    4.286    0.000    0.000 
#    0.000    0.000    0.000    0.000    0.000    0.000 
#
# Total GULP energy -346872.536704 kJ/mol
# GULP energy per Si atom -12388.304882 kJ/mol
# Density = 2.483794 g / cm^3
# Si number density = 24.894603 Si / 1000 Ang^3
#
#
#
# Elastic Constant Matrix: (Units=GPa)
#
#
# Indices 1 2 3 4 5 6 
#
# 1 51.0062 5.5816 5.7076 -0.0053 10.1887 0.0037
# 2 5.5816 67.4732 7.7396 0.0053 -5.8492 -0.0109
# 3 5.7076 7.7396 32.6210 0.0084 -7.5122 -0.0053
# 4 -0.0053 0.0053 0.0084 24.6312 0.0018 2.5966
# 5 10.1887 -5.8492 -7.5122 0.0018 32.4345 0.0011
# 6 0.0037 -0.0109 -0.0053 2.5966 0.0011 16.5233
#
#
#
# Elastic Compliance Matrix: (Units=1/GPa)
#
#
# Indices 1 2 3 4 5 6 
#
# 1 0.022129 -0.001955 -0.005377 0.000009 -0.008549 -0.000009
# 2 -0.001955 0.015534 -0.002701 -0.000004 0.002790 0.000010
# 3 -0.005377 -0.002701 0.034345 -0.000014 0.009157 0.000012
# 4 0.000009 -0.000004 -0.000014 0.041283 -0.000009 -0.006487
# 5 -0.008549 0.002790 0.009157 -0.000009 0.036141 0.000006
# 6 -0.000009 0.000010 0.000012 -0.006487 0.000006 0.061540
#
#
# Mechanical properties :
#
#
# Convention : Reuss Voigt Hill
#
# Bulk Modulus (GPa) = 19.25196 21.01756 20.13476
# Shear Modulus (GPa) = 20.13276 23.52260 21.82768
#
# Velocity S-wave (km/s) = 2.84689 3.07724 2.96430
# Velocity P-wave (km/s) = 4.30773 4.59204 4.45215
#
# Compressibility (1/GPa) = 0.05194276
#
# Stress axis : x y z
#
# Youngs Moduli (GPa) = 45.19006 64.37448 29.11597
#
# Poissons Ratio (x) = 0.12585 0.15655
# Poissons Ratio (y) = 0.08834 0.07864
# Poissons Ratio (z) = 0.24297 0.17388
#
# Static dielectric constant tensor:
#      x y z
#    x 3.972630 -0.000040 0.866110 
#    y -0.000040 4.361950 0.000080 
#    z 0.866110 0.000080 3.284860 
# 
# 
# High freq. dielectric constant tensor:
#      x y z
#    x 1.993410 0.000000 -0.011080 
#    y 0.000000 1.968850 0.000000 
#    z -0.011080 0.000000 2.003510 
# 
# From -- ./inp_files/213783.got.cif
#   From: 2010.06.25/outbox.cif.g09.slc.cpg/sg15_107_cif.got.tgz:213783.got - 2010.06.28 07:06:18.
