data_PCOD8149226
_publ_section_title
;
Structure prediction by ZEFSAII (Michael W. Deem and Ramdas Pophale) SiO2 
 PCOD8149226
Probable space group: C 2/C
;
_chemical_formula_sum "Si O2"
_cell_formula_units_Z 64
_cell_length_a 24.256741
_cell_length_b 10.406898
_cell_length_c 12.225510
_cell_angle_alpha 90.000000
_cell_angle_beta 100.168397
_cell_angle_gamma 90.000000
_cell_volume 3037.702160
_symmetry_space_group_name_H-M "C 2/C"
_symmetry_group_IT_number 15
_symmetry_cell_setting 'monoclinic'
loop_
_space_group_symop_operation_xyz
x,y,z
-x,y,1/2-z
-x,-y,-z
x,-y,1/2+z
1/2+x,1/2+y,z
1/2-x,1/2+y,1/2-z
1/2-x,1/2-y,-z
1/2+x,1/2-y,1/2+z
loop_
_atom_site_type_symbol
_atom_site_label
_atom_site_fract_x
_atom_site_fract_y
_atom_site_fract_z
Si Si1 0.842444 0.057706 0.640910
Si Si2 0.731642 0.535687 0.692086
Si Si3 0.437155 0.735266 0.758223
Si Si4 0.811362 0.813206 0.516197
Si Si5 0.100745 0.634451 0.044183
Si Si6 0.348977 0.915445 0.302731
Si Si7 0.298381 0.294614 0.934147
Si Si8 0.561074 0.989444 0.321339
O O1 0.788312 0.088480 0.697040
O O2 0.898472 0.110062 0.720685
O O3 0.841021 0.125390 0.523777
O O4 0.834560 0.902930 0.623703
O O5 0.690548 0.599417 0.591308
O O6 0.796074 0.575825 0.702618
O O7 0.727645 0.382023 0.671884
O O8 0.500000 0.693574 0.750000
O O9 0.434776 0.773651 0.886888
O O10 0.418317 0.861569 0.681473
O O11 0.750000 0.750000 0.500000
O O12 0.858929 0.708501 0.523192
O O13 0.141781 0.547559 0.130351
O O14 0.060538 0.552215 0.948867
O O15 0.337911 0.810442 0.391864
O O16 0.401431 0.893169 0.240374
O O17 0.250000 0.250000 0.000000
O O18 0.500000 0.980146 0.250000
#
# Coordination Sequence:
#
# PCOD8149226 Si02
#       8
#     8   8   8   8   8   8   8   8
#     4  11  23  42  63  89 131 172 219 267 323 393
#     4  11  24  38  60  93 127 168 211 260 326 390
#     4  10  23  44  71  93 128 177 223 279 324 391
#     4  11  24  39  62  94 131 173 209 261 328 396
#     4  11  23  41  66  97 130 169 222 269 335 390
#     4  11  24  37  66  93 129 170 210 270 327 395
#     4  11  25  38  59  94 130 170 213 258 327 401
#     4  10  24  42  65  97 130 172 224 283 331 386
#
# _framework density 21.068556000000001
#
# number of rings (size 3 to 8) (size 9 to 14) (size 15 to 20)
#    0.000    1.250    2.500    2.250   12.250    5.500 
#    0.000    1.250    0.000    0.000    0.000    0.000 
#    0.000    0.000    0.000    0.000    0.000    0.000 
#
# Total GULP energy -396489.003544 kJ/mol
# GULP energy per Si atom -12390.281361 kJ/mol
# Density = 2.102060 g / cm^3
# Si number density = 21.068556 Si / 1000 Ang^3
#
#
#
# Elastic Constant Matrix: (Units=GPa)
#
#
# Indices 1 2 3 4 5 6 
#
# 1 101.6854 35.9940 33.2372 0.0000 -9.1679 0.0000
# 2 35.9940 76.6977 34.6334 0.0000 -3.0588 0.0000
# 3 33.2372 34.6334 95.4258 0.0000 0.1287 0.0000
# 4 0.0000 0.0000 0.0000 43.1541 0.0000 2.0666
# 5 -9.1679 -3.0588 0.1287 0.0000 33.3059 0.0000
# 6 0.0000 0.0000 0.0000 2.0666 0.0000 32.8168
#
#
#
# Elastic Compliance Matrix: (Units=1/GPa)
#
#
# Indices 1 2 3 4 5 6 
#
# 1 0.012623 -0.004562 -0.002745 0.000000 0.003066 0.000000
# 2 -0.004562 0.017313 -0.004695 0.000000 0.000352 0.000000
# 3 -0.002745 -0.004695 0.013141 0.000000 -0.001238 0.000000
# 4 0.000000 0.000000 0.000000 0.023243 0.000000 -0.001464
# 5 0.003066 0.000352 -0.001238 0.000000 0.030906 0.000000
# 6 0.000000 0.000000 0.000000 -0.001464 0.000000 0.030564
#
#
# Mechanical properties :
#
#
# Convention : Reuss Voigt Hill
#
# Bulk Modulus (GPa) = 52.43022 53.50423 52.96722
# Shear Modulus (GPa) = 31.61511 33.18498 32.40005
#
# Velocity S-wave (km/s) = 3.87794 3.97305 3.92578
# Velocity P-wave (km/s) = 6.70751 6.81889 6.76343
#
# Compressibility (1/GPa) = 0.01907297
#
# Stress axis : x y z
#
# Youngs Moduli (GPa) = 79.22195 57.75898 76.09691
#
# Poissons Ratio (x) = 0.26350 0.20888
# Poissons Ratio (y) = 0.36141 0.35728
# Poissons Ratio (z) = 0.21746 0.27119
#
# Static dielectric constant tensor:
#      x y z
#    x 3.618280 0.000000 -0.097110 
#    y 0.000000 4.012710 0.000000 
#    z -0.097110 0.000000 4.003500 
# 
# 
# High freq. dielectric constant tensor:
#      x y z
#    x 1.810630 0.000000 -0.011820 
#    y 0.000000 1.819250 0.000000 
#    z -0.011820 0.000000 1.837690 
# 
# From -- ./inp_files/117610.got.cif
#   From: 2010.06.25/outbox.cif.g09.slc.cpg/sg15_59_cif.got.tgz:117610.got - 2010.06.28 07:06:18.
