data_PCOD8149286
_publ_section_title
;
Structure prediction by ZEFSAII (Michael W. Deem and Ramdas Pophale) SiO2 
 PCOD8149286
Probable space group: C 2/C
;
_chemical_formula_sum "Si O2"
_cell_formula_units_Z 40
_cell_length_a 14.161329
_cell_length_b 14.428515
_cell_length_c 17.524450
_cell_angle_alpha 90.000000
_cell_angle_beta 32.600374
_cell_angle_gamma 90.000000
_cell_volume 1929.205606
_symmetry_space_group_name_H-M "C 2/C"
_symmetry_group_IT_number 15
_symmetry_cell_setting 'monoclinic'
loop_
_space_group_symop_operation_xyz
x,y,z
-x,y,1/2-z
-x,-y,-z
x,-y,1/2+z
1/2+x,1/2+y,z
1/2-x,1/2+y,1/2-z
1/2-x,1/2-y,-z
1/2+x,1/2-y,1/2+z
loop_
_atom_site_type_symbol
_atom_site_label
_atom_site_fract_x
_atom_site_fract_y
_atom_site_fract_z
Si Si1 0.600160 0.295385 0.998389
Si Si2 0.918940 0.314104 0.386652
Si Si3 0.675038 0.634375 0.601498
Si Si4 0.232062 0.791192 0.745894
Si Si5 0.193818 0.929220 0.638645
O O1 0.648622 0.375504 0.027483
O O2 0.393378 0.280216 0.125515
O O3 0.658265 0.195895 0.992291
O O4 0.704540 0.324834 0.851410
O O5 0.750000 0.250000 0.500000
O O6 0.845387 0.407935 0.474073
O O7 0.000000 0.337766 0.250000
O O8 0.062923 0.269025 0.342033
O O9 0.500000 0.686865 0.750000
O O10 0.686974 0.539984 0.642549
O O11 0.248420 0.883138 0.682182
O O12 0.000000 0.887877 0.750000
#
# Coordination Sequence:
#
# PCOD8149286 Si02
#       5
#     8   8   8   8   8
#     4  11  23  42  68  91 129 172 222 261 326 392
#     4  12  20  38  62  93 130 174 208 260 333 392
#     4  10  23  45  64  91 132 178 210 270 333 383
#     4  12  21  38  68  97 122 168 224 267 312 390
#     4  11  23  41  65  93 134 170 214 273 329 376
#
# _framework density 20.733923000000001
#
# number of rings (size 3 to 8) (size 9 to 14) (size 15 to 20)
#    0.000    0.800    8.000    0.000    0.000    0.800 
#    3.600    4.000    0.000    0.000    0.000    0.000 
#    0.000    0.000    0.000    0.000    0.000    0.000 
#
# Total GULP energy -247896.815726 kJ/mol
# GULP energy per Si atom -12394.840786 kJ/mol
# Density = 2.068673 g / cm^3
# Si number density = 20.733923 Si / 1000 Ang^3
#
#
#
# Elastic Constant Matrix: (Units=GPa)
#
#
# Indices 1 2 3 4 5 6 
#
# 1 102.0998 34.3090 41.7525 -0.0003 18.3986 0.0001
# 2 34.3090 68.5835 25.2858 0.0004 -0.1564 -0.0001
# 3 41.7525 25.2858 136.8442 -0.0018 21.5306 0.0001
# 4 -0.0003 0.0004 -0.0018 24.0438 0.0019 4.2591
# 5 18.3986 -0.1564 21.5306 0.0019 55.0083 -0.0008
# 6 0.0001 -0.0001 0.0001 4.2591 -0.0008 21.9767
#
#
#
# Elastic Compliance Matrix: (Units=1/GPa)
#
#
# Indices 1 2 3 4 5 6 
#
# 1 0.013383 -0.005797 -0.002457 0.000000 -0.003531 0.000000
# 2 -0.005797 0.018240 -0.002040 -0.000001 0.002790 0.000000
# 3 -0.002457 -0.002040 0.008851 0.000001 -0.002648 0.000000
# 4 0.000000 -0.000001 0.000001 0.043069 -0.000002 -0.008347
# 5 -0.003531 0.002790 -0.002648 -0.000002 0.020405 0.000001
# 6 0.000000 0.000000 0.000000 -0.008347 0.000001 0.047120
#
#
# Mechanical properties :
#
#
# Convention : Reuss Voigt Hill
#
# Bulk Modulus (GPa) = 50.28882 56.69136 53.49009
# Shear Modulus (GPa) = 28.04496 33.95111 30.99803
#
# Velocity S-wave (km/s) = 3.68178 4.05095 3.87077
# Velocity P-wave (km/s) = 6.51007 7.02011 6.76990
#
# Compressibility (1/GPa) = 0.01988513
#
# Stress axis : x y z
#
# Youngs Moduli (GPa) = 74.71938 54.82594 112.98413
#
# Poissons Ratio (x) = 0.31785 0.27755
# Poissons Ratio (y) = 0.43318 0.23052
# Poissons Ratio (z) = 0.18355 0.11186
#
# Static dielectric constant tensor:
#      x y z
#    x 3.897390 0.000000 0.056060 
#    y 0.000000 3.368370 0.000010 
#    z 0.056060 0.000010 4.741760 
# 
# 
# High freq. dielectric constant tensor:
#      x y z
#    x 1.820000 0.000000 -0.001290 
#    y 0.000000 1.771540 0.000000 
#    z -0.001290 0.000000 1.837150 
# 
# From -- ./inp_files/37851.got.cif
#   From: 2010.06.25/outbox.cif.g09.slc.cpg/sg15_19_cif.got.tgz:37851.got - 2010.06.28 07:06:18.
