data_PCOD8149225
_publ_section_title
;
Structure prediction by ZEFSAII (Michael W. Deem and Ramdas Pophale) SiO2 
 PCOD8149225
Probable space group: C 2/C
;
_chemical_formula_sum "Si O2"
_cell_formula_units_Z 44
_cell_length_a 11.990472
_cell_length_b 21.643078
_cell_length_c 9.613064
_cell_angle_alpha 90.000000
_cell_angle_beta 133.132327
_cell_angle_gamma 90.000000
_cell_volume 1820.568819
_symmetry_space_group_name_H-M "C 2/C"
_symmetry_group_IT_number 15
_symmetry_cell_setting 'monoclinic'
loop_
_space_group_symop_operation_xyz
x,y,z
-x,y,1/2-z
-x,-y,-z
x,-y,1/2+z
1/2+x,1/2+y,z
1/2-x,1/2+y,1/2-z
1/2-x,1/2-y,-z
1/2+x,1/2-y,1/2+z
loop_
_atom_site_type_symbol
_atom_site_label
_atom_site_fract_x
_atom_site_fract_y
_atom_site_fract_z
Si Si1 0.346055 0.315579 0.883092
Si Si2 0.697470 0.065923 0.588118
Si Si3 0.984140 0.312704 0.527039
Si Si4 0.500000 0.618179 0.250000
Si Si5 0.217442 0.547696 0.918407
Si Si6 0.000000 0.891233 0.250000
Si Si7 0.000000 0.351707 0.250000
O O1 0.407694 0.251622 0.002551
O O2 0.423981 0.337631 0.803669
O O3 0.163420 0.313010 0.712732
O O4 0.386819 0.359340 0.044806
O O5 0.602331 0.129006 0.475891
O O6 0.881279 0.071898 0.743912
O O7 0.659385 0.014823 0.440557
O O8 0.660232 0.041545 0.710720
O O9 0.946248 0.309994 0.330644
O O10 0.391887 0.568155 0.081968
O O11 0.134081 0.604787 0.923338
#
# Coordination Sequence:
#
# PCOD8149225 Si02
#       7
#     8   8   8   4   8   4   4
#     4  12  27  46  79 108 151 192 247 304 375 435
#     4  11  27  47  74 106 152 191 251 297 370 435
#     4  11  26  47  74 111 148 197 244 309 366 443
#     4  12  24  46  76 112 144 196 242 312 362 440
#     4  11  25  45  72 108 145 195 243 304 361 439
#     4  12  27  48  71 111 148 193 240 308 372 446
#     4  10  23  44  71 109 146 189 250 298 370 428
#
# _framework density 24.168271000000001
#
# number of rings (size 3 to 8) (size 9 to 14) (size 15 to 20)
#    0.000    0.727    3.636    2.182    5.091   10.909 
#    0.000    0.000    0.000    0.000    0.000    0.000 
#    0.000    0.000    0.000    0.000    0.000    0.000 
#
# Total GULP energy -272554.248391 kJ/mol
# GULP energy per Si atom -12388.829472 kJ/mol
# Density = 2.411326 g / cm^3
# Si number density = 24.168271 Si / 1000 Ang^3
#
#
#
# Elastic Constant Matrix: (Units=GPa)
#
#
# Indices 1 2 3 4 5 6 
#
# 1 101.8370 19.0300 41.3231 0.0000 13.0127 0.0000
# 2 19.0300 64.6039 28.4657 0.0000 -10.6150 0.0000
# 3 41.3231 28.4657 90.2758 0.0000 6.4051 0.0000
# 4 0.0000 0.0000 0.0000 33.3323 0.0000 5.0379
# 5 13.0127 -10.6150 6.4051 0.0000 44.5462 0.0000
# 6 0.0000 0.0000 0.0000 5.0379 0.0000 31.0985
#
#
#
# Elastic Compliance Matrix: (Units=1/GPa)
#
#
# Indices 1 2 3 4 5 6 
#
# 1 0.012643 -0.002161 -0.004857 0.000000 -0.003510 0.000000
# 2 -0.002161 0.019597 -0.005624 0.000000 0.006110 0.000000
# 3 -0.004857 -0.005624 0.015223 0.000000 -0.002110 0.000000
# 4 0.000000 0.000000 0.000000 0.030754 0.000000 -0.004982
# 5 -0.003510 0.006110 -0.002110 0.000000 0.025233 0.000000
# 6 0.000000 0.000000 0.000000 -0.004982 0.000000 0.032963
#
#
# Mechanical properties :
#
#
# Convention : Reuss Voigt Hill
#
# Bulk Modulus (GPa) = 45.08445 48.26159 46.67302
# Shear Modulus (GPa) = 29.57017 32.98860 31.27938
#
# Velocity S-wave (km/s) = 3.50167 3.69854 3.60145
# Velocity P-wave (km/s) = 5.91978 6.18476 6.05372
#
# Compressibility (1/GPa) = 0.02218059
#
# Stress axis : x y z
#
# Youngs Moduli (GPa) = 79.09772 51.02748 65.68874
#
# Poissons Ratio (x) = 0.11026 0.31903
# Poissons Ratio (y) = 0.17091 0.36942
# Poissons Ratio (z) = 0.38415 0.28697
#
# Static dielectric constant tensor:
#      x y z
#    x 4.579640 0.000000 -0.085170 
#    y 0.000000 4.276840 0.000000 
#    z -0.085170 0.000000 4.111030 
# 
# 
# High freq. dielectric constant tensor:
#      x y z
#    x 1.978780 0.000000 0.001700 
#    y 0.000000 1.955560 0.000000 
#    z 0.001700 0.000000 1.969870 
# 
# From -- ./inp_files/32782.got.cif
#   From: 2010.06.25/outbox.cif.g09.slc.cpg/sg15_17_cif.got.tgz:32782.got - 2010.06.28 07:06:18.
