data_PCOD8149939
_publ_section_title
;
Structure prediction by ZEFSAII (Michael W. Deem and Ramdas Pophale) SiO2 
 PCOD8149939
Probable space group: C 2/C
;
_chemical_formula_sum "Si O2"
_cell_formula_units_Z 28
_cell_length_a 13.431547
_cell_length_b 13.173617
_cell_length_c 8.476802
_cell_angle_alpha 90.000000
_cell_angle_beta 136.467872
_cell_angle_gamma 90.000000
_cell_volume 1033.074854
_symmetry_space_group_name_H-M "C 2/C"
_symmetry_group_IT_number 15
_symmetry_cell_setting 'monoclinic'
loop_
_space_group_symop_operation_xyz
x,y,z
-x,y,1/2-z
-x,-y,-z
x,-y,1/2+z
1/2+x,1/2+y,z
1/2-x,1/2+y,1/2-z
1/2-x,1/2-y,-z
1/2+x,1/2-y,1/2+z
loop_
_atom_site_type_symbol
_atom_site_label
_atom_site_fract_x
_atom_site_fract_y
_atom_site_fract_z
Si Si1 0.231951 0.174919 0.128820
Si Si2 0.045517 0.801163 0.979886
Si Si3 0.295483 0.047744 0.763347
Si Si4 0.500000 0.957424 0.250000
O O1 0.364312 0.196634 0.402741
O O2 0.241548 0.054797 0.111746
O O3 0.250000 0.250000 0.000000
O O4 0.081772 0.200115 0.040417
O O5 0.157426 0.889676 0.160721
O O6 0.000000 0.822383 0.750000
O O7 0.391856 0.107804 0.739310
O O8 0.400496 0.031984 0.030989
#
# Coordination Sequence:
#
# PCOD8149939 Si02
#       4
#     8   8   8   4
#     4  12  28  47  80 119 163 204 268 326 399 473
#     4  12  28  50  78 117 162 210 260 327 403 474
#     4  11  25  47  78 112 164 204 264 322 402 466
#     4  10  24  42  80 108 150 208 268 312 396 460
#
# _framework density 27.103555
#
# number of rings (size 3 to 8) (size 9 to 14) (size 15 to 20)
#    0.000    0.571    0.000    6.000   14.000    2.286 
#    0.000    0.000    0.000    0.000    0.000    0.000 
#    0.000    0.000    0.000    0.000    0.000    0.000 
#
# Total GULP energy -173530.492318 kJ/mol
# GULP energy per Si atom -12395.035166 kJ/mol
# Density = 2.704187 g / cm^3
# Si number density = 27.103555 Si / 1000 Ang^3
#
#
#
# Elastic Constant Matrix: (Units=GPa)
#
#
# Indices 1 2 3 4 5 6 
#
# 1 259.7897 36.0905 63.3100 0.0000 26.2538 0.0000
# 2 36.0905 74.4428 -5.1538 0.0000 9.4241 0.0000
# 3 63.3100 -5.1538 119.6703 0.0000 8.4570 0.0000
# 4 0.0000 0.0000 0.0000 30.5250 0.0000 -3.5415
# 5 26.2538 9.4241 8.4570 0.0000 51.2149 0.0000
# 6 0.0000 0.0000 0.0000 -3.5415 0.0000 27.3308
#
#
#
# Elastic Compliance Matrix: (Units=1/GPa)
#
#
# Indices 1 2 3 4 5 6 
#
# 1 0.004991 -0.002388 -0.002624 0.000000 -0.001686 0.000000
# 2 -0.002388 0.014968 0.002040 0.000000 -0.001867 0.000000
# 3 -0.002624 0.002040 0.009879 0.000000 -0.000662 0.000000
# 4 0.000000 0.000000 0.000000 0.033260 0.000000 0.004310
# 5 -0.001686 -0.001867 -0.000662 0.000000 0.020842 0.000000
# 6 0.000000 0.000000 0.000000 0.004310 0.000000 0.037147
#
#
# Mechanical properties :
#
#
# Convention : Reuss Voigt Hill
#
# Bulk Modulus (GPa) = 41.85117 71.37735 56.61426
# Shear Modulus (GPa) = 37.03791 45.79122 41.41456
#
# Velocity S-wave (km/s) = 3.70068 4.11480 3.91322
# Velocity P-wave (km/s) = 5.80816 6.99769 6.43049
#
# Compressibility (1/GPa) = 0.02389420
#
# Stress axis : x y z
#
# Youngs Moduli (GPa) = 200.36798 66.80756 101.22379
#
# Poissons Ratio (x) = 0.15953 0.26561
# Poissons Ratio (y) = 0.47845 -0.20648
# Poissons Ratio (z) = 0.52577 -0.13628
#
# Static dielectric constant tensor:
#      x y z
#    x 5.355620 0.000000 0.141530 
#    y 0.000000 4.886460 0.000000 
#    z 0.141530 0.000000 5.290990 
# 
# 
# High freq. dielectric constant tensor:
#      x y z
#    x 2.118370 0.000000 0.002440 
#    y 0.000000 2.087000 0.000000 
#    z 0.002440 0.000000 2.113350 
# 
# From -- ./inp_files/27769.got.cif
#   From: 2010.06.25/outbox.cif.g09.slc.cpg/sg15_14_cif.got.tgz:27769.got - 2010.06.28 07:06:18.
