data_PCOD8149418
_publ_section_title
;
Structure prediction by ZEFSAII (Michael W. Deem and Ramdas Pophale) SiO2 
 PCOD8149418
Probable space group: C 2/C
;
_chemical_formula_sum "Si O2"
_cell_formula_units_Z 40
_cell_length_a 22.376698
_cell_length_b 16.793551
_cell_length_c 15.828304
_cell_angle_alpha 90.000000
_cell_angle_beta 161.297083
_cell_angle_gamma 90.000000
_cell_volume 1907.301512
_symmetry_space_group_name_H-M "C 2/C"
_symmetry_group_IT_number 15
_symmetry_cell_setting 'monoclinic'
loop_
_space_group_symop_operation_xyz
x,y,z
-x,y,1/2-z
-x,-y,-z
x,-y,1/2+z
1/2+x,1/2+y,z
1/2-x,1/2+y,1/2-z
1/2-x,1/2-y,-z
1/2+x,1/2-y,1/2+z
loop_
_atom_site_type_symbol
_atom_site_label
_atom_site_fract_x
_atom_site_fract_y
_atom_site_fract_z
Si Si1 0.812797 0.906803 0.958589
Si Si2 0.027881 0.660538 0.958443
Si Si3 0.630868 0.686050 0.501898
Si Si4 0.115553 0.490849 0.325662
Si Si5 0.007940 0.037392 0.418366
O O1 0.705548 0.841710 0.759107
O O2 0.666556 0.935489 0.833780
O O3 0.000000 0.868059 0.250000
O O4 0.872573 0.982321 0.983324
O O5 0.845675 0.686864 0.764558
O O6 0.006568 0.574316 0.887257
O O7 0.071373 0.725043 0.945492
O O8 0.603399 0.624739 0.543711
O O9 0.500000 0.656235 0.250000
O O10 0.300987 0.448929 0.607348
O O11 0.000000 0.525455 0.250000
O O12 0.000000 0.000000 0.500000
#
# Coordination Sequence:
#
# PCOD8149418 Si02
#       5
#     8   8   8   8   8
#     4  10  23  46  66  93 129 172 223 276 315 389
#     4  12  25  41  68  93 138 171 215 268 336 384
#     4  12  25  43  63 102 134 171 213 272 324 396
#     4  11  22  38  67  98 127 170 216 269 326 383
#     4  11  23  40  66  96 134 168 220 266 323 387
#
# _framework density 20.972038999999999
#
# number of rings (size 3 to 8) (size 9 to 14) (size 15 to 20)
#    0.000    0.800    4.000    3.600    8.400    0.000 
#    0.000    1.000    0.000    0.000    0.000    0.000 
#    0.000    0.000    0.000    0.000    0.000    0.000 
#
# Total GULP energy -248076.455399 kJ/mol
# GULP energy per Si atom -12403.822770 kJ/mol
# Density = 2.092431 g / cm^3
# Si number density = 20.972039 Si / 1000 Ang^3
#
#
#
# Elastic Constant Matrix: (Units=GPa)
#
#
# Indices 1 2 3 4 5 6 
#
# 1 131.7738 29.4484 39.3869 0.0000 12.1325 0.0000
# 2 29.4484 48.3444 32.1616 0.0000 -2.3281 0.0000
# 3 39.3869 32.1616 129.6055 0.0000 -3.9649 0.0000
# 4 0.0000 0.0000 0.0000 22.6372 0.0000 -4.0184
# 5 12.1325 -2.3281 -3.9649 0.0000 37.7165 0.0000
# 6 0.0000 0.0000 0.0000 -4.0184 0.0000 38.2064
#
#
#
# Elastic Compliance Matrix: (Units=1/GPa)
#
#
# Indices 1 2 3 4 5 6 
#
# 1 0.009524 -0.004760 -0.001822 0.000000 -0.003549 0.000000
# 2 -0.004760 0.027184 -0.005218 0.000000 0.002661 0.000000
# 3 -0.001822 -0.005218 0.009603 0.000000 0.001273 0.000000
# 4 0.000000 0.000000 0.000000 0.045015 0.000000 0.004735
# 5 -0.003549 0.002661 0.001273 0.000000 0.027953 0.000000
# 6 0.000000 0.000000 0.000000 0.004735 0.000000 0.026672
#
#
# Mechanical properties :
#
#
# Convention : Reuss Voigt Hill
#
# Bulk Modulus (GPa) = 44.03046 56.85750 50.44398
# Shear Modulus (GPa) = 28.22936 33.62716 30.92826
#
# Velocity S-wave (km/s) = 3.67283 4.00863 3.84440
# Velocity P-wave (km/s) = 6.24713 6.97104 6.61899
#
# Compressibility (1/GPa) = 0.02271155
#
# Stress axis : x y z
#
# Youngs Moduli (GPa) = 105.00002 36.78654 104.13428
#
# Poissons Ratio (x) = 0.17512 0.18968
# Poissons Ratio (y) = 0.49984 0.54333
# Poissons Ratio (z) = 0.19126 0.19194
#
# Static dielectric constant tensor:
#      x y z
#    x 4.054170 0.000000 0.050340 
#    y 0.000000 3.390120 0.000000 
#    z 0.050340 0.000000 4.089750 
# 
# 
# High freq. dielectric constant tensor:
#      x y z
#    x 1.833410 0.000000 0.012090 
#    y 0.000000 1.788570 0.000000 
#    z 0.012090 0.000000 1.834270 
# 
# From -- ./inp_files/29072.got.cif
#   From: 2010.06.25/outbox.cif.g09.slc.cpg/sg15_15_cif.got.tgz:29072.got - 2010.06.28 07:06:18.
