data_PCOD8149678
_publ_section_title
;
Structure prediction by ZEFSAII (Michael W. Deem and Ramdas Pophale) SiO2 
 PCOD8149678
Probable space group: C 2/C
;
_chemical_formula_sum "Si O2"
_cell_formula_units_Z 44
_cell_length_a 10.368344
_cell_length_b 8.947242
_cell_length_c 21.699442
_cell_angle_alpha 90.000000
_cell_angle_beta 65.233777
_cell_angle_gamma 90.000000
_cell_volume 1827.867708
_symmetry_space_group_name_H-M "C 2/C"
_symmetry_group_IT_number 15
_symmetry_cell_setting 'monoclinic'
loop_
_space_group_symop_operation_xyz
x,y,z
-x,y,1/2-z
-x,-y,-z
x,-y,1/2+z
1/2+x,1/2+y,z
1/2-x,1/2+y,1/2-z
1/2-x,1/2-y,-z
1/2+x,1/2-y,1/2+z
loop_
_atom_site_type_symbol
_atom_site_label
_atom_site_fract_x
_atom_site_fract_y
_atom_site_fract_z
Si Si1 0.398726 0.882614 0.461621
Si Si2 0.500000 0.079450 0.750000
Si Si3 0.543256 0.383371 0.171510
Si Si4 0.584183 0.099604 0.345838
Si Si5 0.306098 0.846708 0.045181
Si Si6 0.649174 0.316035 0.636897
O O1 0.531330 0.802894 0.470185
O O2 0.313844 0.759921 0.437236
O O3 0.459804 0.014728 0.406483
O O4 0.297373 0.973845 0.529148
O O5 0.605062 0.182317 0.690151
O O6 0.404580 0.974548 0.724392
O O7 0.500000 0.358618 0.250000
O O8 0.442336 0.277536 0.151294
O O9 0.704153 0.324874 0.124666
O O10 0.524538 0.558053 0.155192
O O11 0.728195 0.085816 0.355376
O O12 0.250000 0.750000 0.000000
#
# Coordination Sequence:
#
# PCOD8149678 Si02
#       6
#     8   4   8   8   8   8
#     4  10  24  46  71  99 134 180 234 280 346 407
#     4  10  24  40  66  98 140 186 222 274 354 398
#     4  12  25  44  68 104 140 177 228 286 346 408
#     4  11  23  43  67 100 135 182 227 281 341 409
#     4  11  23  46  74  98 137 185 232 287 342 410
#     4  11  25  42  67 103 136 180 226 288 338 414
#
# _framework density 24.071762
#
# number of rings (size 3 to 8) (size 9 to 14) (size 15 to 20)
#    0.000    1.091    5.455    0.000    2.545    2.182 
#    0.000    1.818    0.000    0.000    0.000    0.000 
#    0.000    0.000    0.000    0.000    0.000    0.000 
#
# Total GULP energy -272676.408183 kJ/mol
# GULP energy per Si atom -12394.382190 kJ/mol
# Density = 2.401697 g / cm^3
# Si number density = 24.071762 Si / 1000 Ang^3
#
#
#
# Elastic Constant Matrix: (Units=GPa)
#
#
# Indices 1 2 3 4 5 6 
#
# 1 71.4369 43.1130 22.1888 0.0000 26.7633 0.0000
# 2 43.1130 132.9706 28.2734 0.0000 25.4233 0.0000
# 3 22.1888 28.2734 120.3622 0.0000 13.4900 0.0000
# 4 0.0000 0.0000 0.0000 34.1613 0.0000 14.5797
# 5 26.7633 25.4233 13.4900 0.0000 39.7786 0.0000
# 6 0.0000 0.0000 0.0000 14.5797 0.0000 40.6056
#
#
#
# Elastic Compliance Matrix: (Units=1/GPa)
#
#
# Indices 1 2 3 4 5 6 
#
# 1 0.021296 -0.004467 -0.001654 0.000000 -0.010913 0.000000
# 2 -0.004467 0.009756 -0.001150 0.000000 -0.002840 0.000000
# 3 -0.001654 -0.001150 0.009019 0.000000 -0.001211 0.000000
# 4 0.000000 0.000000 0.000000 0.034571 0.000000 -0.012413
# 5 -0.010913 -0.002840 -0.001211 0.000000 0.034707 0.000000
# 6 0.000000 0.000000 0.000000 -0.012413 0.000000 0.029084
#
#
# Mechanical properties :
#
#
# Convention : Reuss Voigt Hill
#
# Bulk Modulus (GPa) = 39.16891 56.88003 48.02447
# Shear Modulus (GPa) = 30.96285 38.32207 34.64246
#
# Velocity S-wave (km/s) = 3.59036 3.99431 3.79771
# Velocity P-wave (km/s) = 5.78745 6.70472 6.26290
#
# Compressibility (1/GPa) = 0.02553045
#
# Stress axis : x y z
#
# Youngs Moduli (GPa) = 46.95711 102.49822 110.87738
#
# Poissons Ratio (x) = 0.45784 0.18335
# Poissons Ratio (y) = 0.20975 0.12751
# Poissons Ratio (z) = 0.07765 0.11787
#
# Static dielectric constant tensor:
#      x y z
#    x 3.999010 0.000000 0.119650 
#    y 0.000000 4.643700 0.000000 
#    z 0.119650 0.000000 4.756960 
# 
# 
# High freq. dielectric constant tensor:
#      x y z
#    x 1.918560 0.000000 0.002680 
#    y 0.000000 1.974530 0.000000 
#    z 0.002680 0.000000 1.984570 
# 
# From -- ./inp_files/267598.got.cif
#   From: 2010.06.25/outbox.cif.g09.slc.cpg/sg15_134_cif.got.tgz:267598.got - 2010.06.28 07:06:18.
