data_PCOD8149354
_publ_section_title
;
Structure prediction by ZEFSAII (Michael W. Deem and Ramdas Pophale) SiO2 
 PCOD8149354
Probable space group: C 2/C
;
_chemical_formula_sum "Si O2"
_cell_formula_units_Z 60
_cell_length_a 23.817054
_cell_length_b 21.114473
_cell_length_c 8.219766
_cell_angle_alpha 90.000000
_cell_angle_beta 137.055537
_cell_angle_gamma 90.000000
_cell_volume 2816.172190
_symmetry_space_group_name_H-M "C 2/C"
_symmetry_group_IT_number 15
_symmetry_cell_setting 'monoclinic'
loop_
_space_group_symop_operation_xyz
x,y,z
-x,y,1/2-z
-x,-y,-z
x,-y,1/2+z
1/2+x,1/2+y,z
1/2-x,1/2+y,1/2-z
1/2-x,1/2-y,-z
1/2+x,1/2-y,1/2+z
loop_
_atom_site_type_symbol
_atom_site_label
_atom_site_fract_x
_atom_site_fract_y
_atom_site_fract_z
Si Si1 0.715347 0.074007 0.876835
Si Si2 0.500000 0.155380 0.750000
Si Si3 0.585636 0.402725 0.365511
Si Si4 0.475891 0.930810 0.506423
Si Si5 0.807953 0.987137 0.319096
Si Si6 0.413221 0.365720 0.481088
Si Si7 0.345338 0.244349 0.490042
Si Si8 0.305479 0.313039 0.710605
O O1 0.748865 0.144208 0.972120
O O2 0.773084 0.023796 0.091924
O O3 0.621136 0.073534 0.724702
O O4 0.728066 0.049201 0.720949
O O5 0.485965 0.116055 0.551063
O O6 0.418698 0.197902 0.595498
O O7 0.500000 0.431135 0.250000
O O8 0.649267 0.460402 0.472385
O O9 0.571471 0.360579 0.177133
O O10 0.618733 0.353139 0.566152
O O11 0.500000 0.916722 0.750000
O O12 0.500000 0.000000 0.500000
O O13 0.877912 0.935252 0.437207
O O14 0.351522 0.310001 0.404824
O O15 0.500000 0.355540 0.750000
O O16 0.345246 0.257445 0.685311
O O17 0.254429 0.212477 0.269900
#
# Coordination Sequence:
#
# PCOD8149354 Si02
#       8
#     8   4   8   8   8   8   8   8
#     4  11  22  43  66 100 135 173 228 284 354 410
#     4  12  26  48  72 110 144 184 238 292 352 424
#     4  11  25  41  63  99 133 174 231 284 348 417
#     4  12  26  48  76 108 142 182 230 298 361 422
#     4  11  23  39  67  97 133 176 221 287 343 416
#     4  12  24  40  66  95 134 180 225 280 340 409
#     4  11  23  45  71  97 137 184 230 284 347 411
#     4  10  23  45  70  91 137 184 227 289 349 410
#
# _framework density 21.305516000000001
#
# number of rings (size 3 to 8) (size 9 to 14) (size 15 to 20)
#    0.000    0.800    5.333    2.000    1.867    1.600 
#    4.800    0.000    0.000    0.000    0.000    0.000 
#    0.000    0.000    0.000    0.000    0.000    0.000 
#
# Total GULP energy -371723.574387 kJ/mol
# GULP energy per Si atom -12390.785813 kJ/mol
# Density = 2.125702 g / cm^3
# Si number density = 21.305516 Si / 1000 Ang^3
#
#
#
# Elastic Constant Matrix: (Units=GPa)
#
#
# Indices 1 2 3 4 5 6 
#
# 1 129.4205 43.9913 32.0701 0.0000 8.2872 0.0000
# 2 43.9913 106.2971 32.6478 0.0000 -1.1084 0.0000
# 3 32.0701 32.6478 73.0450 0.0000 3.1870 0.0000
# 4 0.0000 0.0000 0.0000 11.5037 0.0000 7.7295
# 5 8.2872 -1.1084 3.1870 0.0000 34.1434 0.0000
# 6 0.0000 0.0000 0.0000 7.7295 0.0000 50.3446
#
#
#
# Elastic Compliance Matrix: (Units=1/GPa)
#
#
# Indices 1 2 3 4 5 6 
#
# 1 0.009616 -0.003170 -0.002710 0.000000 -0.002184 0.000000
# 2 -0.003170 0.011972 -0.004026 0.000000 0.001534 0.000000
# 3 -0.002710 -0.004026 0.016724 0.000000 -0.001034 0.000000
# 4 0.000000 0.000000 0.000000 0.096927 0.000000 -0.014881
# 5 -0.002184 0.001534 -0.001034 0.000000 0.029965 0.000000
# 6 0.000000 0.000000 0.000000 -0.014881 0.000000 0.022148
#
#
# Mechanical properties :
#
#
# Convention : Reuss Voigt Hill
#
# Bulk Modulus (GPa) = 54.05197 58.46457 56.25827
# Shear Modulus (GPa) = 23.43786 32.53523 27.98655
#
# Velocity S-wave (km/s) = 3.32035 3.91203 3.62827
# Velocity P-wave (km/s) = 6.33440 6.92141 6.63440
#
# Compressibility (1/GPa) = 0.01850071
#
# Stress axis : x y z
#
# Youngs Moduli (GPa) = 103.99854 83.52770 59.79279
#
# Poissons Ratio (x) = 0.26478 0.16201
# Poissons Ratio (y) = 0.32967 0.24073
# Poissons Ratio (z) = 0.28179 0.33629
#
# Static dielectric constant tensor:
#      x y z
#    x 3.571210 0.000000 -0.570490 
#    y 0.000000 4.120410 0.000000 
#    z -0.570490 0.000000 3.159310 
# 
# 
# High freq. dielectric constant tensor:
#      x y z
#    x 1.854110 0.000000 0.009540 
#    y 0.000000 1.850180 0.000000 
#    z 0.009540 0.000000 1.813500 
# 
# From -- ./inp_files/63520.got.cif
#   From: 2010.06.25/outbox.cif.g09.slc.cpg/sg15_32_cif.got.tgz:63520.got - 2010.06.28 07:06:18.
