data_PCOD8149802
_publ_section_title
;
Structure prediction by ZEFSAII (Michael W. Deem and Ramdas Pophale) SiO2 
 PCOD8149802
Probable space group: C 2/C
;
_chemical_formula_sum "Si O2"
_cell_formula_units_Z 44
_cell_length_a 13.075056
_cell_length_b 19.574535
_cell_length_c 9.412791
_cell_angle_alpha 90.000000
_cell_angle_beta 121.374756
_cell_angle_gamma 90.000000
_cell_volume 2056.835409
_symmetry_space_group_name_H-M "C 2/C"
_symmetry_group_IT_number 15
_symmetry_cell_setting 'monoclinic'
loop_
_space_group_symop_operation_xyz
x,y,z
-x,y,1/2-z
-x,-y,-z
x,-y,1/2+z
1/2+x,1/2+y,z
1/2-x,1/2+y,1/2-z
1/2-x,1/2-y,-z
1/2+x,1/2-y,1/2+z
loop_
_atom_site_type_symbol
_atom_site_label
_atom_site_fract_x
_atom_site_fract_y
_atom_site_fract_z
Si Si1 0.747704 0.631726 0.821872
Si Si2 0.776272 0.230584 0.180755
Si Si3 0.743965 0.887501 0.853668
Si Si4 0.087807 0.519798 0.686083
Si Si5 0.000000 0.838969 0.750000
Si Si6 0.516804 0.420100 0.025244
O O1 0.747824 0.707619 0.762904
O O2 0.838517 0.587522 0.794227
O O3 0.613892 0.599066 0.716446
O O4 0.795471 0.636185 0.017753
O O5 0.704783 0.165913 0.200201
O O6 0.914820 0.209970 0.279474
O O7 0.750000 0.250000 0.000000
O O8 0.683595 0.960061 0.781595
O O9 0.887164 0.890026 0.964367
O O10 0.000000 0.536580 0.750000
O O11 0.000000 0.500000 0.500000
O O12 0.933103 0.888251 0.587630
O O13 0.500000 0.500000 0.000000
#
# Coordination Sequence:
#
# PCOD8149802 Si02
#       6
#     8   8   8   8   4   8
#     4  12  25  45  73 102 141 184 230 289 353 417
#     4  11  25  45  69  99 138 184 233 281 347 416
#     4  11  26  46  69 104 142 179 236 291 348 416
#     4  12  27  46  71 105 139 186 235 288 351 419
#     4  10  24  42  64 106 134 178 230 286 336 420
#     4  11  23  40  73 102 137 175 229 286 352 405
#
# _framework density 21.392085999999999
#
# number of rings (size 3 to 8) (size 9 to 14) (size 15 to 20)
#    0.000    0.727    5.455    1.091    6.364    0.000 
#    0.000    0.000    0.000    0.000    0.000    0.000 
#    0.000    0.000    0.000    0.000    0.000    0.000 
#
# Total GULP energy -272689.340942 kJ/mol
# GULP energy per Si atom -12394.970043 kJ/mol
# Density = 2.134340 g / cm^3
# Si number density = 21.392086 Si / 1000 Ang^3
#
#
#
# Elastic Constant Matrix: (Units=GPa)
#
#
# Indices 1 2 3 4 5 6 
#
# 1 109.2158 40.8234 23.8263 0.0000 -6.8702 0.0000
# 2 40.8234 112.0290 13.1742 0.0000 -12.7440 0.0000
# 3 23.8263 13.1742 103.9060 0.0000 -18.0857 0.0000
# 4 0.0000 0.0000 0.0000 36.7923 0.0000 -4.8743
# 5 -6.8702 -12.7440 -18.0857 0.0000 40.1675 0.0000
# 6 0.0000 0.0000 0.0000 -4.8743 0.0000 35.4907
#
#
#
# Elastic Compliance Matrix: (Units=1/GPa)
#
#
# Indices 1 2 3 4 5 6 
#
# 1 0.011015 -0.003798 -0.002090 0.000000 -0.000262 0.000000
# 2 -0.003798 0.010620 -0.000002 0.000000 0.002719 0.000000
# 3 -0.002090 -0.000002 0.010895 0.000000 0.004547 0.000000
# 4 0.000000 0.000000 0.000000 0.027683 0.000000 0.003802
# 5 -0.000262 0.002719 0.004547 0.000000 0.027761 0.000000
# 6 0.000000 0.000000 0.000000 0.003802 0.000000 0.028699
#
#
# Mechanical properties :
#
#
# Convention : Reuss Voigt Hill
#
# Bulk Modulus (GPa) = 48.19362 53.42205 50.80783
# Shear Modulus (GPa) = 36.93578 38.97858 37.95718
#
# Velocity S-wave (km/s) = 4.15976 4.27324 4.21688
# Velocity P-wave (km/s) = 6.75641 7.02670 6.89288
#
# Compressibility (1/GPa) = 0.02074964
#
# Stress axis : x y z
#
# Youngs Moduli (GPa) = 90.78298 94.16381 91.78412
#
# Poissons Ratio (x) = 0.35763 0.19182
# Poissons Ratio (y) = 0.34479 0.00022
# Poissons Ratio (z) = 0.18973 0.00022
#
# Static dielectric constant tensor:
#      x y z
#    x 3.832700 0.000000 0.043920 
#    y 0.000000 4.006990 0.000000 
#    z 0.043920 0.000000 4.199030 
# 
# 
# High freq. dielectric constant tensor:
#      x y z
#    x 1.842830 0.000000 -0.013560 
#    y 0.000000 1.848190 0.000000 
#    z -0.013560 0.000000 1.846080 
# 
# From -- ./inp_files/39747.got.cif
#   From: 2010.06.25/outbox.cif.g09.slc.cpg/sg15_20_cif.got.tgz:39747.got - 2010.06.28 07:06:18.
