data_PCOD8149995
_publ_section_title
;
Structure prediction by ZEFSAII (Michael W. Deem and Ramdas Pophale) SiO2 
 PCOD8149995
Probable space group: C 2/C
;
_chemical_formula_sum "Si O2"
_cell_formula_units_Z 60
_cell_length_a 25.401978
_cell_length_b 11.075971
_cell_length_c 18.683236
_cell_angle_alpha 90.000000
_cell_angle_beta 29.920581
_cell_angle_gamma 90.000000
_cell_volume 2621.966318
_symmetry_space_group_name_H-M "C 2/C"
_symmetry_group_IT_number 15
_symmetry_cell_setting 'monoclinic'
loop_
_space_group_symop_operation_xyz
x,y,z
-x,y,1/2-z
-x,-y,-z
x,-y,1/2+z
1/2+x,1/2+y,z
1/2-x,1/2+y,1/2-z
1/2-x,1/2-y,-z
1/2+x,1/2-y,1/2+z
loop_
_atom_site_type_symbol
_atom_site_label
_atom_site_fract_x
_atom_site_fract_y
_atom_site_fract_z
Si Si1 0.658673 0.450403 0.319000
Si Si2 0.183871 0.615938 0.988839
Si Si3 0.043355 0.186453 0.463889
Si Si4 0.500000 0.271081 0.750000
Si Si5 0.006230 0.398127 0.877535
Si Si6 0.738565 0.874682 0.574555
Si Si7 0.581024 0.838941 0.292489
Si Si8 0.687819 0.395911 0.443863
O O1 0.757110 0.431842 0.150897
O O2 0.642371 0.594079 0.352696
O O3 0.559210 0.392052 0.394777
O O4 0.676553 0.379271 0.371967
O O5 0.191876 0.755809 0.002229
O O6 0.060831 0.590846 0.116960
O O7 0.228829 0.554309 0.008708
O O8 0.059133 0.307208 0.493360
O O9 0.029098 0.232134 0.399484
O O10 0.441510 0.182854 0.763994
O O11 0.585560 0.351990 0.607651
O O12 0.119409 0.335821 0.734435
O O13 0.030249 0.533405 0.878386
O O14 0.796326 0.962439 0.561204
O O15 0.706605 0.828410 0.155562
#
# Coordination Sequence:
#
# PCOD8149995 Si02
#       8
#     8   8   8   4   8   8   8   8
#     4  11  24  43  70 102 141 183 235 289 353 424
#     4  11  23  43  69 104 138 189 226 299 352 426
#     4  11  23  44  69 101 139 182 232 289 347 420
#     4  12  26  46  70 102 142 184 246 292 362 420
#     4  11  23  44  72  97 142 180 234 287 358 423
#     4  10  24  43  68 102 143 178 244 286 356 425
#     4  11  26  44  70 101 138 184 233 291 355 428
#     4  11  25  45  70 101 139 186 234 296 353 431
#
# _framework density 22.883588
#
# number of rings (size 3 to 8) (size 9 to 14) (size 15 to 20)
#    0.000    1.067    2.667    2.800    5.600    2.133 
#    7.200    0.000    0.000    0.000    0.000    0.000 
#    0.000    0.000    0.000    0.000    0.000    0.000 
#
# Total GULP energy -371826.241212 kJ/mol
# GULP energy per Si atom -12394.208040 kJ/mol
# Density = 2.283150 g / cm^3
# Si number density = 22.883588 Si / 1000 Ang^3
#
#
#
# Elastic Constant Matrix: (Units=GPa)
#
#
# Indices 1 2 3 4 5 6 
#
# 1 104.5242 29.2302 30.5617 0.0000 4.6640 0.0000
# 2 29.2302 82.8451 37.5875 0.0000 -4.6230 0.0001
# 3 30.5617 37.5875 71.4481 0.0001 8.7807 0.0000
# 4 0.0000 0.0000 0.0001 24.8192 0.0000 -0.3279
# 5 4.6640 -4.6230 8.7807 0.0000 39.3985 0.0000
# 6 0.0000 0.0001 0.0000 -0.3279 0.0000 37.8113
#
#
#
# Elastic Compliance Matrix: (Units=1/GPa)
#
#
# Indices 1 2 3 4 5 6 
#
# 1 0.011301 -0.002484 -0.003421 0.000000 -0.000867 0.000000
# 2 -0.002484 0.016982 -0.008382 0.000000 0.004155 0.000000
# 3 -0.003421 -0.008382 0.020502 0.000000 -0.005148 0.000000
# 4 0.000000 0.000000 0.000000 0.040296 0.000000 0.000349
# 5 -0.000867 0.004155 -0.005148 0.000000 0.027119 0.000000
# 6 0.000000 0.000000 0.000000 0.000349 0.000000 0.026450
#
#
# Mechanical properties :
#
#
# Convention : Reuss Voigt Hill
#
# Bulk Modulus (GPa) = 49.47708 50.39736 49.93722
# Shear Modulus (GPa) = 28.09633 31.16834 29.63233
#
# Velocity S-wave (km/s) = 3.50779 3.69458 3.60240
# Velocity P-wave (km/s) = 6.17044 6.34595 6.25881
#
# Compressibility (1/GPa) = 0.02021138
#
# Stress axis : x y z
#
# Youngs Moduli (GPa) = 88.49142 58.88634 48.77647
#
# Poissons Ratio (x) = 0.14625 0.16685
# Poissons Ratio (y) = 0.21977 0.40885
# Poissons Ratio (z) = 0.30270 0.49359
#
# Static dielectric constant tensor:
#      x y z
#    x 4.277970 0.000000 0.097400 
#    y 0.000000 3.962060 0.000000 
#    z 0.097400 0.000000 3.976100 
# 
# 
# High freq. dielectric constant tensor:
#      x y z
#    x 1.916460 0.000000 -0.001250 
#    y 0.000000 1.899310 0.000000 
#    z -0.001250 0.000000 1.897070 
# 
# From -- ./inp_files/222526.got.cif
#   From: 2010.06.25/outbox.cif.g09.slc.cpg/sg15_112_cif.got.tgz:222526.got - 2010.06.28 07:06:18.
