data_PCOD8149835
_publ_section_title
;
Structure prediction by ZEFSAII (Michael W. Deem and Ramdas Pophale) SiO2 
 PCOD8149835
Probable space group: C 2/C
;
_chemical_formula_sum "Si O2"
_cell_formula_units_Z 28
_cell_length_a 12.290800
_cell_length_b 7.017621
_cell_length_c 16.077068
_cell_angle_alpha 90.000000
_cell_angle_beta 66.834440
_cell_angle_gamma 90.000000
_cell_volume 1274.876653
_symmetry_space_group_name_H-M "C 2/C"
_symmetry_group_IT_number 15
_symmetry_cell_setting 'monoclinic'
loop_
_space_group_symop_operation_xyz
x,y,z
-x,y,1/2-z
-x,-y,-z
x,-y,1/2+z
1/2+x,1/2+y,z
1/2-x,1/2+y,1/2-z
1/2-x,1/2-y,-z
1/2+x,1/2-y,1/2+z
loop_
_atom_site_type_symbol
_atom_site_label
_atom_site_fract_x
_atom_site_fract_y
_atom_site_fract_z
Si Si1 0.000000 0.925686 0.750000
Si Si2 0.245127 0.766386 0.637422
Si Si3 0.308171 0.952409 0.973606
Si Si4 0.475026 0.214040 0.167373
O O1 0.883549 0.795817 0.783230
O O2 0.011983 0.061278 0.664215
O O3 0.245694 0.563875 0.589855
O O4 0.337071 0.779569 0.685493
O O5 0.285790 0.930567 0.562905
O O6 0.448400 0.907658 0.921249
O O7 0.250000 0.750000 0.000000
O O8 0.500000 0.117473 0.250000
#
# Coordination Sequence:
#
# PCOD8149835 Si02
#       4
#     4   8   8   8
#     4  10  24  42  66 104 128 176 226 264 338 394
#     4  11  25  44  70  97 137 177 221 278 330 392
#     4  11  23  47  68 100 132 177 226 271 333 392
#     4  10  24  42  67 101 134 175 221 275 329 396
#
# _framework density 21.962907000000001
#
# number of rings (size 3 to 8) (size 9 to 14) (size 15 to 20)
#    0.857    0.571    2.857    0.857    6.000    1.143 
#    5.143    0.000    0.000    0.000    0.000    0.000 
#    0.000    0.000    0.000    0.000    0.000    0.000 
#
# Total GULP energy -173477.459533 kJ/mol
# GULP energy per Si atom -12391.247109 kJ/mol
# Density = 2.191292 g / cm^3
# Si number density = 21.962907 Si / 1000 Ang^3
#
#
#
# Elastic Constant Matrix: (Units=GPa)
#
#
# Indices 1 2 3 4 5 6 
#
# 1 192.1355 44.9054 56.0961 0.0000 -7.9714 0.0000
# 2 44.9054 126.9796 39.2183 0.0000 -5.9284 0.0000
# 3 56.0961 39.2183 80.1673 0.0000 -11.4599 0.0000
# 4 0.0000 0.0000 0.0000 29.7177 0.0000 -11.2572
# 5 -7.9714 -5.9284 -11.4599 0.0000 39.9262 0.0000
# 6 0.0000 0.0000 0.0000 -11.2572 0.0000 19.3963
#
#
#
# Elastic Compliance Matrix: (Units=1/GPa)
#
#
# Indices 1 2 3 4 5 6 
#
# 1 0.006664 -0.001080 -0.004138 0.000000 -0.000017 0.000000
# 2 -0.001080 0.009452 -0.003857 0.000000 0.000081 0.000000
# 3 -0.004138 -0.003857 0.017786 0.000000 0.003706 0.000000
# 4 0.000000 0.000000 0.000000 0.043133 0.000000 0.025033
# 5 -0.000017 0.000081 0.003706 0.000000 0.026119 0.000000
# 6 0.000000 0.000000 0.000000 0.025033 0.000000 0.066085
#
#
# Mechanical properties :
#
#
# Convention : Reuss Voigt Hill
#
# Bulk Modulus (GPa) = 63.47688 75.52467 69.50078
# Shear Modulus (GPa) = 25.95545 35.07888 30.51716
#
# Velocity S-wave (km/s) = 3.44144 4.00082 3.73163
# Velocity P-wave (km/s) = 6.68999 7.47021 7.09084
#
# Compressibility (1/GPa) = 0.01575377
#
# Stress axis : x y z
#
# Youngs Moduli (GPa) = 150.05358 105.79635 56.22467
#
# Poissons Ratio (x) = 0.11423 0.23263
# Poissons Ratio (y) = 0.16201 0.21686
# Poissons Ratio (z) = 0.62085 0.40805
#
# Static dielectric constant tensor:
#      x y z
#    x 3.948770 0.000000 -0.204830 
#    y 0.000000 4.177550 0.000000 
#    z -0.204830 0.000000 4.169940 
# 
# 
# High freq. dielectric constant tensor:
#      x y z
#    x 1.859160 0.000000 -0.015980 
#    y 0.000000 1.870300 0.000000 
#    z -0.015980 0.000000 1.854480 
# 
# From -- ./inp_files/235086.got.cif
#   From: 2010.06.25/outbox.cif.g09.slc.cpg/sg15_118_cif.got.tgz:235086.got - 2010.06.28 07:06:18.
