data_PCOD8149687
_publ_section_title
;
Structure prediction by ZEFSAII (Michael W. Deem and Ramdas Pophale) SiO2 
 PCOD8149687
Probable space group: C 2/C
;
_chemical_formula_sum "Si O2"
_cell_formula_units_Z 44
_cell_length_a 15.529957
_cell_length_b 16.300139
_cell_length_c 7.721570
_cell_angle_alpha 90.000000
_cell_angle_beta 84.479093
_cell_angle_gamma 90.000000
_cell_volume 1945.574491
_symmetry_space_group_name_H-M "C 2/C"
_symmetry_group_IT_number 15
_symmetry_cell_setting 'monoclinic'
loop_
_space_group_symop_operation_xyz
x,y,z
-x,y,1/2-z
-x,-y,-z
x,-y,1/2+z
1/2+x,1/2+y,z
1/2-x,1/2+y,1/2-z
1/2-x,1/2-y,-z
1/2+x,1/2-y,1/2+z
loop_
_atom_site_type_symbol
_atom_site_label
_atom_site_fract_x
_atom_site_fract_y
_atom_site_fract_z
Si Si1 0.588758 0.692442 0.862672
Si Si2 0.587164 0.813070 0.171579
Si Si3 0.846702 0.783421 0.511802
Si Si4 0.745654 0.400074 0.440855
Si Si5 0.165998 0.055036 0.296452
Si Si6 0.000000 0.955473 0.250000
O O1 0.529295 0.608928 0.896766
O O2 0.561844 0.754893 0.015768
O O3 0.412807 0.730767 0.833699
O O4 0.690197 0.669890 0.856893
O O5 0.500000 0.858824 0.250000
O O6 0.619603 0.759861 0.324435
O O7 0.653615 0.882077 0.100386
O O8 0.750000 0.750000 0.500000
O O9 0.853548 0.881815 0.543963
O O10 0.728767 0.488300 0.365155
O O11 0.721412 0.395148 0.646575
O O12 0.082611 0.015602 0.211653
#
# Coordination Sequence:
#
# PCOD8149687 Si02
#       6
#     8   8   8   8   8   4
#     4  11  22  43  67 103 142 179 221 279 360 429
#     4  12  26  45  69 102 136 182 242 292 336 411
#     4  12  24  42  74 100 139 186 232 280 351 429
#     4  11  23  43  65  97 137 182 226 279 347 417
#     4  11  24  41  71 103 142 183 228 284 359 428
#     4  10  24  40  68 112 146 172 216 290 368 436
#
# _framework density 22.615428999999999
#
# number of rings (size 3 to 8) (size 9 to 14) (size 15 to 20)
#    0.000    0.727    3.636    4.909    1.273    6.545 
#    0.000    0.909    0.000    0.000    0.000    0.000 
#    0.000    0.000    0.000    0.000    0.000    0.000 
#
# Total GULP energy -272632.647847 kJ/mol
# GULP energy per Si atom -12392.393084 kJ/mol
# Density = 2.256396 g / cm^3
# Si number density = 22.615429 Si / 1000 Ang^3
#
#
#
# Elastic Constant Matrix: (Units=GPa)
#
#
# Indices 1 2 3 4 5 6 
#
# 1 145.0457 54.3835 43.3057 0.0000 -15.8663 0.0000
# 2 54.3835 70.7802 30.7381 0.0000 -4.8872 0.0000
# 3 43.3057 30.7381 145.9067 0.0000 -6.3481 0.0000
# 4 0.0000 0.0000 0.0000 18.9347 0.0000 -2.0835
# 5 -15.8663 -4.8872 -6.3481 0.0000 34.0054 0.0000
# 6 0.0000 0.0000 0.0000 -2.0835 0.0000 30.1724
#
#
#
# Elastic Compliance Matrix: (Units=1/GPa)
#
#
# Indices 1 2 3 4 5 6 
#
# 1 0.010373 -0.007105 -0.001427 0.000000 0.003552 0.000000
# 2 -0.007105 0.020508 -0.002246 0.000000 -0.000787 0.000000
# 3 -0.001427 -0.002246 0.007771 0.000000 0.000462 0.000000
# 4 0.000000 0.000000 0.000000 0.053217 0.000000 0.003675
# 5 0.003552 -0.000787 0.000462 0.000000 0.031038 0.000000
# 6 0.000000 0.000000 0.000000 0.003675 0.000000 0.033397
#
#
# Mechanical properties :
#
#
# Convention : Reuss Voigt Hill
#
# Bulk Modulus (GPa) = 58.49526 68.73192 63.61359
# Shear Modulus (GPa) = 27.23926 32.17619 29.70773
#
# Velocity S-wave (km/s) = 3.47429 3.77603 3.62830
# Velocity P-wave (km/s) = 6.48195 7.03341 6.76330
#
# Compressibility (1/GPa) = 0.01709540
#
# Stress axis : x y z
#
# Youngs Moduli (GPa) = 96.40370 48.76084 128.69005
#
# Poissons Ratio (x) = 0.34644 0.18370
# Poissons Ratio (y) = 0.68494 0.28903
# Poissons Ratio (z) = 0.13761 0.10951
#
# Static dielectric constant tensor:
#      x y z
#    x 4.482350 0.000000 0.094090 
#    y 0.000000 3.848710 0.000000 
#    z 0.094090 0.000000 4.342670 
# 
# 
# High freq. dielectric constant tensor:
#      x y z
#    x 1.900210 0.000000 0.002070 
#    y 0.000000 1.861890 0.000000 
#    z 0.002070 0.000000 1.910240 
# 
# From -- ./inp_files/39223.got.cif
#   From: 2010.06.25/outbox.cif.g09.slc.cpg/sg15_20_cif.got.tgz:39223.got - 2010.06.28 07:06:18.
