data_PCOD8149347
_publ_section_title
;
Structure prediction by ZEFSAII (Michael W. Deem and Ramdas Pophale) SiO2 
 PCOD8149347
Probable space group: C 2/C
;
_chemical_formula_sum "Si O2"
_cell_formula_units_Z 60
_cell_length_a 18.658394
_cell_length_b 6.720147
_cell_length_c 23.618071
_cell_angle_alpha 90.000000
_cell_angle_beta 94.274926
_cell_angle_gamma 90.000000
_cell_volume 2953.163557
_symmetry_space_group_name_H-M "C 2/C"
_symmetry_group_IT_number 15
_symmetry_cell_setting 'monoclinic'
loop_
_space_group_symop_operation_xyz
x,y,z
-x,y,1/2-z
-x,-y,-z
x,-y,1/2+z
1/2+x,1/2+y,z
1/2-x,1/2+y,1/2-z
1/2-x,1/2-y,-z
1/2+x,1/2-y,1/2+z
loop_
_atom_site_type_symbol
_atom_site_label
_atom_site_fract_x
_atom_site_fract_y
_atom_site_fract_z
Si Si1 0.803810 0.318200 0.860892
Si Si2 0.614228 0.573213 0.144156
Si Si3 0.457911 0.588689 0.651677
Si Si4 0.134072 0.420049 0.228293
Si Si5 0.590453 0.921889 0.062037
Si Si6 0.568810 0.070132 0.430256
Si Si7 0.000000 0.358260 0.750000
Si Si8 0.146245 0.276975 0.352487
O O1 0.813028 0.426979 0.800688
O O2 0.851737 0.421541 0.911682
O O3 0.720458 0.329851 0.873859
O O4 0.822831 0.086124 0.858958
O O5 0.541414 0.455760 0.150415
O O6 0.635474 0.705943 0.199060
O O7 0.607872 0.703781 0.086981
O O8 0.429511 0.707724 0.595295
O O9 0.449524 0.727707 0.706235
O O10 0.414440 0.388533 0.658985
O O11 0.052873 0.502960 0.216570
O O12 0.156807 0.398757 0.294798
O O13 0.511329 0.983331 0.077746
O O14 0.597342 0.914366 0.995353
O O15 0.622793 0.927605 0.399953
#
# Coordination Sequence:
#
# PCOD8149347 Si02
#       8
#     8   8   8   8   8   8   4   8
#     4  11  26  44  64  95 136 175 212 265 333 391
#     4  11  21  42  67  93 124 174 218 258 326 390
#     4  12  22  39  66  98 123 170 217 265 324 383
#     4  11  24  39  64  94 133 168 214 268 323 392
#     4  10  23  45  69  96 129 172 223 273 322 385
#     4  11  23  43  70  99 130 165 225 281 316 380
#     4  12  20  40  66  94 130 162 218 278 312 388
#     4  12  27  41  64 100 137 166 217 270 330 390
#
# _framework density 20.317195999999999
#
# number of rings (size 3 to 8) (size 9 to 14) (size 15 to 20)
#    0.000    0.800    5.333    2.400    1.867    4.267 
#    0.000    1.333    0.000    0.000    0.000    0.000 
#    0.000    0.000    0.000    0.000    0.000    0.000 
#
# Total GULP energy -372186.297835 kJ/mol
# GULP energy per Si atom -12406.209928 kJ/mol
# Density = 2.027095 g / cm^3
# Si number density = 20.317196 Si / 1000 Ang^3
#
#
#
# Elastic Constant Matrix: (Units=GPa)
#
#
# Indices 1 2 3 4 5 6 
#
# 1 74.8202 3.2209 21.9725 0.0000 -3.2895 0.0000
# 2 3.2209 87.4112 33.1060 0.0000 1.0335 0.0000
# 3 21.9725 33.1060 143.1988 0.0000 4.2315 0.0000
# 4 0.0000 0.0000 0.0000 20.8735 0.0000 0.9082
# 5 -3.2895 1.0335 4.2315 0.0000 16.9252 0.0000
# 6 0.0000 0.0000 0.0000 0.9082 0.0000 25.9994
#
#
#
# Elastic Compliance Matrix: (Units=1/GPa)
#
#
# Indices 1 2 3 4 5 6 
#
# 1 0.014188 0.000328 -0.002351 0.000000 0.003325 0.000000
# 2 0.000328 0.012546 -0.002952 0.000000 0.000036 0.000000
# 3 -0.002351 -0.002952 0.008094 0.000000 -0.002300 0.000000
# 4 0.000000 0.000000 0.000000 0.047981 0.000000 -0.001676
# 5 0.003325 0.000036 -0.002300 0.000000 0.060303 0.000000
# 6 0.000000 0.000000 0.000000 -0.001676 0.000000 0.038521
#
#
# Mechanical properties :
#
#
# Convention : Reuss Voigt Hill
#
# Bulk Modulus (GPa) = 40.19502 46.89211 43.54356
# Shear Modulus (GPa) = 25.01570 29.23501 27.12536
#
# Velocity S-wave (km/s) = 3.51273 3.79744 3.65786
# Velocity P-wave (km/s) = 6.02321 6.50826 6.27043
#
# Compressibility (1/GPa) = 0.02487871
#
# Stress axis : x y z
#
# Youngs Moduli (GPa) = 70.48261 79.70895 123.54103
#
# Poissons Ratio (x) = -0.02617 0.29047
# Poissons Ratio (y) = -0.02314 0.36468
# Poissons Ratio (z) = 0.16572 0.23529
#
# Static dielectric constant tensor:
#      x y z
#    x 3.539420 0.000000 -0.052850 
#    y 0.000000 3.789500 0.000000 
#    z -0.052850 0.000000 3.649370 
# 
# 
# High freq. dielectric constant tensor:
#      x y z
#    x 1.785620 0.000000 -0.000580 
#    y 0.000000 1.808000 0.000000 
#    z -0.000580 0.000000 1.793340 
# 
# From -- ./inp_files/278955.got.cif
#   From: 2010.06.25/outbox.cif.g09.slc.cpg/sg15_140_cif.got.tgz:278955.got - 2010.06.28 07:06:18.
