data_PCOD8149353
_publ_section_title
;
Structure prediction by ZEFSAII (Michael W. Deem and Ramdas Pophale) SiO2 
 PCOD8149353
Probable space group: C 2/C
;
_chemical_formula_sum "Si O2"
_cell_formula_units_Z 28
_cell_length_a 11.671328
_cell_length_b 13.935551
_cell_length_c 7.405568
_cell_angle_alpha 90.000000
_cell_angle_beta 70.672105
_cell_angle_gamma 90.000000
_cell_volume 1136.603793
_symmetry_space_group_name_H-M "C 2/C"
_symmetry_group_IT_number 15
_symmetry_cell_setting 'monoclinic'
loop_
_space_group_symop_operation_xyz
x,y,z
-x,y,1/2-z
-x,-y,-z
x,-y,1/2+z
1/2+x,1/2+y,z
1/2-x,1/2+y,1/2-z
1/2-x,1/2-y,-z
1/2+x,1/2-y,1/2+z
loop_
_atom_site_type_symbol
_atom_site_label
_atom_site_fract_x
_atom_site_fract_y
_atom_site_fract_z
Si Si1 0.000000 0.607995 0.750000
Si Si2 0.095797 0.661283 0.342335
Si Si3 0.368003 0.375343 0.249289
Si Si4 0.762141 0.532903 0.991519
O O1 0.014476 0.676049 0.567324
O O2 0.117953 0.537814 0.699621
O O3 0.150626 0.761240 0.242466
O O4 0.209240 0.591268 0.334865
O O5 0.000000 0.617017 0.250000
O O6 0.500000 0.404646 0.250000
O O7 0.271156 0.423732 0.438057
O O8 0.348357 0.416114 0.057143
#
# Coordination Sequence:
#
# PCOD8149353 Si02
#       4
#     4   8   8   8
#     4   8  22  44  76 100 146 184 246 292 364 416
#     4   9  21  47  76 104 140 193 244 295 362 432
#     4  11  23  45  72 109 143 195 238 299 365 436
#     4  10  23  45  70 110 146 183 247 304 356 430
#
# _framework density 24.634793999999999
#
# number of rings (size 3 to 8) (size 9 to 14) (size 15 to 20)
#    1.714    0.571    0.000    1.714    0.000    3.429 
#   15.429    7.143    0.000    0.000   14.857    0.000 
#    0.000    0.000    0.000    0.000    0.000    0.000 
#
# Total GULP energy -173440.950030 kJ/mol
# GULP energy per Si atom -12388.639288 kJ/mol
# Density = 2.457872 g / cm^3
# Si number density = 24.634794 Si / 1000 Ang^3
#
#
#
# Elastic Constant Matrix: (Units=GPa)
#
#
# Indices 1 2 3 4 5 6 
#
# 1 179.6701 75.5048 40.1887 0.0000 33.5352 0.0000
# 2 75.5048 138.0218 27.3178 0.0000 -9.7623 0.0000
# 3 40.1887 27.3178 65.1972 0.0000 7.4565 0.0000
# 4 0.0000 0.0000 0.0000 73.3555 0.0000 -24.5843
# 5 33.5352 -9.7623 7.4565 0.0000 53.3166 0.0000
# 6 0.0000 0.0000 0.0000 -24.5843 0.0000 56.6479
#
#
#
# Elastic Compliance Matrix: (Units=1/GPa)
#
#
# Indices 1 2 3 4 5 6 
#
# 1 0.009627 -0.005131 -0.003033 0.000000 -0.006570 0.000000
# 2 -0.005131 0.010838 -0.002006 0.000000 0.005492 0.000000
# 3 -0.003033 -0.002006 0.018163 0.000000 -0.001000 0.000000
# 4 0.000000 0.000000 0.000000 0.015952 0.000000 0.006923
# 5 -0.006570 0.005492 -0.001000 0.000000 0.024034 0.000000
# 6 0.000000 0.000000 0.000000 0.006923 0.000000 0.020657
#
#
# Mechanical properties :
#
#
# Convention : Reuss Voigt Hill
#
# Bulk Modulus (GPa) = 54.68394 74.32355 64.50375
# Shear Modulus (GPa) = 39.77536 52.65585 46.21561
#
# Velocity S-wave (km/s) = 4.02257 4.62828 4.33601
# Velocity P-wave (km/s) = 6.61973 7.66792 7.16302
#
# Compressibility (1/GPa) = 0.01828690
#
# Stress axis : x y z
#
# Youngs Moduli (GPa) = 103.87913 92.27184 55.05812
#
# Poissons Ratio (x) = 0.47342 0.16698
# Poissons Ratio (y) = 0.53297 0.11047
# Poissons Ratio (z) = 0.31504 0.18514
#
# Static dielectric constant tensor:
#      x y z
#    x 4.607810 0.000000 0.421830 
#    y 0.000000 3.978600 0.000000 
#    z 0.421830 0.000000 4.234020 
# 
# 
# High freq. dielectric constant tensor:
#      x y z
#    x 1.990200 0.000000 0.033250 
#    y 0.000000 1.967980 0.000000 
#    z 0.033250 0.000000 1.971990 
# 
# From -- ./inp_files/27572.got.cif
#   From: 2010.06.25/outbox.cif.g09.slc.cpg/sg15_14_cif.got.tgz:27572.got - 2010.06.28 07:06:18.
