data_PCOD8149707
_publ_section_title
;
Structure prediction by ZEFSAII (Michael W. Deem and Ramdas Pophale) SiO2 
 PCOD8149707
Probable space group: C 2/C
;
_chemical_formula_sum "Si O2"
_cell_formula_units_Z 40
_cell_length_a 24.797918
_cell_length_b 8.949396
_cell_length_c 10.741533
_cell_angle_alpha 90.000000
_cell_angle_beta 130.345070
_cell_angle_gamma 90.000000
_cell_volume 1816.857954
_symmetry_space_group_name_H-M "C 2/C"
_symmetry_group_IT_number 15
_symmetry_cell_setting 'monoclinic'
loop_
_space_group_symop_operation_xyz
x,y,z
-x,y,1/2-z
-x,-y,-z
x,-y,1/2+z
1/2+x,1/2+y,z
1/2-x,1/2+y,1/2-z
1/2-x,1/2-y,-z
1/2+x,1/2-y,1/2+z
loop_
_atom_site_type_symbol
_atom_site_label
_atom_site_fract_x
_atom_site_fract_y
_atom_site_fract_z
Si Si1 0.000000 0.701712 0.250000
Si Si2 0.782575 0.569106 0.664295
Si Si3 0.717996 0.414700 0.808252
Si Si4 0.500000 0.298176 0.750000
Si Si5 0.061232 0.039685 0.998278
Si Si6 0.938917 0.538843 0.815412
O O1 0.061210 0.595411 0.284753
O O2 0.043533 0.800355 0.412656
O O3 0.756018 0.475265 0.741962
O O4 0.746857 0.514287 0.480766
O O5 0.764583 0.740266 0.663718
O O6 0.866009 0.544011 0.779182
O O7 0.635269 0.452463 0.679212
O O8 0.561225 0.404501 0.898850
O O9 0.455741 0.199485 0.780779
O O10 0.000000 0.000000 0.000000
O O11 0.000000 0.500000 0.000000
#
# Coordination Sequence:
#
# PCOD8149707 Si02
#       6
#     4   8   8   4   8   8
#     4  10  24  40  72 100 134 176 248 280 352 410
#     4  11  28  48  71 105 145 188 233 291 356 421
#     4  11  28  47  72 105 146 187 233 290 358 421
#     4  10  24  40  74  98 140 176 240 288 350 404
#     4  11  24  44  69 104 136 184 234 291 345 418
#     4  11  24  45  70 102 135 185 234 292 344 417
#
# _framework density 22.016031000000002
#
# number of rings (size 3 to 8) (size 9 to 14) (size 15 to 20)
#    0.000    1.200    0.000    3.600   19.600    2.400 
#    0.000    0.000    0.000    0.000    0.000    0.000 
#    0.000    0.000    0.000    0.000    0.000    0.000 
#
# Total GULP energy -248039.472378 kJ/mol
# GULP energy per Si atom -12401.973619 kJ/mol
# Density = 2.196592 g / cm^3
# Si number density = 22.016031 Si / 1000 Ang^3
#
#
#
# Elastic Constant Matrix: (Units=GPa)
#
#
# Indices 1 2 3 4 5 6 
#
# 1 134.2485 34.9947 47.5274 0.0000 -6.7641 0.0000
# 2 34.9947 119.4046 34.4952 0.0000 -14.6127 0.0000
# 3 47.5274 34.4952 149.4381 0.0000 -2.4773 0.0000
# 4 0.0000 0.0000 0.0000 18.5461 0.0000 4.4825
# 5 -6.7641 -14.6127 -2.4773 0.0000 43.2961 0.0000
# 6 0.0000 0.0000 0.0000 4.4825 0.0000 23.0097
#
#
#
# Elastic Compliance Matrix: (Units=1/GPa)
#
#
# Indices 1 2 3 4 5 6 
#
# 1 0.008792 -0.001816 -0.002366 0.000000 0.000625 0.000000
# 2 -0.001816 0.009731 -0.001620 0.000000 0.002908 0.000000
# 3 -0.002366 -0.001620 0.007811 0.000000 -0.000470 0.000000
# 4 0.000000 0.000000 0.000000 0.056584 0.000000 -0.011023
# 5 0.000625 0.002908 -0.000470 0.000000 0.024149 0.000000
# 6 0.000000 0.000000 0.000000 -0.011023 0.000000 0.045607
#
#
# Mechanical properties :
#
#
# Convention : Reuss Voigt Hill
#
# Bulk Modulus (GPa) = 67.90292 70.79176 69.34734
# Shear Modulus (GPa) = 29.55274 36.04199 32.79736
#
# Velocity S-wave (km/s) = 3.66775 4.05047 3.86386
# Velocity P-wave (km/s) = 6.98899 7.35524 7.17445
#
# Compressibility (1/GPa) = 0.01472691
#
# Stress axis : x y z
#
# Youngs Moduli (GPa) = 113.74433 102.76194 128.03113
#
# Poissons Ratio (x) = 0.18667 0.30298
# Poissons Ratio (y) = 0.20662 0.20746
# Poissons Ratio (z) = 0.26917 0.16651
#
# Static dielectric constant tensor:
#      x y z
#    x 4.028360 0.000000 -0.338400 
#    y 0.000000 3.823970 0.000000 
#    z -0.338400 0.000000 4.336050 
# 
# 
# High freq. dielectric constant tensor:
#      x y z
#    x 1.870800 0.000000 -0.012370 
#    y 0.000000 1.880150 0.000000 
#    z -0.012370 0.000000 1.878750 
# 
# From -- ./inp_files/109614.got.cif
#   From: 2010.06.25/outbox.cif.g09.slc.cpg/sg15_55_cif.got.tgz:109614.got - 2010.06.28 07:06:18.
