data_PCOD8149055
_publ_section_title
;
Structure prediction by ZEFSAII (Michael W. Deem and Ramdas Pophale) SiO2 
 PCOD8149055
Probable space group: C 2/C
;
_chemical_formula_sum "Si O2"
_cell_formula_units_Z 48
_cell_length_a 28.740596
_cell_length_b 8.999021
_cell_length_c 7.814304
_cell_angle_alpha 90.000000
_cell_angle_beta 97.413693
_cell_angle_gamma 90.000000
_cell_volume 2004.174487
_symmetry_space_group_name_H-M "C 2/C"
_symmetry_group_IT_number 15
_symmetry_cell_setting 'monoclinic'
loop_
_space_group_symop_operation_xyz
x,y,z
-x,y,1/2-z
-x,-y,-z
x,-y,1/2+z
1/2+x,1/2+y,z
1/2-x,1/2+y,1/2-z
1/2-x,1/2-y,-z
1/2+x,1/2-y,1/2+z
loop_
_atom_site_type_symbol
_atom_site_label
_atom_site_fract_x
_atom_site_fract_y
_atom_site_fract_z
Si Si1 0.965995 0.902018 0.879326
Si Si2 0.879199 0.369402 0.100299
Si Si3 0.278312 0.943653 0.942118
Si Si4 0.382231 0.364579 0.302422
Si Si5 0.721290 0.655813 0.722078
Si Si6 0.092777 0.331155 0.002305
O O1 0.955347 0.756188 0.986187
O O2 0.000000 0.840137 0.750000
O O3 0.919461 0.999293 0.805153
O O4 0.000000 0.000000 0.000000
O O5 0.881263 0.324130 0.299971
O O6 0.828786 0.448251 0.054644
O O7 0.889593 0.228242 0.983213
O O8 0.915919 0.499978 0.064953
O O9 0.282627 0.835650 0.775822
O O10 0.262018 0.105708 0.871568
O O11 0.236304 0.884707 0.037740
O O12 0.328908 0.426140 0.274545
O O13 0.382056 0.259346 0.136497
#
# Coordination Sequence:
#
# PCOD8149055 Si02
#       6
#     8   8   8   8   8   8
#     4  12  26  49  76 107 144 182 236 308 375 443
#     4  11  24  47  73 107 146 200 243 293 360 423
#     4  10  23  44  63 103 148 186 249 292 341 422
#     4  11  26  47  72 109 144 193 248 292 372 439
#     4  10  24  41  65  99 141 189 237 295 343 414
#     4  12  25  46  80 102 146 192 237 305 359 443
#
# _framework density 23.950012000000001
#
# number of rings (size 3 to 8) (size 9 to 14) (size 15 to 20)
#    0.000    1.000    3.333    2.000    4.667    4.667 
#    0.000    4.167    0.000    0.000    0.000    0.000 
#    0.000    0.000    0.000    0.000    0.000    0.000 
#
# Total GULP energy -297317.596828 kJ/mol
# GULP energy per Si atom -12388.233201 kJ/mol
# Density = 2.389550 g / cm^3
# Si number density = 23.950012 Si / 1000 Ang^3
#
#
#
# Elastic Constant Matrix: (Units=GPa)
#
#
# Indices 1 2 3 4 5 6 
#
# 1 118.3448 29.3516 16.1676 0.0000 -13.7444 0.0000
# 2 29.3516 70.5049 10.2939 0.0000 -0.1965 0.0000
# 3 16.1676 10.2939 119.3059 0.0000 -5.5470 0.0000
# 4 0.0000 0.0000 0.0000 36.8120 0.0000 2.8783
# 5 -13.7444 -0.1965 -5.5470 0.0000 40.7679 0.0000
# 6 0.0000 0.0000 0.0000 2.8783 0.0000 39.0573
#
#
#
# Elastic Compliance Matrix: (Units=1/GPa)
#
#
# Indices 1 2 3 4 5 6 
#
# 1 0.009932 -0.004001 -0.000851 0.000000 0.003213 0.000000
# 2 -0.004001 0.015977 -0.000901 0.000000 -0.001395 0.000000
# 3 -0.000851 -0.000901 0.008616 0.000000 0.000881 0.000000
# 4 0.000000 0.000000 0.000000 0.027322 0.000000 -0.002013
# 5 0.003213 -0.001395 0.000881 0.000000 0.025726 0.000000
# 6 0.000000 0.000000 0.000000 -0.002013 0.000000 0.025752
#
#
# Mechanical properties :
#
#
# Convention : Reuss Voigt Hill
#
# Bulk Modulus (GPa) = 43.44609 46.64240 45.04425
# Shear Modulus (GPa) = 37.73462 40.15027 38.94244
#
# Velocity S-wave (km/s) = 3.97364 4.09885 4.03673
# Velocity P-wave (km/s) = 6.26360 6.47441 6.36988
#
# Compressibility (1/GPa) = 0.02301703
#
# Stress axis : x y z
#
# Youngs Moduli (GPa) = 100.68688 62.59038 116.06473
#
# Poissons Ratio (x) = 0.25045 0.09880
# Poissons Ratio (y) = 0.40289 0.10459
# Poissons Ratio (z) = 0.08571 0.05640
#
# Static dielectric constant tensor:
#      x y z
#    x 4.257960 0.000000 -0.276150 
#    y 0.000000 4.880090 0.000000 
#    z -0.276150 0.000000 4.308230 
# 
# 
# High freq. dielectric constant tensor:
#      x y z
#    x 1.940510 0.000000 -0.020620 
#    y 0.000000 1.949500 0.000000 
#    z -0.020620 0.000000 1.962820 
# 
# From -- ./inp_files/68562.got.cif
#   From: 2010.06.25/outbox.cif.g09.slc.cpg/sg15_35_cif.got.tgz:68562.got - 2010.06.28 07:06:18.
