data_PCOD8149011
_publ_section_title
;
Structure prediction by ZEFSAII (Michael W. Deem and Ramdas Pophale) SiO2 
 PCOD8149011
Probable space group: C 2/C
;
_chemical_formula_sum "Si O2"
_cell_formula_units_Z 40
_cell_length_a 10.097859
_cell_length_b 10.655266
_cell_length_c 25.397241
_cell_angle_alpha 90.000000
_cell_angle_beta 36.022226
_cell_angle_gamma 90.000000
_cell_volume 1607.054511
_symmetry_space_group_name_H-M "C 2/C"
_symmetry_group_IT_number 15
_symmetry_cell_setting 'monoclinic'
loop_
_space_group_symop_operation_xyz
x,y,z
-x,y,1/2-z
-x,-y,-z
x,-y,1/2+z
1/2+x,1/2+y,z
1/2-x,1/2+y,1/2-z
1/2-x,1/2-y,-z
1/2+x,1/2-y,1/2+z
loop_
_atom_site_type_symbol
_atom_site_label
_atom_site_fract_x
_atom_site_fract_y
_atom_site_fract_z
Si Si1 0.859049 0.126146 0.608480
Si Si2 0.253789 0.138910 0.320798
Si Si3 0.838389 0.552506 0.487560
Si Si4 0.723235 0.638610 0.208977
Si Si5 0.547484 0.798898 0.010663
O O1 0.767811 0.212884 0.685280
O O2 0.128562 0.108395 0.523651
O O3 0.807431 0.197707 0.569845
O O4 0.740482 0.992002 0.648586
O O5 0.500000 0.199018 0.250000
O O6 0.190647 0.112453 0.280847
O O7 0.073207 0.234089 0.401864
O O8 0.864865 0.633633 0.532067
O O9 0.064281 0.559587 0.380224
O O10 0.788325 0.406574 0.518321
O O11 0.500000 0.593371 0.250000
#
# Coordination Sequence:
#
# PCOD8149011 Si02
#       5
#     8   8   8   8   8
#     4  11  24  46  69 102 147 190 246 300 360 445
#     4  12  26  43  71 106 144 188 239 309 368 425
#     4  10  23  46  72  99 142 194 242 295 364 443
#     4  11  26  46  70 104 149 187 239 304 371 433
#     4  10  23  43  71  97 138 188 245 287 363 433
#
# _framework density 24.890255
#
# number of rings (size 3 to 8) (size 9 to 14) (size 15 to 20)
#    0.000    1.200    0.000    6.000   11.200    1.600 
#    3.600    0.000    0.000    0.000    0.000    0.000 
#    0.000    0.000    0.000    0.000    0.000    0.000 
#
# Total GULP energy -248086.684280 kJ/mol
# GULP energy per Si atom -12404.334214 kJ/mol
# Density = 2.483360 g / cm^3
# Si number density = 24.890255 Si / 1000 Ang^3
#
#
#
# Elastic Constant Matrix: (Units=GPa)
#
#
# Indices 1 2 3 4 5 6 
#
# 1 95.7462 13.6187 37.2764 -0.0008 21.3209 0.0002
# 2 13.6187 113.0298 32.5735 -0.0009 22.1178 0.0002
# 3 37.2764 32.5735 101.9904 0.0038 23.0627 -0.0119
# 4 -0.0008 -0.0009 0.0038 22.9188 -0.0017 2.3581
# 5 21.3209 22.1178 23.0627 -0.0017 39.8631 0.0007
# 6 0.0002 0.0002 -0.0119 2.3581 0.0007 3.6713
#
#
#
# Elastic Compliance Matrix: (Units=1/GPa)
#
#
# Indices 1 2 3 4 5 6 
#
# 1 0.012957 0.000508 -0.003759 0.000002 -0.005037 -0.000013
# 2 0.000508 0.010399 -0.002463 0.000001 -0.004617 -0.000009
# 3 -0.003759 -0.002463 0.012888 -0.000008 -0.004079 0.000048
# 4 0.000002 0.000001 -0.000008 0.046720 0.000005 -0.030009
# 5 -0.005037 -0.004617 -0.004079 0.000005 0.032702 -0.000022
# 6 -0.000013 -0.000009 0.000048 -0.030009 -0.000022 0.291658
#
#
# Mechanical properties :
#
#
# Convention : Reuss Voigt Hill
#
# Bulk Modulus (GPa) = 40.29645 53.07816 46.68731
# Shear Modulus (GPa) = 11.70896 28.44384 20.07640
#
# Velocity S-wave (km/s) = 2.17128 3.38416 2.84315
# Velocity P-wave (km/s) = 4.74455 6.05320 5.43838
#
# Compressibility (1/GPa) = 0.02481608
#
# Stress axis : x y z
#
# Youngs Moduli (GPa) = 77.17734 96.16122 77.59354
#
# Poissons Ratio (x) = -0.04883 0.29166
# Poissons Ratio (y) = -0.03919 0.19111
# Poissons Ratio (z) = 0.29010 0.23684
#
# Static dielectric constant tensor:
#      x y z
#    x 4.289910 0.000000 0.038120 
#    y 0.000000 4.702930 0.000000 
#    z 0.038120 0.000000 4.395780 
# 
# 
# High freq. dielectric constant tensor:
#      x y z
#    x 1.987960 0.000000 0.001900 
#    y 0.000000 1.997420 0.000000 
#    z 0.001900 0.000000 1.993520 
# 
# From -- ./inp_files/292362.got.cif
#   From: 2010.06.25/outbox.cif.g09.slc.cpg/sg15_147_cif.got.tgz:292362.got - 2010.06.28 07:06:18.
