data_PCOD8149883
_publ_section_title
;
Structure prediction by ZEFSAII (Michael W. Deem and Ramdas Pophale) SiO2 
 PCOD8149883
Probable space group: C 2/C
;
_chemical_formula_sum "Si O2"
_cell_formula_units_Z 44
_cell_length_a 13.967575
_cell_length_b 4.868743
_cell_length_c 24.796841
_cell_angle_alpha 90.000000
_cell_angle_beta 82.328948
_cell_angle_gamma 90.000000
_cell_volume 1671.206524
_symmetry_space_group_name_H-M "C 2/C"
_symmetry_group_IT_number 15
_symmetry_cell_setting 'monoclinic'
loop_
_space_group_symop_operation_xyz
x,y,z
-x,y,1/2-z
-x,-y,-z
x,-y,1/2+z
1/2+x,1/2+y,z
1/2-x,1/2+y,1/2-z
1/2-x,1/2-y,-z
1/2+x,1/2-y,1/2+z
loop_
_atom_site_type_symbol
_atom_site_label
_atom_site_fract_x
_atom_site_fract_y
_atom_site_fract_z
Si Si1 0.197397 0.566846 0.277272
Si Si2 0.823068 0.193777 0.122963
Si Si3 0.071032 0.744168 0.994187
Si Si4 0.521914 0.548223 0.148286
Si Si5 0.625370 0.955184 0.600648
Si Si6 0.000000 0.606435 0.750000
O O1 0.243010 0.869356 0.268529
O O2 0.205974 0.456507 0.338143
O O3 0.084696 0.581760 0.268488
O O4 0.859293 0.287580 0.061842
O O5 0.730265 0.001911 0.119434
O O6 0.906760 0.019499 0.146580
O O7 0.135211 0.709138 0.043524
O O8 0.000000 0.500000 0.000000
O O9 0.000000 0.000000 0.000000
O O10 0.563378 0.241344 0.145267
O O11 0.547131 0.690882 0.202569
O O12 0.571293 0.750110 0.099325
#
# Coordination Sequence:
#
# PCOD8149883 Si02
#       6
#     8   8   8   8   8   4
#     4  11  25  44  66 100 134 170 226 270 325 399
#     4  11  25  43  71  97 132 181 214 275 335 386
#     4  12  24  45  67  97 134 172 223 275 327 395
#     4  11  25  43  66  99 133 173 220 275 317 404
#     4  12  24  44  68  95 135 171 222 268 337 384
#     4  10  24  42  68  96 134 176 218 268 338 372
#
# _framework density 26.328284
#
# number of rings (size 3 to 8) (size 9 to 14) (size 15 to 20)
#    0.000    0.727    3.636    2.727    0.000   11.636 
#    0.000    3.636    0.000    0.000    0.000    0.000 
#    0.000    0.000    0.000    0.000    0.000    0.000 
#
# Total GULP energy -272864.878786 kJ/mol
# GULP energy per Si atom -12402.949036 kJ/mol
# Density = 2.626836 g / cm^3
# Si number density = 26.328284 Si / 1000 Ang^3
#
#
#
# Elastic Constant Matrix: (Units=GPa)
#
#
# Indices 1 2 3 4 5 6 
#
# 1 155.1737 26.4846 6.4025 0.0000 0.3225 0.0000
# 2 26.4846 95.4449 -22.1557 0.0000 -6.8899 0.0000
# 3 6.4025 -22.1557 97.9672 0.0000 -3.2460 0.0000
# 4 0.0000 0.0000 0.0000 13.2986 0.0000 6.2081
# 5 0.3225 -6.8899 -3.2460 0.0000 44.2504 0.0000
# 6 0.0000 0.0000 0.0000 6.2081 0.0000 15.0384
#
#
#
# Elastic Compliance Matrix: (Units=1/GPa)
#
#
# Indices 1 2 3 4 5 6 
#
# 1 0.006852 -0.002155 -0.000950 0.000000 -0.000455 0.000000
# 2 -0.002155 0.011899 0.002901 0.000000 0.002081 0.000000
# 3 -0.000950 0.002901 0.010967 0.000000 0.001263 0.000000
# 4 0.000000 0.000000 0.000000 0.093147 0.000000 -0.038452
# 5 -0.000455 0.002081 0.001263 0.000000 0.023019 0.000000
# 6 0.000000 0.000000 0.000000 -0.038452 0.000000 0.082370
#
#
# Mechanical properties :
#
#
# Convention : Reuss Voigt Hill
#
# Bulk Modulus (GPa) = 34.11821 41.11653 37.61737
# Shear Modulus (GPa) = 20.97027 37.04109 29.00568
#
# Velocity S-wave (km/s) = 2.82528 3.75493 3.32278
# Velocity P-wave (km/s) = 4.86105 5.86942 5.38887
#
# Compressibility (1/GPa) = 0.02930987
#
# Stress axis : x y z
#
# Youngs Moduli (GPa) = 145.93576 84.04223 91.17871
#
# Poissons Ratio (x) = 0.18110 0.08664
# Poissons Ratio (y) = 0.31447 -0.26449
# Poissons Ratio (z) = 0.13867 -0.24379
#
# Static dielectric constant tensor:
#      x y z
#    x 4.747500 0.000000 -0.066960 
#    y 0.000000 4.215780 0.000000 
#    z -0.066960 0.000000 4.638370 
# 
# 
# High freq. dielectric constant tensor:
#      x y z
#    x 2.064090 0.000000 0.002250 
#    y 0.000000 2.042120 0.000000 
#    z 0.002250 0.000000 2.074620 
# 
# From -- ./inp_files/271915.got.cif
#   From: 2010.06.25/outbox.cif.g09.slc.cpg/sg15_136_cif.got.tgz:271915.got - 2010.06.28 07:06:18.
