data_PCOD8149630
_publ_section_title
;
Structure prediction by ZEFSAII (Michael W. Deem and Ramdas Pophale) SiO2 
 PCOD8149630
Probable space group: C 2/C
;
_chemical_formula_sum "Si O2"
_cell_formula_units_Z 56
_cell_length_a 10.789064
_cell_length_b 23.085695
_cell_length_c 14.821098
_cell_angle_alpha 90.000000
_cell_angle_beta 39.299059
_cell_angle_gamma 90.000000
_cell_volume 2338.101343
_symmetry_space_group_name_H-M "C 2/C"
_symmetry_group_IT_number 15
_symmetry_cell_setting 'monoclinic'
loop_
_space_group_symop_operation_xyz
x,y,z
-x,y,1/2-z
-x,-y,-z
x,-y,1/2+z
1/2+x,1/2+y,z
1/2-x,1/2+y,1/2-z
1/2-x,1/2-y,-z
1/2+x,1/2-y,1/2+z
loop_
_atom_site_type_symbol
_atom_site_label
_atom_site_fract_x
_atom_site_fract_y
_atom_site_fract_z
Si Si1 0.587215 0.706057 0.017073
Si Si2 0.163110 0.125434 0.837047
Si Si3 0.216793 0.120933 0.549645
Si Si4 0.546266 0.975399 0.324293
Si Si5 0.254200 0.775763 0.157039
Si Si6 0.500000 0.171956 0.250000
Si Si7 0.500000 0.742732 0.250000
Si Si8 0.774708 0.996858 0.364154
O O1 0.558226 0.642219 0.990131
O O2 0.818995 0.717884 0.885054
O O3 0.480223 0.756776 0.019012
O O4 0.474738 0.701756 0.176789
O O5 0.348159 0.085520 0.751549
O O6 0.236844 0.187511 0.758179
O O7 0.993960 0.098145 0.868645
O O8 0.187360 0.184353 0.610399
O O9 0.379830 0.127848 0.381236
O O10 0.276644 0.071883 0.588466
O O11 0.500000 0.002549 0.250000
O O12 0.695105 0.011458 0.307414
O O13 0.343587 0.967220 0.492988
O O14 0.137228 0.715261 0.229480
O O15 0.000000 0.013581 0.250000
#
# Coordination Sequence:
#
# PCOD8149630 Si02
#       8
#     8   8   8   8   8   4   4   8
#     4  11  23  39  64  91 143 194 242 285 344 418
#     4  12  22  42  70 101 141 192 236 286 367 429
#     4  12  23  41  70 105 143 186 233 296 365 427
#     4  11  27  47  79 110 140 187 241 308 375 439
#     4  12  21  38  65 102 143 188 234 293 348 425
#     4  12  24  34  62 115 150 177 240 300 350 426
#     4  10  24  40  56  91 136 209 242 280 328 424
#     4  11  24  52  81 106 140 185 244 310 376 434
#
# _framework density 23.951056999999999
#
# number of rings (size 3 to 8) (size 9 to 14) (size 15 to 20)
#    0.000    0.571    7.143    1.286    2.000    0.571 
#    0.000    0.000    6.286    0.000    0.000    0.000 
#    0.000    0.000    0.000    0.000    0.000    0.000 
#
# Total GULP energy -346915.525281 kJ/mol
# GULP energy per Si atom -12389.840189 kJ/mol
# Density = 2.389654 g / cm^3
# Si number density = 23.951057 Si / 1000 Ang^3
#
#
#
# Elastic Constant Matrix: (Units=GPa)
#
#
# Indices 1 2 3 4 5 6 
#
# 1 141.1923 20.1801 60.3849 -0.0023 1.9026 0.0017
# 2 20.1801 43.7034 26.5346 -0.0003 -1.5711 0.0001
# 3 60.3849 26.5346 144.5621 -0.0052 2.1862 0.0059
# 4 -0.0023 -0.0003 -0.0052 38.6483 0.0027 -6.6551
# 5 1.9026 -1.5711 2.1862 0.0027 51.0862 -0.0025
# 6 0.0017 0.0001 0.0059 -6.6551 -0.0025 13.7489
#
#
#
# Elastic Compliance Matrix: (Units=1/GPa)
#
#
# Indices 1 2 3 4 5 6 
#
# 1 0.008788 -0.002071 -0.003287 0.000000 -0.000250 0.000000
# 2 -0.002071 0.026290 -0.003976 0.000000 0.001056 0.000002
# 3 -0.003287 -0.003976 0.009026 0.000000 -0.000386 -0.000003
# 4 0.000000 0.000000 0.000000 0.028227 -0.000001 0.013663
# 5 -0.000250 0.001056 -0.000386 -0.000001 0.019633 0.000003
# 6 0.000000 0.000002 -0.000003 0.013663 0.000003 0.079347
#
#
# Mechanical properties :
#
#
# Convention : Reuss Voigt Hill
#
# Bulk Modulus (GPa) = 39.31563 60.40636 49.86100
# Shear Modulus (GPa) = 25.19428 35.52056 30.35742
#
# Velocity S-wave (km/s) = 3.24683 3.85521 3.56403
# Velocity P-wave (km/s) = 5.52327 6.71509 6.14813
#
# Compressibility (1/GPa) = 0.02543518
#
# Stress axis : x y z
#
# Youngs Moduli (GPa) = 113.79688 38.03714 110.79042
#
# Poissons Ratio (x) = 0.07878 0.36414
# Poissons Ratio (y) = 0.23569 0.44055
# Poissons Ratio (z) = 0.37402 0.15125
#
# Static dielectric constant tensor:
#      x y z
#    x 4.634030 0.000000 0.166620 
#    y 0.000000 3.837630 0.000000 
#    z 0.166620 0.000000 4.716970 
# 
# 
# High freq. dielectric constant tensor:
#      x y z
#    x 1.964860 0.000000 0.000730 
#    y 0.000000 1.901640 0.000000 
#    z 0.000730 0.000000 1.963450 
# 
# From -- ./inp_files/148556.got.cif
#   From: 2010.06.25/outbox.cif.g09.slc.cpg/sg15_75_cif.got.tgz:148556.got - 2010.06.28 07:06:18.
