data_PCOD8149233
_publ_section_title
;
Structure prediction by ZEFSAII (Michael W. Deem and Ramdas Pophale) SiO2 
 PCOD8149233
Probable space group: C 2/C
;
_chemical_formula_sum "Si O2"
_cell_formula_units_Z 32
_cell_length_a 13.787209
_cell_length_b 5.054785
_cell_length_c 20.854831
_cell_angle_alpha 90.000000
_cell_angle_beta 116.070150
_cell_angle_gamma 90.000000
_cell_volume 1305.527922
_symmetry_space_group_name_H-M "C 2/C"
_symmetry_group_IT_number 15
_symmetry_cell_setting 'monoclinic'
loop_
_space_group_symop_operation_xyz
x,y,z
-x,y,1/2-z
-x,-y,-z
x,-y,1/2+z
1/2+x,1/2+y,z
1/2-x,1/2+y,1/2-z
1/2-x,1/2-y,-z
1/2+x,1/2-y,1/2+z
loop_
_atom_site_type_symbol
_atom_site_label
_atom_site_fract_x
_atom_site_fract_y
_atom_site_fract_z
Si Si1 0.887596 0.106606 0.304516
Si Si2 0.291744 0.315530 0.162707
Si Si3 0.976917 0.390529 0.629684
Si Si4 0.807931 0.499097 0.487879
O O1 0.776184 0.119836 0.311705
O O2 0.942823 0.393227 0.317745
O O3 0.861607 0.022258 0.224375
O O4 0.964267 0.890967 0.360775
O O5 0.374075 0.136010 0.146550
O O6 0.207604 0.483165 0.093669
O O7 0.933424 0.486957 0.547025
O O8 0.750000 0.750000 0.500000
O O9 0.750000 0.250000 0.500000
#
# Coordination Sequence:
#
# PCOD8149233 Si02
#       4
#     8   8   8   8
#     4  12  27  44  72 104 135 184 229 280 351 409
#     4  11  27  47  70 103 144 177 230 289 340 410
#     4  11  26  47  71 100 137 183 232 282 342 410
#     4  10  23  44  71  99 136 184 226 281 345 400
#
# _framework density 24.511157999999998
#
# number of rings (size 3 to 8) (size 9 to 14) (size 15 to 20)
#    0.000    1.000    0.000    5.250    0.000   26.000 
#    0.000    0.000    0.000    0.000    0.000    0.000 
#    0.000    0.000    0.000    0.000    0.000    0.000 
#
# Total GULP energy -198452.328180 kJ/mol
# GULP energy per Si atom -12403.270511 kJ/mol
# Density = 2.445537 g / cm^3
# Si number density = 24.511158 Si / 1000 Ang^3
#
#
#
# Elastic Constant Matrix: (Units=GPa)
#
#
# Indices 1 2 3 4 5 6 
#
# 1 92.8906 26.6117 19.0449 0.0000 15.3039 -0.0001
# 2 26.6117 121.8638 12.9516 0.0000 2.3084 -0.0004
# 3 19.0449 12.9516 164.1696 0.0000 14.3603 -0.0001
# 4 0.0000 0.0000 0.0000 34.5838 0.0000 8.5179
# 5 15.3039 2.3084 14.3603 0.0000 29.2572 0.0000
# 6 -0.0001 -0.0004 -0.0001 8.5179 0.0000 52.4447
#
#
#
# Elastic Compliance Matrix: (Units=1/GPa)
#
#
# Indices 1 2 3 4 5 6 
#
# 1 0.012649 -0.002569 -0.000735 0.000000 -0.006053 0.000000
# 2 -0.002569 0.008801 -0.000473 0.000000 0.000882 0.000000
# 3 -0.000735 -0.000473 0.006454 0.000000 -0.002746 0.000000
# 4 0.000000 0.000000 0.000000 0.030120 0.000000 -0.004892
# 5 -0.006053 0.000882 -0.002746 0.000000 0.038624 0.000000
# 6 0.000000 0.000000 0.000000 -0.004892 0.000000 0.019862
#
#
# Mechanical properties :
#
#
# Convention : Reuss Voigt Hill
#
# Bulk Modulus (GPa) = 49.14502 55.12670 52.13586
# Shear Modulus (GPa) = 38.21183 44.61151 41.41167
#
# Velocity S-wave (km/s) = 3.95265 4.27083 4.11482
# Velocity P-wave (km/s) = 6.39725 6.84538 6.62511
#
# Compressibility (1/GPa) = 0.02034794
#
# Stress axis : x y z
#
# Youngs Moduli (GPa) = 79.05465 113.62873 154.94045
#
# Poissons Ratio (x) = 0.29197 0.11392
# Poissons Ratio (y) = 0.20313 0.07334
# Poissons Ratio (z) = 0.05812 0.05379
#
# Static dielectric constant tensor:
#      x y z
#    x 4.295640 0.000000 0.391050 
#    y 0.000000 4.254410 0.000000 
#    z 0.391050 0.000000 5.985210 
# 
# 
# High freq. dielectric constant tensor:
#      x y z
#    x 1.964120 0.000000 0.018400 
#    y 0.000000 1.979340 0.000000 
#    z 0.018400 0.000000 1.997530 
# 
# From -- ./inp_files/241560.got.cif
#   From: 2010.06.25/outbox.cif.g09.slc.cpg/sg15_121_cif.got.tgz:241560.got - 2010.06.28 07:06:18.
