data_PCOD8149252
_publ_section_title
;
Structure prediction by ZEFSAII (Michael W. Deem and Ramdas Pophale) SiO2 
 PCOD8149252
Probable space group: C 2/C
;
_chemical_formula_sum "Si O2"
_cell_formula_units_Z 56
_cell_length_a 8.251512
_cell_length_b 11.926560
_cell_length_c 25.147854
_cell_angle_alpha 90.000000
_cell_angle_beta 70.316606
_cell_angle_gamma 90.000000
_cell_volume 2330.244267
_symmetry_space_group_name_H-M "C 2/C"
_symmetry_group_IT_number 15
_symmetry_cell_setting 'monoclinic'
loop_
_space_group_symop_operation_xyz
x,y,z
-x,y,1/2-z
-x,-y,-z
x,-y,1/2+z
1/2+x,1/2+y,z
1/2-x,1/2+y,1/2-z
1/2-x,1/2-y,-z
1/2+x,1/2-y,1/2+z
loop_
_atom_site_type_symbol
_atom_site_label
_atom_site_fract_x
_atom_site_fract_y
_atom_site_fract_z
Si Si1 0.074448 0.802397 0.134729
Si Si2 0.743290 0.912978 0.661800
Si Si3 0.746996 0.494920 0.954808
Si Si4 0.014044 0.816055 0.022402
Si Si5 0.978711 0.735418 0.673909
Si Si6 0.553452 0.133780 0.930186
Si Si7 0.765570 0.629829 0.780563
O O1 0.110895 0.685244 0.160610
O O2 0.993169 0.777928 0.085771
O O3 0.245220 0.878299 0.107435
O O4 0.938834 0.867636 0.186951
O O5 0.907837 0.861754 0.674722
O O6 0.801787 0.972009 0.601002
O O7 0.661356 0.008196 0.708937
O O8 0.641069 0.606548 0.982077
O O9 0.949713 0.515745 0.945958
O O10 0.691879 0.387686 0.996097
O O11 0.025026 0.706153 0.985679
O O12 0.038961 0.693330 0.609732
O O13 0.820762 0.655920 0.713935
O O14 0.141365 0.728662 0.695267
#
# Coordination Sequence:
#
# PCOD8149252 Si02
#       7
#     8   8   8   8   8   8   8
#     4  11  24  43  66 101 141 175 228 279 334 407
#     4  11  23  46  68  97 136 174 222 276 340 401
#     4  11  22  40  69  95 133 185 216 269 351 390
#     4  11  22  42  65  98 141 176 227 282 323 413
#     4  10  23  44  72  97 132 175 231 281 338 407
#     4  11  22  40  64 101 137 177 224 275 336 404
#     4  11  24  47  68  97 134 177 227 285 341 398
#
# _framework density 24.031815999999999
#
# number of rings (size 3 to 8) (size 9 to 14) (size 15 to 20)
#    0.000    1.143    5.714    0.857    0.000    5.143 
#    2.571    4.286    0.000    0.000    0.000    0.000 
#    0.000    0.000    0.000    0.000    0.000    0.000 
#
# Total GULP energy -347065.267510 kJ/mol
# GULP energy per Si atom -12395.188125 kJ/mol
# Density = 2.397712 g / cm^3
# Si number density = 24.031816 Si / 1000 Ang^3
#
#
#
# Elastic Constant Matrix: (Units=GPa)
#
#
# Indices 1 2 3 4 5 6 
#
# 1 81.9082 38.3355 6.6976 0.0000 -9.3114 0.0000
# 2 38.3355 103.5694 34.8755 0.0000 2.0861 0.0000
# 3 6.6976 34.8755 68.4371 0.0000 -9.3479 0.0000
# 4 0.0000 0.0000 0.0000 31.5479 0.0000 6.0917
# 5 -9.3114 2.0861 -9.3479 0.0000 35.5963 0.0000
# 6 0.0000 0.0000 0.0000 6.0917 0.0000 29.3011
#
#
#
# Elastic Compliance Matrix: (Units=1/GPa)
#
#
# Indices 1 2 3 4 5 6 
#
# 1 0.015789 -0.006844 0.002657 0.000000 0.005229 0.000000
# 2 -0.006844 0.014811 -0.007510 0.000000 -0.004631 0.000000
# 3 0.002657 -0.007510 0.019016 0.000000 0.006129 0.000000
# 4 0.000000 0.000000 0.000000 0.033024 0.000000 -0.006866
# 5 0.005229 -0.004631 0.006129 0.000000 0.031342 0.000000
# 6 0.000000 0.000000 0.000000 -0.006866 0.000000 0.035556
#
#
# Mechanical properties :
#
#
# Convention : Reuss Voigt Hill
#
# Bulk Modulus (GPa) = 38.13719 45.97021 42.05370
# Shear Modulus (GPa) = 27.52191 30.88947 29.20569
#
# Velocity S-wave (km/s) = 3.38779 3.58908 3.48989
# Velocity P-wave (km/s) = 5.58630 6.02874 5.81173
#
# Compressibility (1/GPa) = 0.02622112
#
# Stress axis : x y z
#
# Youngs Moduli (GPa) = 63.33398 67.51742 52.58631
#
# Poissons Ratio (x) = 0.46211 -0.13971
# Poissons Ratio (y) = 0.43348 0.39494
# Poissons Ratio (z) = -0.16827 0.50708
#
# Static dielectric constant tensor:
#      x y z
#    x 4.365360 0.000000 -0.004800 
#    y 0.000000 4.187140 0.000000 
#    z -0.004800 0.000000 4.499310 
# 
# 
# High freq. dielectric constant tensor:
#      x y z
#    x 1.945850 0.000000 0.003410 
#    y 0.000000 1.932160 0.000000 
#    z 0.003410 0.000000 1.963300 
# 
# From -- ./inp_files/287966.got.cif
#   From: 2010.06.25/outbox.cif.g09.slc.cpg/sg15_144_cif.got.tgz:287966.got - 2010.06.28 07:06:18.
