data_PCOD8149253
_publ_section_title
;
Structure prediction by ZEFSAII (Michael W. Deem and Ramdas Pophale) SiO2 
 PCOD8149253
Probable space group: C 2/C
;
_chemical_formula_sum "Si O2"
_cell_formula_units_Z 56
_cell_length_a 26.419447
_cell_length_b 8.977800
_cell_length_c 10.986977
_cell_angle_alpha 90.000000
_cell_angle_beta 76.471154
_cell_angle_gamma 90.000000
_cell_volume 2533.674551
_symmetry_space_group_name_H-M "C 2/C"
_symmetry_group_IT_number 15
_symmetry_cell_setting 'monoclinic'
loop_
_space_group_symop_operation_xyz
x,y,z
-x,y,1/2-z
-x,-y,-z
x,-y,1/2+z
1/2+x,1/2+y,z
1/2-x,1/2+y,1/2-z
1/2-x,1/2-y,-z
1/2+x,1/2-y,1/2+z
loop_
_atom_site_type_symbol
_atom_site_label
_atom_site_fract_x
_atom_site_fract_y
_atom_site_fract_z
Si Si1 0.614466 0.744642 0.689777
Si Si2 0.059856 0.732076 0.467612
Si Si3 0.536660 0.747240 0.336796
Si Si4 0.400452 0.452909 0.528833
Si Si5 0.303635 0.544619 0.721524
Si Si6 0.779329 0.259859 0.358911
Si Si7 0.884479 0.578840 0.856824
O O1 0.570244 0.765109 0.817865
O O2 0.591253 0.657603 0.588142
O O3 0.663707 0.655821 0.712114
O O4 0.632280 0.907159 0.635868
O O5 0.098279 0.617023 0.514618
O O6 0.999528 0.693467 0.531070
O O7 0.069764 0.895518 0.519627
O O8 0.500000 0.682135 0.250000
O O9 0.575250 0.618655 0.362246
O O10 0.568962 0.886753 0.264670
O O11 0.339622 0.489246 0.588778
O O12 0.252480 0.631871 0.710659
O O13 0.282331 0.405160 0.806031
O O14 0.750000 0.250000 0.500000
O O15 0.836754 0.320551 0.344208
#
# Coordination Sequence:
#
# PCOD8149253 Si02
#       7
#     8   8   8   8   8   8   8
#     4  11  25  42  70 102 141 181 232 279 351 415
#     4  10  24  43  68 100 137 180 235 277 341 411
#     4  10  23  44  72  97 139 183 228 283 343 403
#     4  11  23  45  71 101 141 179 231 292 341 410
#     4  11  24  44  69 105 137 180 235 289 350 414
#     4  12  24  43  71  97 135 181 235 289 350 407
#     4  11  24  45  66  97 146 184 225 293 344 407
#
# _framework density 22.102287
#
# number of rings (size 3 to 8) (size 9 to 14) (size 15 to 20)
#    0.000    1.143    1.429    4.714    8.000    2.286 
#    5.143    2.857    0.000    0.000    0.000    0.000 
#    0.000    0.000    0.000    0.000    0.000    0.000 
#
# Total GULP energy -347285.203458 kJ/mol
# GULP energy per Si atom -12403.042981 kJ/mol
# Density = 2.205198 g / cm^3
# Si number density = 22.102287 Si / 1000 Ang^3
#
#
#
# Elastic Constant Matrix: (Units=GPa)
#
#
# Indices 1 2 3 4 5 6 
#
# 1 91.4090 29.5254 36.8625 0.0000 -7.1181 0.0000
# 2 29.5254 145.8150 58.9735 0.0000 1.1511 0.0000
# 3 36.8625 58.9735 122.7025 0.0000 -1.9927 0.0000
# 4 0.0000 0.0000 0.0000 34.1601 0.0000 -0.2885
# 5 -7.1181 1.1511 -1.9927 0.0000 27.0101 0.0000
# 6 0.0000 0.0000 0.0000 -0.2885 0.0000 26.6867
#
#
#
# Elastic Compliance Matrix: (Units=1/GPa)
#
#
# Indices 1 2 3 4 5 6 
#
# 1 0.012909 -0.001356 -0.003174 0.000000 0.003226 0.000000
# 2 -0.001356 0.008667 -0.003775 0.000000 -0.001005 0.000000
# 3 -0.003174 -0.003775 0.010920 0.000000 0.000130 0.000000
# 4 0.000000 0.000000 0.000000 0.029277 0.000000 0.000317
# 5 0.003226 -0.001005 0.000130 0.000000 0.037926 0.000000
# 6 0.000000 0.000000 0.000000 0.000317 0.000000 0.037475
#
#
# Mechanical properties :
#
#
# Convention : Reuss Voigt Hill
#
# Bulk Modulus (GPa) = 62.94534 67.84991 65.39763
# Shear Modulus (GPa) = 31.43116 33.20903 32.32010
#
# Velocity S-wave (km/s) = 3.77514 3.88043 3.82815
# Velocity P-wave (km/s) = 6.89515 7.13034 7.01373
#
# Compressibility (1/GPa) = 0.01588680
#
# Stress axis : x y z
#
# Youngs Moduli (GPa) = 77.46570 115.37963 91.57757
#
# Poissons Ratio (x) = 0.15640 0.29069
# Poissons Ratio (y) = 0.10501 0.34567
# Poissons Ratio (z) = 0.24589 0.43552
#
# Static dielectric constant tensor:
#      x y z
#    x 4.358630 0.000000 -0.051670 
#    y 0.000000 3.935850 0.000000 
#    z -0.051670 0.000000 4.000420 
# 
# 
# High freq. dielectric constant tensor:
#      x y z
#    x 1.870480 0.000000 -0.002000 
#    y 0.000000 1.876430 0.000000 
#    z -0.002000 0.000000 1.874950 
# 
# From -- ./inp_files/121901.got.cif
#   From: 2010.06.25/outbox.cif.g09.slc.cpg/sg15_61_cif.got.tgz:121901.got - 2010.06.28 07:06:18.
