data_PCOD8149521
_publ_section_title
;
Structure prediction by ZEFSAII (Michael W. Deem and Ramdas Pophale) SiO2 
 PCOD8149521
Probable space group: C 2/C
;
_chemical_formula_sum "Si O2"
_cell_formula_units_Z 52
_cell_length_a 16.000534
_cell_length_b 11.136462
_cell_length_c 14.297048
_cell_angle_alpha 90.000000
_cell_angle_beta 115.189171
_cell_angle_gamma 90.000000
_cell_volume 2305.325658
_symmetry_space_group_name_H-M "C 2/C"
_symmetry_group_IT_number 15
_symmetry_cell_setting 'monoclinic'
loop_
_space_group_symop_operation_xyz
x,y,z
-x,y,1/2-z
-x,-y,-z
x,-y,1/2+z
1/2+x,1/2+y,z
1/2-x,1/2+y,1/2-z
1/2-x,1/2-y,-z
1/2+x,1/2-y,1/2+z
loop_
_atom_site_type_symbol
_atom_site_label
_atom_site_fract_x
_atom_site_fract_y
_atom_site_fract_z
Si Si1 0.432917 0.605038 0.933536
Si Si2 0.823432 0.461173 0.881126
Si Si3 0.351527 0.599436 0.301673
Si Si4 0.260108 0.227014 0.894526
Si Si5 0.356212 0.778972 0.042877
Si Si6 0.000000 0.788371 0.750000
Si Si7 0.574890 0.193410 0.210262
O O1 0.351864 0.538135 0.837334
O O2 0.472064 0.710542 0.884021
O O3 0.500000 0.500000 0.000000
O O4 0.394039 0.664414 0.006907
O O5 0.727231 0.390724 0.814929
O O6 0.806810 0.599952 0.892016
O O7 0.891343 0.428608 0.826439
O O8 0.868569 0.404852 0.995331
O O9 0.332020 0.680227 0.383429
O O10 0.451455 0.630687 0.306128
O O11 0.160033 0.240218 0.800912
O O12 0.250000 0.250000 0.000000
O O13 0.417060 0.791833 0.166339
O O14 0.250000 0.750000 0.000000
O O15 0.500000 0.152146 0.250000
#
# Coordination Sequence:
#
# PCOD8149521 Si02
#       7
#     8   8   8   8   8   4   8
#     4  11  23  39  72 103 135 174 237 301 350 418
#     4  10  23  48  67  99 144 182 233 293 356 429
#     4  11  24  42  68 103 137 179 232 296 354 420
#     4  11  26  45  71  98 139 190 238 286 357 439
#     4  11  24  40  70 102 138 184 228 297 366 412
#     4  12  24  42  66 106 140 180 238 288 356 436
#     4  10  24  44  72 104 138 185 238 299 364 422
#
# _framework density 22.556466
#
# number of rings (size 3 to 8) (size 9 to 14) (size 15 to 20)
#    0.000    1.231    4.615    0.000    5.385    0.000 
#    4.154    1.538    0.000    0.000    0.000    0.000 
#    0.000    0.000    0.000    0.000    0.000    0.000 
#
# Total GULP energy -322225.883983 kJ/mol
# GULP energy per Si atom -12393.303230 kJ/mol
# Density = 2.250513 g / cm^3
# Si number density = 22.556466 Si / 1000 Ang^3
#
#
#
# Elastic Constant Matrix: (Units=GPa)
#
#
# Indices 1 2 3 4 5 6 
#
# 1 138.1441 48.2610 41.7879 0.0000 -20.0438 0.0000
# 2 48.2610 126.2639 41.0759 0.0000 -18.5925 0.0000
# 3 41.7879 41.0759 124.5678 0.0000 -4.2648 0.0000
# 4 0.0000 0.0000 0.0000 26.4516 0.0000 2.9603
# 5 -20.0438 -18.5925 -4.2648 0.0000 36.0993 0.0000
# 6 0.0000 0.0000 0.0000 2.9603 0.0000 25.2101
#
#
#
# Elastic Compliance Matrix: (Units=1/GPa)
#
#
# Indices 1 2 3 4 5 6 
#
# 1 0.009240 -0.002262 -0.002227 0.000000 0.003702 0.000000
# 2 -0.002262 0.010123 -0.002454 0.000000 0.003668 0.000000
# 3 -0.002227 -0.002454 0.009537 0.000000 -0.001373 0.000000
# 4 0.000000 0.000000 0.000000 0.038308 0.000000 -0.004498
# 5 0.003702 0.003668 -0.001373 0.000000 0.031484 0.000000
# 6 0.000000 0.000000 0.000000 -0.004498 0.000000 0.040195
#
#
# Mechanical properties :
#
#
# Convention : Reuss Voigt Hill
#
# Bulk Modulus (GPa) = 66.60299 72.35838 69.48069
# Shear Modulus (GPa) = 31.69041 34.74227 33.21634
#
# Velocity S-wave (km/s) = 3.75232 3.92884 3.84159
# Velocity P-wave (km/s) = 6.95446 7.26151 7.10964
#
# Compressibility (1/GPa) = 0.01501434
#
# Stress axis : x y z
#
# Youngs Moduli (GPa) = 108.22630 98.78686 104.85630
#
# Poissons Ratio (x) = 0.22346 0.23351
# Poissons Ratio (y) = 0.24482 0.25727
# Poissons Ratio (z) = 0.24102 0.24238
#
# Static dielectric constant tensor:
#      x y z
#    x 3.951240 0.000000 -0.021400 
#    y 0.000000 3.879740 0.000000 
#    z -0.021400 0.000000 4.476240 
# 
# 
# High freq. dielectric constant tensor:
#      x y z
#    x 1.885080 0.000000 0.000240 
#    y 0.000000 1.879920 0.000000 
#    z 0.000240 0.000000 1.909470 
# 
# From -- ./inp_files/152698.got.cif
#   From: 2010.06.25/outbox.cif.g09.slc.cpg/sg15_77_cif.got.tgz:152698.got - 2010.06.28 07:06:18.
