data_PCOD8149798
_publ_section_title
;
Structure prediction by ZEFSAII (Michael W. Deem and Ramdas Pophale) SiO2 
 PCOD8149798
Probable space group: C 2/C
;
_chemical_formula_sum "Si O2"
_cell_formula_units_Z 52
_cell_length_a 32.174562
_cell_length_b 13.324053
_cell_length_c 9.186142
_cell_angle_alpha 90.000000
_cell_angle_beta 142.955481
_cell_angle_gamma 90.000000
_cell_volume 2372.425708
_symmetry_space_group_name_H-M "C 2/C"
_symmetry_group_IT_number 15
_symmetry_cell_setting 'monoclinic'
loop_
_space_group_symop_operation_xyz
x,y,z
-x,y,1/2-z
-x,-y,-z
x,-y,1/2+z
1/2+x,1/2+y,z
1/2-x,1/2+y,1/2-z
1/2-x,1/2-y,-z
1/2+x,1/2-y,1/2+z
loop_
_atom_site_type_symbol
_atom_site_label
_atom_site_fract_x
_atom_site_fract_y
_atom_site_fract_z
Si Si1 0.000000 0.902746 0.750000
Si Si2 0.392852 0.289440 0.900055
Si Si3 0.525259 0.264730 0.089520
Si Si4 0.143773 0.010723 0.675605
Si Si5 0.734160 0.481201 0.670504
Si Si6 0.176897 0.415930 0.328322
Si Si7 0.453800 0.942215 0.982337
O O1 0.977019 0.839793 0.549132
O O2 0.933935 0.971271 0.594127
O O3 0.351879 0.393332 0.758864
O O4 0.341094 0.196829 0.764244
O O5 0.446767 0.254512 0.926471
O O6 0.429156 0.309423 0.155207
O O7 0.562810 0.162995 0.141656
O O8 0.192370 0.042512 0.676926
O O9 0.175168 0.072716 0.903167
O O10 0.777417 0.548503 0.679736
O O11 0.784146 0.409414 0.905604
O O12 0.113482 0.494018 0.164337
O O13 0.500000 0.917808 0.250000
O O14 0.500000 0.000000 0.000000
#
# Coordination Sequence:
#
# PCOD8149798 Si02
#       7
#     4   8   8   8   8   8   8
#     4  12  24  44  70  94 132 162 224 286 338 368
#     4  11  23  40  67  95 131 175 224 263 334 395
#     4  11  23  38  63 107 131 166 215 278 339 388
#     4  11  24  45  68  95 127 175 222 281 321 393
#     4  10  24  42  63  92 129 174 219 259 335 385
#     4  11  23  42  66  95 135 176 211 267 325 402
#     4  12  22  39  65  98 137 170 212 273 322 382
#
# _framework density 21.918496000000001
#
# number of rings (size 3 to 8) (size 9 to 14) (size 15 to 20)
#    0.000    0.923    2.308    5.538    0.000    4.308 
#    0.000    3.077    0.000    8.308    0.000    0.000 
#    0.000    0.000    0.000    0.000    0.000    0.000 
#
# Total GULP energy -322114.255234 kJ/mol
# GULP energy per Si atom -12389.009817 kJ/mol
# Density = 2.186861 g / cm^3
# Si number density = 21.918496 Si / 1000 Ang^3
#
#
#
# Elastic Constant Matrix: (Units=GPa)
#
#
# Indices 1 2 3 4 5 6 
#
# 1 123.4254 36.5740 41.4916 0.0000 -2.2309 0.0000
# 2 36.5740 103.6513 16.4028 0.0000 7.9127 0.0000
# 3 41.4916 16.4028 91.2325 0.0000 5.9326 0.0000
# 4 0.0000 0.0000 0.0000 91.8763 0.0000 -27.2692
# 5 -2.2309 7.9127 5.9326 0.0000 41.0054 0.0000
# 6 0.0000 0.0000 0.0000 -27.2692 0.0000 26.2479
#
#
#
# Elastic Compliance Matrix: (Units=1/GPa)
#
#
# Indices 1 2 3 4 5 6 
#
# 1 0.010532 -0.003168 -0.004338 0.000000 0.001812 0.000000
# 2 -0.003168 0.010998 -0.000391 0.000000 -0.002238 0.000000
# 3 -0.004338 -0.000391 0.013138 0.000000 -0.002061 0.000000
# 4 0.000000 0.000000 0.000000 0.015737 0.000000 0.016349
# 5 0.001812 -0.002238 -0.002061 0.000000 0.025216 0.000000
# 6 0.000000 0.000000 0.000000 0.016349 0.000000 0.055083
#
#
# Mechanical properties :
#
#
# Convention : Reuss Voigt Hill
#
# Bulk Modulus (GPa) = 52.98250 56.36068 54.67159
# Shear Modulus (GPa) = 32.72464 46.74863 39.73663
#
# Velocity S-wave (km/s) = 3.86815 4.62328 4.26247
# Velocity P-wave (km/s) = 6.64643 7.36676 7.01585
#
# Compressibility (1/GPa) = 0.01887416
#
# Stress axis : x y z
#
# Youngs Moduli (GPa) = 94.94964 90.92268 76.11367
#
# Poissons Ratio (x) = 0.28805 0.33018
# Poissons Ratio (y) = 0.30081 0.02977
# Poissons Ratio (z) = 0.41189 0.03556
#
# Static dielectric constant tensor:
#      x y z
#    x 4.188020 0.000000 0.015420 
#    y 0.000000 3.641430 0.000000 
#    z 0.015420 0.000000 4.490620 
# 
# 
# High freq. dielectric constant tensor:
#      x y z
#    x 1.882190 0.000000 -0.004580 
#    y 0.000000 1.832840 0.000000 
#    z -0.004580 0.000000 1.886890 
# 
# From -- ./inp_files/70186.got.cif
#   From: 2010.06.25/outbox.cif.g09.slc.cpg/sg15_36_cif.got.tgz:70186.got - 2010.06.28 07:06:18.
