data_PCOD8149917
_publ_section_title
;
Structure prediction by ZEFSAII (Michael W. Deem and Ramdas Pophale) SiO2 
 PCOD8149917
Probable space group: C 2/C
;
_chemical_formula_sum "Si O2"
_cell_formula_units_Z 36
_cell_length_a 21.059800
_cell_length_b 14.865985
_cell_length_c 8.689128
_cell_angle_alpha 90.000000
_cell_angle_beta 142.838433
_cell_angle_gamma 90.000000
_cell_volume 1643.264871
_symmetry_space_group_name_H-M "C 2/C"
_symmetry_group_IT_number 15
_symmetry_cell_setting 'monoclinic'
loop_
_space_group_symop_operation_xyz
x,y,z
-x,y,1/2-z
-x,-y,-z
x,-y,1/2+z
1/2+x,1/2+y,z
1/2-x,1/2+y,1/2-z
1/2-x,1/2-y,-z
1/2+x,1/2-y,1/2+z
loop_
_atom_site_type_symbol
_atom_site_label
_atom_site_fract_x
_atom_site_fract_y
_atom_site_fract_z
Si Si1 0.848406 0.973839 0.211781
Si Si2 0.274133 0.847093 0.982976
Si Si3 0.500000 0.488627 0.750000
Si Si4 0.809948 0.333018 0.690718
Si Si5 0.514002 0.097336 0.458872
O O1 0.930107 0.952430 0.232142
O O2 0.911663 0.933983 0.482629
O O3 0.740120 0.922605 0.979705
O O4 0.820992 0.080382 0.179668
O O5 0.369680 0.875309 0.274044
O O6 0.250000 0.750000 0.000000
O O7 0.303146 0.837619 0.860543
O O8 0.750000 0.250000 0.500000
O O9 0.931395 0.332655 0.874799
O O10 0.500000 0.096348 0.250000
O O11 0.500000 0.000000 0.500000
#
# Coordination Sequence:
#
# PCOD8149917 Si02
#       5
#     8   8   4   8   8
#     4  11  24  47  72 100 142 183 240 287 356 416
#     4  12  27  47  75 107 143 187 242 296 359 431
#     4  10  24  42  72 100 138 190 224 294 356 418
#     4  12  27  47  75 107 143 187 242 296 359 431
#     4  12  26  46  76 105 145 192 242 296 366 432
#
# _framework density 21.907606999999999
#
# number of rings (size 3 to 8) (size 9 to 14) (size 15 to 20)
#    0.000    0.444    4.444    3.333    6.222    3.556 
#    4.000    0.000    0.000    0.000    0.000    0.000 
#    0.000    0.000    0.000    0.000    0.000    0.000 
#
# Total GULP energy -223084.266676 kJ/mol
# GULP energy per Si atom -12393.570371 kJ/mol
# Density = 2.185774 g / cm^3
# Si number density = 21.907607 Si / 1000 Ang^3
#
#
#
# Elastic Constant Matrix: (Units=GPa)
#
#
# Indices 1 2 3 4 5 6 
#
# 1 138.3002 37.8738 60.5341 0.0000 -18.8047 0.0000
# 2 37.8738 116.7422 36.6536 0.0000 -2.4316 0.0000
# 3 60.5341 36.6536 173.2170 0.0000 -22.3824 0.0000
# 4 0.0000 0.0000 0.0000 35.2281 0.0000 3.7180
# 5 -18.8047 -2.4316 -22.3824 0.0000 52.0087 0.0000
# 6 0.0000 0.0000 0.0000 3.7180 0.0000 28.7455
#
#
#
# Elastic Compliance Matrix: (Units=1/GPa)
#
#
# Indices 1 2 3 4 5 6 
#
# 1 0.009201 -0.002162 -0.002479 0.000000 0.002159 0.000000
# 2 -0.002162 0.009692 -0.001417 0.000000 -0.000938 0.000000
# 3 -0.002479 -0.001417 0.007216 0.000000 0.002143 0.000000
# 4 0.000000 0.000000 0.000000 0.028779 0.000000 -0.003722
# 5 0.002159 -0.000938 0.002143 0.000000 0.020886 0.000000
# 6 0.000000 0.000000 0.000000 -0.003722 0.000000 0.035269
#
#
# Mechanical properties :
#
#
# Convention : Reuss Voigt Hill
#
# Bulk Modulus (GPa) = 71.45587 77.59803 74.52695
# Shear Modulus (GPa) = 39.11583 42.74301 40.92942
#
# Velocity S-wave (km/s) = 4.23009 4.42187 4.32704
# Velocity P-wave (km/s) = 7.51970 7.84653 7.68486
#
# Compressibility (1/GPa) = 0.01399465
#
# Stress axis : x y z
#
# Youngs Moduli (GPa) = 108.67992 103.17285 138.57727
#
# Poissons Ratio (x) = 0.22303 0.34356
# Poissons Ratio (y) = 0.23494 0.19633
# Poissons Ratio (z) = 0.26944 0.14617
#
# Static dielectric constant tensor:
#      x y z
#    x 4.579380 0.000000 0.088040 
#    y 0.000000 3.720180 0.000000 
#    z 0.088040 0.000000 4.457280 
# 
# 
# High freq. dielectric constant tensor:
#      x y z
#    x 1.879370 0.000000 -0.005780 
#    y 0.000000 1.835390 0.000000 
#    z -0.005780 0.000000 1.897270 
# 
# From -- ./inp_files/55701.got.cif
#   From: 2010.06.25/outbox.cif.g09.slc.cpg/sg15_28_cif.got.tgz:55701.got - 2010.06.28 07:06:18.
