data_PCOD8149344
_publ_section_title
;
Structure prediction by ZEFSAII (Michael W. Deem and Ramdas Pophale) SiO2 
 PCOD8149344
Probable space group: C 2/C
;
_chemical_formula_sum "Si O2"
_cell_formula_units_Z 60
_cell_length_a 23.878436
_cell_length_b 12.957916
_cell_length_c 8.911003
_cell_angle_alpha 90.000000
_cell_angle_beta 70.481735
_cell_angle_gamma 90.000000
_cell_volume 2598.753746
_symmetry_space_group_name_H-M "C 2/C"
_symmetry_group_IT_number 15
_symmetry_cell_setting 'monoclinic'
loop_
_space_group_symop_operation_xyz
x,y,z
-x,y,1/2-z
-x,-y,-z
x,-y,1/2+z
1/2+x,1/2+y,z
1/2-x,1/2+y,1/2-z
1/2-x,1/2-y,-z
1/2+x,1/2-y,1/2+z
loop_
_atom_site_type_symbol
_atom_site_label
_atom_site_fract_x
_atom_site_fract_y
_atom_site_fract_z
Si Si1 0.161481 0.479905 0.661600
Si Si2 0.000000 0.997363 0.750000
Si Si3 0.223015 0.616128 0.377622
Si Si4 0.919424 0.052683 0.583460
Si Si5 0.380063 0.255510 0.984499
Si Si6 0.891659 0.639931 0.553630
Si Si7 0.489926 0.110940 0.932923
Si Si8 0.642406 0.341218 0.801490
O O1 0.210170 0.523090 0.502569
O O2 0.198475 0.404100 0.733137
O O3 0.128165 0.567492 0.787843
O O4 0.113440 0.418142 0.601764
O O5 0.029641 0.930835 0.589794
O O6 0.051253 0.066547 0.779399
O O7 0.186962 0.714717 0.469894
O O8 0.292594 0.632214 0.314843
O O9 0.875652 0.149187 0.604624
O O10 0.886591 0.942592 0.598523
O O11 0.424986 0.165831 0.007260
O O12 0.397292 0.301194 0.804768
O O13 0.853961 0.746488 0.583291
O O14 0.959213 0.677296 0.528286
O O15 0.500000 0.097657 0.750000
O O16 0.500000 0.000000 0.000000
#
# Coordination Sequence:
#
# PCOD8149344 Si02
#       8
#     8   4   8   8   8   8   8   8
#     4  10  23  45  69 105 138 185 240 301 363 430
#     4  10  24  44  70  94 140 178 232 300 348 436
#     4  11  25  45  73 101 143 189 245 303 359 437
#     4  11  26  45  71 103 142 187 246 291 364 433
#     4  12  26  45  70 105 143 191 243 297 368 435
#     4  11  23  42  70 102 141 180 234 296 369 431
#     4  12  24  42  71 102 139 178 227 288 363 432
#     4  12  26  44  74 102 143 193 241 297 364 426
#
# _framework density 23.087989
#
# number of rings (size 3 to 8) (size 9 to 14) (size 15 to 20)
#    0.000    0.800    4.000    2.800    6.533    2.667 
#    1.200    0.000    0.000    0.000    0.000    0.000 
#    0.000    0.000    0.000    0.000    0.000    0.000 
#
# Total GULP energy -371813.524115 kJ/mol
# GULP energy per Si atom -12393.784137 kJ/mol
# Density = 2.303544 g / cm^3
# Si number density = 23.087989 Si / 1000 Ang^3
#
#
#
# Elastic Constant Matrix: (Units=GPa)
#
#
# Indices 1 2 3 4 5 6 
#
# 1 87.3122 25.6674 25.0565 0.0000 -1.0026 0.0000
# 2 25.6674 126.9893 24.3422 0.0000 3.9099 0.0000
# 3 25.0565 24.3422 76.0225 0.0000 14.9068 0.0000
# 4 0.0000 0.0000 0.0000 28.9893 0.0000 2.7864
# 5 -1.0026 3.9099 14.9068 0.0000 38.1274 0.0000
# 6 0.0000 0.0000 0.0000 2.7864 0.0000 31.8212
#
#
#
# Elastic Compliance Matrix: (Units=1/GPa)
#
#
# Indices 1 2 3 4 5 6 
#
# 1 0.013247 -0.001945 -0.004170 0.000000 0.002178 0.000000
# 2 -0.001945 0.008677 -0.002115 0.000000 -0.000114 0.000000
# 3 -0.004170 -0.002115 0.016445 0.000000 -0.006323 0.000000
# 4 0.000000 0.000000 0.000000 0.034788 0.000000 -0.003046
# 5 0.002178 -0.000114 -0.006323 0.000000 0.028769 0.000000
# 6 0.000000 0.000000 0.000000 -0.003046 0.000000 0.031692
#
#
# Mechanical properties :
#
#
# Convention : Reuss Voigt Hill
#
# Bulk Modulus (GPa) = 45.64466 48.93957 47.29211
# Shear Modulus (GPa) = 31.76992 34.13812 32.95402
#
# Velocity S-wave (km/s) = 3.71352 3.84944 3.78209
# Velocity P-wave (km/s) = 6.18060 6.40317 6.29287
#
# Compressibility (1/GPa) = 0.02190837
#
# Stress axis : x y z
#
# Youngs Moduli (GPa) = 75.49007 115.25082 60.80724
#
# Poissons Ratio (x) = 0.22418 0.25359
# Poissons Ratio (y) = 0.14684 0.12859
# Poissons Ratio (z) = 0.31482 0.24373
#
# Static dielectric constant tensor:
#      x y z
#    x 4.349860 0.000000 0.172170 
#    y 0.000000 4.226330 0.000000 
#    z 0.172170 0.000000 4.234330 
# 
# 
# High freq. dielectric constant tensor:
#      x y z
#    x 1.914250 0.000000 0.012390 
#    y 0.000000 1.908890 0.000000 
#    z 0.012390 0.000000 1.908650 
# 
# From -- ./inp_files/61902.got.cif
#   From: 2010.06.25/outbox.cif.g09.slc.cpg/sg15_31_cif.got.tgz:61902.got - 2010.06.28 07:06:18.
