data_PCOD8149603
_publ_section_title
;
Structure prediction by ZEFSAII (Michael W. Deem and Ramdas Pophale) SiO2 
 PCOD8149603
Probable space group: C 2/C
;
_chemical_formula_sum "Si O2"
_cell_formula_units_Z 56
_cell_length_a 30.312200
_cell_length_b 8.805987
_cell_length_c 10.147775
_cell_angle_alpha 90.000000
_cell_angle_beta 108.621044
_cell_angle_gamma 90.000000
_cell_volume 2566.934827
_symmetry_space_group_name_H-M "C 2/C"
_symmetry_group_IT_number 15
_symmetry_cell_setting 'monoclinic'
loop_
_space_group_symop_operation_xyz
x,y,z
-x,y,1/2-z
-x,-y,-z
x,-y,1/2+z
1/2+x,1/2+y,z
1/2-x,1/2+y,1/2-z
1/2-x,1/2-y,-z
1/2+x,1/2-y,1/2+z
loop_
_atom_site_type_symbol
_atom_site_label
_atom_site_fract_x
_atom_site_fract_y
_atom_site_fract_z
Si Si1 0.500000 0.520428 0.750000
Si Si2 0.667243 0.155065 0.478610
Si Si3 0.304569 0.532359 0.376423
Si Si4 0.439915 0.276264 0.804764
Si Si5 0.565794 0.226583 0.412223
Si Si6 0.000000 0.516632 0.750000
Si Si7 0.300319 0.042415 0.725363
Si Si8 0.840542 0.154457 0.150358
O O1 0.479149 0.408166 0.841491
O O2 0.456665 0.620207 0.664276
O O3 0.694938 0.305594 0.548914
O O4 0.613665 0.186556 0.385512
O O5 0.671398 0.038681 0.607932
O O6 0.687617 0.094577 0.361356
O O7 0.253369 0.477191 0.288160
O O8 0.333836 0.537720 0.267056
O O9 0.324815 0.409245 0.495597
O O10 0.463094 0.116292 0.792831
O O11 0.394943 0.309369 0.672818
O O12 0.417874 0.261861 0.926199
O O13 0.528535 0.090538 0.376655
O O14 0.310371 0.197056 0.655577
#
# Coordination Sequence:
#
# PCOD8149603 Si02
#       8
#     4   8   8   8   8   4   8   8
#     4  10  24  38  66  90 120 166 202 266 304 378
#     4  11  24  42  66  93 131 166 208 265 305 381
#     4  11  23  42  65  94 127 166 212 259 315 369
#     4  11  21  42  62  91 126 158 212 250 321 362
#     4  11  21  42  62  91 126 158 212 250 321 362
#     4  10  24  38  66  90 120 166 202 266 304 378
#     4  11  23  42  65  94 127 166 212 259 315 369
#     4  11  24  42  66  93 131 166 208 265 305 381
#
# _framework density 21.815902000000001
#
# number of rings (size 3 to 8) (size 9 to 14) (size 15 to 20)
#    0.000    1.143    2.857    4.286    0.000    3.429 
#    0.000    0.000    0.000    0.000    0.000    0.000 
#    0.000    0.000    0.000    0.000    0.000    0.000 
#
# Total GULP energy -347113.487526 kJ/mol
# GULP energy per Si atom -12396.910269 kJ/mol
# Density = 2.176625 g / cm^3
# Si number density = 21.815902 Si / 1000 Ang^3
#
#
#
# Elastic Constant Matrix: (Units=GPa)
#
#
# Indices 1 2 3 4 5 6 
#
# 1 68.9063 28.5731 42.0760 0.0000 29.9660 0.0000
# 2 28.5731 85.8843 22.1796 0.0000 17.4594 0.0000
# 3 42.0760 22.1796 56.9203 0.0000 18.0215 0.0000
# 4 0.0000 0.0000 0.0000 32.8362 0.0000 4.6134
# 5 29.9660 17.4594 18.0215 0.0000 33.0898 0.0000
# 6 0.0000 0.0000 0.0000 4.6134 0.0000 37.8178
#
#
#
# Elastic Compliance Matrix: (Units=1/GPa)
#
#
# Indices 1 2 3 4 5 6 
#
# 1 0.036735 -0.002925 -0.019299 0.000000 -0.021213 0.000000
# 2 -0.002925 0.013882 -0.002135 0.000000 -0.003513 0.000000
# 3 -0.019299 -0.002135 0.032355 0.000000 0.000982 0.000000
# 4 0.000000 0.000000 0.000000 0.030985 0.000000 -0.003780
# 5 -0.021213 -0.003513 0.000982 0.000000 0.050750 0.000000
# 6 0.000000 0.000000 0.000000 -0.003780 0.000000 0.026904
#
#
# Mechanical properties :
#
#
# Convention : Reuss Voigt Hill
#
# Bulk Modulus (GPa) = 29.19278 44.15204 36.67241
# Shear Modulus (GPa) = 19.86120 28.67424 24.26772
#
# Velocity S-wave (km/s) = 3.02056 3.62936 3.33886
# Velocity P-wave (km/s) = 5.05722 6.15186 5.63120
#
# Compressibility (1/GPa) = 0.03425505
#
# Stress axis : x y z
#
# Youngs Moduli (GPa) = 27.22205 72.03447 30.90691
#
# Poissons Ratio (x) = 0.21071 0.59646
# Poissons Ratio (y) = 0.07963 0.06598
# Poissons Ratio (z) = 0.52535 0.15378
#
# Static dielectric constant tensor:
#      x y z
#    x 3.868410 0.000000 0.047090 
#    y 0.000000 4.045210 0.000000 
#    z 0.047090 0.000000 3.906380 
# 
# 
# High freq. dielectric constant tensor:
#      x y z
#    x 1.866010 0.000000 0.010200 
#    y 0.000000 1.861190 0.000000 
#    z 0.010200 0.000000 1.852600 
# 
# From -- ./inp_files/125638.got.cif
#   From: 2010.06.25/outbox.cif.g09.slc.cpg/sg15_63_cif.got.tgz:125638.got - 2010.06.28 07:06:18.
