data_PCOD8149573
_publ_section_title
;
Structure prediction by ZEFSAII (Michael W. Deem and Ramdas Pophale) SiO2 
 PCOD8149573
Probable space group: C 2/C
;
_chemical_formula_sum "Si O2"
_cell_formula_units_Z 60
_cell_length_a 20.403804
_cell_length_b 14.242107
_cell_length_c 15.216068
_cell_angle_alpha 90.000000
_cell_angle_beta 39.273135
_cell_angle_gamma 90.000000
_cell_volume 2799.006207
_symmetry_space_group_name_H-M "C 2/C"
_symmetry_group_IT_number 15
_symmetry_cell_setting 'monoclinic'
loop_
_space_group_symop_operation_xyz
x,y,z
-x,y,1/2-z
-x,-y,-z
x,-y,1/2+z
1/2+x,1/2+y,z
1/2-x,1/2+y,1/2-z
1/2-x,1/2-y,-z
1/2+x,1/2-y,1/2+z
loop_
_atom_site_type_symbol
_atom_site_label
_atom_site_fract_x
_atom_site_fract_y
_atom_site_fract_z
Si Si1 0.961543 0.343348 0.030625
Si Si2 0.288018 0.838286 0.511311
Si Si3 0.387919 0.429357 0.900629
Si Si4 0.500000 0.924121 0.250000
Si Si5 0.227676 0.101789 0.483498
Si Si6 0.727209 0.202711 0.886690
Si Si7 0.908823 0.489925 0.695768
Si Si8 0.368361 0.278834 0.073865
O O1 0.890148 0.307338 0.025808
O O2 0.888462 0.413868 0.162535
O O3 0.062222 0.401240 0.893500
O O4 0.013003 0.256225 0.030302
O O5 0.250000 0.750000 0.500000
O O6 0.197824 0.914456 0.588687
O O7 0.397315 0.862076 0.352913
O O8 0.305350 0.808536 0.595173
O O9 0.500000 0.401776 0.750000
O O10 0.378300 0.542661 0.924546
O O11 0.369493 0.368964 0.008197
O O12 0.492277 0.988824 0.344680
O O13 0.247063 0.125356 0.565841
O O14 0.231189 0.194529 0.422873
O O15 0.313801 0.029978 0.358184
O O16 0.811996 0.191668 0.722159
#
# Coordination Sequence:
#
# PCOD8149573 Si02
#       8
#     8   8   8   4   8   8   8   8
#     4  11  24  40  68 105 132 174 223 296 350 400
#     4  10  24  37  66  98 137 180 219 283 344 419
#     4  11  26  45  70 100 144 186 230 278 353 433
#     4  12  20  38  68  96 128 180 222 282 348 394
#     4  11  24  50  66  99 136 188 233 283 342 422
#     4  11  26  44  71  94 140 181 235 287 344 415
#     4  11  22  40  68 101 133 165 235 286 339 408
#     4  11  24  44  67 105 136 179 229 291 347 407
#
# _framework density 21.436178999999999
#
# number of rings (size 3 to 8) (size 9 to 14) (size 15 to 20)
#    0.000    1.067    4.000    1.600    7.467    1.067 
#    2.400    1.333    0.000    0.000    0.000    0.000 
#    0.000    0.000    0.000    0.000    0.000    0.000 
#
# Total GULP energy -371794.912814 kJ/mol
# GULP energy per Si atom -12393.163760 kJ/mol
# Density = 2.138739 g / cm^3
# Si number density = 21.436179 Si / 1000 Ang^3
#
#
#
# Elastic Constant Matrix: (Units=GPa)
#
#
# Indices 1 2 3 4 5 6 
#
# 1 132.8014 50.4727 51.3569 0.0000 4.3082 0.0000
# 2 50.4727 90.7258 39.5146 0.0000 3.2115 0.0000
# 3 51.3569 39.5146 123.8577 0.0000 7.0841 0.0000
# 4 0.0000 0.0000 0.0000 21.5168 0.0000 2.4906
# 5 4.3082 3.2115 7.0841 0.0000 39.6018 0.0000
# 6 0.0000 0.0000 0.0000 2.4906 0.0000 35.1591
#
#
#
# Elastic Compliance Matrix: (Units=1/GPa)
#
#
# Indices 1 2 3 4 5 6 
#
# 1 0.010351 -0.004514 -0.002838 0.000000 -0.000252 0.000000
# 2 -0.004514 0.014773 -0.002830 0.000000 -0.000201 0.000000
# 3 -0.002838 -0.002830 0.010227 0.000000 -0.001291 0.000000
# 4 0.000000 0.000000 0.000000 0.046860 0.000000 -0.003319
# 5 -0.000252 -0.000201 -0.001291 0.000000 0.025526 0.000000
# 6 0.000000 0.000000 0.000000 -0.003319 0.000000 0.028677
#
#
# Mechanical properties :
#
#
# Convention : Reuss Voigt Hill
#
# Bulk Modulus (GPa) = 66.71742 70.00816 68.36279
# Shear Modulus (GPa) = 30.90755 32.99159 31.94957
#
# Velocity S-wave (km/s) = 3.80128 3.92734 3.86482
# Velocity P-wave (km/s) = 7.10335 7.30035 7.20252
#
# Compressibility (1/GPa) = 0.01498859
#
# Stress axis : x y z
#
# Youngs Moduli (GPa) = 96.60852 67.69119 97.77983
#
# Poissons Ratio (x) = 0.30554 0.27745
# Poissons Ratio (y) = 0.43606 0.27672
# Poissons Ratio (z) = 0.27413 0.19156
#
# Static dielectric constant tensor:
#      x y z
#    x 2.830360 0.000000 0.763400 
#    y 0.000000 4.036520 0.000000 
#    z 0.763400 0.000000 3.518400 
# 
# 
# High freq. dielectric constant tensor:
#      x y z
#    x 1.847370 0.000000 0.007200 
#    y 0.000000 1.846640 0.000000 
#    z 0.007200 0.000000 1.832570 
# 
# From -- ./inp_files/168602.got.cif
#   From: 2010.06.25/outbox.cif.g09.slc.cpg/sg15_85_cif.got.tgz:168602.got - 2010.06.28 07:06:18.
