data_PCOD8149987
_publ_section_title
;
Structure prediction by ZEFSAII (Michael W. Deem and Ramdas Pophale) SiO2 
 PCOD8149987
Probable space group: C 2/C
;
_chemical_formula_sum "Si O2"
_cell_formula_units_Z 64
_cell_length_a 26.371662
_cell_length_b 11.902518
_cell_length_c 13.671301
_cell_angle_alpha 90.000000
_cell_angle_beta 135.534299
_cell_angle_gamma 90.000000
_cell_volume 3005.960541
_symmetry_space_group_name_H-M "C 2/C"
_symmetry_group_IT_number 15
_symmetry_cell_setting 'monoclinic'
loop_
_space_group_symop_operation_xyz
x,y,z
-x,y,1/2-z
-x,-y,-z
x,-y,1/2+z
1/2+x,1/2+y,z
1/2-x,1/2+y,1/2-z
1/2-x,1/2-y,-z
1/2+x,1/2-y,1/2+z
loop_
_atom_site_type_symbol
_atom_site_label
_atom_site_fract_x
_atom_site_fract_y
_atom_site_fract_z
Si Si1 0.211399 0.486459 0.812408
Si Si2 0.929507 0.070825 0.389916
Si Si3 0.061187 0.744823 0.750714
Si Si4 0.773104 0.245197 0.423632
Si Si5 0.717535 0.523075 0.773692
Si Si6 0.941183 0.409291 0.437997
Si Si7 0.935341 0.230234 0.584621
Si Si8 0.710397 0.142549 0.990535
O O1 0.219984 0.352603 0.811470
O O2 0.277611 0.531082 0.837065
O O3 0.136262 0.531045 0.666001
O O4 0.219132 0.534466 0.931872
O O5 0.924766 0.131602 0.276765
O O6 0.925990 0.150512 0.478567
O O7 0.864525 0.980794 0.303128
O O8 0.000000 0.000000 0.500000
O O9 0.043489 0.675000 0.629665
O O10 0.129039 0.684912 0.896616
O O11 0.000000 0.750147 0.750000
O O12 0.750000 0.250000 0.500000
O O13 0.757820 0.364719 0.357704
O O14 0.858963 0.221840 0.534851
O O15 0.756404 0.405952 0.863419
O O16 0.951528 0.352111 0.558951
O O17 0.000000 0.500000 0.500000
O O18 0.000000 0.199355 0.750000
O O19 0.750000 0.250000 0.000000
#
# Coordination Sequence:
#
# PCOD8149987 Si02
#       8
#     8   8   8   8   8   8   8   8
#     4  11  25  44  69 102 138 180 230 286 340 405
#     4  11  26  47  66 100 137 181 231 281 345 412
#     4  10  24  44  67  99 136 174 229 282 341 408
#     4  12  26  45  70 106 141 181 234 279 348 413
#     4  12  25  45  74 101 139 182 231 286 342 413
#     4  10  24  43  67  98 135 179 228 281 343 404
#     4  11  26  46  69  97 141 182 228 290 343 410
#     4  11  24  44  72  99 137 180 229 285 338 404
#
# _framework density 21.291032000000001
#
# number of rings (size 3 to 8) (size 9 to 14) (size 15 to 20)
#    0.000    1.000    5.000    0.000    7.000    3.000 
#    0.000    0.000    0.000    0.000    0.000    0.000 
#    0.000    0.000    0.000    0.000    0.000    0.000 
#
# Total GULP energy -396424.037232 kJ/mol
# GULP energy per Si atom -12388.251164 kJ/mol
# Density = 2.124257 g / cm^3
# Si number density = 21.291032 Si / 1000 Ang^3
#
#
#
# Elastic Constant Matrix: (Units=GPa)
#
#
# Indices 1 2 3 4 5 6 
#
# 1 162.6322 29.6800 34.3026 0.0000 15.2260 0.0000
# 2 29.6800 81.9989 8.4583 0.0000 11.9407 0.0000
# 3 34.3026 8.4583 74.9928 0.0000 10.2798 0.0000
# 4 0.0000 0.0000 0.0000 28.1025 0.0000 11.6465
# 5 15.2260 11.9407 10.2798 0.0000 32.3192 0.0000
# 6 0.0000 0.0000 0.0000 11.6465 0.0000 31.6343
#
#
#
# Elastic Compliance Matrix: (Units=1/GPa)
#
#
# Indices 1 2 3 4 5 6 
#
# 1 0.007298 -0.002091 -0.002862 0.000000 -0.001756 0.000000
# 2 -0.002091 0.013538 -0.000021 0.000000 -0.004010 0.000000
# 3 -0.002862 -0.000021 0.015119 0.000000 -0.003453 0.000000
# 4 0.000000 0.000000 0.000000 0.041991 0.000000 -0.015459
# 5 -0.001756 -0.004010 -0.003453 0.000000 0.034348 0.000000
# 6 0.000000 0.000000 0.000000 -0.015459 0.000000 0.037303
#
#
# Mechanical properties :
#
#
# Convention : Reuss Voigt Hill
#
# Bulk Modulus (GPa) = 38.44863 51.61175 45.03019
# Shear Modulus (GPa) = 29.72385 34.89004 32.30695
#
# Velocity S-wave (km/s) = 3.74046 4.05250 3.89960
# Velocity P-wave (km/s) = 6.06239 6.79638 6.43985
#
# Compressibility (1/GPa) = 0.02600873
#
# Stress axis : x y z
#
# Youngs Moduli (GPa) = 137.01595 73.86505 66.14032
#
# Poissons Ratio (x) = 0.15444 0.18929
# Poissons Ratio (y) = 0.28648 0.00138
# Poissons Ratio (z) = 0.39213 0.00154
#
# Static dielectric constant tensor:
#      x y z
#    x 4.049510 0.000000 -0.247280 
#    y 0.000000 3.892800 0.000000 
#    z -0.247280 0.000000 4.022320 
# 
# 
# High freq. dielectric constant tensor:
#      x y z
#    x 1.854950 0.000000 -0.001030 
#    y 0.000000 1.844600 0.000000 
#    z -0.001030 0.000000 1.826270 
# 
# From -- ./inp_files/177855.got.cif
#   From: 2010.06.25/outbox.cif.g09.slc.cpg/sg15_89_cif.got.tgz:177855.got - 2010.06.28 07:06:18.
