data_PCOD8149359
_publ_section_title
;
Structure prediction by ZEFSAII (Michael W. Deem and Ramdas Pophale) SiO2 
 PCOD8149359
Probable space group: C 2/C
;
_chemical_formula_sum "Si O2"
_cell_formula_units_Z 64
_cell_length_a 11.666733
_cell_length_b 16.314000
_cell_length_c 20.819394
_cell_angle_alpha 90.000000
_cell_angle_beta 43.989763
_cell_angle_gamma 90.000000
_cell_volume 2752.128500
_symmetry_space_group_name_H-M "C 2/C"
_symmetry_group_IT_number 15
_symmetry_cell_setting 'monoclinic'
loop_
_space_group_symop_operation_xyz
x,y,z
-x,y,1/2-z
-x,-y,-z
x,-y,1/2+z
1/2+x,1/2+y,z
1/2-x,1/2+y,1/2-z
1/2-x,1/2-y,-z
1/2+x,1/2-y,1/2+z
loop_
_atom_site_type_symbol
_atom_site_label
_atom_site_fract_x
_atom_site_fract_y
_atom_site_fract_z
Si Si1 0.653750 0.995077 0.349828
Si Si2 0.122179 0.759172 0.883649
Si Si3 0.422561 0.424751 0.157977
Si Si4 0.124410 0.619798 0.546275
Si Si5 0.180603 0.313417 0.812640
Si Si6 0.875863 0.947832 0.857248
Si Si7 0.659855 0.670666 0.925652
Si Si8 0.873641 0.234367 0.891749
O O1 0.459843 0.971320 0.422126
O O2 0.746467 0.934669 0.263527
O O3 0.687040 0.092220 0.328944
O O4 0.744511 0.984628 0.382296
O O5 0.166187 0.793132 0.795680
O O6 0.285988 0.741738 0.858662
O O7 0.021934 0.675503 0.920025
O O8 0.004869 0.823976 0.965717
O O9 0.522496 0.508640 0.126832
O O10 0.375107 0.408829 0.103609
O O11 0.530545 0.351433 0.143348
O O12 0.276063 0.624521 0.434125
O O13 0.316473 0.849412 0.407775
O O14 0.189672 0.252274 0.870577
O O15 0.011251 0.304455 0.841730
O O16 0.000000 0.915752 0.750000
O O17 0.750000 0.250000 0.000000
#
# Coordination Sequence:
#
# PCOD8149359 Si02
#       8
#     8   8   8   8   8   8   8   8
#     4  11  25  46  73 107 143 192 249 307 365 436
#     4  12  25  46  75 104 144 192 250 297 377 442
#     4  10  23  45  71 102 144 186 239 307 369 427
#     4  12  26  45  75 106 147 202 244 301 374 455
#     4  11  26  47  74 106 147 189 251 313 367 439
#     4  10  24  43  71 108 144 188 249 308 367 431
#     4  11  26  48  72 108 148 199 240 298 375 452
#     4  11  22  45  76 101 138 192 245 305 359 435
#
# _framework density 23.254726999999999
#
# number of rings (size 3 to 8) (size 9 to 14) (size 15 to 20)
#    0.000    1.000    2.500    4.125    5.250    6.500 
#    6.750    0.000    0.000    0.000    0.000    0.000 
#    0.000    0.000    0.000    0.000    0.000    0.000 
#
# Total GULP energy -396580.384261 kJ/mol
# GULP energy per Si atom -12393.137008 kJ/mol
# Density = 2.320180 g / cm^3
# Si number density = 23.254727 Si / 1000 Ang^3
#
#
#
# Elastic Constant Matrix: (Units=GPa)
#
#
# Indices 1 2 3 4 5 6 
#
# 1 153.7627 36.1355 42.6605 -0.0005 2.8260 0.0002
# 2 36.1355 87.7175 59.8271 0.0003 2.1491 -0.0003
# 3 42.6605 59.8271 159.5885 0.0013 2.6557 -0.0008
# 4 -0.0005 0.0003 0.0013 47.9061 0.0000 -5.2509
# 5 2.8260 2.1491 2.6557 0.0000 32.3806 0.0000
# 6 0.0002 -0.0003 -0.0008 -5.2509 0.0000 28.9342
#
#
#
# Elastic Compliance Matrix: (Units=1/GPa)
#
#
# Indices 1 2 3 4 5 6 
#
# 1 0.007350 -0.002261 -0.001111 0.000000 -0.000400 0.000000
# 2 -0.002261 0.016021 -0.005395 0.000000 -0.000424 0.000000
# 3 -0.001111 -0.005395 0.008590 0.000000 -0.000249 0.000000
# 4 0.000000 0.000000 0.000000 0.021298 0.000000 0.003865
# 5 -0.000400 -0.000424 -0.000249 0.000000 0.030966 0.000000
# 6 0.000000 0.000000 0.000000 0.003865 0.000000 0.035263
#
#
# Mechanical properties :
#
#
# Convention : Reuss Voigt Hill
#
# Bulk Modulus (GPa) = 69.30485 75.36832 72.33659
# Shear Modulus (GPa) = 35.25349 39.34053 37.29701
#
# Velocity S-wave (km/s) = 3.89777 4.11752 4.00915
# Velocity P-wave (km/s) = 7.07983 7.42196 7.25291
#
# Compressibility (1/GPa) = 0.01442900
#
# Stress axis : x y z
#
# Youngs Moduli (GPa) = 136.04860 62.41661 116.41975
#
# Poissons Ratio (x) = 0.14110 0.12931
# Poissons Ratio (y) = 0.30755 0.62806
# Poissons Ratio (z) = 0.15111 0.33673
#
# Static dielectric constant tensor:
#      x y z
#    x 4.628270 0.000010 -0.095740 
#    y 0.000010 4.046670 0.000000 
#    z -0.095740 0.000000 4.606210 
# 
# 
# High freq. dielectric constant tensor:
#      x y z
#    x 1.933750 0.000000 -0.008560 
#    y 0.000000 1.904130 0.000000 
#    z -0.008560 0.000000 1.930990 
# 
# From -- ./inp_files/274324.got.cif
#   From: 2010.06.25/outbox.cif.g09.slc.cpg/sg15_138_cif.got.tgz:274324.got - 2010.06.28 07:06:18.
