data_PCOD8149443
_publ_section_title
;
Structure prediction by ZEFSAII (Michael W. Deem and Ramdas Pophale) SiO2 
 PCOD8149443
Probable space group: C 2/C
;
_chemical_formula_sum "Si O2"
_cell_formula_units_Z 44
_cell_length_a 17.415892
_cell_length_b 22.739978
_cell_length_c 5.122368
_cell_angle_alpha 90.000000
_cell_angle_beta 98.423922
_cell_angle_gamma 90.000000
_cell_volume 2006.760701
_symmetry_space_group_name_H-M "C 2/C"
_symmetry_group_IT_number 15
_symmetry_cell_setting 'monoclinic'
loop_
_space_group_symop_operation_xyz
x,y,z
-x,y,1/2-z
-x,-y,-z
x,-y,1/2+z
1/2+x,1/2+y,z
1/2-x,1/2+y,1/2-z
1/2-x,1/2-y,-z
1/2+x,1/2-y,1/2+z
loop_
_atom_site_type_symbol
_atom_site_label
_atom_site_fract_x
_atom_site_fract_y
_atom_site_fract_z
Si Si1 0.189779 0.374498 0.524922
Si Si2 0.410047 0.308888 0.193251
Si Si3 0.535272 0.066035 0.013789
Si Si4 0.000000 0.039435 0.250000
Si Si5 0.179138 0.295256 0.008914
Si Si6 0.139221 0.127028 0.334795
O O1 0.128120 0.428671 0.514041
O O2 0.183953 0.345866 0.802884
O O3 0.276693 0.400621 0.552252
O O4 0.175265 0.325821 0.291790
O O5 0.500000 0.325800 0.250000
O O6 0.399080 0.241761 0.092644
O O7 0.375490 0.320314 0.464631
O O8 0.364206 0.349032 0.961564
O O9 0.500000 0.098609 0.250000
O O10 0.500000 0.100515 0.750000
O O11 0.500000 0.000000 0.000000
O O12 0.923523 0.076996 0.170488
O O13 0.000000 0.000000 0.500000
O O14 0.250000 0.250000 0.000000
#
# Coordination Sequence:
#
# PCOD8149443 Si02
#       6
#     8   8   8   4   8   8
#     4  12  24  42  70 101 133 184 231 277 346 410
#     4  12  23  40  65  96 137 184 218 262 338 413
#     4  10  23  46  70  93 134 179 230 296 353 401
#     4  12  26  46  66 100 134 164 226 298 340 396
#     4  12  23  39  66 100 143 172 228 282 325 408
#     4  12  23  43  69  93 135 177 216 276 343 412
#
# _framework density 21.925884
#
# number of rings (size 3 to 8) (size 9 to 14) (size 15 to 20)
#    0.000    0.364    5.455    3.818    0.000    2.182 
#    6.545    0.000    0.000    0.000    0.000    0.000 
#    0.000    0.000    0.000    0.000    0.000    0.000 
#
# Total GULP energy -272575.793670 kJ/mol
# GULP energy per Si atom -12389.808803 kJ/mol
# Density = 2.187598 g / cm^3
# Si number density = 21.925884 Si / 1000 Ang^3
#
#
#
# Elastic Constant Matrix: (Units=GPa)
#
#
# Indices 1 2 3 4 5 6 
#
# 1 173.8127 52.2921 49.9168 0.0000 27.3945 0.0000
# 2 52.2921 85.8086 25.2542 0.0000 14.1785 0.0000
# 3 49.9168 25.2542 142.7612 0.0000 2.8290 0.0000
# 4 0.0000 0.0000 0.0000 15.4084 0.0000 2.2133
# 5 27.3945 14.1785 2.8290 0.0000 38.4599 0.0000
# 6 0.0000 0.0000 0.0000 2.2133 0.0000 38.4208
#
#
#
# Elastic Compliance Matrix: (Units=1/GPa)
#
#
# Indices 1 2 3 4 5 6 
#
# 1 0.008128 -0.003620 -0.002116 0.000000 -0.004299 0.000000
# 2 -0.003620 0.014689 -0.001278 0.000000 -0.002743 0.000000
# 3 -0.002116 -0.001278 0.007943 0.000000 0.001394 0.000000
# 4 0.000000 0.000000 0.000000 0.065441 0.000000 -0.003770
# 5 -0.004299 -0.002743 0.001394 0.000000 0.029972 0.000000
# 6 0.000000 0.000000 0.000000 -0.003770 0.000000 0.026245
#
#
# Mechanical properties :
#
#
# Convention : Reuss Voigt Hill
#
# Bulk Modulus (GPa) = 59.76960 73.03428 66.40194
# Shear Modulus (GPa) = 29.06564 36.78578 32.92571
#
# Velocity S-wave (km/s) = 3.64487 4.10046 3.87936
# Velocity P-wave (km/s) = 6.71062 7.46996 7.10045
#
# Compressibility (1/GPa) = 0.01673091
#
# Stress axis : x y z
#
# Youngs Moduli (GPa) = 123.03558 68.07685 125.89363
#
# Poissons Ratio (x) = 0.24643 0.26643
# Poissons Ratio (y) = 0.44537 0.16095
# Poissons Ratio (z) = 0.26039 0.08703
#
# Static dielectric constant tensor:
#      x y z
#    x 6.018270 0.000000 -1.823650 
#    y 0.000000 3.810730 0.000000 
#    z -1.823650 0.000000 7.983980 
# 
# 
# High freq. dielectric constant tensor:
#      x y z
#    x 1.873410 0.000000 0.001700 
#    y 0.000000 1.828140 0.000000 
#    z 0.001700 0.000000 1.897720 
# 
# From -- ./inp_files/10807.got.cif
#   From: 2010.06.25/outbox.cif.g09.slc.cpg/sg15_6_cif.got.tgz:10807.got - 2010.06.28 07:06:18.
