data_PCOD8149009
_publ_section_title
;
Structure prediction by ZEFSAII (Michael W. Deem and Ramdas Pophale) SiO2 
 PCOD8149009
Probable space group: C 2/C
;
_chemical_formula_sum "Si O2"
_cell_formula_units_Z 36
_cell_length_a 18.024201
_cell_length_b 8.436157
_cell_length_c 12.524455
_cell_angle_alpha 90.000000
_cell_angle_beta 117.139880
_cell_angle_gamma 90.000000
_cell_volume 1694.722241
_symmetry_space_group_name_H-M "C 2/C"
_symmetry_group_IT_number 15
_symmetry_cell_setting 'monoclinic'
loop_
_space_group_symop_operation_xyz
x,y,z
-x,y,1/2-z
-x,-y,-z
x,-y,1/2+z
1/2+x,1/2+y,z
1/2-x,1/2+y,1/2-z
1/2-x,1/2-y,-z
1/2+x,1/2-y,1/2+z
loop_
_atom_site_type_symbol
_atom_site_label
_atom_site_fract_x
_atom_site_fract_y
_atom_site_fract_z
Si Si1 0.070621 0.415190 0.480266
Si Si2 0.327524 0.444826 0.682190
Si Si3 0.787085 0.580042 0.048942
Si Si4 0.000000 0.197034 0.250000
Si Si5 0.697859 0.781348 0.724711
O O1 0.128168 0.547027 0.460873
O O2 0.122359 0.305495 0.594217
O O3 0.000000 0.500000 0.500000
O O4 0.028608 0.304105 0.365791
O O5 0.283368 0.452966 0.535613
O O6 0.425411 0.417828 0.737030
O O7 0.308185 0.607748 0.730345
O O8 0.286030 0.300316 0.720764
O O9 0.806301 0.578937 0.187741
O O10 0.750000 0.750000 0.000000
#
# Coordination Sequence:
#
# PCOD8149009 Si02
#       5
#     8   8   8   4   8
#     4  11  25  41  66 102 136 176 220 283 339 398
#     4  10  25  42  68 100 131 178 221 278 334 397
#     4   9  21  42  69  94 129 175 228 269 329 394
#     4  12  28  42  64 102 144 168 224 280 338 398
#     4  10  23  43  71  93 132 180 229 272 334 401
#
# _framework density 21.242419000000002
#
# number of rings (size 3 to 8) (size 9 to 14) (size 15 to 20)
#    0.000    1.778    0.000    1.333   15.556    6.222 
#    0.000    0.000    0.000    0.000    0.000    0.000 
#    0.000    0.000    0.000    0.000    0.000    0.000 
#
# Total GULP energy -223151.679098 kJ/mol
# GULP energy per Si atom -12397.315505 kJ/mol
# Density = 2.119407 g / cm^3
# Si number density = 21.242419 Si / 1000 Ang^3
#
#
#
# Elastic Constant Matrix: (Units=GPa)
#
#
# Indices 1 2 3 4 5 6 
#
# 1 181.1575 62.9348 52.6880 0.0000 17.7650 0.0000
# 2 62.9348 97.8459 44.6011 0.0000 1.4225 0.0000
# 3 52.6880 44.6011 156.6574 0.0000 8.7359 0.0000
# 4 0.0000 0.0000 0.0000 28.3987 0.0000 -1.8205
# 5 17.7650 1.4225 8.7359 0.0000 25.7287 0.0000
# 6 0.0000 0.0000 0.0000 -1.8205 0.0000 41.6065
#
#
#
# Elastic Compliance Matrix: (Units=1/GPa)
#
#
# Indices 1 2 3 4 5 6 
#
# 1 0.007873 -0.004492 -0.001100 0.000000 -0.004814 0.000000
# 2 -0.004492 0.014314 -0.002745 0.000000 0.003242 0.000000
# 3 -0.001100 -0.002745 0.007629 0.000000 -0.001679 0.000000
# 4 0.000000 0.000000 0.000000 0.035312 0.000000 0.001545
# 5 -0.004814 0.003242 -0.001679 0.000000 0.042582 0.000000
# 6 0.000000 0.000000 0.000000 0.001545 0.000000 0.024102
#
#
# Mechanical properties :
#
#
# Convention : Reuss Voigt Hill
#
# Bulk Modulus (GPa) = 76.10596 84.01206 80.05901
# Shear Modulus (GPa) = 32.70827 37.50925 35.10876
#
# Velocity S-wave (km/s) = 3.92824 4.20667 4.06983
# Velocity P-wave (km/s) = 7.51531 7.95172 7.73659
#
# Compressibility (1/GPa) = 0.01313958
#
# Stress axis : x y z
#
# Youngs Moduli (GPa) = 127.01968 69.86288 131.08524
#
# Poissons Ratio (x) = 0.31384 0.14425
# Poissons Ratio (y) = 0.57060 0.35985
# Poissons Ratio (z) = 0.13978 0.19178
#
# Static dielectric constant tensor:
#      x y z
#    x 4.063350 0.000000 -0.166060 
#    y 0.000000 3.595270 0.000000 
#    z -0.166060 0.000000 6.486320 
# 
# 
# High freq. dielectric constant tensor:
#      x y z
#    x 1.833930 0.000000 -0.000730 
#    y 0.000000 1.829430 0.000000 
#    z -0.000730 0.000000 1.859190 
# 
# From -- ./inp_files/102454.got.cif
#   From: 2010.06.25/outbox.cif.g09.slc.cpg/sg15_52_cif.got.tgz:102454.got - 2010.06.28 07:06:18.
