data_PCOD8149637
_publ_section_title
;
Structure prediction by ZEFSAII (Michael W. Deem and Ramdas Pophale) SiO2 
 PCOD8149637
Probable space group: C 2/C
;
_chemical_formula_sum "Si O2"
_cell_formula_units_Z 60
_cell_length_a 17.045239
_cell_length_b 21.945062
_cell_length_c 9.082350
_cell_angle_alpha 90.000000
_cell_angle_beta 123.155728
_cell_angle_gamma 90.000000
_cell_volume 2844.203725
_symmetry_space_group_name_H-M "C 2/C"
_symmetry_group_IT_number 15
_symmetry_cell_setting 'monoclinic'
loop_
_space_group_symop_operation_xyz
x,y,z
-x,y,1/2-z
-x,-y,-z
x,-y,1/2+z
1/2+x,1/2+y,z
1/2-x,1/2+y,1/2-z
1/2-x,1/2-y,-z
1/2+x,1/2-y,1/2+z
loop_
_atom_site_type_symbol
_atom_site_label
_atom_site_fract_x
_atom_site_fract_y
_atom_site_fract_z
Si Si1 0.740526 0.828893 0.142830
Si Si2 0.109808 0.246771 0.840354
Si Si3 0.090319 0.579637 0.457885
Si Si4 0.851388 0.496315 0.733558
Si Si5 0.450551 0.833084 0.956945
Si Si6 0.000000 0.243875 0.250000
Si Si7 0.696937 0.312409 0.970044
Si Si8 0.202955 0.584698 0.076923
O O1 0.834911 0.814896 0.146904
O O2 0.696198 0.893738 0.051989
O O3 0.766508 0.837586 0.338684
O O4 0.662408 0.775426 0.036153
O O5 0.122423 0.294553 0.717356
O O6 0.000000 0.231596 0.750000
O O7 0.083619 0.533512 0.587361
O O8 0.075560 0.547019 0.282573
O O9 0.019787 0.635212 0.411609
O O10 0.797963 0.539694 0.564485
O O11 0.778897 0.455016 0.756015
O O12 0.396985 0.880998 0.006587
O O13 0.510462 0.787017 0.118575
O O14 0.086996 0.198827 0.354318
O O15 0.719033 0.363433 0.868350
O O16 0.750000 0.250000 0.000000
#
# Coordination Sequence:
#
# PCOD8149637 Si02
#       8
#     8   8   8   8   8   4   8   8
#     4  11  22  40  62  88 128 175 211 261 319 381
#     4  11  23  38  61  96 134 170 209 256 325 392
#     4  11  22  40  62  90 129 170 219 267 313 389
#     4  10  24  40  62  93 123 180 220 265 321 380
#     4  12  23  38  62  95 138 172 207 264 326 396
#     4  12  24  40  68  98 132 176 210 266 338 398
#     4  12  23  42  66  96 131 171 220 270 331 393
#     4  11  23  41  64  94 128 173 217 270 322 389
#
# _framework density 21.095535000000002
#
# number of rings (size 3 to 8) (size 9 to 14) (size 15 to 20)
#    0.000    0.800    5.333    2.400    0.000    4.267 
#    0.000    0.000    0.000    0.800    6.933    0.000 
#    0.000    0.000    0.000    0.000    0.000    0.000 
#
# Total GULP energy -371948.058288 kJ/mol
# GULP energy per Si atom -12398.268610 kJ/mol
# Density = 2.104752 g / cm^3
# Si number density = 21.095535 Si / 1000 Ang^3
#
#
#
# Elastic Constant Matrix: (Units=GPa)
#
#
# Indices 1 2 3 4 5 6 
#
# 1 122.7680 58.1050 50.3966 0.0000 2.8582 0.0000
# 2 58.1050 106.1270 44.5092 0.0000 -11.7549 0.0000
# 3 50.3966 44.5092 110.3504 0.0000 -11.2995 0.0000
# 4 0.0000 0.0000 0.0000 33.4547 0.0000 -13.4457
# 5 2.8582 -11.7549 -11.2995 0.0000 35.3981 0.0000
# 6 0.0000 0.0000 0.0000 -13.4457 0.0000 42.3386
#
#
#
# Elastic Compliance Matrix: (Units=1/GPa)
#
#
# Indices 1 2 3 4 5 6 
#
# 1 0.012515 -0.005699 -0.003840 0.000000 -0.004129 0.000000
# 2 -0.005699 0.014134 -0.002657 0.000000 0.004306 0.000000
# 3 -0.003840 -0.002657 0.012229 0.000000 0.003331 0.000000
# 4 0.000000 0.000000 0.000000 0.034265 0.000000 0.010882
# 5 -0.004129 0.004306 0.003331 0.000000 0.031077 0.000000
# 6 0.000000 0.000000 0.000000 0.010882 0.000000 0.027075
#
#
# Mechanical properties :
#
#
# Convention : Reuss Voigt Hill
#
# Bulk Modulus (GPa) = 69.03347 71.69634 70.36491
# Shear Modulus (GPa) = 31.14982 34.65394 32.90188
#
# Velocity S-wave (km/s) = 3.84683 4.05744 3.95354
# Velocity P-wave (km/s) = 7.24749 7.48403 7.36671
#
# Compressibility (1/GPa) = 0.01448573
#
# Stress axis : x y z
#
# Youngs Moduli (GPa) = 79.90370 70.74985 81.77585
#
# Poissons Ratio (x) = 0.40320 0.31399
# Poissons Ratio (y) = 0.45537 0.21731
# Poissons Ratio (z) = 0.30681 0.18801
#
# Static dielectric constant tensor:
#      x y z
#    x 3.987450 0.000000 -0.042470 
#    y 0.000000 4.053700 0.000000 
#    z -0.042470 0.000000 4.190970 
# 
# 
# High freq. dielectric constant tensor:
#      x y z
#    x 1.809410 0.000000 -0.026530 
#    y 0.000000 1.824420 0.000000 
#    z -0.026530 0.000000 1.833780 
# 
# From -- ./inp_files/50688.got.cif
#   From: 2010.06.25/outbox.cif.g09.slc.cpg/sg15_26_cif.got.tgz:50688.got - 2010.06.28 07:06:18.
