data_PCOD8149478
_publ_section_title
;
Structure prediction by ZEFSAII (Michael W. Deem and Ramdas Pophale) SiO2 
 PCOD8149478
Probable space group: C 2/C
;
_chemical_formula_sum "Si O2"
_cell_formula_units_Z 32
_cell_length_a 10.556437
_cell_length_b 14.010451
_cell_length_c 9.898090
_cell_angle_alpha 90.000000
_cell_angle_beta 67.473972
_cell_angle_gamma 90.000000
_cell_volume 1352.242084
_symmetry_space_group_name_H-M "C 2/C"
_symmetry_group_IT_number 15
_symmetry_cell_setting 'monoclinic'
loop_
_space_group_symop_operation_xyz
x,y,z
-x,y,1/2-z
-x,-y,-z
x,-y,1/2+z
1/2+x,1/2+y,z
1/2-x,1/2+y,1/2-z
1/2-x,1/2-y,-z
1/2+x,1/2-y,1/2+z
loop_
_atom_site_type_symbol
_atom_site_label
_atom_site_fract_x
_atom_site_fract_y
_atom_site_fract_z
Si Si1 0.899803 0.909122 0.038622
Si Si2 0.872634 0.415373 0.214248
Si Si3 0.364320 0.269178 0.563716
Si Si4 0.674233 0.568504 0.233433
O O1 0.747136 0.873639 0.139965
O O2 0.919552 0.010905 0.112965
O O3 0.906376 0.918024 0.872718
O O4 0.006585 0.828619 0.047786
O O5 0.920018 0.332229 0.093919
O O6 0.813426 0.506690 0.154466
O O7 0.000000 0.451364 0.250000
O O8 0.250000 0.250000 0.500000
O O9 0.293834 0.328887 0.714457
#
# Coordination Sequence:
#
# PCOD8149478 Si02
#       4
#     8   8   8   8
#     4  10  24  46  76 104 144 187 242 295 357 430
#     4  10  25  45  69 107 144 182 240 296 364 422
#     4  12  25  44  70 104 146 190 246 292 359 427
#     4  10  23  46  75 107 141 192 237 299 359 432
#
# _framework density 23.664401999999999
#
# number of rings (size 3 to 8) (size 9 to 14) (size 15 to 20)
#    1.500    0.000    0.000    4.500    0.000    8.000 
#    4.500    0.000    0.000    0.000    0.000    0.000 
#    0.000    0.000    0.000    0.000    0.000    0.000 
#
# Total GULP energy -198361.344834 kJ/mol
# GULP energy per Si atom -12397.584052 kJ/mol
# Density = 2.361054 g / cm^3
# Si number density = 23.664402 Si / 1000 Ang^3
#
#
#
# Elastic Constant Matrix: (Units=GPa)
#
#
# Indices 1 2 3 4 5 6 
#
# 1 160.4753 35.5147 35.7242 0.0000 33.4658 0.0000
# 2 35.5147 89.8444 3.3883 0.0000 23.0741 0.0000
# 3 35.7242 3.3883 86.9048 0.0000 24.8518 0.0000
# 4 0.0000 0.0000 0.0000 39.5805 0.0000 6.4641
# 5 33.4658 23.0741 24.8518 0.0000 43.9897 0.0000
# 6 0.0000 0.0000 0.0000 6.4641 0.0000 52.4296
#
#
#
# Elastic Compliance Matrix: (Units=1/GPa)
#
#
# Indices 1 2 3 4 5 6 
#
# 1 0.007949 -0.002099 -0.002113 0.000000 -0.003753 0.000000
# 2 -0.002099 0.013632 0.002289 0.000000 -0.006847 0.000000
# 3 -0.002113 0.002289 0.014515 0.000000 -0.007794 0.000000
# 4 0.000000 0.000000 0.000000 0.025784 0.000000 -0.003179
# 5 -0.003753 -0.006847 -0.007794 0.000000 0.033582 0.000000
# 6 0.000000 0.000000 0.000000 -0.003179 0.000000 0.019465
#
#
# Mechanical properties :
#
#
# Convention : Reuss Voigt Hill
#
# Bulk Modulus (GPa) = 31.00581 54.05321 42.52951
# Shear Modulus (GPa) = 38.60358 44.70645 41.65501
#
# Velocity S-wave (km/s) = 4.04331 4.35119 4.20007
# Velocity P-wave (km/s) = 5.91004 6.93794 6.44451
#
# Compressibility (1/GPa) = 0.03225202
#
# Stress axis : x y z
#
# Youngs Moduli (GPa) = 125.80424 73.35616 68.89557
#
# Poissons Ratio (x) = 0.15395 0.14554
# Poissons Ratio (y) = 0.26401 -0.15772
# Poissons Ratio (z) = 0.26576 -0.16793
#
# Static dielectric constant tensor:
#      x y z
#    x 4.202680 0.000000 -0.032110 
#    y 0.000000 4.188090 0.000000 
#    z -0.032110 0.000000 4.087170 
# 
# 
# High freq. dielectric constant tensor:
#      x y z
#    x 1.960610 0.000000 0.004540 
#    y 0.000000 1.936920 0.000000 
#    z 0.004540 0.000000 1.928870 
# 
# From -- ./inp_files/27988.got.cif
#   From: 2010.06.25/outbox.cif.g09.slc.cpg/sg15_14_cif.got.tgz:27988.got - 2010.06.28 07:06:18.
