data_PCOD8149144
_publ_section_title
;
Structure prediction by ZEFSAII (Michael W. Deem and Ramdas Pophale) SiO2 
 PCOD8149144
Probable space group: C 2/C
;
_chemical_formula_sum "Si O2"
_cell_formula_units_Z 56
_cell_length_a 12.233616
_cell_length_b 7.649979
_cell_length_c 31.286759
_cell_angle_alpha 90.000000
_cell_angle_beta 120.653904
_cell_angle_gamma 90.000000
_cell_volume 2518.875931
_symmetry_space_group_name_H-M "C 2/C"
_symmetry_group_IT_number 15
_symmetry_cell_setting 'monoclinic'
loop_
_space_group_symop_operation_xyz
x,y,z
-x,y,1/2-z
-x,-y,-z
x,-y,1/2+z
1/2+x,1/2+y,z
1/2-x,1/2+y,1/2-z
1/2-x,1/2-y,-z
1/2+x,1/2-y,1/2+z
loop_
_atom_site_type_symbol
_atom_site_label
_atom_site_fract_x
_atom_site_fract_y
_atom_site_fract_z
Si Si1 0.722319 0.420113 0.702941
Si Si2 0.638118 0.036881 0.685997
Si Si3 0.814450 0.443514 0.896543
Si Si4 0.859920 0.180900 0.444422
Si Si5 0.004294 0.145496 0.945262
Si Si6 0.448969 0.422832 0.140672
Si Si7 0.871140 0.568424 0.150325
O O1 0.801207 0.441265 0.761541
O O2 0.584096 0.501325 0.679801
O O3 0.798196 0.501959 0.677919
O O4 0.706433 0.217449 0.690431
O O5 0.662465 0.918610 0.649450
O O6 0.486752 0.062846 0.663123
O O7 0.869527 0.628797 0.924273
O O8 0.887081 0.278611 0.931781
O O9 0.663592 0.433533 0.876715
O O10 0.725633 0.085673 0.408755
O O11 0.882405 0.196553 0.499641
O O12 0.966910 0.056922 0.444852
O O13 0.057635 0.159251 0.908168
O O14 0.427583 0.263230 0.169511
#
# Coordination Sequence:
#
# PCOD8149144 Si02
#       7
#     8   8   8   8   8   8   8
#     4  12  26  45  66  99 134 172 237 278 342 411
#     4  12  25  44  69  94 134 180 219 291 342 398
#     4  11  24  44  67 103 135 182 230 276 345 409
#     4  10  23  44  68 102 141 174 229 289 326 416
#     4  11  22  44  70  99 139 184 226 276 350 395
#     4  11  23  44  70  95 138 178 226 285 332 416
#     4  11  23  46  66  95 136 173 223 287 334 397
#
# _framework density 22.232140000000001
#
# number of rings (size 3 to 8) (size 9 to 14) (size 15 to 20)
#    0.000    0.857    5.714    1.714    2.000    2.857 
#    5.143    1.429    0.000    0.000    0.000    0.000 
#    0.000    0.000    0.000    0.000    0.000    0.000 
#
# Total GULP energy -347203.690786 kJ/mol
# GULP energy per Si atom -12400.131814 kJ/mol
# Density = 2.218154 g / cm^3
# Si number density = 22.232140 Si / 1000 Ang^3
#
#
#
# Elastic Constant Matrix: (Units=GPa)
#
#
# Indices 1 2 3 4 5 6 
#
# 1 135.0297 15.8050 42.8696 0.0000 14.1614 0.0000
# 2 15.8050 49.3925 12.3265 0.0000 5.0367 0.0000
# 3 42.8696 12.3265 118.0311 0.0000 22.2264 0.0000
# 4 0.0000 0.0000 0.0000 33.6659 0.0000 8.6952
# 5 14.1614 5.0367 22.2264 0.0000 22.1026 0.0000
# 6 0.0000 0.0000 0.0000 8.6952 0.0000 40.0903
#
#
#
# Elastic Compliance Matrix: (Units=1/GPa)
#
#
# Indices 1 2 3 4 5 6 
#
# 1 0.008687 -0.001895 -0.002455 0.000000 -0.002665 0.000000
# 2 -0.001895 0.021381 -0.001056 0.000000 -0.002596 0.000000
# 3 -0.002455 -0.001056 0.011266 0.000000 -0.009516 0.000000
# 4 0.000000 0.000000 0.000000 0.031466 0.000000 -0.006825
# 5 -0.002665 -0.002596 -0.009516 0.000000 0.057111 0.000000
# 6 0.000000 0.000000 0.000000 -0.006825 0.000000 0.026424
#
#
# Mechanical properties :
#
#
# Convention : Reuss Voigt Hill
#
# Bulk Modulus (GPa) = 32.76395 49.38392 41.07393
# Shear Modulus (GPa) = 28.19748 34.60193 31.39970
#
# Velocity S-wave (km/s) = 3.56521 3.94939 3.76221
# Velocity P-wave (km/s) = 5.63177 6.56186 6.11453
#
# Compressibility (1/GPa) = 0.03052135
#
# Stress axis : x y z
#
# Youngs Moduli (GPa) = 115.12011 46.77136 88.76066
#
# Poissons Ratio (x) = 0.08864 0.21794
# Poissons Ratio (y) = 0.21817 0.09370
# Poissons Ratio (z) = 0.28266 0.04937
#
# Static dielectric constant tensor:
#      x y z
#    x 4.018180 0.000000 0.075760 
#    y 0.000000 3.952780 0.000000 
#    z 0.075760 0.000000 4.271500 
# 
# 
# High freq. dielectric constant tensor:
#      x y z
#    x 1.877180 0.000000 0.009100 
#    y 0.000000 1.871510 0.000000 
#    z 0.009100 0.000000 1.880280 
# 
# From -- ./inp_files/310225.got.cif
#   From: 2010.06.25/outbox.cif.g09.slc.cpg/sg15_156_cif.got.tgz:310225.got - 2010.06.28 07:06:18.
