data_PCOD8149219
_publ_section_title
;
Structure prediction by ZEFSAII (Michael W. Deem and Ramdas Pophale) SiO2 
 PCOD8149219
Probable space group: C 2/C
;
_chemical_formula_sum "Si O2"
_cell_formula_units_Z 40
_cell_length_a 15.289524
_cell_length_b 13.090154
_cell_length_c 11.838538
_cell_angle_alpha 90.000000
_cell_angle_beta 137.754955
_cell_angle_gamma 90.000000
_cell_volume 1592.948396
_symmetry_space_group_name_H-M "C 2/C"
_symmetry_group_IT_number 15
_symmetry_cell_setting 'monoclinic'
loop_
_space_group_symop_operation_xyz
x,y,z
-x,y,1/2-z
-x,-y,-z
x,-y,1/2+z
1/2+x,1/2+y,z
1/2-x,1/2+y,1/2-z
1/2-x,1/2-y,-z
1/2+x,1/2-y,1/2+z
loop_
_atom_site_type_symbol
_atom_site_label
_atom_site_fract_x
_atom_site_fract_y
_atom_site_fract_z
Si Si1 0.146149 0.534396 0.644688
Si Si2 0.454262 0.685402 0.971801
Si Si3 0.814026 0.056941 0.999648
Si Si4 0.294764 0.649418 0.608325
Si Si5 0.726805 0.664273 0.312177
O O1 0.179147 0.575994 0.801331
O O2 0.173957 0.616344 0.572800
O O3 0.245211 0.440848 0.724746
O O4 0.000000 0.500000 0.500000
O O5 0.432463 0.582219 0.026046
O O6 0.421489 0.671051 0.807723
O O7 0.356026 0.768346 0.930078
O O8 0.604536 0.718725 0.131312
O O9 0.810538 0.140304 0.094910
O O10 0.830386 0.940561 0.055561
O O11 0.250000 0.750000 0.500000
#
# Coordination Sequence:
#
# PCOD8149219 Si02
#       5
#     8   8   8   8   8
#     4  10  24  46  73 104 146 185 242 300 361 435
#     4  11  25  45  71 107 143 186 238 300 352 434
#     4  10  23  44  71 102 141 189 236 294 361 430
#     4  10  23  46  73 105 141 192 237 302 363 437
#     4  11  25  44  73 103 145 186 239 294 361 425
#
# _framework density 25.110668
#
# number of rings (size 3 to 8) (size 9 to 14) (size 15 to 20)
#    0.000    1.600    0.000    2.400    5.600   12.000 
#    3.600    2.000    0.000    0.000    0.000    0.000 
#    0.000    0.000    0.000    0.000    0.000    0.000 
#
# Total GULP energy -247985.940194 kJ/mol
# GULP energy per Si atom -12399.297010 kJ/mol
# Density = 2.505351 g / cm^3
# Si number density = 25.110668 Si / 1000 Ang^3
#
#
#
# Elastic Constant Matrix: (Units=GPa)
#
#
# Indices 1 2 3 4 5 6 
#
# 1 68.5931 41.5619 75.4209 0.0000 4.0755 0.0000
# 2 41.5619 130.2984 51.5679 0.0000 -9.5530 0.0000
# 3 75.4209 51.5679 176.7630 0.0000 4.2592 0.0000
# 4 0.0000 0.0000 0.0000 44.7996 0.0000 -3.4197
# 5 4.0755 -9.5530 4.2592 0.0000 57.6108 0.0000
# 6 0.0000 0.0000 0.0000 -3.4197 0.0000 36.2673
#
#
#
# Elastic Compliance Matrix: (Units=1/GPa)
#
#
# Indices 1 2 3 4 5 6 
#
# 1 0.030490 -0.005381 -0.011387 0.000000 -0.002207 0.000000
# 2 -0.005381 0.009781 -0.000607 0.000000 0.002047 0.000000
# 3 -0.011387 -0.000607 0.010695 0.000000 -0.000086 0.000000
# 4 0.000000 0.000000 0.000000 0.022483 0.000000 0.002120
# 5 -0.002207 0.002047 -0.000086 0.000000 0.017860 0.000000
# 6 0.000000 0.000000 0.000000 0.002120 0.000000 0.027773
#
#
# Mechanical properties :
#
#
# Convention : Reuss Voigt Hill
#
# Bulk Modulus (GPa) = 61.66174 79.19511 70.42843
# Shear Modulus (GPa) = 31.39960 41.54246 36.47103
#
# Velocity S-wave (km/s) = 3.54000 4.07181 3.81519
# Velocity P-wave (km/s) = 6.42792 7.32892 6.89316
#
# Compressibility (1/GPa) = 0.01621751
#
# Stress axis : x y z
#
# Youngs Moduli (GPa) = 32.79728 102.23442 93.50336
#
# Poissons Ratio (x) = 0.55013 1.06468
# Poissons Ratio (y) = 0.17648 0.05675
# Poissons Ratio (z) = 0.37345 0.06205
#
# Static dielectric constant tensor:
#      x y z
#    x 4.435890 0.000000 -0.295250 
#    y 0.000000 4.794510 0.000000 
#    z -0.295250 0.000000 4.705500 
# 
# 
# High freq. dielectric constant tensor:
#      x y z
#    x 1.993450 0.000000 -0.014730 
#    y 0.000000 2.013980 0.000000 
#    z -0.014730 0.000000 2.012390 
# 
# From -- ./inp_files/105544.got.cif
#   From: 2010.06.25/outbox.cif.g09.slc.cpg/sg15_53_cif.got.tgz:105544.got - 2010.06.28 07:06:18.
