data_PCOD8149257
_publ_section_title
;
Structure prediction by ZEFSAII (Michael W. Deem and Ramdas Pophale) SiO2 
 PCOD8149257
Probable space group: C 2/C
;
_chemical_formula_sum "Si O2"
_cell_formula_units_Z 32
_cell_length_a 11.494723
_cell_length_b 19.989531
_cell_length_c 8.651204
_cell_angle_alpha 90.000000
_cell_angle_beta 135.423270
_cell_angle_gamma 90.000000
_cell_volume 1395.180893
_symmetry_space_group_name_H-M "C 2/C"
_symmetry_group_IT_number 15
_symmetry_cell_setting 'monoclinic'
loop_
_space_group_symop_operation_xyz
x,y,z
-x,y,1/2-z
-x,-y,-z
x,-y,1/2+z
1/2+x,1/2+y,z
1/2-x,1/2+y,1/2-z
1/2-x,1/2-y,-z
1/2+x,1/2-y,1/2+z
loop_
_atom_site_type_symbol
_atom_site_label
_atom_site_fract_x
_atom_site_fract_y
_atom_site_fract_z
Si Si1 0.266171 0.826841 0.167271
Si Si2 0.176127 0.565780 0.335061
Si Si3 0.834859 0.037650 0.794718
Si Si4 0.148636 0.685337 0.096596
O O1 0.164276 0.890344 0.125723
O O2 0.178066 0.763059 0.164304
O O3 0.455394 0.831025 0.399670
O O4 0.252441 0.826759 0.968975
O O5 0.317495 0.548080 0.594538
O O6 0.180447 0.507309 0.210193
O O7 0.219884 0.637125 0.297506
O O8 0.000000 0.569016 0.250000
O O9 0.000000 0.000000 0.000000
#
# Coordination Sequence:
#
# PCOD8149257 Si02
#       4
#     8   8   8   8
#     4  10  23  45  71 103 142 189 241 293 361 424
#     4  12  25  46  71 102 139 193 242 296 365 427
#     4  12  27  45  69 105 145 187 239 305 361 430
#     4  10  23  44  73 102 140 192 241 295 352 437
#
# _framework density 22.936094000000001
#
# number of rings (size 3 to 8) (size 9 to 14) (size 15 to 20)
#    0.000    1.000    2.500    3.000    7.000    1.000 
#    4.500    0.000    0.000    0.000    0.000    0.000 
#    0.000    0.000    0.000    0.000    0.000    0.000 
#
# Total GULP energy -198446.378859 kJ/mol
# GULP energy per Si atom -12402.898679 kJ/mol
# Density = 2.288389 g / cm^3
# Si number density = 22.936094 Si / 1000 Ang^3
#
#
#
# Elastic Constant Matrix: (Units=GPa)
#
#
# Indices 1 2 3 4 5 6 
#
# 1 69.6083 69.7372 47.9149 0.0000 -16.8992 0.0000
# 2 69.7372 225.4745 68.5375 0.0000 -22.3314 0.0000
# 3 47.9149 68.5375 117.0726 0.0000 -12.1759 0.0000
# 4 0.0000 0.0000 0.0000 44.3482 0.0000 -9.5411
# 5 -16.8992 -22.3314 -12.1759 0.0000 25.8248 0.0000
# 6 0.0000 0.0000 0.0000 -9.5411 0.0000 53.7138
#
#
#
# Elastic Compliance Matrix: (Units=1/GPa)
#
#
# Indices 1 2 3 4 5 6 
#
# 1 0.026648 -0.005197 -0.006854 0.000000 0.009713 0.000000
# 2 -0.005197 0.006697 -0.001625 0.000000 0.001625 0.000000
# 3 -0.006854 -0.001625 0.012288 0.000000 -0.000097 0.000000
# 4 0.000000 0.000000 0.000000 0.023445 0.000000 0.004164
# 5 0.009713 0.001625 -0.000097 0.000000 0.046438 0.000000
# 6 0.000000 0.000000 0.000000 0.004164 0.000000 0.019357
#
#
# Mechanical properties :
#
#
# Convention : Reuss Voigt Hill
#
# Bulk Modulus (GPa) = 54.69729 87.17049 70.93389
# Shear Modulus (GPa) = 29.70557 39.84175 34.77366
#
# Velocity S-wave (km/s) = 3.60272 4.17235 3.89795
# Velocity P-wave (km/s) = 6.41915 7.82941 7.15909
#
# Compressibility (1/GPa) = 0.01828244
#
# Stress axis : x y z
#
# Youngs Moduli (GPa) = 37.52557 149.31627 81.37944
#
# Poissons Ratio (x) = 0.77595 0.55778
# Poissons Ratio (y) = 0.19501 0.13223
# Poissons Ratio (z) = 0.25720 0.24262
#
# Static dielectric constant tensor:
#      x y z
#    x 4.226700 0.000000 -0.268740 
#    y 0.000000 4.398880 0.000000 
#    z -0.268740 0.000000 4.123480 
# 
# 
# High freq. dielectric constant tensor:
#      x y z
#    x 1.910220 0.000000 -0.003970 
#    y 0.000000 1.921510 0.000000 
#    z -0.003970 0.000000 1.898180 
# 
# From -- ./inp_files/30056.got.cif
#   From: 2010.06.25/outbox.cif.g09.slc.cpg/sg15_16_cif.got.tgz:30056.got - 2010.06.28 07:06:18.
