data_PCOD8149194
_publ_section_title
;
Structure prediction by ZEFSAII (Michael W. Deem and Ramdas Pophale) SiO2 
 PCOD8149194
Probable space group: C 2/C
;
_chemical_formula_sum "Si O2"
_cell_formula_units_Z 56
_cell_length_a 12.239096
_cell_length_b 8.418969
_cell_length_c 24.638014
_cell_angle_alpha 90.000000
_cell_angle_beta 105.918038
_cell_angle_gamma 90.000000
_cell_volume 2441.368009
_symmetry_space_group_name_H-M "C 2/C"
_symmetry_group_IT_number 15
_symmetry_cell_setting 'monoclinic'
loop_
_space_group_symop_operation_xyz
x,y,z
-x,y,1/2-z
-x,-y,-z
x,-y,1/2+z
1/2+x,1/2+y,z
1/2-x,1/2+y,1/2-z
1/2-x,1/2-y,-z
1/2+x,1/2-y,1/2+z
loop_
_atom_site_type_symbol
_atom_site_label
_atom_site_fract_x
_atom_site_fract_y
_atom_site_fract_z
Si Si1 0.393792 0.904573 0.540381
Si Si2 0.608352 0.265185 0.733530
Si Si3 0.111576 0.265440 0.607543
Si Si4 0.280475 0.799664 0.420410
Si Si5 0.323274 0.237476 0.562899
Si Si6 0.771820 0.503332 0.811325
Si Si7 0.043492 0.913189 0.611792
O O1 0.524835 0.847586 0.552935
O O2 0.337938 0.916180 0.472955
O O3 0.331621 0.776299 0.569689
O O4 0.392011 0.072333 0.571167
O O5 0.500000 0.194946 0.750000
O O6 0.663060 0.404491 0.776959
O O7 0.694304 0.120045 0.733427
O O8 0.565616 0.332017 0.671430
O O9 0.238876 0.244159 0.602293
O O10 0.124673 0.381676 0.661466
O O11 0.060745 0.099592 0.619485
O O12 0.243732 0.899001 0.362513
O O13 0.370206 0.659224 0.420666
O O14 0.250000 0.250000 0.500000
O O15 0.413153 0.381416 0.576838
#
# Coordination Sequence:
#
# PCOD8149194 Si02
#       7
#     8   8   8   8   8   8   8
#     4  11  24  42  68 106 145 190 228 282 345 429
#     4  11  25  47  72  97 135 178 236 299 361 417
#     4  12  26  43  69 103 142 183 237 286 352 424
#     4  10  23  44  70 102 147 184 235 283 351 426
#     4  12  26  43  69 102 144 190 232 282 345 422
#     4  11  25  48  69 104 136 181 238 301 356 427
#     4  11  25  46  71 101 141 187 235 296 354 418
#
# _framework density 22.937957999999998
#
# number of rings (size 3 to 8) (size 9 to 14) (size 15 to 20)
#    0.000    0.857    1.429    5.143    8.000    2.857 
#    5.143    0.714    0.000    0.000    0.000    0.000 
#    0.000    0.000    0.000    0.000    0.000    0.000 
#
# Total GULP energy -347326.696573 kJ/mol
# GULP energy per Si atom -12404.524878 kJ/mol
# Density = 2.288575 g / cm^3
# Si number density = 22.937958 Si / 1000 Ang^3
#
#
#
# Elastic Constant Matrix: (Units=GPa)
#
#
# Indices 1 2 3 4 5 6 
#
# 1 109.5073 32.6170 27.6177 0.0000 -6.1049 0.0000
# 2 32.6170 109.5624 10.5069 0.0000 -9.6586 0.0000
# 3 27.6177 10.5069 76.2593 0.0000 -2.6629 0.0000
# 4 0.0000 0.0000 0.0000 39.7214 0.0000 7.2187
# 5 -6.1049 -9.6586 -2.6629 0.0000 34.4841 0.0000
# 6 0.0000 0.0000 0.0000 7.2187 0.0000 32.9073
#
#
#
# Elastic Compliance Matrix: (Units=1/GPa)
#
#
# Indices 1 2 3 4 5 6 
#
# 1 0.010915 -0.002834 -0.003532 0.000000 0.000866 0.000000
# 2 -0.002834 0.010205 -0.000298 0.000000 0.002334 0.000000
# 3 -0.003532 -0.000298 0.014448 0.000000 0.000407 0.000000
# 4 0.000000 0.000000 0.000000 0.026221 0.000000 -0.005752
# 5 0.000866 0.002334 0.000407 0.000000 0.029837 0.000000
# 6 0.000000 0.000000 0.000000 -0.005752 0.000000 0.031650
#
#
# Mechanical properties :
#
#
# Convention : Reuss Voigt Hill
#
# Bulk Modulus (GPa) = 44.96674 48.53469 46.75071
# Shear Modulus (GPa) = 34.71780 36.39506 35.55643
#
# Velocity S-wave (km/s) = 3.89466 3.98763 3.94142
# Velocity P-wave (km/s) = 6.31433 6.51204 6.41394
#
# Compressibility (1/GPa) = 0.02223866
#
# Stress axis : x y z
#
# Youngs Moduli (GPa) = 91.61596 97.98796 69.21547
#
# Poissons Ratio (x) = 0.27774 0.24448
# Poissons Ratio (y) = 0.25968 0.02063
# Poissons Ratio (z) = 0.32361 0.02921
#
# Static dielectric constant tensor:
#      x y z
#    x 4.392010 0.000000 -0.110230 
#    y 0.000000 4.428490 0.000000 
#    z -0.110230 0.000000 4.084630 
# 
# 
# High freq. dielectric constant tensor:
#      x y z
#    x 1.911210 0.000000 0.004040 
#    y 0.000000 1.921210 0.000000 
#    z 0.004040 0.000000 1.901000 
# 
# From -- ./inp_files/291613.got.cif
#   From: 2010.06.25/outbox.cif.g09.slc.cpg/sg15_146_cif.got.tgz:291613.got - 2010.06.28 07:06:18.
