data_PCOD8149777
_publ_section_title
;
Structure prediction by ZEFSAII (Michael W. Deem and Ramdas Pophale) SiO2 
 PCOD8149777
Probable space group: C 2/C
;
_chemical_formula_sum "Si O2"
_cell_formula_units_Z 60
_cell_length_a 15.465178
_cell_length_b 18.661775
_cell_length_c 16.325731
_cell_angle_alpha 90.000000
_cell_angle_beta 38.903929
_cell_angle_gamma 90.000000
_cell_volume 2959.044589
_symmetry_space_group_name_H-M "C 2/C"
_symmetry_group_IT_number 15
_symmetry_cell_setting 'monoclinic'
loop_
_space_group_symop_operation_xyz
x,y,z
-x,y,1/2-z
-x,-y,-z
x,-y,1/2+z
1/2+x,1/2+y,z
1/2-x,1/2+y,1/2-z
1/2-x,1/2-y,-z
1/2+x,1/2-y,1/2+z
loop_
_atom_site_type_symbol
_atom_site_label
_atom_site_fract_x
_atom_site_fract_y
_atom_site_fract_z
Si Si1 0.420199 0.432452 0.087435
Si Si2 0.500000 0.653992 0.750000
Si Si3 0.362227 0.125444 0.300049
Si Si4 0.099413 0.567776 0.550586
Si Si5 0.917038 0.801269 0.480817
Si Si6 0.670732 0.962755 0.171570
Si Si7 0.994598 0.648930 0.031888
Si Si8 0.266001 0.438662 0.364863
O O1 0.296023 0.419367 0.117035
O O2 0.367602 0.451703 0.215506
O O3 0.500000 0.500000 0.000000
O O4 0.519086 0.364489 0.012219
O O5 0.507087 0.703441 0.663714
O O6 0.640572 0.606620 0.640323
O O7 0.500000 0.142534 0.250000
O O8 0.247227 0.185497 0.406688
O O9 0.303531 0.046808 0.369775
O O10 0.391675 0.129724 0.181536
O O11 0.137523 0.586760 0.616638
O O12 0.219867 0.514722 0.433628
O O13 0.949525 0.531385 0.671100
O O14 0.084671 0.632867 0.496043
O O15 0.952927 0.730133 0.504294
O O16 0.130145 0.601814 0.937531
#
# Coordination Sequence:
#
# PCOD8149777 Si02
#       8
#     8   4   8   8   8   8   8   8
#     4  11  23  40  65  92 128 170 211 265 325 385
#     4  10  24  42  58  96 132 168 202 268 336 406
#     4  12  23  39  66  98 128 163 216 266 320 393
#     4  11  22  39  65  94 119 162 220 272 307 371
#     4  11  27  41  61  92 136 173 209 258 333 400
#     4  11  20  40  67  95 119 160 223 275 315 366
#     4  12  25  40  61  92 132 172 209 260 324 392
#     4  11  22  39  63  93 129 162 212 259 330 382
#
# _framework density 20.276816
#
# number of rings (size 3 to 8) (size 9 to 14) (size 15 to 20)
#    0.000    0.800    5.333    2.800    6.533    1.067 
#    0.000    0.667    0.000    0.000    0.000    0.000 
#    0.000    0.000    0.000    0.000    0.000    0.000 
#
# Total GULP energy -371858.452250 kJ/mol
# GULP energy per Si atom -12395.281742 kJ/mol
# Density = 2.023066 g / cm^3
# Si number density = 20.276816 Si / 1000 Ang^3
#
#
#
# Elastic Constant Matrix: (Units=GPa)
#
#
# Indices 1 2 3 4 5 6 
#
# 1 76.2162 9.4825 7.3952 0.0017 10.9478 -0.0006
# 2 9.4825 57.7254 14.6227 0.0013 20.3037 -0.0006
# 3 7.3952 14.6227 75.8365 0.0033 11.0023 -0.0014
# 4 0.0017 0.0013 0.0033 19.3052 -0.0008 4.9774
# 5 10.9478 20.3037 11.0023 -0.0008 29.9208 0.0001
# 6 -0.0006 -0.0006 -0.0014 4.9774 0.0001 29.1886
#
#
#
# Elastic Compliance Matrix: (Units=1/GPa)
#
#
# Indices 1 2 3 4 5 6 
#
# 1 0.013892 -0.000552 -0.000597 -0.000001 -0.004489 0.000001
# 2 -0.000552 0.023152 -0.002282 -0.000002 -0.014669 0.000001
# 3 -0.000597 -0.002282 0.014185 -0.000003 -0.003449 0.000001
# 4 -0.000001 -0.000002 -0.000003 0.054182 0.000004 -0.009239
# 5 -0.004489 -0.014669 -0.003449 0.000004 0.046286 -0.000002
# 6 0.000001 0.000001 0.000001 -0.009239 -0.000002 0.035835
#
#
# Mechanical properties :
#
#
# Convention : Reuss Voigt Hill
#
# Bulk Modulus (GPa) = 22.53948 30.30877 26.42413
# Shear Modulus (GPa) = 23.90253 27.56812 25.73533
#
# Velocity S-wave (km/s) = 3.43711 3.69126 3.56645
# Velocity P-wave (km/s) = 5.18571 5.75736 5.47899
#
# Compressibility (1/GPa) = 0.04436659
#
# Stress axis : x y z
#
# Youngs Moduli (GPa) = 71.98414 43.19327 70.49761
#
# Poissons Ratio (x) = 0.02384 0.04209
# Poissons Ratio (y) = 0.03973 0.16088
# Poissons Ratio (z) = 0.04298 0.09857
#
# Static dielectric constant tensor:
#      x y z
#    x 3.669920 -0.000020 -0.129850 
#    y -0.000020 2.719090 0.000010 
#    z -0.129850 0.000010 3.829280 
# 
# 
# High freq. dielectric constant tensor:
#      x y z
#    x 1.794510 0.000000 -0.002770 
#    y 0.000000 1.759930 0.000000 
#    z -0.002770 0.000000 1.808530 
# 
# From -- ./inp_files/156364.got.cif
#   From: 2010.06.25/outbox.cif.g09.slc.cpg/sg15_79_cif.got.tgz:156364.got - 2010.06.28 07:06:18.
