data_PCOD8149492
_publ_section_title
;
Structure prediction by ZEFSAII (Michael W. Deem and Ramdas Pophale) SiO2 
 PCOD8149492
Probable space group: C 2/C
;
_chemical_formula_sum "Si O2"
_cell_formula_units_Z 40
_cell_length_a 5.207928
_cell_length_b 24.688721
_cell_length_c 16.053027
_cell_angle_alpha 90.000000
_cell_angle_beta 117.697330
_cell_angle_gamma 90.000000
_cell_volume 1827.542625
_symmetry_space_group_name_H-M "C 2/C"
_symmetry_group_IT_number 15
_symmetry_cell_setting 'monoclinic'
loop_
_space_group_symop_operation_xyz
x,y,z
-x,y,1/2-z
-x,-y,-z
x,-y,1/2+z
1/2+x,1/2+y,z
1/2-x,1/2+y,1/2-z
1/2-x,1/2-y,-z
1/2+x,1/2-y,1/2+z
loop_
_atom_site_type_symbol
_atom_site_label
_atom_site_fract_x
_atom_site_fract_y
_atom_site_fract_z
Si Si1 0.097170 0.957487 0.583329
Si Si2 0.184853 0.384214 0.165741
Si Si3 0.000000 0.294832 0.250000
Si Si4 0.818060 0.309316 0.803163
Si Si5 0.500000 0.021865 0.750000
Si Si6 0.969449 0.390908 0.954756
O O1 0.380953 0.928379 0.590665
O O2 0.840500 0.915778 0.565902
O O3 0.212873 0.986894 0.684706
O O4 0.000000 0.000000 0.500000
O O5 0.500000 0.374368 0.250000
O O6 0.993954 0.333237 0.167886
O O7 0.060986 0.441210 0.178680
O O8 0.181259 0.385063 0.065682
O O9 0.285587 0.256317 0.300484
O O10 0.500000 0.336760 0.750000
O O11 0.948652 0.331522 0.909353
O O12 0.000000 0.327479 0.750000
#
# Coordination Sequence:
#
# PCOD8149492 Si02
#       6
#     8   8   4   8   4   8
#     4  12  26  46  66 107 135 190 229 283 340 412
#     4  11  24  46  68 103 136 188 229 293 341 421
#     4   9  24  44  74  96 144 172 234 285 360 412
#     4  10  23  47  69 102 136 178 228 288 346 412
#     4  11  26  40  72  92 150 182 236 283 342 404
#     4  12  27  44  74 101 144 178 241 280 345 414
#
# _framework density 21.887316999999999
#
# number of rings (size 3 to 8) (size 9 to 14) (size 15 to 20)
#    0.600    0.400    2.000    3.600    9.800    0.800 
#    0.000    2.000    0.000    0.000    0.000    0.000 
#    0.000    0.000    0.000    0.000    0.000    0.000 
#
# Total GULP energy -247946.280765 kJ/mol
# GULP energy per Si atom -12397.314038 kJ/mol
# Density = 2.183750 g / cm^3
# Si number density = 21.887317 Si / 1000 Ang^3
#
#
#
# Elastic Constant Matrix: (Units=GPa)
#
#
# Indices 1 2 3 4 5 6 
#
# 1 117.7207 25.7146 38.5990 0.0000 -8.6943 0.0000
# 2 25.7146 107.1116 58.3869 0.0000 -6.9664 0.0000
# 3 38.5990 58.3869 146.7086 0.0000 1.6863 0.0000
# 4 0.0000 0.0000 0.0000 14.2177 0.0000 8.1815
# 5 -8.6943 -6.9664 1.6863 0.0000 33.2701 0.0000
# 6 0.0000 0.0000 0.0000 8.1815 0.0000 11.8875
#
#
#
# Elastic Compliance Matrix: (Units=1/GPa)
#
#
# Indices 1 2 3 4 5 6 
#
# 1 0.009595 -0.000964 -0.002168 0.000000 0.002415 0.000000
# 2 -0.000964 0.012274 -0.004660 0.000000 0.002554 0.000000
# 3 -0.002168 -0.004660 0.009265 0.000000 -0.002012 0.000000
# 4 0.000000 0.000000 0.000000 0.116457 0.000000 -0.080151
# 5 0.002415 0.002554 -0.002012 0.000000 0.031325 0.000000
# 6 0.000000 0.000000 0.000000 -0.080151 0.000000 0.139285
#
#
# Mechanical properties :
#
#
# Convention : Reuss Voigt Hill
#
# Bulk Modulus (GPa) = 64.32070 68.54909 66.43490
# Shear Modulus (GPa) = 14.75061 28.46444 21.60753
#
# Velocity S-wave (km/s) = 2.59884 3.61016 3.14541
# Velocity P-wave (km/s) = 6.20131 6.98317 6.60383
#
# Compressibility (1/GPa) = 0.01554709
#
# Stress axis : x y z
#
# Youngs Moduli (GPa) = 104.22444 81.47210 107.93765
#
# Poissons Ratio (x) = 0.07857 0.23404
# Poissons Ratio (y) = 0.10051 0.50304
# Poissons Ratio (z) = 0.22599 0.37970
#
# Static dielectric constant tensor:
#      x y z
#    x 4.162980 0.000000 -0.008530 
#    y 0.000000 4.027900 0.000000 
#    z -0.008530 0.000000 3.820630 
# 
# 
# High freq. dielectric constant tensor:
#      x y z
#    x 1.864250 0.000000 -0.004020 
#    y 0.000000 1.864230 0.000000 
#    z -0.004020 0.000000 1.854830 
# 
# From -- ./inp_files/129930.got.cif
#   From: 2010.06.25/outbox.cif.g09.slc.cpg/sg15_65_cif.got.tgz:129930.got - 2010.06.28 07:06:18.
