data_PCOD8149287
_publ_section_title
;
Structure prediction by ZEFSAII (Michael W. Deem and Ramdas Pophale) SiO2 
 PCOD8149287
Probable space group: C 2/C
;
_chemical_formula_sum "Si O2"
_cell_formula_units_Z 64
_cell_length_a 14.625662
_cell_length_b 11.875102
_cell_length_c 17.184702
_cell_angle_alpha 90.000000
_cell_angle_beta 91.239819
_cell_angle_gamma 90.000000
_cell_volume 2983.961401
_symmetry_space_group_name_H-M "C 2/C"
_symmetry_group_IT_number 15
_symmetry_cell_setting 'monoclinic'
loop_
_space_group_symop_operation_xyz
x,y,z
-x,y,1/2-z
-x,-y,-z
x,-y,1/2+z
1/2+x,1/2+y,z
1/2-x,1/2+y,1/2-z
1/2-x,1/2-y,-z
1/2+x,1/2-y,1/2+z
loop_
_atom_site_type_symbol
_atom_site_label
_atom_site_fract_x
_atom_site_fract_y
_atom_site_fract_z
Si Si1 0.345564 0.580933 0.119839
Si Si2 0.699420 0.563063 0.555755
Si Si3 0.812459 0.435585 0.328154
Si Si4 0.896218 0.485421 0.582079
Si Si5 0.752940 0.216900 0.805163
Si Si6 0.968262 0.077923 0.430000
Si Si7 0.544986 0.159222 0.555743
Si Si8 0.396415 0.129907 0.243970
O O1 0.287335 0.469998 0.140751
O O2 0.315942 0.684042 0.173108
O O3 0.454770 0.561145 0.136490
O O4 0.335243 0.609847 0.027772
O O5 0.799891 0.514867 0.541190
O O6 0.702891 0.665189 0.616576
O O7 0.633534 0.466344 0.592857
O O8 0.803584 0.373743 0.245173
O O9 0.864058 0.358092 0.391178
O O10 0.874362 0.546622 0.315769
O O11 0.946234 0.393461 0.529781
O O12 0.874085 0.432334 0.664176
O O13 0.957123 0.598763 0.593759
O O14 0.833346 0.260778 0.750683
O O15 0.968311 0.208377 0.454478
O O16 0.000000 0.000000 0.500000
O O17 0.500000 0.170627 0.250000
#
# Coordination Sequence:
#
# PCOD8149287 Si02
#       8
#     8   8   8   8   8   8   8   8
#     4  10  23  45  64  94 136 173 222 286 326 403
#     4  11  22  43  67  96 131 178 227 269 338 403
#     4  11  23  42  63  99 131 174 224 271 336 397
#     4  11  23  42  72 102 128 175 231 279 332 396
#     4  11  25  39  70  93 136 179 220 272 346 403
#     4  10  25  43  65 100 134 169 222 275 334 400
#     4  11  24  42  72  99 129 179 226 276 333 403
#     4  11  24  41  62  99 140 167 222 285 331 393
#
# _framework density 21.447997999999998
#
# number of rings (size 3 to 8) (size 9 to 14) (size 15 to 20)
#    0.000    1.250    3.750    1.125    1.750    6.500 
#    0.000    1.250    0.000    0.000    0.000    0.000 
#    0.000    0.000    0.000    0.000    0.000    0.000 
#
# Total GULP energy -396822.106012 kJ/mol
# GULP energy per Si atom -12400.690813 kJ/mol
# Density = 2.139918 g / cm^3
# Si number density = 21.447998 Si / 1000 Ang^3
#
#
#
# Elastic Constant Matrix: (Units=GPa)
#
#
# Indices 1 2 3 4 5 6 
#
# 1 135.1610 51.5286 9.0981 0.0000 -25.1042 0.0000
# 2 51.5286 91.3457 27.7834 0.0000 -7.6664 0.0000
# 3 9.0981 27.7834 71.6954 0.0000 -8.6843 0.0000
# 4 0.0000 0.0000 0.0000 33.0259 0.0000 -7.9424
# 5 -25.1042 -7.6664 -8.6843 0.0000 32.3997 0.0000
# 6 0.0000 0.0000 0.0000 -7.9424 0.0000 29.9817
#
#
#
# Elastic Compliance Matrix: (Units=1/GPa)
#
#
# Indices 1 2 3 4 5 6 
#
# 1 0.011033 -0.006167 0.001910 0.000000 0.007601 0.000000
# 2 -0.006167 0.015949 -0.005705 0.000000 -0.002534 0.000000
# 3 0.001910 -0.005705 0.016467 0.000000 0.004544 0.000000
# 4 0.000000 0.000000 0.000000 0.032340 0.000000 0.008567
# 5 0.007601 -0.002534 0.004544 0.000000 0.037373 0.000000
# 6 0.000000 0.000000 0.000000 0.008567 0.000000 0.035623
#
#
# Mechanical properties :
#
#
# Convention : Reuss Voigt Hill
#
# Bulk Modulus (GPa) = 42.50635 52.78025 47.64330
# Shear Modulus (GPa) = 28.32095 33.06760 30.69428
#
# Velocity S-wave (km/s) = 3.63774 3.93078 3.78710
# Velocity P-wave (km/s) = 6.12418 6.72780 6.43307
#
# Compressibility (1/GPa) = 0.02352589
#
# Stress axis : x y z
#
# Youngs Moduli (GPa) = 90.63819 62.70125 60.72915
#
# Poissons Ratio (x) = 0.38667 -0.11602
# Poissons Ratio (y) = 0.55895 0.34644
# Poissons Ratio (z) = -0.17316 0.35769
#
# Static dielectric constant tensor:
#      x y z
#    x 4.471980 0.000000 -0.219620 
#    y 0.000000 3.797130 0.000000 
#    z -0.219620 0.000000 3.677520 
# 
# 
# High freq. dielectric constant tensor:
#      x y z
#    x 1.858150 0.000000 -0.014670 
#    y 0.000000 1.836700 0.000000 
#    z -0.014670 0.000000 1.832030 
# 
# From -- ./inp_files/204450.got.cif
#   From: 2010.06.25/outbox.cif.g09.slc.cpg/sg15_103_cif.got.tgz:204450.got - 2010.06.28 07:06:18.
