data_PCOD8149280
_publ_section_title
;
Structure prediction by ZEFSAII (Michael W. Deem and Ramdas Pophale) SiO2 
 PCOD8149280
Probable space group: C 2/C
;
_chemical_formula_sum "Si O2"
_cell_formula_units_Z 40
_cell_length_a 28.827187
_cell_length_b 6.646136
_cell_length_c 12.737977
_cell_angle_alpha 90.000000
_cell_angle_beta 52.141230
_cell_angle_gamma 90.000000
_cell_volume 1926.807561
_symmetry_space_group_name_H-M "C 2/C"
_symmetry_group_IT_number 15
_symmetry_cell_setting 'monoclinic'
loop_
_space_group_symop_operation_xyz
x,y,z
-x,y,1/2-z
-x,-y,-z
x,-y,1/2+z
1/2+x,1/2+y,z
1/2-x,1/2+y,1/2-z
1/2-x,1/2-y,-z
1/2+x,1/2-y,1/2+z
loop_
_atom_site_type_symbol
_atom_site_label
_atom_site_fract_x
_atom_site_fract_y
_atom_site_fract_z
Si Si1 0.867974 0.958004 0.785933
Si Si2 0.081873 0.650992 0.380529
Si Si3 0.525355 0.819601 0.327727
Si Si4 0.679767 0.867198 0.304204
Si Si5 0.277988 0.367209 0.558268
O O1 0.929855 0.865834 0.735190
O O2 0.832783 0.821751 0.752901
O O3 0.877719 0.171244 0.717307
O O4 0.829783 0.988925 0.943976
O O5 0.057391 0.524764 0.316374
O O6 0.121870 0.505043 0.396638
O O7 0.027795 0.738986 0.521376
O O8 0.500000 0.860703 0.250000
O O9 0.696224 0.796878 0.397594
O O10 0.732024 0.993674 0.181428
O O11 0.250000 0.250000 0.500000
#
# Coordination Sequence:
#
# PCOD8149280 Si02
#       5
#     8   8   8   8   8
#     4  11  24  44  68  98 135 177 222 274 337 401
#     4  10  23  45  63  97 136 171 225 271 335 392
#     4  10  24  40  68  97 133 174 220 277 327 400
#     4  11  26  43  68 100 136 175 223 287 327 408
#     4  12  25  45  70  98 133 179 222 277 343 396
#
# _framework density 20.759727999999999
#
# number of rings (size 3 to 8) (size 9 to 14) (size 15 to 20)
#    0.000    1.200    2.000    2.400    5.600    0.800 
#    0.000    0.000    0.000    0.000    0.000    0.000 
#    0.000    0.000    0.000    0.000    0.000    0.000 
#
# Total GULP energy -248134.963417 kJ/mol
# GULP energy per Si atom -12406.748171 kJ/mol
# Density = 2.071248 g / cm^3
# Si number density = 20.759728 Si / 1000 Ang^3
#
#
#
# Elastic Constant Matrix: (Units=GPa)
#
#
# Indices 1 2 3 4 5 6 
#
# 1 164.5750 62.4740 64.9194 0.0000 13.9686 -0.0002
# 2 62.4740 89.3508 41.7645 0.0000 1.8735 0.0001
# 3 64.9194 41.7645 103.2650 0.0001 -11.0268 0.0000
# 4 0.0000 0.0000 0.0001 48.6156 0.0000 -17.4785
# 5 13.9686 1.8735 -11.0268 0.0000 35.4854 0.0000
# 6 -0.0002 0.0001 0.0000 -17.4785 0.0000 51.7739
#
#
#
# Elastic Compliance Matrix: (Units=1/GPa)
#
#
# Indices 1 2 3 4 5 6 
#
# 1 0.010380 -0.004712 -0.005202 0.000000 -0.005454 0.000000
# 2 -0.004712 0.016166 -0.003588 0.000000 -0.000114 0.000000
# 3 -0.005202 -0.003588 0.015147 0.000000 0.006944 0.000000
# 4 0.000000 0.000000 0.000000 0.023411 0.000000 0.007903
# 5 -0.005454 -0.000114 0.006944 0.000000 0.032491 0.000000
# 6 0.000000 0.000000 0.000000 0.007903 0.000000 0.021983
#
#
# Mechanical properties :
#
#
# Convention : Reuss Voigt Hill
#
# Bulk Modulus (GPa) = 68.08044 77.27851 72.67947
# Shear Modulus (GPa) = 33.00806 39.71050 36.35928
#
# Velocity S-wave (km/s) = 3.99181 4.37837 4.18955
# Velocity P-wave (km/s) = 7.35607 7.92882 7.64781
#
# Compressibility (1/GPa) = 0.01468851
#
# Stress axis : x y z
#
# Youngs Moduli (GPa) = 96.34065 61.85910 66.01939
#
# Poissons Ratio (x) = 0.29145 0.34345
# Poissons Ratio (y) = 0.45391 0.23689
# Poissons Ratio (z) = 0.50119 0.22196
#
# Static dielectric constant tensor:
#      x y z
#    x 3.913210 0.000000 -0.207340 
#    y 0.000000 3.829810 0.000000 
#    z -0.207340 0.000000 3.998680 
# 
# 
# High freq. dielectric constant tensor:
#      x y z
#    x 1.824790 0.000000 -0.012640 
#    y 0.000000 1.820300 0.000000 
#    z -0.012640 0.000000 1.822140 
# 
# From -- ./inp_files/179584.got.cif
#   From: 2010.06.25/outbox.cif.g09.slc.cpg/sg15_90_cif.got.tgz:179584.got - 2010.06.28 07:06:18.
