data_PCOD8149699
_publ_section_title
;
Structure prediction by ZEFSAII (Michael W. Deem and Ramdas Pophale) SiO2 
 PCOD8149699
Probable space group: C 2/C
;
_chemical_formula_sum "Si O2"
_cell_formula_units_Z 36
_cell_length_a 16.215430
_cell_length_b 9.472836
_cell_length_c 17.631122
_cell_angle_alpha 90.000000
_cell_angle_beta 29.616983
_cell_angle_gamma 90.000000
_cell_volume 1338.415025
_symmetry_space_group_name_H-M "C 2/C"
_symmetry_group_IT_number 15
_symmetry_cell_setting 'monoclinic'
loop_
_space_group_symop_operation_xyz
x,y,z
-x,y,1/2-z
-x,-y,-z
x,-y,1/2+z
1/2+x,1/2+y,z
1/2-x,1/2+y,1/2-z
1/2-x,1/2-y,-z
1/2+x,1/2-y,1/2+z
loop_
_atom_site_type_symbol
_atom_site_label
_atom_site_fract_x
_atom_site_fract_y
_atom_site_fract_z
Si Si1 0.625660 0.401703 0.321377
Si Si2 0.222418 0.371045 0.460889
Si Si3 0.650579 0.579183 0.032417
Si Si4 0.000000 0.307438 0.250000
Si Si5 0.092946 0.405432 0.865448
O O1 0.712849 0.339464 0.175444
O O2 0.448535 0.476978 0.446016
O O3 0.728352 0.518371 0.287339
O O4 0.606223 0.257531 0.385832
O O5 0.250000 0.250000 0.500000
O O6 0.325657 0.506448 0.404401
O O7 0.022436 0.401839 0.618028
O O8 0.550857 0.721038 0.133118
O O9 0.838384 0.604398 0.850529
O O10 0.000000 0.500000 0.000000
#
# Coordination Sequence:
#
# PCOD8149699 Si02
#       5
#     8   8   8   4   8
#     4  11  23  47  76 113 154 206 257 337 396 482
#     4  11  22  43  77 111 144 197 270 326 391 470
#     4  11  22  45  74 110 155 197 267 320 401 462
#     4  10  24  40  70 118 150 202 244 336 386 474
#     4  10  25  46  72 112 154 204 259 325 401 476
#
# _framework density 26.897487000000002
#
# number of rings (size 3 to 8) (size 9 to 14) (size 15 to 20)
#    0.000    1.333    4.444    0.000    0.000    5.333 
#    4.000    4.444    0.000    0.000    0.000    0.000 
#    0.000    0.000    0.000    0.000    0.000    0.000 
#
# Total GULP energy -223068.704719 kJ/mol
# GULP energy per Si atom -12392.705818 kJ/mol
# Density = 2.683627 g / cm^3
# Si number density = 26.897487 Si / 1000 Ang^3
#
#
#
# Elastic Constant Matrix: (Units=GPa)
#
#
# Indices 1 2 3 4 5 6 
#
# 1 135.5898 74.8532 61.7090 0.0006 -53.8668 -0.0001
# 2 74.8532 192.6516 75.8363 0.0022 -42.9772 -0.0011
# 3 61.7090 75.8363 136.4797 0.0009 -37.1055 -0.0007
# 4 0.0006 0.0022 0.0009 52.5198 -0.0008 -16.9516
# 5 -53.8668 -42.9772 -37.1055 -0.0008 62.3847 0.0002
# 6 -0.0001 -0.0011 -0.0007 -16.9516 0.0002 51.9136
#
#
#
# Elastic Compliance Matrix: (Units=1/GPa)
#
#
# Indices 1 2 3 4 5 6 
#
# 1 0.012978 -0.002275 -0.002366 0.000000 0.008232 0.000000
# 2 -0.002275 0.007493 -0.002703 0.000000 0.001590 0.000000
# 3 -0.002366 -0.002703 0.010542 0.000000 0.002365 0.000000
# 4 0.000000 0.000000 0.000000 0.021284 0.000000 0.006950
# 5 0.008232 0.001590 0.002365 0.000000 0.025640 0.000000
# 6 0.000000 0.000000 0.000000 0.006950 0.000000 0.021532
#
#
# Mechanical properties :
#
#
# Convention : Reuss Voigt Hill
#
# Bulk Modulus (GPa) = 61.25228 98.83533 80.04381
# Shear Modulus (GPa) = 41.80683 50.18516 45.99600
#
# Velocity S-wave (km/s) = 3.94674 4.32417 4.13976
# Velocity P-wave (km/s) = 6.60234 7.85851 7.25766
#
# Compressibility (1/GPa) = 0.01632592
#
# Stress axis : x y z
#
# Youngs Moduli (GPa) = 77.05303 133.45251 94.86110
#
# Poissons Ratio (x) = 0.30358 0.22444
# Poissons Ratio (y) = 0.17528 0.25639
# Poissons Ratio (z) = 0.18231 0.36069
#
# Static dielectric constant tensor:
#      x y z
#    x 5.333010 0.000000 -1.033630 
#    y 0.000000 5.373340 0.000000 
#    z -1.033630 0.000000 5.187310 
# 
# 
# High freq. dielectric constant tensor:
#      x y z
#    x 2.067090 0.000000 -0.029270 
#    y 0.000000 2.090950 0.000000 
#    z -0.029270 0.000000 2.089030 
# 
# From -- ./inp_files/247742.got.cif
#   From: 2010.06.25/outbox.cif.g09.slc.cpg/sg15_124_cif.got.tgz:247742.got - 2010.06.28 07:06:18.
