data_PCOD8149580
_publ_section_title
;
Structure prediction by ZEFSAII (Michael W. Deem and Ramdas Pophale) SiO2 
 PCOD8149580
Probable space group: C 2/C
;
_chemical_formula_sum "Si O2"
_cell_formula_units_Z 40
_cell_length_a 8.204260
_cell_length_b 32.856233
_cell_length_c 7.386658
_cell_angle_alpha 90.000000
_cell_angle_beta 116.357923
_cell_angle_gamma 90.000000
_cell_volume 1784.151088
_symmetry_space_group_name_H-M "C 2/C"
_symmetry_group_IT_number 15
_symmetry_cell_setting 'monoclinic'
loop_
_space_group_symop_operation_xyz
x,y,z
-x,y,1/2-z
-x,-y,-z
x,-y,1/2+z
1/2+x,1/2+y,z
1/2-x,1/2+y,1/2-z
1/2-x,1/2-y,-z
1/2+x,1/2-y,1/2+z
loop_
_atom_site_type_symbol
_atom_site_label
_atom_site_fract_x
_atom_site_fract_y
_atom_site_fract_z
Si Si1 0.000000 0.257346 0.750000
Si Si2 0.349673 0.791051 0.320969
Si Si3 0.000000 0.900523 0.750000
Si Si4 0.192413 0.548661 0.649439
Si Si5 0.147905 0.869018 0.193729
Si Si6 0.794807 0.460981 0.923826
O O1 0.155160 0.231996 0.718095
O O2 0.917041 0.286945 0.558993
O O3 0.500000 0.774463 0.250000
O O4 0.318907 0.838808 0.261677
O O5 0.931812 0.874036 0.547969
O O6 0.838436 0.929774 0.743694
O O7 0.300475 0.590245 0.663485
O O8 0.289692 0.506426 0.640627
O O9 0.181158 0.550835 0.858231
O O10 0.999072 0.545339 0.447016
O O11 0.000000 0.847303 0.250000
#
# Coordination Sequence:
#
# PCOD8149580 Si02
#       6
#     4   8   4   8   8   8
#     4  10  24  50  71 110 130 166 226 256 325 418
#     4  11  24  46  75 101 138 174 209 271 330 392
#     4  10  24  38  61  84 130 170 224 266 327 376
#     4   9  20  36  56  81 124 159 223 270 322 378
#     4  11  25  42  61  97 132 170 216 272 323 394
#     4   9  19  36  55  84 113 173 217 274 317 384
#
# _framework density 22.419627999999999
#
# number of rings (size 3 to 8) (size 9 to 14) (size 15 to 20)
#    0.000    2.000    1.000    0.600    9.800    3.200 
#    1.800    0.000    0.000    0.000    0.000    0.000 
#    0.000    0.000    0.000    0.000    0.000    0.000 
#
# Total GULP energy -247779.361621 kJ/mol
# GULP energy per Si atom -12388.968081 kJ/mol
# Density = 2.236860 g / cm^3
# Si number density = 22.419628 Si / 1000 Ang^3
#
#
#
# Elastic Constant Matrix: (Units=GPa)
#
#
# Indices 1 2 3 4 5 6 
#
# 1 109.2304 33.3808 27.4753 0.0000 5.8374 0.0000
# 2 33.3808 102.8834 60.7547 0.0000 8.1920 0.0000
# 3 27.4753 60.7547 96.9655 0.0000 12.9711 0.0000
# 4 0.0000 0.0000 0.0000 -8.8300 0.0000 -12.4310
# 5 5.8374 8.1920 12.9711 0.0000 28.0787 0.0000
# 6 0.0000 0.0000 0.0000 -12.4310 0.0000 15.2892
#
#
#
# Elastic Compliance Matrix: (Units=1/GPa)
#
#
# Indices 1 2 3 4 5 6 
#
# 1 0.010284 -0.002564 -0.001195 0.000000 -0.000838 0.000000
# 2 -0.002564 0.016067 -0.009364 0.000000 0.000171 0.000000
# 3 -0.001195 -0.009364 0.017182 0.000000 -0.004957 0.000000
# 4 0.000000 0.000000 0.000000 -0.052806 0.000000 -0.042934
# 5 -0.000838 0.000171 -0.004957 0.000000 0.038028 0.000000
# 6 0.000000 0.000000 0.000000 -0.042934 0.000000 0.030497
#
#
# Mechanical properties :
#
#
# Convention : Reuss Voigt Hill
#
# Bulk Modulus (GPa) = 57.84698 61.36678 59.60688
# Shear Modulus (GPa) = 54.78807 19.40547 37.09677
#
# Velocity S-wave (km/s) = 4.94880 2.94523 4.07216
# Velocity P-wave (km/s) = 7.64932 6.24477 6.98245
#
# Compressibility (1/GPa) = 0.01728699
#
# Stress axis : x y z
#
# Youngs Moduli (GPa) = 97.23859 62.23782 58.20192
#
# Poissons Ratio (x) = 0.15958 0.06957
# Poissons Ratio (y) = 0.24933 0.54498
# Poissons Ratio (z) = 0.11624 0.58277
#
# Static dielectric constant tensor:
#      x y z
#    x 4.297230 0.000000 0.439760 
#    y 0.000000 3.903660 0.000000 
#    z 0.439760 0.000000 3.990550 
# 
# 
# High freq. dielectric constant tensor:
#      x y z
#    x 1.881730 0.000000 0.011810 
#    y 0.000000 1.870150 0.000000 
#    z 0.011810 0.000000 1.884310 
# 
# From -- ./inp_files/26278.got.cif
#   From: 2010.06.25/outbox.cif.g09.slc.cpg/sg15_14_cif.got.tgz:26278.got - 2010.06.28 07:06:18.
