data_PCOD8149393
_publ_section_title
;
Structure prediction by ZEFSAII (Michael W. Deem and Ramdas Pophale) SiO2 
 PCOD8149393
Probable space group: C 2/C
;
_chemical_formula_sum "Si O2"
_cell_formula_units_Z 40
_cell_length_a 24.149525
_cell_length_b 9.702978
_cell_length_c 17.733642
_cell_angle_alpha 90.000000
_cell_angle_beta 24.869241
_cell_angle_gamma 90.000000
_cell_volume 1747.543459
_symmetry_space_group_name_H-M "C 2/C"
_symmetry_group_IT_number 15
_symmetry_cell_setting 'monoclinic'
loop_
_space_group_symop_operation_xyz
x,y,z
-x,y,1/2-z
-x,-y,-z
x,-y,1/2+z
1/2+x,1/2+y,z
1/2-x,1/2+y,1/2-z
1/2-x,1/2-y,-z
1/2+x,1/2-y,1/2+z
loop_
_atom_site_type_symbol
_atom_site_label
_atom_site_fract_x
_atom_site_fract_y
_atom_site_fract_z
Si Si1 0.931448 0.030194 0.414268
Si Si2 0.799921 0.316086 0.799773
Si Si3 0.080855 0.484543 0.720657
Si Si4 0.197362 0.992599 0.161206
Si Si5 0.367713 0.820281 0.546451
O O1 0.850231 0.165740 0.537580
O O2 0.000000 0.051257 0.250000
O O3 0.834408 0.901542 0.532824
O O4 0.041965 0.005381 0.341599
O O5 0.903581 0.370499 0.733861
O O6 0.761225 0.160818 0.866591
O O7 0.872146 0.325299 0.630802
O O8 0.224443 0.531534 0.512706
O O9 0.000000 0.420262 0.750000
O O10 0.005009 0.617891 0.846158
O O11 0.241628 0.093907 0.173529
#
# Coordination Sequence:
#
# PCOD8149393 Si02
#       5
#     8   8   8   8   8
#     4  12  27  46  76 102 140 190 234 284 350 417
#     4  12  26  45  73 104 141 183 235 290 355 402
#     4  10  23  45  74  99 137 183 237 284 340 415
#     4  11  26  47  72 105 141 182 243 283 339 430
#     4  11  27  46  69 105 144 184 228 294 351 413
#
# _framework density 22.889275000000001
#
# number of rings (size 3 to 8) (size 9 to 14) (size 15 to 20)
#    0.000    0.800    2.000    4.200    8.400    4.800 
#    0.000    0.000    0.000    0.000    0.000    0.000 
#    0.000    0.000    0.000    0.000    0.000    0.000 
#
# Total GULP energy -248129.323163 kJ/mol
# GULP energy per Si atom -12406.466158 kJ/mol
# Density = 2.283718 g / cm^3
# Si number density = 22.889275 Si / 1000 Ang^3
#
#
#
# Elastic Constant Matrix: (Units=GPa)
#
#
# Indices 1 2 3 4 5 6 
#
# 1 114.7771 63.4667 56.8893 -0.0001 6.6443 0.0000
# 2 63.4667 134.1896 31.7727 -0.0002 -18.2643 0.0000
# 3 56.8893 31.7727 76.6033 -0.0001 -1.5043 0.0000
# 4 -0.0001 -0.0002 -0.0001 19.9340 0.0000 -3.7065
# 5 6.6443 -18.2643 -1.5043 0.0000 52.3781 0.0000
# 6 0.0000 0.0000 0.0000 -3.7065 0.0000 30.3124
#
#
#
# Elastic Compliance Matrix: (Units=1/GPa)
#
#
# Indices 1 2 3 4 5 6 
#
# 1 0.017956 -0.006630 -0.010682 0.000000 -0.004897 0.000000
# 2 -0.006630 0.011139 0.000397 0.000000 0.004737 0.000000
# 3 -0.010682 0.000397 0.020863 0.000000 0.002093 0.000000
# 4 0.000000 0.000000 0.000000 0.051333 0.000000 0.006277
# 5 -0.004897 0.004737 0.002093 0.000000 0.021425 0.000000
# 6 0.000000 0.000000 0.000000 0.006277 0.000000 0.033757
#
#
# Mechanical properties :
#
#
# Convention : Reuss Voigt Hill
#
# Bulk Modulus (GPa) = 62.00022 69.98081 65.99051
# Shear Modulus (GPa) = 25.55206 32.08765 28.81986
#
# Velocity S-wave (km/s) = 3.34478 3.74821 3.55223
# Velocity P-wave (km/s) = 6.48557 7.02653 6.76146
#
# Compressibility (1/GPa) = 0.01612898
#
# Stress axis : x y z
#
# Youngs Moduli (GPa) = 55.69038 89.77765 47.93092
#
# Poissons Ratio (x) = 0.59523 0.51197
# Poissons Ratio (y) = 0.36923 -0.01902
# Poissons Ratio (z) = 0.59486 -0.03563
#
# Static dielectric constant tensor:
#      x y z
#    x 4.329710 0.000000 0.029280 
#    y 0.000000 4.023510 0.000000 
#    z 0.029280 0.000000 4.150850 
# 
# 
# High freq. dielectric constant tensor:
#      x y z
#    x 1.918900 0.000000 0.003060 
#    y 0.000000 1.902750 0.000000 
#    z 0.003060 0.000000 1.905050 
# 
# From -- ./inp_files/218760.got.cif
#   From: 2010.06.25/outbox.cif.g09.slc.cpg/sg15_110_cif.got.tgz:218760.got - 2010.06.28 07:06:18.
