data_PCOD8149058
_publ_section_title
;
Structure prediction by ZEFSAII (Michael W. Deem and Ramdas Pophale) SiO2 
 PCOD8149058
Probable space group: C 2/C
;
_chemical_formula_sum "Si O2"
_cell_formula_units_Z 32
_cell_length_a 5.633848
_cell_length_b 21.326741
_cell_length_c 11.390858
_cell_angle_alpha 90.000000
_cell_angle_beta 100.855084
_cell_angle_gamma 90.000000
_cell_volume 1344.140632
_symmetry_space_group_name_H-M "C 2/C"
_symmetry_group_IT_number 15
_symmetry_cell_setting 'monoclinic'
loop_
_space_group_symop_operation_xyz
x,y,z
-x,y,1/2-z
-x,-y,-z
x,-y,1/2+z
1/2+x,1/2+y,z
1/2-x,1/2+y,1/2-z
1/2-x,1/2-y,-z
1/2+x,1/2-y,1/2+z
loop_
_atom_site_type_symbol
_atom_site_label
_atom_site_fract_x
_atom_site_fract_y
_atom_site_fract_z
Si Si1 0.500000 0.022958 0.750000
Si Si2 0.909387 0.850031 0.871558
Si Si3 0.909334 0.594026 0.375757
Si Si4 0.000000 0.732501 0.750000
Si Si5 0.244734 0.874558 0.100046
O O1 0.599594 0.980517 0.651148
O O2 0.728848 0.066422 0.809701
O O3 0.149759 0.873173 0.815252
O O4 0.889177 0.775418 0.844802
O O5 0.648685 0.882752 0.826586
O O6 0.982454 0.866693 0.013750
O O7 0.944104 0.610852 0.516255
O O8 0.206986 0.689469 0.825838
#
# Coordination Sequence:
#
# PCOD8149058 Si02
#       5
#     4   8   8   4   8
#     4  11  20  44  66  96 128 171 206 264 314 377
#     4  10  23  44  63  94 128 166 211 260 313 372
#     4  10  23  44  63  94 128 166 211 260 313 372
#     4  11  20  44  66  96 128 171 206 264 314 377
#     4   9  24  42  64  98 128 166 214 257 316 376
#
# _framework density 23.807030000000001
#
# number of rings (size 3 to 8) (size 9 to 14) (size 15 to 20)
#    1.500    0.500    0.000    3.000    0.000    2.000 
#    9.000    2.500    0.000    0.000    0.000    0.000 
#    0.000    0.000    0.000    0.000    0.000    0.000 
#
# Total GULP energy -198228.461239 kJ/mol
# GULP energy per Si atom -12389.278827 kJ/mol
# Density = 2.375284 g / cm^3
# Si number density = 23.807030 Si / 1000 Ang^3
#
#
#
# Elastic Constant Matrix: (Units=GPa)
#
#
# Indices 1 2 3 4 5 6 
#
# 1 98.9249 47.2891 56.6097 0.0000 29.3714 0.0000
# 2 47.2891 195.4800 68.8710 0.0000 27.0527 0.0000
# 3 56.6097 68.8710 135.1402 0.0000 37.0222 0.0000
# 4 0.0000 0.0000 0.0000 45.9252 0.0000 1.7335
# 5 29.3714 27.0527 37.0222 0.0000 48.4189 0.0000
# 6 0.0000 0.0000 0.0000 1.7335 0.0000 4.3137
#
#
#
# Elastic Compliance Matrix: (Units=1/GPa)
#
#
# Indices 1 2 3 4 5 6 
#
# 1 0.014560 -0.001420 -0.004014 0.000000 -0.004970 0.000000
# 2 -0.001420 0.006442 -0.002452 0.000000 -0.000863 0.000000
# 3 -0.004014 -0.002452 0.011749 0.000000 -0.005179 0.000000
# 4 0.000000 0.000000 0.000000 0.022110 0.000000 -0.008885
# 5 -0.004970 -0.000863 -0.005179 0.000000 0.028110 0.000000
# 6 0.000000 0.000000 0.000000 -0.008885 0.000000 0.235390
#
#
# Mechanical properties :
#
#
# Convention : Reuss Voigt Hill
#
# Bulk Modulus (GPa) = 58.89269 86.12053 72.50661
# Shear Modulus (GPa) = 14.71479 36.84992 25.78235
#
# Velocity S-wave (km/s) = 2.48883 3.93855 3.29442
# Velocity P-wave (km/s) = 5.74894 7.54559 6.70769
#
# Compressibility (1/GPa) = 0.01698004
#
# Stress axis : x y z
#
# Youngs Moduli (GPa) = 68.68084 155.21942 85.11020
#
# Poissons Ratio (x) = 0.22047 0.34162
# Poissons Ratio (y) = 0.09755 0.20867
# Poissons Ratio (z) = 0.27568 0.38056
#
# Static dielectric constant tensor:
#      x y z
#    x 3.786470 0.000000 0.141260 
#    y 0.000000 4.098720 0.000000 
#    z 0.141260 0.000000 4.650120 
# 
# 
# High freq. dielectric constant tensor:
#      x y z
#    x 1.915820 0.000000 0.015940 
#    y 0.000000 1.933880 0.000000 
#    z 0.015940 0.000000 1.999520 
# 
# From -- ./inp_files/77130.got.cif
#   From: 2010.06.25/outbox.cif.g09.slc.cpg/sg15_39_cif.got.tgz:77130.got - 2010.06.28 07:06:18.
