data_PCOD8149423
_publ_section_title
;
Structure prediction by ZEFSAII (Michael W. Deem and Ramdas Pophale) SiO2 
 PCOD8149423
Probable space group: C 2/C
;
_chemical_formula_sum "Si O2"
_cell_formula_units_Z 44
_cell_length_a 11.140978
_cell_length_b 21.278137
_cell_length_c 8.649168
_cell_angle_alpha 90.000000
_cell_angle_beta 81.651102
_cell_angle_gamma 90.000000
_cell_volume 2028.636034
_symmetry_space_group_name_H-M "C 2/C"
_symmetry_group_IT_number 15
_symmetry_cell_setting 'monoclinic'
loop_
_space_group_symop_operation_xyz
x,y,z
-x,y,1/2-z
-x,-y,-z
x,-y,1/2+z
1/2+x,1/2+y,z
1/2-x,1/2+y,1/2-z
1/2-x,1/2-y,-z
1/2+x,1/2-y,1/2+z
loop_
_atom_site_type_symbol
_atom_site_label
_atom_site_fract_x
_atom_site_fract_y
_atom_site_fract_z
Si Si1 0.856741 0.318813 0.536055
Si Si2 0.035641 0.066064 0.420749
Si Si3 0.636080 0.928159 0.190282
Si Si4 0.500000 0.105207 0.250000
Si Si5 0.078271 0.808992 0.582471
Si Si6 0.294629 0.045417 0.483278
O O1 0.865782 0.356843 0.371715
O O2 0.936561 0.254785 0.513406
O O3 0.717956 0.308217 0.605142
O O4 0.907161 0.354658 0.671464
O O5 0.178959 0.076731 0.420609
O O6 0.000000 0.061424 0.250000
O O7 0.963095 0.127365 0.502469
O O8 0.000000 0.000000 0.500000
O O9 0.500000 0.951551 0.250000
O O10 0.711758 0.936070 0.335230
O O11 0.703545 0.969911 0.045223
O O12 0.421503 0.065649 0.385085
O O13 0.000000 0.803964 0.750000
#
# Coordination Sequence:
#
# PCOD8149423 Si02
#       6
#     8   8   8   4   8   8
#     4  11  24  43  68  94 135 179 222 281 330 405
#     4  11  23  44  66  95 132 170 218 273 329 397
#     4  12  22  42  64 103 140 173 225 277 336 398
#     4  12  22  40  60 102 132 172 224 272 344 384
#     4  10  23  46  67  93 131 180 223 270 338 396
#     4  12  24  38  68 102 136 178 223 279 336 399
#
# _framework density 21.689450000000001
#
# number of rings (size 3 to 8) (size 9 to 14) (size 15 to 20)
#    0.000    0.727    2.727    6.545    0.000    0.000 
#    8.182    1.818    0.000    0.000    0.000    0.000 
#    0.000    0.000    0.000    0.000    0.000    0.000 
#
# Total GULP energy -272714.884359 kJ/mol
# GULP energy per Si atom -12396.131107 kJ/mol
# Density = 2.164008 g / cm^3
# Si number density = 21.689450 Si / 1000 Ang^3
#
#
#
# Elastic Constant Matrix: (Units=GPa)
#
#
# Indices 1 2 3 4 5 6 
#
# 1 73.3456 22.1065 19.6014 0.0000 2.6641 0.0000
# 2 22.1065 159.4835 37.2691 0.0000 -5.7690 0.0000
# 3 19.6014 37.2691 96.5857 0.0000 10.9175 0.0000
# 4 0.0000 0.0000 0.0000 -119.4519 0.0000 -84.0764
# 5 2.6641 -5.7690 10.9175 0.0000 38.4708 0.0000
# 6 0.0000 0.0000 0.0000 -84.0764 0.0000 -5.0702
#
#
#
# Elastic Compliance Matrix: (Units=1/GPa)
#
#
# Indices 1 2 3 4 5 6 
#
# 1 0.014738 -0.001517 -0.002339 0.000000 -0.000584 0.000000
# 2 -0.001517 0.007177 -0.002681 0.000000 0.001942 0.000000
# 3 -0.002339 -0.002681 0.012284 0.000000 -0.003726 0.000000
# 4 0.000000 0.000000 0.000000 0.000784 0.000000 -0.013008
# 5 -0.000584 0.001942 -0.003726 0.000000 0.027383 0.000000
# 6 0.000000 0.000000 0.000000 -0.013008 0.000000 0.018482
#
#
# Mechanical properties :
#
#
# Convention : Reuss Voigt Hill
#
# Bulk Modulus (GPa) = 47.34062 54.15208 50.74635
# Shear Modulus (GPa) = 49.52203 -0.51440 24.50382
#
# Velocity S-wave (km/s) = 4.78350 -0.48752 3.36483
# Velocity P-wave (km/s) = 7.23762 4.97034 6.20836
#
# Compressibility (1/GPa) = 0.02112351
#
# Stress axis : x y z
#
# Youngs Moduli (GPa) = 67.85259 139.32713 81.40678
#
# Poissons Ratio (x) = 0.21140 0.19045
# Poissons Ratio (y) = 0.10295 0.21826
# Poissons Ratio (z) = 0.15874 0.37355
#
# Static dielectric constant tensor:
#      x y z
#    x 4.089190 0.000000 0.012110 
#    y 0.000000 4.805060 0.000000 
#    z 0.012110 0.000000 3.583650 
# 
# 
# High freq. dielectric constant tensor:
#      x y z
#    x 1.863880 0.000000 -0.006030 
#    y 0.000000 1.863470 0.000000 
#    z -0.006030 0.000000 1.836880 
# 
# From -- ./inp_files/30823.got.cif
#   From: 2010.06.25/outbox.cif.g09.slc.cpg/sg15_16_cif.got.tgz:30823.got - 2010.06.28 07:06:18.
