data_PCOD8149414
_publ_section_title
;
Structure prediction by ZEFSAII (Michael W. Deem and Ramdas Pophale) SiO2 
 PCOD8149414
Probable space group: C 2/C
;
_chemical_formula_sum "Si O2"
_cell_formula_units_Z 56
_cell_length_a 22.198170
_cell_length_b 16.107434
_cell_length_c 13.109544
_cell_angle_alpha 90.000000
_cell_angle_beta 33.882507
_cell_angle_gamma 90.000000
_cell_volume 2613.181066
_symmetry_space_group_name_H-M "C 2/C"
_symmetry_group_IT_number 15
_symmetry_cell_setting 'monoclinic'
loop_
_space_group_symop_operation_xyz
x,y,z
-x,y,1/2-z
-x,-y,-z
x,-y,1/2+z
1/2+x,1/2+y,z
1/2-x,1/2+y,1/2-z
1/2-x,1/2-y,-z
1/2+x,1/2-y,1/2+z
loop_
_atom_site_type_symbol
_atom_site_label
_atom_site_fract_x
_atom_site_fract_y
_atom_site_fract_z
Si Si1 0.860225 0.381060 0.586446
Si Si2 0.241649 0.242241 0.131105
Si Si3 0.422096 0.939042 0.952160
Si Si4 0.052099 0.871103 0.327410
Si Si5 0.812284 0.894463 0.165837
Si Si6 0.991085 0.707781 0.485842
Si Si7 0.844211 0.936284 0.520250
O O1 0.795271 0.347010 0.579925
O O2 0.928674 0.462933 0.463708
O O3 0.773606 0.397728 0.797330
O O4 0.938788 0.307254 0.511716
O O5 0.303401 0.311706 0.111146
O O6 0.116384 0.242693 0.334980
O O7 0.250000 0.250000 0.000000
O O8 0.500000 0.916415 0.750000
O O9 0.470638 0.885150 0.975463
O O10 0.296907 0.912339 0.114982
O O11 0.091712 0.893256 0.385907
O O12 0.053019 0.769656 0.319461
O O13 0.930045 0.901733 0.481231
O O14 0.126349 0.912909 0.136936
O O15 0.836540 0.965109 0.047960
#
# Coordination Sequence:
#
# PCOD8149414 Si02
#       7
#     8   8   8   8   8   8   8
#     4  11  23  45  65  97 138 177 223 277 336 402
#     4  11  25  44  68  97 135 174 226 279 336 406
#     4  10  25  41  68  99 134 175 226 277 334 402
#     4  11  22  42  71  96 137 174 223 281 339 396
#     4  10  23  46  65  98 134 178 224 279 338 404
#     4  11  24  43  68  99 135 169 230 280 328 406
#     4  10  24  41  66 100 134 177 223 277 337 404
#
# _framework density 21.429818999999998
#
# number of rings (size 3 to 8) (size 9 to 14) (size 15 to 20)
#    0.000    1.429    2.857    0.857    6.000    2.857 
#    5.143    0.000    0.000    0.000    0.000    0.000 
#    0.000    0.000    0.000    0.000    0.000    0.000 
#
# Total GULP energy -347052.444139 kJ/mol
# GULP energy per Si atom -12394.730148 kJ/mol
# Density = 2.138104 g / cm^3
# Si number density = 21.429819 Si / 1000 Ang^3
#
#
#
# Elastic Constant Matrix: (Units=GPa)
#
#
# Indices 1 2 3 4 5 6 
#
# 1 107.4687 36.0205 37.2942 0.0000 4.0329 0.0000
# 2 36.0205 120.6751 38.8942 0.0000 5.2702 0.0000
# 3 37.2942 38.8942 67.6663 0.0000 12.4833 0.0000
# 4 0.0000 0.0000 0.0000 27.3278 0.0000 -0.3568
# 5 4.0329 5.2702 12.4833 0.0000 31.4482 0.0000
# 6 0.0000 0.0000 0.0000 -0.3568 0.0000 27.0169
#
#
#
# Elastic Compliance Matrix: (Units=1/GPa)
#
#
# Indices 1 2 3 4 5 6 
#
# 1 0.011831 -0.001735 -0.005716 0.000000 0.001042 0.000000
# 2 -0.001735 0.010438 -0.005138 0.000000 0.000513 0.000000
# 3 -0.005716 -0.005138 0.022215 0.000000 -0.007224 0.000000
# 4 0.000000 0.000000 0.000000 0.036599 0.000000 0.000483
# 5 0.001042 0.000513 -0.007224 0.000000 0.034446 0.000000
# 6 0.000000 0.000000 0.000000 0.000483 0.000000 0.037020
#
#
# Mechanical properties :
#
#
# Convention : Reuss Voigt Hill
#
# Bulk Modulus (GPa) = 51.79661 57.80308 54.79985
# Shear Modulus (GPa) = 27.14991 29.39866 28.27429
#
# Velocity S-wave (km/s) = 3.56325 3.70788 3.63628
# Velocity P-wave (km/s) = 6.41497 6.73520 6.57703
#
# Compressibility (1/GPa) = 0.01930628
#
# Stress axis : x y z
#
# Youngs Moduli (GPa) = 84.52480 95.80166 45.01490
#
# Poissons Ratio (x) = 0.16619 0.25729
# Poissons Ratio (y) = 0.14663 0.23130
# Poissons Ratio (z) = 0.48312 0.49226
#
# Static dielectric constant tensor:
#      x y z
#    x 3.725860 0.000000 -0.233090 
#    y 0.000000 4.055530 0.000000 
#    z -0.233090 0.000000 4.158520 
# 
# 
# High freq. dielectric constant tensor:
#      x y z
#    x 1.838230 0.000000 -0.018460 
#    y 0.000000 1.854630 0.000000 
#    z -0.018460 0.000000 1.835530 
# 
# From -- ./inp_files/173776.got.cif
#   From: 2010.06.25/outbox.cif.g09.slc.cpg/sg15_87_cif.got.tgz:173776.got - 2010.06.28 07:06:18.
