data_PCOD8149290
_publ_section_title
;
Structure prediction by ZEFSAII (Michael W. Deem and Ramdas Pophale) SiO2 
 PCOD8149290
Probable space group: C 2/C
;
_chemical_formula_sum "Si O2"
_cell_formula_units_Z 36
_cell_length_a 8.756123
_cell_length_b 21.073709
_cell_length_c 8.935205
_cell_angle_alpha 90.000000
_cell_angle_beta 82.793639
_cell_angle_gamma 90.000000
_cell_volume 1635.735747
_symmetry_space_group_name_H-M "C 2/C"
_symmetry_group_IT_number 15
_symmetry_cell_setting 'monoclinic'
loop_
_space_group_symop_operation_xyz
x,y,z
-x,y,1/2-z
-x,-y,-z
x,-y,1/2+z
1/2+x,1/2+y,z
1/2-x,1/2+y,1/2-z
1/2-x,1/2-y,-z
1/2+x,1/2-y,1/2+z
loop_
_atom_site_type_symbol
_atom_site_label
_atom_site_fract_x
_atom_site_fract_y
_atom_site_fract_z
Si Si1 0.633630 0.038561 0.828763
Si Si2 0.998167 0.657063 0.000780
Si Si3 0.171860 0.989055 0.923210
Si Si4 0.000000 0.242692 0.250000
Si Si5 0.737262 0.855557 0.721016
O O1 0.500000 0.999633 0.750000
O O2 0.783988 0.043661 0.702182
O O3 0.562494 0.105795 0.876335
O O4 0.694900 0.002939 0.967851
O O5 0.849652 0.631819 0.110522
O O6 0.127712 0.672940 0.106648
O O7 0.958169 0.717367 0.903741
O O8 0.181694 0.920486 0.842451
O O9 0.000000 0.000000 0.000000
O O10 0.142941 0.199351 0.268941
#
# Coordination Sequence:
#
# PCOD8149290 Si02
#       5
#     8   8   8   4   8
#     4  11  24  41  69  94 131 174 229 272 325 405
#     4  10  23  45  65 100 129 175 226 268 327 397
#     4  11  26  43  65 100 138 174 219 282 345 393
#     4  12  22  42  72  96 134 174 222 272 332 392
#     4  10  25  42  67  97 136 171 217 279 332 388
#
# _framework density 22.008447
#
# number of rings (size 3 to 8) (size 9 to 14) (size 15 to 20)
#    0.000    1.333    1.111    2.667   12.444    0.000 
#    4.000    0.000    0.000    0.000    0.000    0.000 
#    0.000    0.000    0.000    0.000    0.000    0.000 
#
# Total GULP energy -223071.478660 kJ/mol
# GULP energy per Si atom -12392.859926 kJ/mol
# Density = 2.195835 g / cm^3
# Si number density = 22.008447 Si / 1000 Ang^3
#
#
#
# Elastic Constant Matrix: (Units=GPa)
#
#
# Indices 1 2 3 4 5 6 
#
# 1 78.3848 42.6754 64.5293 0.0000 -4.7010 0.0000
# 2 42.6754 86.8747 79.5423 0.0000 -7.1104 0.0000
# 3 64.5293 79.5423 176.1432 0.0000 -18.2236 0.0000
# 4 0.0000 0.0000 0.0000 44.1703 0.0000 -1.7111
# 5 -4.7010 -7.1104 -18.2236 0.0000 45.2932 0.0000
# 6 0.0000 0.0000 0.0000 -1.7111 0.0000 34.1765
#
#
#
# Elastic Compliance Matrix: (Units=1/GPa)
#
#
# Indices 1 2 3 4 5 6 
#
# 1 0.019575 -0.005183 -0.004909 0.000000 -0.000757 0.000000
# 2 -0.005183 0.021009 -0.007620 0.000000 -0.000306 0.000000
# 3 -0.004909 -0.007620 0.011207 0.000000 0.002803 0.000000
# 4 0.000000 0.000000 0.000000 0.022684 0.000000 0.001136
# 5 -0.000757 -0.000306 0.002803 0.000000 0.023080 0.000000
# 6 0.000000 0.000000 0.000000 0.001136 0.000000 0.029317
#
#
# Mechanical properties :
#
#
# Convention : Reuss Voigt Hill
#
# Bulk Modulus (GPa) = 61.10075 79.43296 70.26685
# Shear Modulus (GPa) = 29.80617 35.03838 32.42228
#
# Velocity S-wave (km/s) = 3.68408 3.99437 3.84236
# Velocity P-wave (km/s) = 6.77638 7.57916 7.18898
#
# Compressibility (1/GPa) = 0.01636641
#
# Stress axis : x y z
#
# Youngs Moduli (GPa) = 51.08438 47.59937 89.23339
#
# Poissons Ratio (x) = 0.24672 0.43805
# Poissons Ratio (y) = 0.26478 0.67994
# Poissons Ratio (z) = 0.25078 0.36270
#
# Static dielectric constant tensor:
#      x y z
#    x 4.226200 0.000000 0.191090 
#    y 0.000000 3.704490 0.000000 
#    z 0.191090 0.000000 4.523760 
# 
# 
# High freq. dielectric constant tensor:
#      x y z
#    x 1.872900 0.000000 0.008340 
#    y 0.000000 1.839960 0.000000 
#    z 0.008340 0.000000 1.900970 
# 
# From -- ./inp_files/23162.got.cif
#   From: 2010.06.25/outbox.cif.g09.slc.cpg/sg15_12_cif.got.tgz:23162.got - 2010.06.28 07:06:18.
