data_PCOD8149054
_publ_section_title
;
Structure prediction by ZEFSAII (Michael W. Deem and Ramdas Pophale) SiO2 
 PCOD8149054
Probable space group: C 2/C
;
_chemical_formula_sum "Si O2"
_cell_formula_units_Z 44
_cell_length_a 22.454309
_cell_length_b 8.937319
_cell_length_c 15.556859
_cell_angle_alpha 90.000000
_cell_angle_beta 140.435571
_cell_angle_gamma 90.000000
_cell_volume 1988.525430
_symmetry_space_group_name_H-M "C 2/C"
_symmetry_group_IT_number 15
_symmetry_cell_setting 'monoclinic'
loop_
_space_group_symop_operation_xyz
x,y,z
-x,y,1/2-z
-x,-y,-z
x,-y,1/2+z
1/2+x,1/2+y,z
1/2-x,1/2+y,1/2-z
1/2-x,1/2-y,-z
1/2+x,1/2-y,1/2+z
loop_
_atom_site_type_symbol
_atom_site_label
_atom_site_fract_x
_atom_site_fract_y
_atom_site_fract_z
Si Si1 0.850720 0.235958 0.070158
Si Si2 0.177865 0.717108 0.159523
Si Si3 0.045095 0.243466 0.654167
Si Si4 0.851025 0.614364 0.914129
Si Si5 0.500000 0.513428 0.750000
Si Si6 0.895958 0.555576 0.148146
O O1 0.904341 0.377923 0.170998
O O2 0.906212 0.085566 0.154459
O O3 0.750000 0.250000 0.000000
O O4 0.844398 0.237405 0.961535
O O5 0.104050 0.809988 0.136636
O O6 0.166493 0.538682 0.157283
O O7 0.283710 0.758878 0.301719
O O8 0.003690 0.110215 0.666794
O O9 0.126317 0.347324 0.791755
O O10 0.958464 0.339434 0.521152
O O11 0.829864 0.592170 0.993118
O O12 0.000000 0.621553 0.250000
#
# Coordination Sequence:
#
# PCOD8149054 Si02
#       6
#     8   8   8   8   4   8
#     4  11  27  45  67 100 140 180 224 283 349 404
#     4  11  27  42  69 102 138 182 225 286 343 411
#     4  11  24  45  73  99 135 182 234 282 334 408
#     4  10  23  44  63 101 137 175 226 278 345 398
#     4  12  26  44  76 102 132 184 232 288 328 408
#     4   9  19  44  66  92 133 176 219 268 341 405
#
# _framework density 22.126947999999999
#
# number of rings (size 3 to 8) (size 9 to 14) (size 15 to 20)
#    0.000    1.455    3.636    0.545   10.182    2.909 
#    0.000    0.000    0.000    0.000    0.000    0.000 
#    0.000    0.000    0.000    0.000    0.000    0.000 
#
# Total GULP energy -272636.957019 kJ/mol
# GULP energy per Si atom -12392.588955 kJ/mol
# Density = 2.207659 g / cm^3
# Si number density = 22.126948 Si / 1000 Ang^3
#
#
#
# Elastic Constant Matrix: (Units=GPa)
#
#
# Indices 1 2 3 4 5 6 
#
# 1 130.5207 35.6484 23.4583 0.0000 0.3115 0.0000
# 2 35.6484 115.6182 51.8445 0.0000 -2.5750 0.0000
# 3 23.4583 51.8445 86.0851 0.0000 7.9070 0.0000
# 4 0.0000 0.0000 0.0000 50.6737 0.0000 3.4717
# 5 0.3115 -2.5750 7.9070 0.0000 22.0380 0.0000
# 6 0.0000 0.0000 0.0000 3.4717 0.0000 20.9222
#
#
#
# Elastic Compliance Matrix: (Units=1/GPa)
#
#
# Indices 1 2 3 4 5 6 
#
# 1 0.008429 -0.002150 -0.001001 0.000000 -0.000011 0.000000
# 2 -0.002150 0.012763 -0.007487 0.000000 0.004208 0.000000
# 3 -0.001001 -0.007487 0.017039 0.000000 -0.006974 0.000000
# 4 0.000000 0.000000 0.000000 0.019961 0.000000 -0.003312
# 5 -0.000011 0.004208 -0.006974 0.000000 0.048370 0.000000
# 6 0.000000 0.000000 0.000000 -0.003312 0.000000 0.048346
#
#
# Mechanical properties :
#
#
# Convention : Reuss Voigt Hill
#
# Bulk Modulus (GPa) = 58.98208 61.56960 60.27584
# Shear Modulus (GPa) = 27.49731 33.47829 30.48780
#
# Velocity S-wave (km/s) = 3.52903 3.89396 3.71598
# Velocity P-wave (km/s) = 6.58175 6.93565 6.76102
#
# Compressibility (1/GPa) = 0.01695430
#
# Stress axis : x y z
#
# Youngs Moduli (GPa) = 118.64044 78.35021 58.68949
#
# Poissons Ratio (x) = 0.16848 0.05874
# Poissons Ratio (y) = 0.25512 0.43942
# Poissons Ratio (z) = 0.11873 0.58662
#
# Static dielectric constant tensor:
#      x y z
#    x 4.571200 0.000000 -0.216090 
#    y 0.000000 4.107980 0.000000 
#    z -0.216090 0.000000 4.012060 
# 
# 
# High freq. dielectric constant tensor:
#      x y z
#    x 1.866670 0.000000 -0.009340 
#    y 0.000000 1.871830 0.000000 
#    z -0.009340 0.000000 1.870390 
# 
# From -- ./inp_files/218731.got.cif
#   From: 2010.06.25/outbox.cif.g09.slc.cpg/sg15_110_cif.got.tgz:218731.got - 2010.06.28 07:06:18.
