data_PCOD8149993
_publ_section_title
;
Structure prediction by ZEFSAII (Michael W. Deem and Ramdas Pophale) SiO2 
 PCOD8149993
Probable space group: C 2/C
;
_chemical_formula_sum "Si O2"
_cell_formula_units_Z 56
_cell_length_a 18.958798
_cell_length_b 18.884417
_cell_length_c 14.524388
_cell_angle_alpha 90.000000
_cell_angle_beta 150.348441
_cell_angle_gamma 90.000000
_cell_volume 2572.617933
_symmetry_space_group_name_H-M "C 2/C"
_symmetry_group_IT_number 15
_symmetry_cell_setting 'monoclinic'
loop_
_space_group_symop_operation_xyz
x,y,z
-x,y,1/2-z
-x,-y,-z
x,-y,1/2+z
1/2+x,1/2+y,z
1/2-x,1/2+y,1/2-z
1/2-x,1/2-y,-z
1/2+x,1/2-y,1/2+z
loop_
_atom_site_type_symbol
_atom_site_label
_atom_site_fract_x
_atom_site_fract_y
_atom_site_fract_z
Si Si1 0.536414 0.206834 0.397079
Si Si2 0.168359 0.319947 0.433015
Si Si3 0.342311 0.445472 0.089704
Si Si4 0.135560 0.413300 0.564963
Si Si5 0.756253 0.830183 0.861536
Si Si6 0.719341 0.930934 0.140336
Si Si7 0.804515 0.569547 0.682716
O O1 0.500000 0.219124 0.250000
O O2 0.391232 0.210828 0.289627
O O3 0.634355 0.269951 0.548286
O O4 0.607649 0.130588 0.491676
O O5 0.250000 0.250000 0.500000
O O6 0.201907 0.358442 0.566832
O O7 0.236602 0.367960 0.431152
O O8 0.000000 0.306937 0.250000
O O9 0.500000 0.475405 0.250000
O O10 0.338030 0.433028 0.195150
O O11 0.318203 0.366680 0.023097
O O12 0.225934 0.497390 0.909410
O O13 0.229496 0.394439 0.760256
O O14 0.147138 0.493345 0.545621
O O15 0.967614 0.411652 0.394167
O O16 0.779504 0.926450 0.314167
#
# Coordination Sequence:
#
# PCOD8149993 Si02
#       7
#     8   8   8   8   8   8   8
#     4  12  26  43  71 104 144 194 233 290 362 428
#     4  10  24  43  68 100 139 182 235 291 351 421
#     4  12  27  45  68 102 148 186 237 302 358 429
#     4  11  23  44  74 103 135 183 242 300 348 426
#     4  12  26  45  68 105 147 186 238 290 356 434
#     4  12  24  43  73 104 133 187 240 293 365 417
#     4  11  23  45  71 102 136 182 243 292 358 428
#
# _framework density 21.767709
#
# number of rings (size 3 to 8) (size 9 to 14) (size 15 to 20)
#    0.000    0.571    5.714    2.143    4.000    1.143 
#    0.000    0.000    0.000    0.000    0.000    0.000 
#    0.000    0.000    0.000    0.000    0.000    0.000 
#
# Total GULP energy -346867.623688 kJ/mol
# GULP energy per Si atom -12388.129417 kJ/mol
# Density = 2.171817 g / cm^3
# Si number density = 21.767709 Si / 1000 Ang^3
#
#
#
# Elastic Constant Matrix: (Units=GPa)
#
#
# Indices 1 2 3 4 5 6 
#
# 1 150.9883 36.5560 37.7443 0.0000 -11.2195 0.0000
# 2 36.5560 136.1265 33.4944 0.0000 4.0129 0.0000
# 3 37.7443 33.4944 62.7543 0.0000 1.4301 0.0000
# 4 0.0000 0.0000 0.0000 20.8426 0.0000 -3.8098
# 5 -11.2195 4.0129 1.4301 0.0000 19.1640 0.0000
# 6 0.0000 0.0000 0.0000 -3.8098 0.0000 40.0157
#
#
#
# Elastic Compliance Matrix: (Units=1/GPa)
#
#
# Indices 1 2 3 4 5 6 
#
# 1 0.008492 -0.001332 -0.004524 0.000000 0.005588 0.000000
# 2 -0.001332 0.008705 -0.003792 0.000000 -0.002320 0.000000
# 3 -0.004524 -0.003792 0.020758 0.000000 -0.003403 0.000000
# 4 0.000000 0.000000 0.000000 0.048828 0.000000 0.004649
# 5 0.005588 -0.002320 -0.003403 0.000000 0.056192 0.000000
# 6 0.000000 0.000000 0.000000 0.004649 0.000000 0.025433
#
#
# Mechanical properties :
#
#
# Convention : Reuss Voigt Hill
#
# Bulk Modulus (GPa) = 53.59519 62.82872 58.21195
# Shear Modulus (GPa) = 25.78329 32.14273 28.96301
#
# Velocity S-wave (km/s) = 3.44535 3.84686 3.65163
# Velocity P-wave (km/s) = 6.36413 6.97546 6.67679
#
# Compressibility (1/GPa) = 0.01865839
#
# Stress axis : x y z
#
# Youngs Moduli (GPa) = 117.76350 114.87238 48.17484
#
# Poissons Ratio (x) = 0.15301 0.21793
# Poissons Ratio (y) = 0.15686 0.18270
# Poissons Ratio (z) = 0.53273 0.43564
#
# Static dielectric constant tensor:
#      x y z
#    x 4.215440 0.000000 -0.159660 
#    y 0.000000 4.033440 0.000000 
#    z -0.159660 0.000000 3.708370 
# 
# 
# High freq. dielectric constant tensor:
#      x y z
#    x 1.866580 0.000000 -0.011840 
#    y 0.000000 1.869780 0.000000 
#    z -0.011840 0.000000 1.831900 
# 
# From -- ./inp_files/163820.got.cif
#   From: 2010.06.25/outbox.cif.g09.slc.cpg/sg15_82_cif.got.tgz:163820.got - 2010.06.28 07:06:18.
