data_PCOD8149550
_publ_section_title
;
Structure prediction by ZEFSAII (Michael W. Deem and Ramdas Pophale) SiO2 
 PCOD8149550
Probable space group: C 2/C
;
_chemical_formula_sum "Si O2"
_cell_formula_units_Z 52
_cell_length_a 30.902958
_cell_length_b 14.800301
_cell_length_c 9.529032
_cell_angle_alpha 90.000000
_cell_angle_beta 142.975974
_cell_angle_gamma 90.000000
_cell_volume 2624.363433
_symmetry_space_group_name_H-M "C 2/C"
_symmetry_group_IT_number 15
_symmetry_cell_setting 'monoclinic'
loop_
_space_group_symop_operation_xyz
x,y,z
-x,y,1/2-z
-x,-y,-z
x,-y,1/2+z
1/2+x,1/2+y,z
1/2-x,1/2+y,1/2-z
1/2-x,1/2-y,-z
1/2+x,1/2-y,1/2+z
loop_
_atom_site_type_symbol
_atom_site_label
_atom_site_fract_x
_atom_site_fract_y
_atom_site_fract_z
Si Si1 0.331656 0.626086 0.109277
Si Si2 0.831251 0.375437 0.355575
Si Si3 0.053605 0.522216 0.761852
Si Si4 0.587858 0.447727 0.224470
Si Si5 0.188235 0.175947 0.126642
Si Si6 0.000000 0.004076 0.250000
Si Si7 0.150031 0.325914 0.410685
O O1 0.384821 0.549926 0.195146
O O2 0.326993 0.627248 0.265232
O O3 0.366687 0.719735 0.146839
O O4 0.253208 0.603483 0.842129
O O5 0.882371 0.448074 0.563333
O O6 0.843634 0.276893 0.454671
O O7 0.849169 0.374319 0.237858
O O8 0.090242 0.621229 0.845555
O O9 0.000000 0.522169 0.750000
O O10 0.000000 0.500000 0.500000
O O11 0.650888 0.375146 0.400835
O O12 0.536505 0.438042 0.228209
O O13 0.552001 0.431781 0.978573
O O14 0.272684 0.169555 0.314235
#
# Coordination Sequence:
#
# PCOD8149550 Si02
#       7
#     8   8   8   8   8   4   8
#     4   9  18  36  65  86 113 148 200 249 292 337
#     4   9  19  38  61  90 110 151 205 244 284 352
#     4  12  23  40  58  88 126 162 193 240 301 361
#     4  11  19  40  54  87 113 156 186 238 293 341
#     4   9  18  36  66  86 110 150 203 248 287 340
#     4  10  24  34  52  78 122 146 192 220 282 368
#     4   9  19  38  60  90 113 149 202 245 287 351
#
# _framework density 19.814329000000001
#
# number of rings (size 3 to 8) (size 9 to 14) (size 15 to 20)
#    0.000    2.154    3.077    2.769    0.000    0.000 
#    8.308    0.000    0.000    3.692    0.000    0.000 
#    0.000    0.000    0.000    0.000    0.000    0.000 
#
# Total GULP energy -322221.919563 kJ/mol
# GULP energy per Si atom -12393.150752 kJ/mol
# Density = 1.976923 g / cm^3
# Si number density = 19.814329 Si / 1000 Ang^3
#
#
#
# Elastic Constant Matrix: (Units=GPa)
#
#
# Indices 1 2 3 4 5 6 
#
# 1 70.3142 34.1282 32.4613 0.0000 1.2133 0.0000
# 2 34.1282 104.1644 64.3922 0.0000 11.1132 0.0000
# 3 32.4613 64.3922 152.0716 0.0000 -4.9667 0.0000
# 4 0.0000 0.0000 0.0000 24.3663 0.0000 2.9666
# 5 1.2133 11.1132 -4.9667 0.0000 26.0597 0.0000
# 6 0.0000 0.0000 0.0000 2.9666 0.0000 28.8222
#
#
#
# Elastic Compliance Matrix: (Units=1/GPa)
#
#
# Indices 1 2 3 4 5 6 
#
# 1 0.017266 -0.004731 -0.001653 0.000000 0.000899 0.000000
# 2 -0.004731 0.015551 -0.005820 0.000000 -0.007521 0.000000
# 3 -0.001653 -0.005820 0.009536 0.000000 0.004377 0.000000
# 4 0.000000 0.000000 0.000000 0.041561 0.000000 -0.004278
# 5 0.000899 -0.007521 0.004377 0.000000 0.042373 0.000000
# 6 0.000000 0.000000 0.000000 -0.004278 0.000000 0.035136
#
#
# Mechanical properties :
#
#
# Convention : Reuss Voigt Hill
#
# Bulk Modulus (GPa) = 55.72917 65.39038 60.55978
# Shear Modulus (GPa) = 26.06714 28.88755 27.47735
#
# Velocity S-wave (km/s) = 3.63101 3.82240 3.72794
# Velocity P-wave (km/s) = 6.76504 7.24943 7.01142
#
# Compressibility (1/GPa) = 0.01794392
#
# Stress axis : x y z
#
# Youngs Moduli (GPa) = 57.91821 64.30581 104.86356
#
# Poissons Ratio (x) = 0.30423 0.17334
# Poissons Ratio (y) = 0.27401 0.61035
# Poissons Ratio (z) = 0.09574 0.37429
#
# Static dielectric constant tensor:
#      x y z
#    x 3.396070 0.000000 0.160380 
#    y 0.000000 3.449540 0.000000 
#    z 0.160380 0.000000 3.808050 
# 
# 
# High freq. dielectric constant tensor:
#      x y z
#    x 1.755720 0.000000 0.011400 
#    y 0.000000 1.760920 0.000000 
#    z 0.011400 0.000000 1.783520 
# 
# From -- ./inp_files/70196.got.cif
#   From: 2010.06.25/outbox.cif.g09.slc.cpg/sg15_36_cif.got.tgz:70196.got - 2010.06.28 07:06:18.
