data_PCOD8149692
_publ_section_title
;
Structure prediction by ZEFSAII (Michael W. Deem and Ramdas Pophale) SiO2 
 PCOD8149692
Probable space group: C 2/C
;
_chemical_formula_sum "Si O2"
_cell_formula_units_Z 52
_cell_length_a 10.797762
_cell_length_b 9.461242
_cell_length_c 25.984016
_cell_angle_alpha 90.000000
_cell_angle_beta 120.324853
_cell_angle_gamma 90.000000
_cell_volume 2291.331082
_symmetry_space_group_name_H-M "C 2/C"
_symmetry_group_IT_number 15
_symmetry_cell_setting 'monoclinic'
loop_
_space_group_symop_operation_xyz
x,y,z
-x,y,1/2-z
-x,-y,-z
x,-y,1/2+z
1/2+x,1/2+y,z
1/2-x,1/2+y,1/2-z
1/2-x,1/2-y,-z
1/2+x,1/2-y,1/2+z
loop_
_atom_site_type_symbol
_atom_site_label
_atom_site_fract_x
_atom_site_fract_y
_atom_site_fract_z
Si Si1 0.541432 0.265699 0.862733
Si Si2 0.762164 0.079353 0.270767
Si Si3 0.500000 0.760364 0.750000
Si Si4 0.730350 0.973627 0.555003
Si Si5 0.548043 0.293232 0.373379
Si Si6 0.980253 0.492254 0.581068
Si Si7 0.256449 0.205241 0.685619
O O1 0.419831 0.380637 0.824729
O O2 0.660113 0.343632 0.922047
O O3 0.477527 0.134503 0.880231
O O4 0.612238 0.202643 0.825839
O O5 0.643813 0.148173 0.282540
O O6 0.746622 0.138142 0.209322
O O7 0.725464 0.912012 0.265014
O O8 0.488134 0.670916 0.694495
O O9 0.815550 0.120781 0.578902
O O10 0.620688 0.947020 0.578757
O O11 0.651707 0.976581 0.484354
O O12 0.399078 0.329985 0.372937
O O13 0.574045 0.126853 0.390187
#
# Coordination Sequence:
#
# PCOD8149692 Si02
#       7
#     8   8   4   8   8   8   8
#     4  12  24  44  69  97 136 174 226 281 336 402
#     4  11  25  42  65  97 135 175 218 273 332 404
#     4  10  24  40  68  98 132 176 220 266 342 398
#     4  11  24  46  69 100 134 179 233 280 339 396
#     4  11  22  45  66  98 141 174 225 281 333 405
#     4  11  25  43  71  98 135 183 225 284 339 399
#     4  11  25  42  66  99 135 177 223 270 342 404
#
# _framework density 22.694232
#
# number of rings (size 3 to 8) (size 9 to 14) (size 15 to 20)
#    0.000    0.923    3.077    3.231    6.462    2.462 
#    0.000    0.769    0.000    0.000    0.000    0.000 
#    0.000    0.000    0.000    0.000    0.000    0.000 
#
# Total GULP energy -322311.214520 kJ/mol
# GULP energy per Si atom -12396.585174 kJ/mol
# Density = 2.264258 g / cm^3
# Si number density = 22.694232 Si / 1000 Ang^3
#
#
#
# Elastic Constant Matrix: (Units=GPa)
#
#
# Indices 1 2 3 4 5 6 
#
# 1 96.3373 4.9185 23.5073 0.0000 8.2937 0.0000
# 2 4.9185 87.1930 2.2858 0.0000 -10.4599 0.0000
# 3 23.5073 2.2858 69.1488 0.0000 -3.2029 0.0000
# 4 0.0000 0.0000 0.0000 34.7748 0.0000 3.8419
# 5 8.2937 -10.4599 -3.2029 0.0000 35.1736 0.0000
# 6 0.0000 0.0000 0.0000 3.8419 0.0000 33.7516
#
#
#
# Elastic Compliance Matrix: (Units=1/GPa)
#
#
# Indices 1 2 3 4 5 6 
#
# 1 0.011728 -0.000965 -0.004114 0.000000 -0.003427 0.000000
# 2 -0.000965 0.011976 0.000108 0.000000 0.003799 0.000000
# 3 -0.004114 0.000108 0.015970 0.000000 0.002456 0.000000
# 4 0.000000 0.000000 0.000000 0.029123 0.000000 -0.003315
# 5 -0.003427 0.003799 0.002456 0.000000 0.030592 0.000000
# 6 0.000000 0.000000 0.000000 -0.003315 0.000000 0.030006
#
#
# Mechanical properties :
#
#
# Convention : Reuss Voigt Hill
#
# Bulk Modulus (GPa) = 33.63226 34.90027 34.26627
# Shear Modulus (GPa) = 33.50143 35.53782 34.51962
#
# Velocity S-wave (km/s) = 3.84631 3.96149 3.90433
# Velocity P-wave (km/s) = 5.88026 6.02797 5.95457
#
# Compressibility (1/GPa) = 0.02973336
#
# Stress axis : x y z
#
# Youngs Moduli (GPa) = 85.26373 83.49950 62.61625
#
# Poissons Ratio (x) = 0.08056 0.25760
# Poissons Ratio (y) = 0.08227 -0.00677
# Poissons Ratio (z) = 0.35077 -0.00902
#
# Static dielectric constant tensor:
#      x y z
#    x 4.241860 0.000000 0.206840 
#    y 0.000000 3.993630 0.000000 
#    z 0.206840 0.000000 3.909600 
# 
# 
# High freq. dielectric constant tensor:
#      x y z
#    x 1.908740 0.000000 0.019990 
#    y 0.000000 1.897690 0.000000 
#    z 0.019990 0.000000 1.882320 
# 
# From -- ./inp_files/291099.got.cif
#   From: 2010.06.25/outbox.cif.g09.slc.cpg/sg15_146_cif.got.tgz:291099.got - 2010.06.28 07:06:18.
