data_PCOD8149377
_publ_section_title
;
Structure prediction by ZEFSAII (Michael W. Deem and Ramdas Pophale) SiO2 
 PCOD8149377
Probable space group: C 2/C
;
_chemical_formula_sum "Si O2"
_cell_formula_units_Z 20
_cell_length_a 10.948961
_cell_length_b 11.319223
_cell_length_c 7.708439
_cell_angle_alpha 90.000000
_cell_angle_beta 47.429687
_cell_angle_gamma 90.000000
_cell_volume 703.554712
_symmetry_space_group_name_H-M "C 2/C"
_symmetry_group_IT_number 15
_symmetry_cell_setting 'monoclinic'
loop_
_space_group_symop_operation_xyz
x,y,z
-x,y,1/2-z
-x,-y,-z
x,-y,1/2+z
1/2+x,1/2+y,z
1/2-x,1/2+y,1/2-z
1/2-x,1/2-y,-z
1/2+x,1/2-y,1/2+z
loop_
_atom_site_type_symbol
_atom_site_label
_atom_site_fract_x
_atom_site_fract_y
_atom_site_fract_z
Si Si1 0.500000 0.119165 0.250000
Si Si2 0.489027 0.297657 0.952934
Si Si3 0.330907 0.478868 0.523815
O O1 0.533319 0.195795 0.387277
O O2 0.336335 0.038497 0.427548
O O3 0.500000 0.242228 0.750000
O O4 0.669356 0.388857 0.393795
O O5 0.652786 0.377933 0.840998
O O6 0.500000 0.462717 0.250000
#
# Coordination Sequence:
#
# PCOD8149377 Si02
#       3
#     4   8   8
#     4  12  24  48  78 102 144 200 240 296 374 434
#     4  10  23  45  72 106 151 186 240 312 358 430
#     4  10  23  47  72 105 152 187 238 313 360 427
#
# _framework density 28.427071000000002
#
# number of rings (size 3 to 8) (size 9 to 14) (size 15 to 20)
#    0.000    1.600    2.000    1.200    2.800    1.600 
#    0.000   26.000    0.000    0.000    0.000    0.000 
#    0.000    0.000    0.000    0.000    0.000    0.000 
#
# Total GULP energy -123908.842649 kJ/mol
# GULP energy per Si atom -12390.884265 kJ/mol
# Density = 2.836237 g / cm^3
# Si number density = 28.427071 Si / 1000 Ang^3
#
#
#
# Elastic Constant Matrix: (Units=GPa)
#
#
# Indices 1 2 3 4 5 6 
#
# 1 228.7557 78.4535 96.9423 0.0000 -23.3282 0.0000
# 2 78.4535 78.8590 23.6482 0.0000 -18.4509 0.0000
# 3 96.9423 23.6482 104.5493 0.0000 -3.9694 0.0000
# 4 0.0000 0.0000 0.0000 -11.0618 0.0000 20.6797
# 5 -23.3282 -18.4509 -3.9694 0.0000 67.4659 0.0000
# 6 0.0000 0.0000 0.0000 20.6797 0.0000 36.0161
#
#
#
# Elastic Compliance Matrix: (Units=1/GPa)
#
#
# Indices 1 2 3 4 5 6 
#
# 1 0.010548 -0.007866 -0.007963 0.000000 0.001028 0.000000
# 2 -0.007866 0.020372 0.002800 0.000000 0.003016 0.000000
# 3 -0.007963 0.002800 0.016276 0.000000 -0.001030 0.000000
# 4 0.000000 0.000000 0.000000 -0.043600 0.000000 0.025034
# 5 0.001028 0.003016 -0.001030 0.000000 0.015942 0.000000
# 6 0.000000 0.000000 0.000000 0.025034 0.000000 0.013391
#
#
# Mechanical properties :
#
#
# Convention : Reuss Voigt Hill
#
# Bulk Modulus (GPa) = 47.30496 90.02798 68.66647
# Shear Modulus (GPa) = 75.71987 32.69204 54.20595
#
# Velocity S-wave (km/s) = 5.16666 3.39489 4.37148
# Velocity P-wave (km/s) = 7.22976 6.86335 7.04894
#
# Compressibility (1/GPa) = 0.02113943
#
# Stress axis : x y z
#
# Youngs Moduli (GPa) = 94.80165 49.08612 61.44125
#
# Poissons Ratio (x) = 0.38610 0.48923
# Poissons Ratio (y) = 0.74569 -0.17203
# Poissons Ratio (z) = 0.75487 -0.13744
#
# Static dielectric constant tensor:
#      x y z
#    x 5.681460 0.000000 0.375250 
#    y 0.000000 5.317130 0.000000 
#    z 0.375250 0.000000 2.151530 
# 
# 
# High freq. dielectric constant tensor:
#      x y z
#    x 2.178340 0.000000 0.023210 
#    y 0.000000 2.140380 0.000000 
#    z 0.023210 0.000000 2.122930 
# 
# From -- ./inp_files/26882.got.cif
#   From: 2010.06.25/outbox.cif.g09.slc.cpg/sg15_14_cif.got.tgz:26882.got - 2010.06.28 07:06:18.
