data_PCOD8149234
_publ_section_title
;
Structure prediction by ZEFSAII (Michael W. Deem and Ramdas Pophale) SiO2 
 PCOD8149234
Probable space group: C 2/C
;
_chemical_formula_sum "Si O2"
_cell_formula_units_Z 40
_cell_length_a 22.803474
_cell_length_b 6.105947
_cell_length_c 25.783134
_cell_angle_alpha 90.000000
_cell_angle_beta 30.048098
_cell_angle_gamma 90.000000
_cell_volume 1797.589856
_symmetry_space_group_name_H-M "C 2/C"
_symmetry_group_IT_number 15
_symmetry_cell_setting 'monoclinic'
loop_
_space_group_symop_operation_xyz
x,y,z
-x,y,1/2-z
-x,-y,-z
x,-y,1/2+z
1/2+x,1/2+y,z
1/2-x,1/2+y,1/2-z
1/2-x,1/2-y,-z
1/2+x,1/2-y,1/2+z
loop_
_atom_site_type_symbol
_atom_site_label
_atom_site_fract_x
_atom_site_fract_y
_atom_site_fract_z
Si Si1 0.160292 0.941036 0.057290
Si Si2 0.008085 0.631117 0.120496
Si Si3 0.411649 0.443071 0.113101
Si Si4 0.766598 0.669134 0.064908
Si Si5 0.677060 0.789846 0.240509
O O1 0.034671 0.828568 0.141020
O O2 0.159850 0.097592 0.108184
O O3 0.250000 0.750000 0.000000
O O4 0.196407 0.083990 0.978972
O O5 0.963710 0.727549 0.100025
O O6 0.905440 0.478096 0.220999
O O7 0.125404 0.494956 0.021904
O O8 0.401981 0.642378 0.161086
O O9 0.282905 0.397713 0.190445
O O10 0.500000 0.500000 0.000000
O O11 0.724135 0.650819 0.156300
#
# Coordination Sequence:
#
# PCOD8149234 Si02
#       5
#     8   8   8   8   8
#     4   9  20  44  70  98 134 180 229 294 355 412
#     4  11  23  43  69  98 138 180 231 292 347 417
#     4  12  27  44  68 100 139 186 234 292 348 416
#     4  10  23  44  71  99 138 183 235 290 351 428
#     4  12  25  43  67 103 139 183 240 282 358 421
#
# _framework density 22.252016000000001
#
# number of rings (size 3 to 8) (size 9 to 14) (size 15 to 20)
#    0.000    1.200    2.000    3.600    2.800    4.800 
#    0.000   24.000    0.000    0.000    0.000    0.000 
#    0.000    0.000    0.000    0.000    0.000    0.000 
#
# Total GULP energy -247999.612805 kJ/mol
# GULP energy per Si atom -12399.980640 kJ/mol
# Density = 2.220137 g / cm^3
# Si number density = 22.252016 Si / 1000 Ang^3
#
#
#
# Elastic Constant Matrix: (Units=GPa)
#
#
# Indices 1 2 3 4 5 6 
#
# 1 120.3044 46.6685 47.3821 0.0290 -14.8096 -0.0775
# 2 46.6685 109.0700 44.3793 0.0752 -9.4729 -0.2240
# 3 47.3821 44.3793 71.3826 0.0642 -13.4048 0.0221
# 4 0.0290 0.0752 0.0642 32.8646 0.0757 -12.5408
# 5 -14.8096 -9.4729 -13.4048 0.0757 32.1365 0.0971
# 6 -0.0775 -0.2240 0.0221 -12.5408 0.0971 56.7817
#
#
#
# Elastic Compliance Matrix: (Units=1/GPa)
#
#
# Indices 1 2 3 4 5 6 
#
# 1 0.011886 -0.002479 -0.005921 0.000004 0.002277 0.000006
# 2 -0.002479 0.012797 -0.006311 0.000005 -0.000003 0.000051
# 3 -0.005921 -0.006311 0.022786 -0.000060 0.004916 -0.000064
# 4 0.000004 0.000005 -0.000060 0.033229 -0.000123 0.007339
# 5 0.002277 -0.000003 0.004916 -0.000123 0.034217 -0.000084
# 6 0.000006 0.000051 -0.000064 0.007339 -0.000084 0.019233
#
#
# Mechanical properties :
#
#
# Convention : Reuss Voigt Hill
#
# Bulk Modulus (GPa) = 55.41015 64.17967 59.79491
# Shear Modulus (GPa) = 29.48372 35.17837 32.33104
#
# Velocity S-wave (km/s) = 3.64399 3.98038 3.81589
# Velocity P-wave (km/s) = 6.53147 7.07314 6.80770
#
# Compressibility (1/GPa) = 0.01804723
#
# Stress axis : x y z
#
# Youngs Moduli (GPa) = 84.13145 78.14443 43.88620
#
# Poissons Ratio (x) = 0.19371 0.25985
# Poissons Ratio (y) = 0.20855 0.27697
# Poissons Ratio (z) = 0.49815 0.49318
#
# Static dielectric constant tensor:
#      x y z
#    x 4.698820 0.000310 -0.276700 
#    y 0.000310 4.323510 0.000050 
#    z -0.276700 0.000050 3.655330 
# 
# 
# High freq. dielectric constant tensor:
#      x y z
#    x 1.899740 -0.000060 -0.017390 
#    y -0.000060 1.892480 0.000020 
#    z -0.017390 0.000020 1.848570 
# 
# From -- ./inp_files/170556.got.cif
#   From: 2010.06.25/outbox.cif.g09.slc.cpg/sg15_86_cif.got.tgz:170556.got - 2010.06.28 07:06:18.
