data_PCOD8149764
_publ_section_title
;
Structure prediction by ZEFSAII (Michael W. Deem and Ramdas Pophale) SiO2 
 PCOD8149764
Probable space group: C 2/C
;
_chemical_formula_sum "Si O2"
_cell_formula_units_Z 52
_cell_length_a 17.961011
_cell_length_b 9.608072
_cell_length_c 16.779321
_cell_angle_alpha 90.000000
_cell_angle_beta 124.587384
_cell_angle_gamma 90.000000
_cell_volume 2383.851260
_symmetry_space_group_name_H-M "C 2/C"
_symmetry_group_IT_number 15
_symmetry_cell_setting 'monoclinic'
loop_
_space_group_symop_operation_xyz
x,y,z
-x,y,1/2-z
-x,-y,-z
x,-y,1/2+z
1/2+x,1/2+y,z
1/2-x,1/2+y,1/2-z
1/2-x,1/2-y,-z
1/2+x,1/2-y,1/2+z
loop_
_atom_site_type_symbol
_atom_site_label
_atom_site_fract_x
_atom_site_fract_y
_atom_site_fract_z
Si Si1 0.254599 0.723187 0.095298
Si Si2 0.571548 0.150950 0.614446
Si Si3 0.888078 0.077732 0.280888
Si Si4 0.000000 0.128305 0.750000
Si Si5 0.674177 0.182940 0.397093
Si Si6 0.110482 0.508427 0.987783
Si Si7 0.734088 0.987862 0.300664
O O1 0.352773 0.665494 0.182624
O O2 0.226170 0.866451 0.119723
O O3 0.250000 0.750000 0.000000
O O4 0.184074 0.603363 0.076822
O O5 0.573497 0.315830 0.630119
O O6 0.474299 0.102598 0.583008
O O7 0.587342 0.122857 0.530184
O O8 0.639583 0.061632 0.708411
O O9 0.803717 0.002515 0.270785
O O10 0.965140 0.968562 0.301496
O O11 0.086939 0.217782 0.831072
O O12 0.750000 0.250000 0.500000
O O13 0.718212 0.133151 0.339755
O O14 0.642748 0.043056 0.421415
#
# Coordination Sequence:
#
# PCOD8149764 Si02
#       7
#     8   8   8   4   8   8   8
#     4  11  23  42  73 100 135 180 236 297 356 430
#     4  10  24  41  69  98 135 179 229 294 347 429
#     4  11  26  45  68 101 141 185 235 290 363 421
#     4  12  30  44  72 104 150 186 248 296 360 432
#     4  12  26  44  72 101 143 186 234 292 362 426
#     4  11  22  44  68 102 135 174 237 287 363 426
#     4  11  24  43  71  99 138 184 233 287 361 426
#
# _framework density 21.813441000000001
#
# number of rings (size 3 to 8) (size 9 to 14) (size 15 to 20)
#    0.000    0.923    3.077    2.769    6.462    2.462 
#    0.000    2.308    0.000    0.000    0.000    0.000 
#    0.000    0.000    0.000    0.000    0.000    0.000 
#
# Total GULP energy -322397.143202 kJ/mol
# GULP energy per Si atom -12399.890123 kJ/mol
# Density = 2.176379 g / cm^3
# Si number density = 21.813441 Si / 1000 Ang^3
#
#
#
# Elastic Constant Matrix: (Units=GPa)
#
#
# Indices 1 2 3 4 5 6 
#
# 1 105.4199 36.8423 23.4439 0.0000 4.6211 0.0000
# 2 36.8423 107.2151 28.4964 0.0000 11.3500 0.0000
# 3 23.4439 28.4964 72.5111 0.0000 7.2221 0.0000
# 4 0.0000 0.0000 0.0000 37.3014 0.0000 6.3018
# 5 4.6211 11.3500 7.2221 0.0000 35.1241 0.0000
# 6 0.0000 0.0000 0.0000 6.3018 0.0000 38.1111
#
#
#
# Elastic Compliance Matrix: (Units=1/GPa)
#
#
# Indices 1 2 3 4 5 6 
#
# 1 0.011125 -0.003206 -0.002342 0.000000 0.000054 0.000000
# 2 -0.003206 0.011572 -0.003247 0.000000 -0.002650 0.000000
# 3 -0.002342 -0.003247 0.016017 0.000000 -0.001936 0.000000
# 4 0.000000 0.000000 0.000000 0.027579 0.000000 -0.004560
# 5 0.000054 -0.002650 -0.001936 0.000000 0.029718 0.000000
# 6 0.000000 0.000000 0.000000 -0.004560 0.000000 0.026993
#
#
# Mechanical properties :
#
#
# Convention : Reuss Voigt Hill
#
# Bulk Modulus (GPa) = 47.34124 51.41235 49.37680
# Shear Modulus (GPa) = 33.86689 35.19821 34.53255
#
# Velocity S-wave (km/s) = 3.94454 4.02132 3.98312
# Velocity P-wave (km/s) = 6.51888 6.72173 6.62108
#
# Compressibility (1/GPa) = 0.02112323
#
# Stress axis : x y z
#
# Youngs Moduli (GPa) = 89.88898 86.41274 62.43247
#
# Poissons Ratio (x) = 0.27704 0.14623
# Poissons Ratio (y) = 0.28818 0.20274
# Poissons Ratio (z) = 0.21054 0.28062
#
# Static dielectric constant tensor:
#      x y z
#    x 4.052880 0.000000 -0.003750 
#    y 0.000000 4.124880 0.000000 
#    z -0.003750 0.000000 4.030840 
# 
# 
# High freq. dielectric constant tensor:
#      x y z
#    x 1.860360 0.000000 -0.000920 
#    y 0.000000 1.866100 0.000000 
#    z -0.000920 0.000000 1.861660 
# 
# From -- ./inp_files/209686.got.cif
#   From: 2010.06.25/outbox.cif.g09.slc.cpg/sg15_105_cif.got.tgz:209686.got - 2010.06.28 07:06:18.
