data_PCOD8149406
_publ_section_title
;
Structure prediction by ZEFSAII (Michael W. Deem and Ramdas Pophale) SiO2 
 PCOD8149406
Probable space group: C 2/C
;
_chemical_formula_sum "Si O2"
_cell_formula_units_Z 44
_cell_length_a 10.289631
_cell_length_b 8.644474
_cell_length_c 23.394731
_cell_angle_alpha 90.000000
_cell_angle_beta 75.158464
_cell_angle_gamma 90.000000
_cell_volume 2011.501085
_symmetry_space_group_name_H-M "C 2/C"
_symmetry_group_IT_number 15
_symmetry_cell_setting 'monoclinic'
loop_
_space_group_symop_operation_xyz
x,y,z
-x,y,1/2-z
-x,-y,-z
x,-y,1/2+z
1/2+x,1/2+y,z
1/2-x,1/2+y,1/2-z
1/2-x,1/2-y,-z
1/2+x,1/2-y,1/2+z
loop_
_atom_site_type_symbol
_atom_site_label
_atom_site_fract_x
_atom_site_fract_y
_atom_site_fract_z
Si Si1 0.000000 0.478820 0.750000
Si Si2 0.123159 0.652942 0.531187
Si Si3 0.372931 0.796463 0.343230
Si Si4 0.867642 0.938689 0.337257
Si Si5 0.144008 0.199409 0.776976
Si Si6 0.670772 0.156564 0.960744
O O1 0.011307 0.596668 0.695750
O O2 0.128711 0.369510 0.749559
O O3 0.250000 0.750000 0.500000
O O4 0.151270 0.619044 0.594219
O O5 0.129782 0.504861 0.491403
O O6 0.974400 0.733579 0.540006
O O7 0.408012 0.615657 0.346949
O O8 0.246338 0.806069 0.316493
O O9 0.812935 0.921387 0.278038
O O10 0.761828 0.868185 0.394233
O O11 0.003690 0.840047 0.323791
O O12 0.750000 0.250000 0.000000
#
# Coordination Sequence:
#
# PCOD8149406 Si02
#       6
#     4   8   8   8   8   8
#     4  10  24  40  66 100 126 188 210 268 342 394
#     4  11  27  46  67 104 129 178 228 282 328 403
#     4  12  24  41  71  93 139 168 225 278 336 388
#     4  10  23  46  64 101 132 176 220 274 327 410
#     4  10  25  43  66  99 139 167 224 272 337 396
#     4  11  27  46  72  92 140 178 228 275 341 395
#
# _framework density 21.874210000000001
#
# number of rings (size 3 to 8) (size 9 to 14) (size 15 to 20)
#    0.000    1.455    1.818    2.182   12.727    2.182 
#    0.000    0.000    0.000    0.000    0.000    0.000 
#    0.000    0.000    0.000    0.000    0.000    0.000 
#
# Total GULP energy -272537.950961 kJ/mol
# GULP energy per Si atom -12388.088680 kJ/mol
# Density = 2.182442 g / cm^3
# Si number density = 21.874210 Si / 1000 Ang^3
#
#
#
# Elastic Constant Matrix: (Units=GPa)
#
#
# Indices 1 2 3 4 5 6 
#
# 1 96.8340 32.1170 57.1655 0.0000 6.0057 0.0000
# 2 32.1170 56.4004 16.3717 0.0000 -21.1766 0.0000
# 3 57.1655 16.3717 160.4077 0.0000 -17.4523 0.0000
# 4 0.0000 0.0000 0.0000 33.8756 0.0000 -5.1449
# 5 6.0057 -21.1766 -17.4523 0.0000 44.9026 0.0000
# 6 0.0000 0.0000 0.0000 -5.1449 0.0000 26.1614
#
#
#
# Elastic Compliance Matrix: (Units=1/GPa)
#
#
# Indices 1 2 3 4 5 6 
#
# 1 0.019608 -0.013559 -0.006876 0.000000 -0.011690 0.000000
# 2 -0.013559 0.031124 0.003602 0.000000 0.017892 0.000000
# 3 -0.006876 0.003602 0.008982 0.000000 0.006109 0.000000
# 4 0.000000 0.000000 0.000000 0.030429 0.000000 0.005984
# 5 -0.011690 0.017892 0.006109 0.000000 0.034646 0.000000
# 6 0.000000 0.000000 0.000000 0.005984 0.000000 0.039401
#
#
# Mechanical properties :
#
#
# Convention : Reuss Voigt Hill
#
# Bulk Modulus (GPa) = 38.39055 58.32785 48.35920
# Shear Modulus (GPa) = 24.20864 34.85377 29.53120
#
# Velocity S-wave (km/s) = 3.33035 3.99604 3.67828
# Velocity P-wave (km/s) = 5.69008 6.92922 6.34000
#
# Compressibility (1/GPa) = 0.02604808
#
# Stress axis : x y z
#
# Youngs Moduli (GPa) = 50.99909 32.12979 111.33946
#
# Poissons Ratio (x) = 0.43565 0.76555
# Poissons Ratio (y) = 0.69150 -0.40106
# Poissons Ratio (z) = 0.35066 -0.11574
#
# Static dielectric constant tensor:
#      x y z
#    x 4.296500 0.000000 0.022900 
#    y 0.000000 4.179760 0.000000 
#    z 0.022900 0.000000 4.037130 
# 
# 
# High freq. dielectric constant tensor:
#      x y z
#    x 1.867750 0.000000 0.000830 
#    y 0.000000 1.854650 0.000000 
#    z 0.000830 0.000000 1.874490 
# 
# From -- ./inp_files/236113.got.cif
#   From: 2010.06.25/outbox.cif.g09.slc.cpg/sg15_119_cif.got.tgz:236113.got - 2010.06.28 07:06:18.
