data_PCOD8149273
_publ_section_title
;
Structure prediction by ZEFSAII (Michael W. Deem and Ramdas Pophale) SiO2 
 PCOD8149273
Probable space group: C 2/C
;
_chemical_formula_sum "Si O2"
_cell_formula_units_Z 44
_cell_length_a 20.305140
_cell_length_b 10.858116
_cell_length_c 10.305290
_cell_angle_alpha 90.000000
_cell_angle_beta 119.415514
_cell_angle_gamma 90.000000
_cell_volume 1979.152014
_symmetry_space_group_name_H-M "C 2/C"
_symmetry_group_IT_number 15
_symmetry_cell_setting 'monoclinic'
loop_
_space_group_symop_operation_xyz
x,y,z
-x,y,1/2-z
-x,-y,-z
x,-y,1/2+z
1/2+x,1/2+y,z
1/2-x,1/2+y,1/2-z
1/2-x,1/2-y,-z
1/2+x,1/2-y,1/2+z
loop_
_atom_site_type_symbol
_atom_site_label
_atom_site_fract_x
_atom_site_fract_y
_atom_site_fract_z
Si Si1 0.245698 0.035256 0.711653
Si Si2 0.651088 0.785940 0.317571
Si Si3 0.970555 0.315651 0.509584
Si Si4 0.000000 0.883804 0.250000
Si Si5 0.342563 0.506595 0.120980
Si Si6 0.389720 0.063393 0.473460
O O1 0.276627 0.168490 0.695457
O O2 0.195147 0.966264 0.552734
O O3 0.198361 0.057468 0.796974
O O4 0.318023 0.950068 0.810200
O O5 0.575897 0.774962 0.160479
O O6 0.670170 0.652843 0.390673
O O7 0.636726 0.885832 0.414833
O O8 0.973240 0.200353 0.606432
O O9 0.932053 0.433502 0.541488
O O10 0.055410 0.343144 0.546876
O O11 0.069752 0.972110 0.283652
#
# Coordination Sequence:
#
# PCOD8149273 Si02
#       6
#     8   8   8   4   8   8
#     4  11  25  46  73 107 140 189 240 292 356 416
#     4  11  24  46  75 104 141 195 236 290 359 428
#     4  10  25  43  72 108 141 182 240 295 356 415
#     4  12  30  46  68 106 146 188 234 300 360 418
#     4  12  28  48  71 104 149 191 240 288 363 437
#     4  10  23  44  75 104 138 182 241 299 343 423
#
# _framework density 22.231745
#
# number of rings (size 3 to 8) (size 9 to 14) (size 15 to 20)
#    0.000    1.091    1.818    2.182   12.727    1.455 
#    0.000    3.636    0.000    0.000    0.000    0.000 
#    0.000    0.000    0.000    0.000    0.000    0.000 
#
# Total GULP energy -272906.706874 kJ/mol
# GULP energy per Si atom -12404.850312 kJ/mol
# Density = 2.218114 g / cm^3
# Si number density = 22.231745 Si / 1000 Ang^3
#
#
#
# Elastic Constant Matrix: (Units=GPa)
#
#
# Indices 1 2 3 4 5 6 
#
# 1 151.4457 29.6566 55.3197 0.0000 7.6414 0.0000
# 2 29.6566 62.4458 44.8862 0.0000 4.7491 0.0000
# 3 55.3197 44.8862 145.6176 0.0000 2.7036 0.0000
# 4 0.0000 0.0000 0.0000 27.9308 0.0000 -0.5558
# 5 7.6414 4.7491 2.7036 0.0000 32.3792 0.0000
# 6 0.0000 0.0000 0.0000 -0.5558 0.0000 44.1265
#
#
#
# Elastic Compliance Matrix: (Units=1/GPa)
#
#
# Indices 1 2 3 4 5 6 
#
# 1 0.007925 -0.001943 -0.002386 0.000000 -0.001386 0.000000
# 2 -0.001943 0.021251 -0.005772 0.000000 -0.002176 0.000000
# 3 -0.002386 -0.005772 0.009542 0.000000 0.000613 0.000000
# 4 0.000000 0.000000 0.000000 0.035812 0.000000 0.000451
# 5 -0.001386 -0.002176 0.000613 0.000000 0.031479 0.000000
# 6 0.000000 0.000000 0.000000 0.000451 0.000000 0.022668
#
#
# Mechanical properties :
#
#
# Convention : Reuss Voigt Hill
#
# Bulk Modulus (GPa) = 54.00923 68.80378 61.40650
# Shear Modulus (GPa) = 32.24751 36.19707 34.22229
#
# Velocity S-wave (km/s) = 3.81270 4.03944 3.92770
# Velocity P-wave (km/s) = 6.61277 7.26441 6.94624
#
# Compressibility (1/GPa) = 0.01851535
#
# Stress axis : x y z
#
# Youngs Moduli (GPa) = 126.18232 47.05613 104.80506
#
# Poissons Ratio (x) = 0.09144 0.25006
# Poissons Ratio (y) = 0.24521 0.60493
# Poissons Ratio (z) = 0.30106 0.27161
#
# Static dielectric constant tensor:
#      x y z
#    x 4.246500 0.000000 0.048230 
#    y 0.000000 3.824080 0.000000 
#    z 0.048230 0.000000 4.193160 
# 
# 
# High freq. dielectric constant tensor:
#      x y z
#    x 1.890820 0.000000 0.010990 
#    y 0.000000 1.862040 0.000000 
#    z 0.010990 0.000000 1.892310 
# 
# From -- ./inp_files/54538.got.cif
#   From: 2010.06.25/outbox.cif.g09.slc.cpg/sg15_28_cif.got.tgz:54538.got - 2010.06.28 07:06:18.
