data_PCOD8149558
_publ_section_title
;
Structure prediction by ZEFSAII (Michael W. Deem and Ramdas Pophale) SiO2 
 PCOD8149558
Probable space group: C 2/C
;
_chemical_formula_sum "Si O2"
_cell_formula_units_Z 60
_cell_length_a 19.279665
_cell_length_b 20.780643
_cell_length_c 8.980362
_cell_angle_alpha 90.000000
_cell_angle_beta 124.759130
_cell_angle_gamma 90.000000
_cell_volume 2955.898606
_symmetry_space_group_name_H-M "C 2/C"
_symmetry_group_IT_number 15
_symmetry_cell_setting 'monoclinic'
loop_
_space_group_symop_operation_xyz
x,y,z
-x,y,1/2-z
-x,-y,-z
x,-y,1/2+z
1/2+x,1/2+y,z
1/2-x,1/2+y,1/2-z
1/2-x,1/2-y,-z
1/2+x,1/2-y,1/2+z
loop_
_atom_site_type_symbol
_atom_site_label
_atom_site_fract_x
_atom_site_fract_y
_atom_site_fract_z
Si Si1 0.706696 0.350364 0.570219
Si Si2 0.570192 0.746774 0.951248
Si Si3 0.310476 0.408986 0.264693
Si Si4 0.000000 0.014829 0.250000
Si Si5 0.688406 0.175831 0.784260
Si Si6 0.825057 0.286057 0.915131
Si Si7 0.884858 0.954960 0.869906
Si Si8 0.459466 0.319160 0.543637
O O1 0.646488 0.289360 0.458887
O O2 0.719287 0.389267 0.435332
O O3 0.799434 0.327965 0.739263
O O4 0.669563 0.392259 0.661336
O O5 0.500000 0.771727 0.750000
O O6 0.605048 0.808697 0.084091
O O7 0.532942 0.691392 0.013926
O O8 0.236481 0.388297 0.288098
O O9 0.321013 0.485259 0.275495
O O10 0.400219 0.378314 0.421500
O O11 0.053347 0.966439 0.416130
O O12 0.938938 0.057304 0.283724
O O13 0.748732 0.237017 0.845630
O O14 0.662848 0.168093 0.925764
O O15 0.911022 0.248611 0.991362
O O16 0.500000 0.337679 0.750000
#
# Coordination Sequence:
#
# PCOD8149558 Si02
#       8
#     8   8   8   4   8   8   8   8
#     4  11  24  38  54  78 113 151 190 224 270 326
#     4  11  22  34  57  84 114 144 180 228 279 325
#     4  11  24  37  55  78 112 151 188 225 273 323
#     4  10  24  36  52  72 116 142 182 232 260 308
#     4   9  20  37  53  79 108 144 186 224 272 330
#     4   9  20  37  54  77 108 144 184 229 269 330
#     4  11  24  39  53  79 111 148 193 224 271 319
#     4  11  22  36  57  83 112 143 184 226 282 330
#
# _framework density 20.298396
#
# number of rings (size 3 to 8) (size 9 to 14) (size 15 to 20)
#    0.000    1.600    4.000    0.000   11.200    1.600 
#    0.000    0.000    0.000    0.000    0.000    1.867 
#    0.000    0.000    0.000    0.000    0.000    0.000 
#
# Total GULP energy -372044.801546 kJ/mol
# GULP energy per Si atom -12401.493385 kJ/mol
# Density = 2.025220 g / cm^3
# Si number density = 20.298396 Si / 1000 Ang^3
#
#
#
# Elastic Constant Matrix: (Units=GPa)
#
#
# Indices 1 2 3 4 5 6 
#
# 1 31.9590 4.5720 11.4879 0.0000 -8.1864 0.0000
# 2 4.5720 46.4896 27.8146 0.0000 4.3931 0.0000
# 3 11.4879 27.8146 124.1228 0.0000 -5.1420 0.0000
# 4 0.0000 0.0000 0.0000 14.2000 0.0000 -4.3586
# 5 -8.1864 4.3931 -5.1420 0.0000 27.2705 0.0000
# 6 0.0000 0.0000 0.0000 -4.3586 0.0000 30.9049
#
#
#
# Elastic Compliance Matrix: (Units=1/GPa)
#
#
# Indices 1 2 3 4 5 6 
#
# 1 0.035247 -0.003224 -0.002096 0.000000 0.010705 0.000000
# 2 -0.003224 0.025857 -0.005754 0.000000 -0.006218 0.000000
# 3 -0.002096 -0.005754 0.009627 0.000000 0.002113 0.000000
# 4 0.000000 0.000000 0.000000 0.073609 0.000000 0.010381
# 5 0.010705 -0.006218 0.002113 0.000000 0.041283 0.000000
# 6 0.000000 0.000000 0.000000 0.010381 0.000000 0.033821
#
#
# Mechanical properties :
#
#
# Convention : Reuss Voigt Hill
#
# Bulk Modulus (GPa) = 20.58278 32.25783 26.42031
# Shear Modulus (GPa) = 19.39586 25.05488 22.22537
#
# Velocity S-wave (km/s) = 3.09453 3.51711 3.31257
# Velocity P-wave (km/s) = 4.78856 5.69383 5.26070
#
# Compressibility (1/GPa) = 0.04858430
#
# Stress axis : x y z
#
# Youngs Moduli (GPa) = 28.37128 38.67407 103.87026
#
# Poissons Ratio (x) = 0.12467 0.21775
# Poissons Ratio (y) = 0.09146 0.59762
# Poissons Ratio (z) = 0.05948 0.22251
#
# Static dielectric constant tensor:
#      x y z
#    x 3.678930 0.000000 -0.141640 
#    y 0.000000 3.338410 0.000000 
#    z -0.141640 0.000000 3.927150 
# 
# 
# High freq. dielectric constant tensor:
#      x y z
#    x 1.774430 0.000000 -0.020190 
#    y 0.000000 1.755700 0.000000 
#    z -0.020190 0.000000 1.809200 
# 
# From -- ./inp_files/58108.got.cif
#   From: 2010.06.25/outbox.cif.g09.slc.cpg/sg15_30_cif.got.tgz:58108.got - 2010.06.28 07:06:18.
