data_PCOD8149929
_publ_section_title
;
Structure prediction by ZEFSAII (Michael W. Deem and Ramdas Pophale) SiO2 
 PCOD8149929
Probable space group: C 2/C
;
_chemical_formula_sum "Si O2"
_cell_formula_units_Z 52
_cell_length_a 18.257650
_cell_length_b 24.687682
_cell_length_c 5.570428
_cell_angle_alpha 90.000000
_cell_angle_beta 122.621430
_cell_angle_gamma 90.000000
_cell_volume 2114.731343
_symmetry_space_group_name_H-M "C 2/C"
_symmetry_group_IT_number 15
_symmetry_cell_setting 'monoclinic'
loop_
_space_group_symop_operation_xyz
x,y,z
-x,y,1/2-z
-x,-y,-z
x,-y,1/2+z
1/2+x,1/2+y,z
1/2-x,1/2+y,1/2-z
1/2-x,1/2-y,-z
1/2+x,1/2-y,1/2+z
loop_
_atom_site_type_symbol
_atom_site_label
_atom_site_fract_x
_atom_site_fract_y
_atom_site_fract_z
Si Si1 0.000000 0.384985 0.250000
Si Si2 0.902842 0.128091 0.993722
Si Si3 0.593308 0.721540 0.834676
Si Si4 0.833482 0.584590 0.214579
Si Si5 0.226171 0.840609 0.860894
Si Si6 0.388191 0.166515 0.941252
Si Si7 0.168409 0.971727 0.366892
O O1 0.080969 0.423942 0.467474
O O2 0.028265 0.345368 0.080848
O O3 0.889373 0.191084 0.886353
O O4 0.878330 0.087055 0.734505
O O5 0.832781 0.118847 0.081606
O O6 0.000000 0.116422 0.250000
O O7 0.500000 0.698489 0.750000
O O8 0.666265 0.707205 0.157248
O O9 0.590917 0.787148 0.821910
O O10 0.765708 0.625473 0.214678
O O11 0.865441 0.609525 0.021894
O O12 0.775110 0.531462 0.058757
O O13 0.305423 0.813468 0.144385
O O14 0.138272 0.997141 0.568719
#
# Coordination Sequence:
#
# PCOD8149929 Si02
#       7
#     4   8   8   8   8   8   8
#     4  10  24  42  74 104 150 194 240 304 368 444
#     4  12  26  47  73 104 152 192 246 313 370 439
#     4  12  24  39  67 106 149 194 244 294 360 439
#     4  11  23  46  72 103 148 191 245 307 374 444
#     4  11  22  42  67 100 144 200 241 297 359 436
#     4  11  24  43  70 104 150 195 248 285 366 448
#     4  12  28  50  82 109 144 193 258 320 393 453
#
# _framework density 24.589413
#
# number of rings (size 3 to 8) (size 9 to 14) (size 15 to 20)
#    0.000    0.615    4.615    2.769    2.154    6.769 
#    1.385    0.769    0.000    0.000    0.000    0.000 
#    0.000    0.000    0.000    0.000    0.000    0.000 
#
# Total GULP energy -322269.331434 kJ/mol
# GULP energy per Si atom -12394.974286 kJ/mol
# Density = 2.453345 g / cm^3
# Si number density = 24.589413 Si / 1000 Ang^3
#
#
#
# Elastic Constant Matrix: (Units=GPa)
#
#
# Indices 1 2 3 4 5 6 
#
# 1 106.5693 5.0094 20.0008 0.0000 -1.2280 0.0000
# 2 5.0094 29.0777 11.1689 0.0000 -8.5800 0.0000
# 3 20.0008 11.1689 104.7213 0.0000 12.7490 0.0000
# 4 0.0000 0.0000 0.0000 22.8309 0.0000 2.0902
# 5 -1.2280 -8.5800 12.7490 0.0000 56.3115 0.0000
# 6 0.0000 0.0000 0.0000 2.0902 0.0000 27.3482
#
#
#
# Elastic Compliance Matrix: (Units=1/GPa)
#
#
# Indices 1 2 3 4 5 6 
#
# 1 0.009774 -0.000829 -0.001840 0.000000 0.000503 0.000000
# 2 -0.000829 0.038410 -0.004780 0.000000 0.006917 0.000000
# 3 -0.001840 -0.004780 0.010802 0.000000 -0.003214 0.000000
# 4 0.000000 0.000000 0.000000 0.044109 0.000000 -0.003371
# 5 0.000503 0.006917 -0.003214 0.000000 0.019551 0.000000
# 6 0.000000 0.000000 0.000000 -0.003371 0.000000 0.036823
#
#
# Mechanical properties :
#
#
# Convention : Reuss Voigt Hill
#
# Bulk Modulus (GPa) = 22.68170 34.74739 28.71455
# Shear Modulus (GPa) = 26.44638 34.91074 30.67856
#
# Velocity S-wave (km/s) = 3.28307 3.77204 3.53602
# Velocity P-wave (km/s) = 4.85959 5.75611 5.32674
#
# Compressibility (1/GPa) = 0.04408840
#
# Stress axis : x y z
#
# Youngs Moduli (GPa) = 102.31679 26.03458 92.57874
#
# Poissons Ratio (x) = 0.02157 0.17030
# Poissons Ratio (y) = 0.08479 0.44256
# Poissons Ratio (z) = 0.18822 0.12446
#
# Static dielectric constant tensor:
#      x y z
#    x 4.528640 0.000000 0.266250 
#    y 0.000000 4.022840 0.000000 
#    z 0.266250 0.000000 4.690740 
# 
# 
# High freq. dielectric constant tensor:
#      x y z
#    x 1.980990 0.000000 0.015950 
#    y 0.000000 1.940170 0.000000 
#    z 0.015950 0.000000 2.001930 
# 
# From -- ./inp_files/11632.got.cif
#   From: 2010.06.25/outbox.cif.g09.slc.cpg/sg15_6_cif.got.tgz:11632.got - 2010.06.28 07:06:18.
