data_PCOD8149430
_publ_section_title
;
Structure prediction by ZEFSAII (Michael W. Deem and Ramdas Pophale) SiO2 
 PCOD8149430
Probable space group: C 2/C
;
_chemical_formula_sum "Si O2"
_cell_formula_units_Z 44
_cell_length_a 10.962168
_cell_length_b 14.091998
_cell_length_c 20.689598
_cell_angle_alpha 90.000000
_cell_angle_beta 139.451719
_cell_angle_gamma 90.000000
_cell_volume 2077.751564
_symmetry_space_group_name_H-M "C 2/C"
_symmetry_group_IT_number 15
_symmetry_cell_setting 'monoclinic'
loop_
_space_group_symop_operation_xyz
x,y,z
-x,y,1/2-z
-x,-y,-z
x,-y,1/2+z
1/2+x,1/2+y,z
1/2-x,1/2+y,1/2-z
1/2-x,1/2-y,-z
1/2+x,1/2-y,1/2+z
loop_
_atom_site_type_symbol
_atom_site_label
_atom_site_fract_x
_atom_site_fract_y
_atom_site_fract_z
Si Si1 0.490567 0.107622 0.170296
Si Si2 0.377112 0.055235 0.865773
Si Si3 0.500000 0.291129 0.750000
Si Si4 0.183916 0.799229 0.203094
Si Si5 0.230119 0.061133 0.422954
Si Si6 0.574339 0.443166 0.468800
O O1 0.500000 0.088714 0.250000
O O2 0.570913 0.209539 0.183762
O O3 0.614386 0.028205 0.184102
O O4 0.277175 0.102184 0.061708
O O5 0.239806 0.137716 0.787010
O O6 0.286104 0.020061 0.895252
O O7 0.585068 0.096135 0.964061
O O8 0.622025 0.225796 0.753034
O O9 0.361265 0.351386 0.649904
O O10 0.061566 0.856185 0.101830
O O11 0.079328 0.016796 0.411312
O O12 0.500000 0.500000 0.500000
#
# Coordination Sequence:
#
# PCOD8149430 Si02
#       6
#     8   8   4   8   8   8
#     4  11  25  45  69  99 139 176 230 277 331 407
#     4  10  23  46  70  95 134 182 224 274 339 395
#     4  12  26  42  68 102 136 168 230 282 334 400
#     4  12  27  42  70 102 134 177 225 280 338 401
#     4  10  23  46  68  92 133 181 223 277 329 404
#     4  11  26  45  71  96 138 184 224 274 342 398
#
# _framework density 21.176736999999999
#
# number of rings (size 3 to 8) (size 9 to 14) (size 15 to 20)
#    0.000    1.091    1.818    2.727   11.455    2.182 
#    0.000    0.000    0.000    0.000    0.000    0.000 
#    0.000    0.000    0.000    0.000    0.000    0.000 
#
# Total GULP energy -272950.148279 kJ/mol
# GULP energy per Si atom -12406.824922 kJ/mol
# Density = 2.112854 g / cm^3
# Si number density = 21.176737 Si / 1000 Ang^3
#
#
#
# Elastic Constant Matrix: (Units=GPa)
#
#
# Indices 1 2 3 4 5 6 
#
# 1 112.6866 22.7368 16.8124 0.0000 -8.2965 0.0000
# 2 22.7368 85.8232 46.7845 0.0000 0.9336 0.0000
# 3 16.8124 46.7845 97.1449 0.0002 -4.6377 0.0000
# 4 0.0000 0.0000 0.0002 -55.9096 0.0001 15.4295
# 5 -8.2965 0.9336 -4.6377 0.0001 38.0375 0.0000
# 6 0.0000 0.0000 0.0000 15.4295 0.0000 26.4105
#
#
#
# Elastic Compliance Matrix: (Units=1/GPa)
#
#
# Indices 1 2 3 4 5 6 
#
# 1 0.009561 -0.002316 -0.000440 0.000000 0.002089 0.000000
# 2 -0.002316 0.016427 -0.007598 0.000000 -0.001835 0.000000
# 3 -0.000440 -0.007598 0.014116 0.000000 0.001812 0.000000
# 4 0.000000 0.000000 0.000000 -0.015403 0.000000 0.008999
# 5 0.002089 -0.001835 0.001812 0.000000 0.027011 0.000000
# 6 0.000000 0.000000 0.000000 0.008999 0.000000 0.032607
#
#
# Mechanical properties :
#
#
# Convention : Reuss Voigt Hill
#
# Bulk Modulus (GPa) = 51.55571 52.03578 51.79575
# Shear Modulus (GPa) = 44.84632 15.66241 30.25437
#
# Velocity S-wave (km/s) = 4.60686 2.72252 3.78386
# Velocity P-wave (km/s) = 7.25919 5.87438 6.60319
#
# Compressibility (1/GPa) = 0.01939649
#
# Stress axis : x y z
#
# Youngs Moduli (GPa) = 104.59348 60.87430 70.84332
#
# Poissons Ratio (x) = 0.14099 0.03114
# Poissons Ratio (y) = 0.24224 0.53827
# Poissons Ratio (z) = 0.04597 0.46253
#
# Static dielectric constant tensor:
#      x y z
#    x 3.875530 0.000000 -0.651570 
#    y 0.000000 3.752330 0.000000 
#    z -0.651570 0.000000 1.368940 
# 
# 
# High freq. dielectric constant tensor:
#      x y z
#    x 1.846350 0.000000 0.001260 
#    y 0.000000 1.825490 0.000000 
#    z 0.001260 0.000000 1.849910 
# 
# From -- ./inp_files/143385.got.cif
#   From: 2010.06.25/outbox.cif.g09.slc.cpg/sg15_72_cif.got.tgz:143385.got - 2010.06.28 07:06:18.
