data_PCOD8149876
_publ_section_title
;
Structure prediction by ZEFSAII (Michael W. Deem and Ramdas Pophale) SiO2 
 PCOD8149876
Probable space group: C 2/C
;
_chemical_formula_sum "Si O2"
_cell_formula_units_Z 64
_cell_length_a 13.771027
_cell_length_b 9.539265
_cell_length_c 26.337637
_cell_angle_alpha 90.000000
_cell_angle_beta 117.985783
_cell_angle_gamma 90.000000
_cell_volume 3055.274669
_symmetry_space_group_name_H-M "C 2/C"
_symmetry_group_IT_number 15
_symmetry_cell_setting 'monoclinic'
loop_
_space_group_symop_operation_xyz
x,y,z
-x,y,1/2-z
-x,-y,-z
x,-y,1/2+z
1/2+x,1/2+y,z
1/2-x,1/2+y,1/2-z
1/2-x,1/2-y,-z
1/2+x,1/2-y,1/2+z
loop_
_atom_site_type_symbol
_atom_site_label
_atom_site_fract_x
_atom_site_fract_y
_atom_site_fract_z
Si Si1 0.179521 0.162764 0.202828
Si Si2 0.088985 0.812586 0.344612
Si Si3 0.804162 0.469674 0.638497
Si Si4 0.354442 0.622766 0.752638
Si Si5 0.392073 0.410040 0.474856
Si Si6 0.585338 0.103997 0.998530
Si Si7 0.675980 0.450769 0.929473
Si Si8 0.446355 0.191392 0.624950
O O1 0.257886 0.080615 0.181652
O O2 0.251111 0.285506 0.247084
O O3 0.070465 0.245562 0.157220
O O4 0.146560 0.041458 0.233929
O O5 0.142579 0.666376 0.374619
O O6 0.146929 0.874942 0.308733
O O7 0.959412 0.799338 0.302536
O O8 0.108648 0.912613 0.397155
O O9 0.697226 0.529711 0.585195
O O10 0.905921 0.582860 0.659669
O O11 0.500000 0.500000 0.500000
O O12 0.423198 0.249047 0.472142
O O13 0.342321 0.411354 0.517590
O O14 0.570983 0.120133 0.934322
O O15 0.695466 0.025903 0.043222
O O16 0.500000 0.000000 0.000000
O O17 0.636308 0.319827 0.886333
#
# Coordination Sequence:
#
# PCOD8149876 Si02
#       8
#     8   8   8   8   8   8   8   8
#     4  11  25  45  71  94 134 169 229 284 344 402
#     4  10  24  42  68  90 132 169 221 277 337 384
#     4  11  23  43  65  98 131 177 213 269 338 405
#     4  10  24  47  63  96 127 169 225 289 329 396
#     4  11  23  40  62  93 138 172 217 265 327 402
#     4  11  24  40  63  97 136 175 221 265 327 401
#     4  11  21  43  65  94 137 174 215 271 321 408
#     4  11  22  45  67  95 134 179 214 271 337 401
#
# _framework density 20.947379999999999
#
# number of rings (size 3 to 8) (size 9 to 14) (size 15 to 20)
#    0.000    1.250    3.750    2.250    7.000    2.500 
#    0.000    0.000    0.000    0.000    0.000    0.000 
#    0.000    0.000    0.000    0.000    0.000    0.000 
#
# Total GULP energy -396491.756939 kJ/mol
# GULP energy per Si atom -12390.367404 kJ/mol
# Density = 2.089970 g / cm^3
# Si number density = 20.947380 Si / 1000 Ang^3
#
#
#
# Elastic Constant Matrix: (Units=GPa)
#
#
# Indices 1 2 3 4 5 6 
#
# 1 93.7684 42.4767 23.9174 0.0000 30.9154 0.0000
# 2 42.4767 113.5050 37.6279 0.0000 13.7999 0.0000
# 3 23.9174 37.6279 65.2254 0.0000 25.2357 0.0000
# 4 0.0000 0.0000 0.0000 34.4192 0.0000 6.8007
# 5 30.9154 13.7999 25.2357 0.0000 28.5864 0.0000
# 6 0.0000 0.0000 0.0000 6.8007 0.0000 49.1607
#
#
#
# Elastic Compliance Matrix: (Units=1/GPa)
#
#
# Indices 1 2 3 4 5 6 
#
# 1 0.019781 -0.006370 0.005328 0.000000 -0.023022 0.000000
# 2 -0.006370 0.012949 -0.008172 0.000000 0.007853 0.000000
# 3 0.005328 -0.008172 0.028545 0.000000 -0.027016 0.000000
# 4 0.000000 0.000000 0.000000 0.029870 0.000000 -0.004132
# 5 -0.023022 0.007853 -0.027016 0.000000 0.079938 0.000000
# 6 0.000000 0.000000 0.000000 -0.004132 0.000000 0.020913
#
#
# Mechanical properties :
#
#
# Convention : Reuss Voigt Hill
#
# Bulk Modulus (GPa) = 23.33909 53.39363 38.36636
# Shear Modulus (GPa) = 22.25134 33.66504 27.95819
#
# Velocity S-wave (km/s) = 3.26275 4.01324 3.65730
# Velocity P-wave (km/s) = 5.03587 6.85708 6.01580
#
# Compressibility (1/GPa) = 0.04284658
#
# Stress axis : x y z
#
# Youngs Moduli (GPa) = 50.55263 77.22892 35.03278
#
# Poissons Ratio (x) = 0.49196 -0.18667
# Poissons Ratio (y) = 0.32203 0.28630
# Poissons Ratio (z) = -0.26936 0.63113
#
# Static dielectric constant tensor:
#      x y z
#    x 3.719720 0.000000 0.283180 
#    y 0.000000 4.190460 0.000000 
#    z 0.283180 0.000000 3.829120 
# 
# 
# High freq. dielectric constant tensor:
#      x y z
#    x 1.824950 0.000000 0.021100 
#    y 0.000000 1.836050 0.000000 
#    z 0.021100 0.000000 1.809920 
# 
# From -- ./inp_files/313177.got.cif
#   From: 2010.06.25/outbox.cif.g09.slc.cpg/sg15_157_cif.got.tgz:313177.got - 2010.06.28 07:06:18.
