data_PCOD8149209
_publ_section_title
;
Structure prediction by ZEFSAII (Michael W. Deem and Ramdas Pophale) SiO2 
 PCOD8149209
Probable space group: C 2/C
;
_chemical_formula_sum "Si O2"
_cell_formula_units_Z 48
_cell_length_a 17.408454
_cell_length_b 7.996019
_cell_length_c 29.477743
_cell_angle_alpha 90.000000
_cell_angle_beta 150.634424
_cell_angle_gamma 90.000000
_cell_volume 2012.153934
_symmetry_space_group_name_H-M "C 2/C"
_symmetry_group_IT_number 15
_symmetry_cell_setting 'monoclinic'
loop_
_space_group_symop_operation_xyz
x,y,z
-x,y,1/2-z
-x,-y,-z
x,-y,1/2+z
1/2+x,1/2+y,z
1/2-x,1/2+y,1/2-z
1/2-x,1/2-y,-z
1/2+x,1/2-y,1/2+z
loop_
_atom_site_type_symbol
_atom_site_label
_atom_site_fract_x
_atom_site_fract_y
_atom_site_fract_z
Si Si1 0.919691 0.672713 0.085238
Si Si2 0.650323 0.449155 0.211461
Si Si3 0.675395 0.812047 0.112627
Si Si4 0.979576 0.182828 0.191128
Si Si5 0.136885 0.528572 0.262173
Si Si6 0.146676 0.415293 0.523947
O O1 0.039431 0.814672 0.128874
O O2 0.976409 0.623760 0.165249
O O3 0.750000 0.750000 0.000000
O O4 0.924771 0.508145 0.056581
O O5 0.756995 0.371504 0.304983
O O6 0.543679 0.590388 0.179971
O O7 0.758776 0.528592 0.229455
O O8 0.761462 0.632089 0.147755
O O9 0.711132 0.940041 0.090690
O O10 0.486273 0.799963 0.021045
O O11 0.792825 0.204414 0.086145
O O12 0.000000 0.085787 0.250000
O O13 0.083792 0.349452 0.253043
#
# Coordination Sequence:
#
# PCOD8149209 Si02
#       6
#     8   8   8   8   8   8
#     4  11  23  40  65 100 131 177 231 287 335 414
#     4  11  22  44  70  97 140 187 231 280 353 421
#     4  10  23  44  70  98 140 186 229 289 357 418
#     4  12  25  44  71 105 141 182 235 288 354 418
#     4  11  26  43  69 101 139 185 232 290 352 418
#     4  11  23  43  73 102 139 184 236 288 354 415
#
# _framework density 23.855035000000001
#
# number of rings (size 3 to 8) (size 9 to 14) (size 15 to 20)
#    0.000    1.000    5.000    2.000    0.000    3.333 
#    0.000    1.667    0.000    0.000    0.000    0.000 
#    0.000    0.000    0.000    0.000    0.000    0.000 
#
# Total GULP energy -297432.768507 kJ/mol
# GULP energy per Si atom -12393.032021 kJ/mol
# Density = 2.380074 g / cm^3
# Si number density = 23.855035 Si / 1000 Ang^3
#
#
#
# Elastic Constant Matrix: (Units=GPa)
#
#
# Indices 1 2 3 4 5 6 
#
# 1 77.1951 12.3865 24.3286 0.0000 16.5603 0.0000
# 2 12.3865 98.6795 42.8503 0.0001 17.1616 -0.0001
# 3 24.3286 42.8503 113.9216 0.0000 23.1110 -0.0001
# 4 0.0000 0.0001 0.0000 56.4504 0.0000 10.2393
# 5 16.5603 17.1616 23.1110 0.0000 37.9734 -0.0001
# 6 0.0000 -0.0001 -0.0001 10.2393 -0.0001 22.2523
#
#
#
# Elastic Compliance Matrix: (Units=1/GPa)
#
#
# Indices 1 2 3 4 5 6 
#
# 1 0.014719 -0.000051 -0.002084 0.000000 -0.005128 0.000000
# 2 -0.000051 0.012437 -0.004029 0.000000 -0.003147 0.000000
# 3 -0.002084 -0.004029 0.011619 0.000000 -0.004342 0.000000
# 4 0.000000 0.000000 0.000000 0.019328 0.000000 -0.008894
# 5 -0.005128 -0.003147 -0.004342 0.000000 0.032635 0.000000
# 6 0.000000 0.000000 0.000000 -0.008894 0.000000 0.049031
#
#
# Mechanical properties :
#
#
# Convention : Reuss Voigt Hill
#
# Bulk Modulus (GPa) = 37.80998 49.88077 43.84537
# Shear Modulus (GPa) = 31.07270 37.35062 34.21166
#
# Velocity S-wave (km/s) = 3.61302 3.96123 3.79112
# Velocity P-wave (km/s) = 5.76971 6.47125 6.13052
#
# Compressibility (1/GPa) = 0.02644804
#
# Stress axis : x y z
#
# Youngs Moduli (GPa) = 67.93860 80.40605 86.06409
#
# Poissons Ratio (x) = 0.00409 0.17935
# Poissons Ratio (y) = 0.00346 0.34673
# Poissons Ratio (z) = 0.14158 0.32394
#
# Static dielectric constant tensor:
#      x y z
#    x 4.279380 0.000000 0.080000 
#    y 0.000000 4.446830 0.000000 
#    z 0.080000 0.000000 4.748430 
# 
# 
# High freq. dielectric constant tensor:
#      x y z
#    x 1.938390 0.000000 0.016720 
#    y 0.000000 1.929830 0.000000 
#    z 0.016720 0.000000 1.960570 
# 
# From -- ./inp_files/224515.got.cif
#   From: 2010.06.25/outbox.cif.g09.slc.cpg/sg15_113_cif.got.tgz:224515.got - 2010.06.28 07:06:18.
