data_PCOD8149127
_publ_section_title
;
Structure prediction by ZEFSAII (Michael W. Deem and Ramdas Pophale) SiO2 
 PCOD8149127
Probable space group: C 2/C
;
_chemical_formula_sum "Si O2"
_cell_formula_units_Z 60
_cell_length_a 18.889884
_cell_length_b 22.059130
_cell_length_c 12.350301
_cell_angle_alpha 90.000000
_cell_angle_beta 146.962787
_cell_angle_gamma 90.000000
_cell_volume 2805.679239
_symmetry_space_group_name_H-M "C 2/C"
_symmetry_group_IT_number 15
_symmetry_cell_setting 'monoclinic'
loop_
_space_group_symop_operation_xyz
x,y,z
-x,y,1/2-z
-x,-y,-z
x,-y,1/2+z
1/2+x,1/2+y,z
1/2-x,1/2+y,1/2-z
1/2-x,1/2-y,-z
1/2+x,1/2-y,1/2+z
loop_
_atom_site_type_symbol
_atom_site_label
_atom_site_fract_x
_atom_site_fract_y
_atom_site_fract_z
Si Si1 0.209460 0.043633 0.680892
Si Si2 0.603390 0.768611 0.285357
Si Si3 0.500000 0.496266 0.750000
Si Si4 0.348897 0.711563 0.556741
Si Si5 0.909286 0.590842 0.778125
Si Si6 0.865940 0.823079 0.853451
Si Si7 0.100530 0.101379 0.741230
Si Si8 0.810936 0.428389 0.924080
O O1 0.344085 0.063818 0.801059
O O2 0.183870 0.093688 0.739681
O O3 0.095369 0.045503 0.444420
O O4 0.218247 0.977911 0.749358
O O5 0.500000 0.759829 0.250000
O O6 0.750000 0.750000 0.500000
O O7 0.605143 0.837084 0.246974
O O8 0.561963 0.723267 0.135110
O O9 0.583449 0.536112 0.774274
O O10 0.500000 0.734274 0.750000
O O11 0.250000 0.750000 0.500000
O O12 0.300180 0.712943 0.369765
O O13 0.332314 0.644142 0.584454
O O14 0.847886 0.556503 0.595265
O O15 0.060425 0.575646 0.983295
O O16 0.756162 0.862460 0.653560
O O17 0.964871 0.869397 0.034932
#
# Coordination Sequence:
#
# PCOD8149127 Si02
#       8
#     8   8   4   8   8   8   8   8
#     4  12  26  38  72  99 132 176 234 277 343 413
#     4  12  25  43  67 101 139 179 230 285 345 417
#     4  12  22  44  66  96 132 176 224 282 342 404
#     4  10  23  44  67  96 133 173 225 278 332 410
#     4  11  25  44  64  98 140 174 229 276 342 419
#     4  11  23  40  72  92 135 180 216 281 349 388
#     4  11  23  43  64 100 132 169 225 280 339 403
#     4  11  22  46  65  92 137 183 212 284 346 401
#
# _framework density 21.385197000000002
#
# number of rings (size 3 to 8) (size 9 to 14) (size 15 to 20)
#    0.000    0.800    6.000    1.600    5.600    3.200 
#    0.000    0.000    0.000    0.000    0.000    0.000 
#    0.000    0.000    0.000    0.000    0.000    0.000 
#
# Total GULP energy -371955.610975 kJ/mol
# GULP energy per Si atom -12398.520366 kJ/mol
# Density = 2.133652 g / cm^3
# Si number density = 21.385197 Si / 1000 Ang^3
#
#
#
# Elastic Constant Matrix: (Units=GPa)
#
#
# Indices 1 2 3 4 5 6 
#
# 1 159.4123 54.0812 13.4727 0.0000 -3.9197 0.0000
# 2 54.0812 72.3354 20.6013 0.0000 -4.7587 0.0000
# 3 13.4727 20.6013 56.3966 0.0000 -5.7028 0.0000
# 4 0.0000 0.0000 0.0000 18.0963 0.0000 -0.9987
# 5 -3.9197 -4.7587 -5.7028 0.0000 29.4301 0.0000
# 6 0.0000 0.0000 0.0000 -0.9987 0.0000 46.1066
#
#
#
# Elastic Compliance Matrix: (Units=1/GPa)
#
#
# Indices 1 2 3 4 5 6 
#
# 1 0.008411 -0.006373 0.000335 0.000000 0.000154 0.000000
# 2 -0.006373 0.020319 -0.005766 0.000000 0.001319 0.000000
# 3 0.000335 -0.005766 0.020061 0.000000 0.003000 0.000000
# 4 0.000000 0.000000 0.000000 0.055326 0.000000 0.001198
# 5 0.000154 0.001319 0.003000 0.000000 0.034794 0.000000
# 6 0.000000 0.000000 0.000000 0.001198 0.000000 0.021715
#
#
# Mechanical properties :
#
#
# Convention : Reuss Voigt Hill
#
# Bulk Modulus (GPa) = 39.71348 51.60608 45.65978
# Shear Modulus (GPa) = 25.95658 32.05919 29.00788
#
# Velocity S-wave (km/s) = 3.48769 3.87606 3.68699
# Velocity P-wave (km/s) = 5.90165 6.64950 6.28671
#
# Compressibility (1/GPa) = 0.02518037
#
# Stress axis : x y z
#
# Youngs Moduli (GPa) = 118.89530 49.21614 49.84708
#
# Poissons Ratio (x) = 0.31367 -0.01667
# Poissons Ratio (y) = 0.75776 0.28743
# Poissons Ratio (z) = -0.03977 0.28379
#
# Static dielectric constant tensor:
#      x y z
#    x 4.160890 0.000000 -0.162410 
#    y 0.000000 3.948410 0.000000 
#    z -0.162410 0.000000 3.954700 
# 
# 
# High freq. dielectric constant tensor:
#      x y z
#    x 1.856640 0.000000 -0.007970 
#    y 0.000000 1.830720 0.000000 
#    z -0.007970 0.000000 1.833100 
# 
# From -- ./inp_files/108123.got.cif
#   From: 2010.06.25/outbox.cif.g09.slc.cpg/sg15_55_cif.got.tgz:108123.got - 2010.06.28 07:06:18.
