data_PCOD8149335
_publ_section_title
;
Structure prediction by ZEFSAII (Michael W. Deem and Ramdas Pophale) SiO2 
 PCOD8149335
Probable space group: C 2/C
;
_chemical_formula_sum "Si O2"
_cell_formula_units_Z 56
_cell_length_a 27.671613
_cell_length_b 8.672385
_cell_length_c 20.192004
_cell_angle_alpha 90.000000
_cell_angle_beta 148.963645
_cell_angle_gamma 90.000000
_cell_volume 2498.331560
_symmetry_space_group_name_H-M "C 2/C"
_symmetry_group_IT_number 15
_symmetry_cell_setting 'monoclinic'
loop_
_space_group_symop_operation_xyz
x,y,z
-x,y,1/2-z
-x,-y,-z
x,-y,1/2+z
1/2+x,1/2+y,z
1/2-x,1/2+y,1/2-z
1/2-x,1/2-y,-z
1/2+x,1/2-y,1/2+z
loop_
_atom_site_type_symbol
_atom_site_label
_atom_site_fract_x
_atom_site_fract_y
_atom_site_fract_z
Si Si1 0.811120 0.892807 0.156033
Si Si2 0.216329 0.078659 0.018657
Si Si3 0.120598 0.391245 0.242733
Si Si4 0.472413 0.200994 0.408017
Si Si5 0.754272 0.160303 0.186597
Si Si6 0.873429 0.905450 0.950232
Si Si7 0.048199 0.221831 0.469061
O O1 0.735735 0.759349 0.053454
O O2 0.897114 0.826541 0.297003
O O3 0.764520 0.026525 0.144482
O O4 0.840153 0.951363 0.116100
O O5 0.156173 0.035212 0.012093
O O6 0.308821 0.969303 0.121531
O O7 0.058198 0.528737 0.140683
O O8 0.183273 0.307096 0.260350
O O9 0.042803 0.272308 0.183156
O O10 0.569899 0.243865 0.484850
O O11 0.487636 0.212494 0.503518
O O12 0.784751 0.104127 0.296026
O O13 0.645385 0.204623 0.059732
O O14 0.945419 0.039114 0.013134
#
# Coordination Sequence:
#
# PCOD8149335 Si02
#       7
#     8   8   8   8   8   8   8
#     4  10  23  45  68  93 133 188 218 279 340 415
#     4  10  24  45  68  93 135 180 233 270 342 413
#     4  11  24  43  62 103 136 175 223 290 341 404
#     4  11  23  40  69  95 139 172 225 284 336 415
#     4  12  24  40  71  99 138 177 227 285 357 404
#     4  12  24  41  67 102 132 179 225 285 341 416
#     4  12  24  39  66 104 133 177 226 286 347 409
#
# _framework density 22.414960000000001
#
# number of rings (size 3 to 8) (size 9 to 14) (size 15 to 20)
#    0.000    0.857    4.286    3.429    2.000    1.143 
#    0.000    0.714    0.000    0.000    0.000    0.000 
#    0.000    0.000    0.000    0.000    0.000    0.000 
#
# Total GULP energy -346991.530755 kJ/mol
# GULP energy per Si atom -12392.554670 kJ/mol
# Density = 2.236394 g / cm^3
# Si number density = 22.414960 Si / 1000 Ang^3
#
#
#
# Elastic Constant Matrix: (Units=GPa)
#
#
# Indices 1 2 3 4 5 6 
#
# 1 92.8430 19.1722 43.8684 0.0000 9.8544 0.0000
# 2 19.1722 82.1768 43.5353 0.0000 7.8765 0.0000
# 3 43.8684 43.5353 46.3603 0.0000 10.9000 0.0000
# 4 0.0000 0.0000 0.0000 35.3300 0.0000 11.3415
# 5 9.8544 7.8765 10.9000 0.0000 38.5055 0.0000
# 6 0.0000 0.0000 0.0000 11.3415 0.0000 26.8323
#
#
#
# Elastic Compliance Matrix: (Units=1/GPa)
#
#
# Indices 1 2 3 4 5 6 
#
# 1 0.025313 0.013569 -0.036981 0.000000 0.001214 0.000000
# 2 0.013569 0.031582 -0.043025 0.000000 0.002247 0.000000
# 3 -0.036981 -0.043025 0.099280 0.000000 -0.009839 0.000000
# 4 0.000000 0.000000 0.000000 0.032748 0.000000 -0.013842
# 5 0.001214 0.002247 -0.009839 0.000000 0.027985 0.000000
# 6 0.000000 0.000000 0.000000 -0.013842 0.000000 0.043119
#
#
# Mechanical properties :
#
#
# Convention : Reuss Voigt Hill
#
# Bulk Modulus (GPa) = 42.91590 48.28132 45.59861
# Shear Modulus (GPa) = 12.47914 27.78717 20.13315
#
# Velocity S-wave (km/s) = 2.36208 3.52472 3.00025
# Velocity P-wave (km/s) = 5.16012 6.17668 5.69114
#
# Compressibility (1/GPa) = 0.02330139
#
# Stress axis : x y z
#
# Youngs Moduli (GPa) = 39.50478 31.66402 10.07249
#
# Poissons Ratio (x) = -0.42966 0.37249
# Poissons Ratio (y) = -0.53606 0.43337
# Poissons Ratio (z) = 1.46093 1.36236
#
# Static dielectric constant tensor:
#      x y z
#    x 3.994210 0.000000 0.014030 
#    y 0.000000 4.396360 0.000000 
#    z 0.014030 0.000000 4.129990 
# 
# 
# High freq. dielectric constant tensor:
#      x y z
#    x 1.860540 0.000000 0.011880 
#    y 0.000000 1.903880 0.000000 
#    z 0.011880 0.000000 1.880730 
# 
# From -- ./inp_files/259008.got.cif
#   From: 2010.06.25/outbox.cif.g09.slc.cpg/sg15_130_cif.got.tgz:259008.got - 2010.06.28 07:06:18.
