data_PCOD8149724
_publ_section_title
;
Structure prediction by ZEFSAII (Michael W. Deem and Ramdas Pophale) SiO2 
 PCOD8149724
Probable space group: C 2/C
;
_chemical_formula_sum "Si O2"
_cell_formula_units_Z 44
_cell_length_a 30.018049
_cell_length_b 7.505863
_cell_length_c 12.398331
_cell_angle_alpha 90.000000
_cell_angle_beta 124.166580
_cell_angle_gamma 90.000000
_cell_volume 2311.352533
_symmetry_space_group_name_H-M "C 2/C"
_symmetry_group_IT_number 15
_symmetry_cell_setting 'monoclinic'
loop_
_space_group_symop_operation_xyz
x,y,z
-x,y,1/2-z
-x,-y,-z
x,-y,1/2+z
1/2+x,1/2+y,z
1/2-x,1/2+y,1/2-z
1/2-x,1/2-y,-z
1/2+x,1/2-y,1/2+z
loop_
_atom_site_type_symbol
_atom_site_label
_atom_site_fract_x
_atom_site_fract_y
_atom_site_fract_z
Si Si1 0.121494 0.410344 0.877893
Si Si2 0.884215 0.978045 0.100087
Si Si3 0.688362 0.779826 0.391585
Si Si4 0.000000 0.865373 0.750000
Si Si5 0.965221 0.616187 0.873589
Si Si6 0.373812 0.750901 0.395932
O O1 0.127027 0.203647 0.846487
O O2 0.173046 0.521552 0.908662
O O3 0.067163 0.494352 0.755865
O O4 0.120825 0.411256 0.008658
O O5 0.848504 0.138963 0.094311
O O6 0.871030 0.937739 0.955730
O O7 0.947492 0.015153 0.192799
O O8 0.750000 0.750000 0.500000
O O9 0.679501 0.766098 0.250564
O O10 0.005901 0.742366 0.863880
O O11 0.924522 0.741069 0.884869
O O12 0.000000 0.500000 0.000000
#
# Coordination Sequence:
#
# PCOD8149724 Si02
#       6
#     8   8   8   4   8   8
#     4   9  22  44  58  91 132 158 218 258 311 390
#     4  10  24  41  62  96 132 161 217 254 316 398
#     4  11  23  46  68  91 126 165 219 274 317 376
#     4  12  22  38  66  96 134 170 216 256 314 398
#     4  11  22  36  64  94 131 175 208 254 322 371
#     4   9  22  42  59  94 126 166 214 252 328 372
#
# _framework density 19.036472
#
# number of rings (size 3 to 8) (size 9 to 14) (size 15 to 20)
#    1.091    0.727    3.636    1.091    2.545    4.364 
#    3.273    0.000    0.000    0.000    0.000    0.000 
#    0.000    0.000    0.000    0.000    0.000    0.000 
#
# Total GULP energy -272620.203772 kJ/mol
# GULP energy per Si atom -12391.827444 kJ/mol
# Density = 1.899314 g / cm^3
# Si number density = 19.036472 Si / 1000 Ang^3
#
#
#
# Elastic Constant Matrix: (Units=GPa)
#
#
# Indices 1 2 3 4 5 6 
#
# 1 89.5135 48.2970 60.9933 0.0000 19.0051 0.0000
# 2 48.2970 110.8239 50.0161 0.0000 5.9664 0.0000
# 3 60.9933 50.0161 158.9428 0.0000 0.6496 0.0000
# 4 0.0000 0.0000 0.0000 27.9564 0.0000 -8.4825
# 5 19.0051 5.9664 0.6496 0.0000 38.9436 0.0000
# 6 0.0000 0.0000 0.0000 -8.4825 0.0000 32.1163
#
#
#
# Elastic Compliance Matrix: (Units=1/GPa)
#
#
# Indices 1 2 3 4 5 6 
#
# 1 0.020114 -0.005620 -0.005914 0.000000 -0.008856 0.000000
# 2 -0.005620 0.012182 -0.001681 0.000000 0.000904 0.000000
# 3 -0.005914 -0.001681 0.009078 0.000000 0.002992 0.000000
# 4 0.000000 0.000000 0.000000 0.038886 0.000000 0.010271
# 5 -0.008856 0.000904 0.002992 0.000000 0.029812 0.000000
# 6 0.000000 0.000000 0.000000 0.010271 0.000000 0.033849
#
#
# Mechanical properties :
#
#
# Convention : Reuss Voigt Hill
#
# Bulk Modulus (GPa) = 66.91229 75.32145 71.11687
# Shear Modulus (GPa) = 28.51755 33.13486 30.82620
#
# Velocity S-wave (km/s) = 3.87466 4.17657 4.02845
# Velocity P-wave (km/s) = 7.43257 7.93166 7.68617
#
# Compressibility (1/GPa) = 0.01494494
#
# Stress axis : x y z
#
# Youngs Moduli (GPa) = 49.71783 82.08690 110.16114
#
# Poissons Ratio (x) = 0.46130 0.65147
# Poissons Ratio (y) = 0.27940 0.18514
# Poissons Ratio (z) = 0.29402 0.13796
#
# Static dielectric constant tensor:
#      x y z
#    x 3.512050 0.000000 0.000110 
#    y 0.000000 3.474870 0.000000 
#    z 0.000110 0.000000 3.815130 
# 
# 
# High freq. dielectric constant tensor:
#      x y z
#    x 1.723430 0.000000 -0.008400 
#    y 0.000000 1.738610 0.000000 
#    z -0.008400 0.000000 1.747090 
# 
# From -- ./inp_files/125338.got.cif
#   From: 2010.06.25/outbox.cif.g09.slc.cpg/sg15_63_cif.got.tgz:125338.got - 2010.06.28 07:06:18.
