data_PCOD8149325
_publ_section_title
;
Structure prediction by ZEFSAII (Michael W. Deem and Ramdas Pophale) SiO2 
 PCOD8149325
Probable space group: C 2/C
;
_chemical_formula_sum "Si O2"
_cell_formula_units_Z 52
_cell_length_a 12.938088
_cell_length_b 16.398781
_cell_length_c 20.037966
_cell_angle_alpha 90.000000
_cell_angle_beta 144.831529
_cell_angle_gamma 90.000000
_cell_volume 2448.751081
_symmetry_space_group_name_H-M "C 2/C"
_symmetry_group_IT_number 15
_symmetry_cell_setting 'monoclinic'
loop_
_space_group_symop_operation_xyz
x,y,z
-x,y,1/2-z
-x,-y,-z
x,-y,1/2+z
1/2+x,1/2+y,z
1/2-x,1/2+y,1/2-z
1/2-x,1/2-y,-z
1/2+x,1/2-y,1/2+z
loop_
_atom_site_type_symbol
_atom_site_label
_atom_site_fract_x
_atom_site_fract_y
_atom_site_fract_z
Si Si1 0.199473 0.560890 0.251754
Si Si2 0.567094 0.091220 0.044860
Si Si3 0.956648 0.137254 0.015624
Si Si4 0.301480 0.217772 0.876958
Si Si5 0.500000 0.163471 0.250000
Si Si6 0.772320 0.627446 0.733199
Si Si7 0.660103 0.836864 0.453455
O O1 0.203658 0.599135 0.179342
O O2 0.385157 0.572128 0.389495
O O3 0.036720 0.604856 0.206092
O O4 0.167748 0.465775 0.225395
O O5 0.395960 0.149087 0.972280
O O6 0.660842 0.122307 0.026910
O O7 0.500000 0.000000 0.000000
O O8 0.039651 0.227264 0.072877
O O9 0.886175 0.137476 0.902820
O O10 0.792722 0.110332 0.976448
O O11 0.200051 0.169925 0.763202
O O12 0.170457 0.276069 0.850417
O O13 0.963235 0.668790 0.815608
O O14 0.750000 0.750000 0.500000
#
# Coordination Sequence:
#
# PCOD8149325 Si02
#       7
#     8   8   8   8   4   8   8
#     4  11  25  46  67  99 138 178 229 281 342 401
#     4  11  22  44  70  96 139 175 219 288 338 395
#     4  11  24  41  69 102 134 179 231 275 341 413
#     4  10  23  45  67  99 134 178 226 275 334 402
#     4  10  26  44  66  98 134 184 228 262 344 404
#     4  11  23  45  68  96 144 169 223 293 335 399
#     4  11  22  41  70 102 132 181 222 278 351 401
#
# _framework density 21.235313999999999
#
# number of rings (size 3 to 8) (size 9 to 14) (size 15 to 20)
#    0.000    1.231    6.154    0.923    6.462    1.231 
#    8.308    0.000    0.000    0.000    0.000    0.000 
#    0.000    0.000    0.000    0.000    0.000    0.000 
#
# Total GULP energy -322181.550912 kJ/mol
# GULP energy per Si atom -12391.598112 kJ/mol
# Density = 2.118698 g / cm^3
# Si number density = 21.235314 Si / 1000 Ang^3
#
#
#
# Elastic Constant Matrix: (Units=GPa)
#
#
# Indices 1 2 3 4 5 6 
#
# 1 89.0260 27.0902 43.1787 0.0004 -4.1629 0.0001
# 2 27.0902 113.3249 23.4257 0.0003 -2.2909 0.0001
# 3 43.1787 23.4257 138.8892 0.0010 -19.4555 0.0006
# 4 0.0004 0.0003 0.0010 32.8598 0.0004 1.2731
# 5 -4.1629 -2.2909 -19.4555 0.0004 36.7720 0.0001
# 6 0.0001 0.0001 0.0006 1.2731 0.0001 31.6898
#
#
#
# Elastic Compliance Matrix: (Units=1/GPa)
#
#
# Indices 1 2 3 4 5 6 
#
# 1 0.013902 -0.002511 -0.003996 0.000000 -0.000697 0.000000
# 2 -0.002511 0.009599 -0.000858 0.000000 -0.000140 0.000000
# 3 -0.003996 -0.000858 0.009198 0.000000 0.004361 0.000000
# 4 0.000000 0.000000 0.000000 0.030480 0.000000 -0.001225
# 5 -0.000697 -0.000140 0.004361 0.000000 0.029414 0.000000
# 6 0.000000 0.000000 0.000000 -0.001225 0.000000 0.031605
#
#
# Mechanical properties :
#
#
# Convention : Reuss Voigt Hill
#
# Bulk Modulus (GPa) = 55.65289 58.73659 57.19474
# Shear Modulus (GPa) = 34.50212 36.76735 35.63474
#
# Velocity S-wave (km/s) = 4.03519 4.16555 4.10089
# Velocity P-wave (km/s) = 6.92640 7.13132 7.02960
#
# Compressibility (1/GPa) = 0.01796852
#
# Stress axis : x y z
#
# Youngs Moduli (GPa) = 71.92969 104.17706 108.72106
#
# Poissons Ratio (x) = 0.26163 0.43446
# Poissons Ratio (y) = 0.18065 0.09327
# Poissons Ratio (z) = 0.28744 0.08937
#
# Static dielectric constant tensor:
#      x y z
#    x 4.494030 0.000000 0.028930 
#    y 0.000000 4.056620 0.000000 
#    z 0.028930 0.000000 3.917770 
# 
# 
# High freq. dielectric constant tensor:
#      x y z
#    x 1.817790 0.000000 -0.003430 
#    y 0.000000 1.848890 0.000000 
#    z -0.003430 0.000000 1.829980 
# 
# From -- ./inp_files/274643.got.cif
#   From: 2010.06.25/outbox.cif.g09.slc.cpg/sg15_138_cif.got.tgz:274643.got - 2010.06.28 07:06:18.
