data_PCOD8149304
_publ_section_title
;
Structure prediction by ZEFSAII (Michael W. Deem and Ramdas Pophale) SiO2 
 PCOD8149304
Probable space group: C 2/C
;
_chemical_formula_sum "Si O2"
_cell_formula_units_Z 36
_cell_length_a 6.805138
_cell_length_b 17.933832
_cell_length_c 14.490256
_cell_angle_alpha 90.000000
_cell_angle_beta 101.254614
_cell_angle_gamma 90.000000
_cell_volume 1734.415209
_symmetry_space_group_name_H-M "C 2/C"
_symmetry_group_IT_number 15
_symmetry_cell_setting 'monoclinic'
loop_
_space_group_symop_operation_xyz
x,y,z
-x,y,1/2-z
-x,-y,-z
x,-y,1/2+z
1/2+x,1/2+y,z
1/2-x,1/2+y,1/2-z
1/2-x,1/2-y,-z
1/2+x,1/2-y,1/2+z
loop_
_atom_site_type_symbol
_atom_site_label
_atom_site_fract_x
_atom_site_fract_y
_atom_site_fract_z
Si Si1 0.000000 0.700758 0.250000
Si Si2 0.292486 0.587464 0.181564
Si Si3 0.093783 0.843285 0.351880
Si Si4 0.953006 0.436692 0.346992
Si Si5 0.863949 0.073169 0.982805
O O1 0.821524 0.653275 0.276662
O O2 0.904097 0.753423 0.160795
O O3 0.500000 0.570085 0.250000
O O4 0.159327 0.514319 0.173190
O O5 0.336833 0.610110 0.080333
O O6 0.316781 0.875517 0.386736
O O7 0.000000 0.880647 0.250000
O O8 0.960370 0.863755 0.427577
O O9 0.000000 0.404497 0.250000
O O10 0.149966 0.451647 0.424273
O O11 0.000000 0.000000 0.000000
#
# Coordination Sequence:
#
# PCOD8149304 Si02
#       5
#     4   8   8   8   8
#     4  10  26  46  68  98 146 182 214 284 354 398
#     4  12  26  42  68 102 139 179 228 280 339 406
#     4  10  23  45  66 100 134 179 223 276 337 407
#     4  12  21  41  74  98 135 180 229 282 335 399
#     4  12  25  40  72 108 131 176 238 282 334 400
#
# _framework density 20.756274999999999
#
# number of rings (size 3 to 8) (size 9 to 14) (size 15 to 20)
#    0.667    0.000    5.556    2.667    0.000    3.556 
#    0.000    2.222    0.000    0.000    0.000    0.000 
#    0.000    0.000    0.000    0.000    0.000    0.000 
#
# Total GULP energy -223236.423229 kJ/mol
# GULP energy per Si atom -12402.023513 kJ/mol
# Density = 2.070903 g / cm^3
# Si number density = 20.756275 Si / 1000 Ang^3
#
#
#
# Elastic Constant Matrix: (Units=GPa)
#
#
# Indices 1 2 3 4 5 6 
#
# 1 165.7976 67.2791 70.7411 0.0000 8.9363 0.0000
# 2 67.2791 113.9930 28.4281 0.0000 -3.6617 0.0000
# 3 70.7411 28.4281 133.1412 0.0000 -5.6243 0.0000
# 4 0.0000 0.0000 0.0000 14.4289 0.0000 -13.5183
# 5 8.9363 -3.6617 -5.6243 0.0000 54.0057 0.0000
# 6 0.0000 0.0000 0.0000 -13.5183 0.0000 2.2152
#
#
#
# Elastic Compliance Matrix: (Units=1/GPa)
#
#
# Indices 1 2 3 4 5 6 
#
# 1 0.010021 -0.004901 -0.004382 0.000000 -0.002447 0.000000
# 2 -0.004901 0.011672 0.000180 0.000000 0.001621 0.000000
# 3 -0.004382 0.000180 0.009875 0.000000 0.001766 0.000000
# 4 0.000000 0.000000 0.000000 -0.014691 0.000000 -0.089655
# 5 -0.002447 0.001621 0.001766 0.000000 0.019215 0.000000
# 6 0.000000 0.000000 0.000000 -0.089655 0.000000 -0.095694
#
#
# Mechanical properties :
#
#
# Convention : Reuss Voigt Hill
#
# Bulk Modulus (GPa) = 74.82677 82.86982 78.84830
# Shear Modulus (GPa) = -135.34561 30.56220 -52.39171
#
# Velocity S-wave (km/s) = -8.08385 3.84139 -5.02953
# Velocity P-wave (km/s) = 7.14164 7.72573 2.08373
#
# Compressibility (1/GPa) = 0.01336420
#
# Stress axis : x y z
#
# Youngs Moduli (GPa) = 99.78581 85.67529 101.26555
#
# Poissons Ratio (x) = 0.41986 0.44371
# Poissons Ratio (y) = 0.48901 -0.01824
# Poissons Ratio (z) = 0.43723 -0.01543
#
# Static dielectric constant tensor:
#      x y z
#    x 3.999270 0.000000 -0.134480 
#    y 0.000000 3.523570 0.000000 
#    z -0.134480 0.000000 3.880300 
# 
# 
# High freq. dielectric constant tensor:
#      x y z
#    x 1.833410 0.000000 -0.009580 
#    y 0.000000 1.795630 0.000000 
#    z -0.009580 0.000000 1.814660 
# 
# From -- ./inp_files/128735.got.cif
#   From: 2010.06.25/outbox.cif.g09.slc.cpg/sg15_65_cif.got.tgz:128735.got - 2010.06.28 07:06:18.
