data_PCOD8149880
_publ_section_title
;
Structure prediction by ZEFSAII (Michael W. Deem and Ramdas Pophale) SiO2 
 PCOD8149880
Probable space group: C 2/C
;
_chemical_formula_sum "Si O2"
_cell_formula_units_Z 44
_cell_length_a 23.194694
_cell_length_b 11.313429
_cell_length_c 7.302692
_cell_angle_alpha 90.000000
_cell_angle_beta 87.008727
_cell_angle_gamma 90.000000
_cell_volume 1913.699552
_symmetry_space_group_name_H-M "C 2/C"
_symmetry_group_IT_number 15
_symmetry_cell_setting 'monoclinic'
loop_
_space_group_symop_operation_xyz
x,y,z
-x,y,1/2-z
-x,-y,-z
x,-y,1/2+z
1/2+x,1/2+y,z
1/2-x,1/2+y,1/2-z
1/2-x,1/2-y,-z
1/2+x,1/2-y,1/2+z
loop_
_atom_site_type_symbol
_atom_site_label
_atom_site_fract_x
_atom_site_fract_y
_atom_site_fract_z
Si Si1 0.014004 0.366704 0.458716
Si Si2 0.703908 0.900574 0.117110
Si Si3 0.558568 0.662861 0.927213
Si Si4 0.500000 0.522639 0.250000
Si Si5 0.148954 0.353068 0.499257
Si Si6 0.682756 0.709643 0.831607
O O1 0.079996 0.347280 0.507041
O O2 0.000000 0.335525 0.250000
O O3 0.000000 0.500000 0.500000
O O4 0.970728 0.291363 0.597050
O O5 0.669295 0.836693 0.287132
O O6 0.771291 0.898615 0.171180
O O7 0.675996 0.027450 0.081337
O O8 0.704791 0.827199 0.929366
O O9 0.554005 0.568017 0.764100
O O10 0.626071 0.673112 0.955615
O O11 0.517111 0.608304 0.086539
O O12 0.169390 0.243678 0.622540
#
# Coordination Sequence:
#
# PCOD8149880 Si02
#       6
#     8   8   8   4   8   8
#     4  12  26  40  71 110 143 185 231 304 370 430
#     4  11  25  43  67 100 138 185 239 287 356 425
#     4  11  23  46  65 102 135 181 236 286 362 422
#     4  10  24  42  68  94 138 182 228 286 348 436
#     4  12  23  45  70 101 144 182 235 298 363 428
#     4  11  25  45  69  97 139 186 239 296 345 434
#
# _framework density 22.992114000000001
#
# number of rings (size 3 to 8) (size 9 to 14) (size 15 to 20)
#    0.000    0.727    2.727    4.909    3.818    1.455 
#    0.000    0.000    0.000    0.000    0.000    0.000 
#    0.000    0.000    0.000    0.000    0.000    0.000 
#
# Total GULP energy -272592.061381 kJ/mol
# GULP energy per Si atom -12390.548245 kJ/mol
# Density = 2.293978 g / cm^3
# Si number density = 22.992114 Si / 1000 Ang^3
#
#
#
# Elastic Constant Matrix: (Units=GPa)
#
#
# Indices 1 2 3 4 5 6 
#
# 1 179.1368 31.3344 5.7421 0.0000 -0.0471 0.0000
# 2 31.3344 70.0656 -4.9144 0.0000 5.0044 0.0000
# 3 5.7421 -4.9144 71.7872 0.0000 9.3135 0.0000
# 4 0.0000 0.0000 0.0000 -428.4023 0.0000 -222.3787
# 5 -0.0471 5.0044 9.3135 0.0000 39.6265 0.0000
# 6 0.0000 0.0000 0.0000 -222.3787 0.0000 -78.6111
#
#
#
# Elastic Compliance Matrix: (Units=1/GPa)
#
#
# Indices 1 2 3 4 5 6 
#
# 1 0.006100 -0.002819 -0.000751 0.000000 0.000540 0.000000
# 2 -0.002819 0.015817 0.001617 0.000000 -0.002381 0.000000
# 3 -0.000751 0.001617 0.014572 0.000000 -0.003630 0.000000
# 4 0.000000 0.000000 0.000000 0.004983 0.000000 -0.014097
# 5 0.000540 -0.002381 -0.003630 0.000000 0.026390 0.000000
# 6 0.000000 0.000000 0.000000 -0.014097 0.000000 0.027157
#
#
# Mechanical properties :
#
#
# Convention : Reuss Voigt Hill
#
# Bulk Modulus (GPa) = 30.69153 42.81266 36.75209
# Shear Modulus (GPa) = 45.54373 -74.22221 -14.33924
#
# Velocity S-wave (km/s) = 4.45549 -5.68785 -2.50003
# Velocity P-wave (km/s) = 6.31239 4.94718 2.77234
#
# Compressibility (1/GPa) = 0.03258228
#
# Stress axis : x y z
#
# Youngs Moduli (GPa) = 163.94392 63.22486 68.62586
#
# Poissons Ratio (x) = 0.17824 0.05153
# Poissons Ratio (y) = 0.46217 -0.11098
# Poissons Ratio (z) = 0.12311 -0.10224
#
# Static dielectric constant tensor:
#      x y z
#    x 4.596910 0.000000 0.417130 
#    y 0.000000 4.255280 0.000000 
#    z 0.417130 0.000000 4.682050 
# 
# 
# High freq. dielectric constant tensor:
#      x y z
#    x 1.915430 0.000000 0.007500 
#    y 0.000000 1.903410 0.000000 
#    z 0.007500 0.000000 1.917630 
# 
# From -- ./inp_files/54425.got.cif
#   From: 2010.06.25/outbox.cif.g09.slc.cpg/sg15_28_cif.got.tgz:54425.got - 2010.06.28 07:06:18.
