data_PCOD8149431
_publ_section_title
;
Structure prediction by ZEFSAII (Michael W. Deem and Ramdas Pophale) SiO2 
 PCOD8149431
Probable space group: C 2/C
;
_chemical_formula_sum "Si O2"
_cell_formula_units_Z 56
_cell_length_a 17.430278
_cell_length_b 21.220839
_cell_length_c 14.645222
_cell_angle_alpha 90.000000
_cell_angle_beta 27.127210
_cell_angle_gamma 90.000000
_cell_volume 2469.999287
_symmetry_space_group_name_H-M "C 2/C"
_symmetry_group_IT_number 15
_symmetry_cell_setting 'monoclinic'
loop_
_space_group_symop_operation_xyz
x,y,z
-x,y,1/2-z
-x,-y,-z
x,-y,1/2+z
1/2+x,1/2+y,z
1/2-x,1/2+y,1/2-z
1/2-x,1/2-y,-z
1/2+x,1/2-y,1/2+z
loop_
_atom_site_type_symbol
_atom_site_label
_atom_site_fract_x
_atom_site_fract_y
_atom_site_fract_z
Si Si1 0.177383 0.943818 0.009640
Si Si2 0.500000 0.000370 0.750000
Si Si3 0.239478 0.188242 0.389507
Si Si4 0.445456 0.453298 0.977491
Si Si5 0.734113 0.338132 0.381633
Si Si6 0.100392 0.711176 0.469409
Si Si7 0.267129 0.896996 0.548850
Si Si8 0.000000 0.730581 0.250000
O O1 0.000000 0.935736 0.250000
O O2 0.182737 0.007288 0.947073
O O3 0.192303 0.884810 0.924834
O O4 0.349620 0.952667 0.883553
O O5 0.584027 0.051685 0.591519
O O6 0.321040 0.218334 0.213933
O O7 0.358155 0.188174 0.353468
O O8 0.073020 0.227056 0.590480
O O9 0.599010 0.433816 0.750942
O O10 0.500000 0.500000 0.000000
O O11 0.339724 0.389732 0.113203
O O12 0.606209 0.278436 0.515673
O O13 0.751630 0.369151 0.462841
O O14 0.910614 0.311973 0.159254
O O15 0.209420 0.661294 0.409397
#
# Coordination Sequence:
#
# PCOD8149431 Si02
#       8
#     8   4   8   8   8   8   8   4
#     4  12  23  45  71 103 138 192 242 300 367 443
#     4  12  23  44  76 100 151 196 250 294 360 458
#     4  11  24  44  70 101 140 186 249 303 376 441
#     4  12  26  45  71 104 145 193 246 305 362 434
#     4  12  25  46  70 106 149 194 241 303 374 448
#     4  12  25  43  72 111 146 189 248 310 371 442
#     4  12  23  46  71 107 150 195 243 299 373 444
#     4  10  23  46  68  94 139 192 238 314 372 446
#
# _framework density 22.672072
#
# number of rings (size 3 to 8) (size 9 to 14) (size 15 to 20)
#    0.000    0.286    5.000    3.857    0.000    3.429 
#    2.571    2.857    0.000    0.000    0.000    0.000 
#    0.000    0.000    0.000    0.000    0.000    0.000 
#
# Total GULP energy -346954.696633 kJ/mol
# GULP energy per Si atom -12391.239165 kJ/mol
# Density = 2.262047 g / cm^3
# Si number density = 22.672072 Si / 1000 Ang^3
#
#
#
# Elastic Constant Matrix: (Units=GPa)
#
#
# Indices 1 2 3 4 5 6 
#
# 1 77.9212 33.5179 40.8137 0.0255 -6.1441 0.0035
# 2 33.5179 129.3350 45.1404 -0.0319 -6.2606 0.0375
# 3 40.8137 45.1404 137.1870 0.0198 -9.1212 0.0091
# 4 0.0255 -0.0319 0.0198 25.6311 -0.0108 2.1776
# 5 -6.1441 -6.2606 -9.1212 -0.0108 39.5218 0.0269
# 6 0.0035 0.0375 0.0091 2.1776 0.0269 28.4828
#
#
#
# Elastic Compliance Matrix: (Units=1/GPa)
#
#
# Indices 1 2 3 4 5 6 
#
# 1 0.016118 -0.002794 -0.003797 -0.000016 0.001187 0.000003
# 2 -0.002794 0.009240 -0.002174 0.000017 0.000528 -0.000013
# 3 -0.003797 -0.002174 0.009213 -0.000006 0.001192 0.000000
# 4 -0.000016 0.000017 -0.000006 0.039270 0.000012 -0.003002
# 5 0.001187 0.000528 0.001192 0.000012 0.025846 -0.000027
# 6 0.000003 -0.000013 0.000000 -0.003002 -0.000027 0.035338
#
#
# Mechanical properties :
#
#
# Convention : Reuss Voigt Hill
#
# Bulk Modulus (GPa) = 58.68134 64.82081 61.75108
# Shear Modulus (GPa) = 31.59825 33.72523 32.66174
#
# Velocity S-wave (km/s) = 3.73729 3.86103 3.79966
# Velocity P-wave (km/s) = 6.67547 6.96630 6.82244
#
# Compressibility (1/GPa) = 0.01704119
#
# Stress axis : x y z
#
# Youngs Moduli (GPa) = 62.04350 108.22056 108.53707
#
# Poissons Ratio (x) = 0.30242 0.41208
# Poissons Ratio (y) = 0.17338 0.23597
# Poissons Ratio (z) = 0.23556 0.23528
#
# Static dielectric constant tensor:
#      x y z
#    x 2.155180 -0.003700 -0.927440 
#    y -0.003700 4.462050 -0.000530 
#    z -0.927440 -0.000530 3.931800 
# 
# 
# High freq. dielectric constant tensor:
#      x y z
#    x 1.881360 -0.000020 -0.024800 
#    y -0.000020 1.921660 0.000030 
#    z -0.024800 0.000030 1.897630 
# 
# From -- ./inp_files/163782.got.cif
#   From: 2010.06.25/outbox.cif.g09.slc.cpg/sg15_82_cif.got.tgz:163782.got - 2010.06.28 07:06:18.
