data_PCOD8149938
_publ_section_title
;
Structure prediction by ZEFSAII (Michael W. Deem and Ramdas Pophale) SiO2 
 PCOD8149938
Probable space group: C 2/C
;
_chemical_formula_sum "Si O2"
_cell_formula_units_Z 28
_cell_length_a 8.713046
_cell_length_b 17.239203
_cell_length_c 14.727838
_cell_angle_alpha 90.000000
_cell_angle_beta 144.713726
_cell_angle_gamma 90.000000
_cell_volume 1277.909377
_symmetry_space_group_name_H-M "C 2/C"
_symmetry_group_IT_number 15
_symmetry_cell_setting 'monoclinic'
loop_
_space_group_symop_operation_xyz
x,y,z
-x,y,1/2-z
-x,-y,-z
x,-y,1/2+z
1/2+x,1/2+y,z
1/2-x,1/2+y,1/2-z
1/2-x,1/2-y,-z
1/2+x,1/2-y,1/2+z
loop_
_atom_site_type_symbol
_atom_site_label
_atom_site_fract_x
_atom_site_fract_y
_atom_site_fract_z
Si Si1 0.505000 0.091479 0.506570
Si Si2 0.706505 0.830313 0.930427
Si Si3 0.500000 0.311089 0.750000
Si Si4 0.708353 0.839959 0.281188
O O1 0.596430 0.109752 0.449733
O O2 0.225678 0.132261 0.398546
O O3 0.707562 0.121986 0.681099
O O4 0.500000 0.000000 0.500000
O O5 0.500000 0.823378 0.750000
O O6 0.750000 0.750000 0.000000
O O7 0.998897 0.854840 0.035790
O O8 0.368560 0.252939 0.762505
O O9 0.500000 0.881043 0.250000
#
# Coordination Sequence:
#
# PCOD8149938 Si02
#       4
#     8   8   4   8
#     4  12  27  44  72 109 149 182 237 309 365 414
#     4  12  25  44  72 106 143 188 244 294 355 434
#     4  10  24  42  76  96 144 186 244 276 362 420
#     4  10  24  45  75  98 140 191 249 279 356 440
#
# _framework density 21.910789000000001
#
# number of rings (size 3 to 8) (size 9 to 14) (size 15 to 20)
#    0.857    0.000    2.857    3.429    8.000    1.143 
#    0.000    2.857    0.000    0.000    0.000    0.000 
#    0.000    0.000    0.000    0.000    0.000    0.000 
#
# Total GULP energy -173515.387500 kJ/mol
# GULP energy per Si atom -12393.956250 kJ/mol
# Density = 2.186092 g / cm^3
# Si number density = 21.910789 Si / 1000 Ang^3
#
#
#
# Elastic Constant Matrix: (Units=GPa)
#
#
# Indices 1 2 3 4 5 6 
#
# 1 118.9139 42.5452 84.9092 0.0008 4.6847 -0.0004
# 2 42.5452 160.4105 60.8279 -0.0001 -9.6501 -0.0008
# 3 84.9092 60.8279 206.1634 0.0049 9.1046 0.0007
# 4 0.0008 -0.0001 0.0049 21.1702 0.0016 -5.7448
# 5 4.6847 -9.6501 9.1046 0.0016 44.8946 -0.0001
# 6 -0.0004 -0.0008 0.0007 -5.7448 -0.0001 30.1327
#
#
#
# Elastic Compliance Matrix: (Units=1/GPa)
#
#
# Indices 1 2 3 4 5 6 
#
# 1 0.012246 -0.001564 -0.004552 0.000001 -0.000691 0.000000
# 2 -0.001564 0.007392 -0.001629 0.000000 0.002082 0.000000
# 3 -0.004552 -0.001629 0.007265 -0.000002 -0.001349 -0.000001
# 4 0.000001 0.000000 -0.000002 0.049813 -0.000001 0.009497
# 5 -0.000691 0.002082 -0.001349 -0.000001 0.023068 0.000000
# 6 0.000000 0.000000 -0.000001 0.009497 0.000000 0.034997
#
#
# Mechanical properties :
#
#
# Convention : Reuss Voigt Hill
#
# Bulk Modulus (GPa) = 87.60607 95.78359 91.69483
# Shear Modulus (GPa) = 32.45181 39.05320 35.75251
#
# Velocity S-wave (km/s) = 3.85267 4.22640 4.04385
# Velocity P-wave (km/s) = 7.73696 8.22355 7.98396
#
# Compressibility (1/GPa) = 0.01141473
#
# Stress axis : x y z
#
# Youngs Moduli (GPa) = 81.65763 135.28784 137.63924
#
# Poissons Ratio (x) = 0.21153 0.62651
# Poissons Ratio (y) = 0.12767 0.22420
# Poissons Ratio (z) = 0.37169 0.22037
#
# Static dielectric constant tensor:
#      x y z
#    x 3.866470 -0.000420 0.594700 
#    y -0.000420 2.523490 -0.000340 
#    z 0.594700 -0.000340 4.339560 
# 
# 
# High freq. dielectric constant tensor:
#      x y z
#    x 1.868640 0.000000 0.017330 
#    y 0.000000 1.837860 0.000000 
#    z 0.017330 0.000000 1.869250 
# 
# From -- ./inp_files/134698.got.cif
#   From: 2010.06.25/outbox.cif.g09.slc.cpg/sg15_68_cif.got.tgz:134698.got - 2010.06.28 07:06:18.
