data_PCOD8149682
_publ_section_title
;
Structure prediction by ZEFSAII (Michael W. Deem and Ramdas Pophale) SiO2 
 PCOD8149682
Probable space group: C 2/C
;
_chemical_formula_sum "Si O2"
_cell_formula_units_Z 56
_cell_length_a 6.211406
_cell_length_b 26.161077
_cell_length_c 16.877335
_cell_angle_alpha 90.000000
_cell_angle_beta 109.738770
_cell_angle_gamma 90.000000
_cell_volume 2581.373283
_symmetry_space_group_name_H-M "C 2/C"
_symmetry_group_IT_number 15
_symmetry_cell_setting 'monoclinic'
loop_
_space_group_symop_operation_xyz
x,y,z
-x,y,1/2-z
-x,-y,-z
x,-y,1/2+z
1/2+x,1/2+y,z
1/2-x,1/2+y,1/2-z
1/2-x,1/2-y,-z
1/2+x,1/2-y,1/2+z
loop_
_atom_site_type_symbol
_atom_site_label
_atom_site_fract_x
_atom_site_fract_y
_atom_site_fract_z
Si Si1 0.090976 0.438271 0.597911
Si Si2 0.558541 0.621803 0.615589
Si Si3 0.830974 0.979911 0.043394
Si Si4 0.816972 0.698892 0.874905
Si Si5 0.891113 0.804506 0.821882
Si Si6 0.500000 0.859532 0.250000
Si Si7 0.000000 0.612962 0.250000
Si Si8 0.719583 0.158733 0.017077
O O1 0.304606 0.476370 0.608108
O O2 0.065825 0.424716 0.686869
O O3 0.105954 0.386510 0.551349
O O4 0.885440 0.470939 0.538562
O O5 0.402444 0.571898 0.596300
O O6 0.416669 0.669792 0.632527
O O7 0.774952 0.607880 0.698996
O O8 0.641617 0.635507 0.538702
O O9 0.000000 0.000000 0.000000
O O10 0.751994 0.756695 0.841903
O O11 0.946126 0.675178 0.817334
O O12 0.007648 0.696211 0.968519
O O13 0.719861 0.852543 0.799075
O O14 0.000000 0.793097 0.750000
O O15 0.104654 0.811928 0.905954
#
# Coordination Sequence:
#
# PCOD8149682 Si02
#       8
#     8   8   8   8   8   4   4   8
#     4  11  24  45  73 107 138 186 237 293 354 423
#     4  11  23  43  73 100 139 184 228 300 347 421
#     4  11  23  45  78  99 136 187 239 286 359 423
#     4  11  24  44  71 102 141 182 237 287 351 417
#     4  12  26  44  72 103 143 191 231 287 351 428
#     4  10  24  40  67  98 144 176 229 288 352 402
#     4  12  28  44  73 104 152 184 233 296 358 416
#     4  11  23  44  71 101 143 181 239 287 347 418
#
# _framework density 21.69388
#
# number of rings (size 3 to 8) (size 9 to 14) (size 15 to 20)
#    0.000    0.857    5.000    1.714    2.000    0.571 
#    0.000    4.286    0.000    0.000    0.000    0.000 
#    0.000    0.000    0.000    0.000    0.000    0.000 
#
# Total GULP energy -347137.774794 kJ/mol
# GULP energy per Si atom -12397.777671 kJ/mol
# Density = 2.164450 g / cm^3
# Si number density = 21.693880 Si / 1000 Ang^3
#
#
#
# Elastic Constant Matrix: (Units=GPa)
#
#
# Indices 1 2 3 4 5 6 
#
# 1 102.8395 38.3092 54.3960 0.0000 -12.1181 0.0000
# 2 38.3092 112.6161 52.3134 0.0000 -18.6976 0.0000
# 3 54.3960 52.3134 135.3478 0.0000 -2.4056 0.0000
# 4 0.0000 0.0000 0.0000 34.3463 0.0000 -7.1080
# 5 -12.1181 -18.6976 -2.4056 0.0000 42.0708 0.0000
# 6 0.0000 0.0000 0.0000 -7.1080 0.0000 39.0511
#
#
#
# Elastic Compliance Matrix: (Units=1/GPa)
#
#
# Indices 1 2 3 4 5 6 
#
# 1 0.013131 -0.001944 -0.004478 0.000000 0.002662 0.000000
# 2 -0.001944 0.012069 -0.003802 0.000000 0.004586 0.000000
# 3 -0.004478 -0.003802 0.010615 0.000000 -0.002373 0.000000
# 4 0.000000 0.000000 0.000000 0.030255 0.000000 0.005507
# 5 0.002662 0.004586 -0.002373 0.000000 0.026439 0.000000
# 6 0.000000 0.000000 0.000000 0.005507 0.000000 0.026610
#
#
# Mechanical properties :
#
#
# Convention : Reuss Voigt Hill
#
# Bulk Modulus (GPa) = 65.07957 71.20450 68.14203
# Shear Modulus (GPa) = 34.55687 36.81263 35.68475
#
# Velocity S-wave (km/s) = 3.99548 4.12383 4.06016
# Velocity P-wave (km/s) = 7.16585 7.45441 7.31155
#
# Compressibility (1/GPa) = 0.01536581
#
# Stress axis : x y z
#
# Youngs Moduli (GPa) = 76.15770 82.85960 94.20263
#
# Poissons Ratio (x) = 0.16112 0.42187
# Poissons Ratio (y) = 0.14808 0.35813
# Poissons Ratio (z) = 0.34106 0.31500
#
# Static dielectric constant tensor:
#      x y z
#    x 1.392850 0.000000 0.036630 
#    y 0.000000 4.113490 0.000000 
#    z 0.036630 0.000000 4.286270 
# 
# 
# High freq. dielectric constant tensor:
#      x y z
#    x 1.867930 0.000000 -0.001530 
#    y 0.000000 1.848370 0.000000 
#    z -0.001530 0.000000 1.859950 
# 
# From -- ./inp_files/186245.got.cif
#   From: 2010.06.25/outbox.cif.g09.slc.cpg/sg15_94_cif.got.tgz:186245.got - 2010.06.28 07:06:18.
