data_PCOD8149771
_publ_section_title
;
Structure prediction by ZEFSAII (Michael W. Deem and Ramdas Pophale) SiO2 
 PCOD8149771
Probable space group: C 2/C
;
_chemical_formula_sum "Si O2"
_cell_formula_units_Z 52
_cell_length_a 9.703797
_cell_length_b 24.834670
_cell_length_c 12.467965
_cell_angle_alpha 90.000000
_cell_angle_beta 129.598258
_cell_angle_gamma 90.000000
_cell_volume 2315.190336
_symmetry_space_group_name_H-M "C 2/C"
_symmetry_group_IT_number 15
_symmetry_cell_setting 'monoclinic'
loop_
_space_group_symop_operation_xyz
x,y,z
-x,y,1/2-z
-x,-y,-z
x,-y,1/2+z
1/2+x,1/2+y,z
1/2-x,1/2+y,1/2-z
1/2-x,1/2-y,-z
1/2+x,1/2-y,1/2+z
loop_
_atom_site_type_symbol
_atom_site_label
_atom_site_fract_x
_atom_site_fract_y
_atom_site_fract_z
Si Si1 0.856087 0.538463 0.372134
Si Si2 0.682273 0.943127 0.277711
Si Si3 0.916095 0.369055 0.463472
Si Si4 0.000000 0.915493 0.750000
Si Si5 0.883425 0.702968 0.593484
Si Si6 0.072760 0.132664 0.501736
Si Si7 0.126698 0.198251 0.916440
O O1 0.802384 0.507638 0.236021
O O2 0.676250 0.547458 0.354042
O O3 0.000000 0.500000 0.500000
O O4 0.939743 0.597749 0.393698
O O5 0.500000 0.930744 0.250000
O O6 0.669760 0.909220 0.163351
O O7 0.874879 0.925277 0.421823
O O8 0.756970 0.351537 0.461313
O O9 0.998712 0.315067 0.450360
O O10 0.034995 0.877619 0.662384
O O11 0.750000 0.750000 0.500000
O O12 0.773236 0.651399 0.574895
O O13 0.000000 0.724390 0.750000
O O14 0.982534 0.178128 0.532654
O O15 0.000000 0.209534 0.750000
O O16 0.250000 0.250000 0.000000
#
# Coordination Sequence:
#
# PCOD8149771 Si02
#       7
#     8   8   8   4   8   8   8
#     4  10  24  41  71 106 149 189 250 311 371 454
#     4  11  20  42  74 102 145 197 248 300 384 447
#     4  11  21  45  69 101 150 189 241 309 377 449
#     4  12  26  46  72 110 144 202 258 310 370 460
#     4  12  23  40  71 103 139 191 246 309 379 450
#     4  12  24  45  72 101 151 195 249 314 377 457
#     4  12  27  47  74 109 152 201 253 314 400 469
#
# _framework density 22.460353999999999
#
# number of rings (size 3 to 8) (size 9 to 14) (size 15 to 20)
#    0.000    0.615    6.154    1.846    1.077    5.538 
#    0.000    0.000    0.000    0.000    0.000    0.000 
#    0.000    0.000    0.000    0.000    0.000    0.000 
#
# Total GULP energy -322175.115808 kJ/mol
# GULP energy per Si atom -12391.350608 kJ/mol
# Density = 2.240923 g / cm^3
# Si number density = 22.460354 Si / 1000 Ang^3
#
#
#
# Elastic Constant Matrix: (Units=GPa)
#
#
# Indices 1 2 3 4 5 6 
#
# 1 94.7123 29.1082 33.5931 0.0000 9.0770 0.0000
# 2 29.1082 105.9015 66.2059 0.0000 4.6480 0.0000
# 3 33.5931 66.2059 126.4940 0.0000 5.7827 0.0000
# 4 0.0000 0.0000 0.0000 43.0067 0.0000 11.1046
# 5 9.0770 4.6480 5.7827 0.0000 35.6626 0.0000
# 6 0.0000 0.0000 0.0000 11.1046 0.0000 34.0276
#
#
#
# Elastic Compliance Matrix: (Units=1/GPa)
#
#
# Indices 1 2 3 4 5 6 
#
# 1 0.012132 -0.001906 -0.002110 0.000000 -0.002497 0.000000
# 2 -0.001906 0.014349 -0.006993 0.000000 -0.000251 0.000000
# 3 -0.002110 -0.006993 0.012150 0.000000 -0.000522 0.000000
# 4 0.000000 0.000000 0.000000 0.025392 0.000000 -0.008286
# 5 -0.002497 -0.000251 -0.000522 0.000000 0.028793 0.000000
# 6 0.000000 0.000000 0.000000 -0.008286 0.000000 0.032092
#
#
# Mechanical properties :
#
#
# Convention : Reuss Voigt Hill
#
# Bulk Modulus (GPa) = 60.19235 64.99135 62.59185
# Shear Modulus (GPa) = 32.79490 35.75278 34.27384
#
# Velocity S-wave (km/s) = 3.82530 3.99409 3.91061
# Velocity P-wave (km/s) = 6.80942 7.09007 6.95116
#
# Compressibility (1/GPa) = 0.01661341
#
# Stress axis : x y z
#
# Youngs Moduli (GPa) = 82.42814 69.69079 82.30690
#
# Poissons Ratio (x) = 0.13281 0.17369
# Poissons Ratio (y) = 0.15708 0.57554
# Poissons Ratio (z) = 0.17395 0.48732
#
# Static dielectric constant tensor:
#      x y z
#    x 4.008520 0.000000 -0.144890 
#    y 0.000000 4.610270 0.000000 
#    z -0.144890 0.000000 4.396850 
# 
# 
# High freq. dielectric constant tensor:
#      x y z
#    x 1.884240 0.000000 0.011980 
#    y 0.000000 1.888610 0.000000 
#    z 0.011980 0.000000 1.880510 
# 
# From -- ./inp_files/81494.got.cif
#   From: 2010.06.25/outbox.cif.g09.slc.cpg/sg15_41_cif.got.tgz:81494.got - 2010.06.28 07:06:18.
