data_PCOD8149188
_publ_section_title
;
Structure prediction by ZEFSAII (Michael W. Deem and Ramdas Pophale) SiO2 
 PCOD8149188
Probable space group: C 2/C
;
_chemical_formula_sum "Si O2"
_cell_formula_units_Z 28
_cell_length_a 8.839893
_cell_length_b 28.026858
_cell_length_c 8.809309
_cell_angle_alpha 90.000000
_cell_angle_beta 147.191047
_cell_angle_gamma 90.000000
_cell_volume 1182.589360
_symmetry_space_group_name_H-M "C 2/C"
_symmetry_group_IT_number 15
_symmetry_cell_setting 'monoclinic'
loop_
_space_group_symop_operation_xyz
x,y,z
-x,y,1/2-z
-x,-y,-z
x,-y,1/2+z
1/2+x,1/2+y,z
1/2-x,1/2+y,1/2-z
1/2-x,1/2-y,-z
1/2+x,1/2-y,1/2+z
loop_
_atom_site_type_symbol
_atom_site_label
_atom_site_fract_x
_atom_site_fract_y
_atom_site_fract_z
Si Si1 0.389593 0.777494 0.326186
Si Si2 0.500000 0.014699 0.750000
Si Si3 0.213014 0.561772 0.215863
Si Si4 0.177446 0.122067 0.753605
O O1 0.500000 0.774504 0.250000
O O2 0.639312 0.760226 0.645567
O O3 0.292067 0.830832 0.272110
O O4 0.306645 0.047013 0.477609
O O5 0.283987 0.984214 0.670571
O O6 0.492435 0.592544 0.476351
O O7 0.936556 0.590962 0.028407
O O8 0.000000 0.136419 0.750000
#
# Coordination Sequence:
#
# PCOD8149188 Si02
#       4
#     8   4   8   8
#     4  10  23  44  69  98 135 175 222 275 338 414
#     4  10  24  46  68  96 138 186 232 280 340 392
#     4  11  25  43  68 100 138 181 230 284 332 402
#     4  12  24  43  68 104 139 175 226 282 339 403
#
# _framework density 23.676859
#
# number of rings (size 3 to 8) (size 9 to 14) (size 15 to 20)
#    0.000    1.143    2.857    1.714    2.000    9.143 
#    0.000    0.000    0.000    0.000    0.000    0.000 
#    0.000    0.000    0.000    0.000    0.000    0.000 
#
# Total GULP energy -173662.045314 kJ/mol
# GULP energy per Si atom -12404.431808 kJ/mol
# Density = 2.362297 g / cm^3
# Si number density = 23.676859 Si / 1000 Ang^3
#
#
#
# Elastic Constant Matrix: (Units=GPa)
#
#
# Indices 1 2 3 4 5 6 
#
# 1 49.6385 34.5638 41.6998 0.0000 1.2375 0.0000
# 2 34.5638 126.4867 60.1838 0.0000 10.5189 0.0000
# 3 41.6998 60.1838 117.5552 0.0000 1.7555 0.0000
# 4 0.0000 0.0000 0.0000 -5.3753 0.0000 -30.7891
# 5 1.2375 10.5189 1.7555 0.0000 36.0990 0.0000
# 6 0.0000 0.0000 0.0000 -30.7891 0.0000 -32.2815
#
#
#
# Elastic Compliance Matrix: (Units=1/GPa)
#
#
# Indices 1 2 3 4 5 6 
#
# 1 0.030297 -0.004247 -0.008582 0.000000 0.000616 0.000000
# 2 -0.004247 0.011335 -0.004253 0.000000 -0.002951 0.000000
# 3 -0.008582 -0.004253 0.013715 0.000000 0.000866 0.000000
# 4 0.000000 0.000000 0.000000 0.041683 0.000000 -0.039756
# 5 0.000616 -0.002951 0.000866 0.000000 0.028498 0.000000
# 6 0.000000 0.000000 0.000000 -0.039756 0.000000 0.006941
#
#
# Mechanical properties :
#
#
# Convention : Reuss Voigt Hill
#
# Bulk Modulus (GPa) = 47.20490 62.95280 55.07885
# Shear Modulus (GPa) = 28.78620 10.17064 19.47842
#
# Velocity S-wave (km/s) = 3.49061 2.07483 2.87135
# Velocity P-wave (km/s) = 6.01882 5.69087 5.85714
#
# Compressibility (1/GPa) = 0.02118424
#
# Stress axis : x y z
#
# Youngs Moduli (GPa) = 33.00672 88.21982 72.91153
#
# Poissons Ratio (x) = 0.37464 0.62573
# Poissons Ratio (y) = 0.14017 0.31008
# Poissons Ratio (z) = 0.28327 0.37518
#
# Static dielectric constant tensor:
#      x y z
#    x 4.173300 0.000000 0.109810 
#    y 0.000000 4.223440 0.000000 
#    z 0.109810 0.000000 4.613480 
# 
# 
# High freq. dielectric constant tensor:
#      x y z
#    x 1.938460 0.000000 0.009030 
#    y 0.000000 1.938710 0.000000 
#    z 0.009030 0.000000 1.948710 
# 
# From -- ./inp_files/24778.got.cif
#   From: 2010.06.25/outbox.cif.g09.slc.cpg/sg15_13_cif.got.tgz:24778.got - 2010.06.28 07:06:18.
