data_PCOD8149845
_publ_section_title
;
Structure prediction by ZEFSAII (Michael W. Deem and Ramdas Pophale) SiO2 
 PCOD8149845
Probable space group: C 2/C
;
_chemical_formula_sum "Si O2"
_cell_formula_units_Z 44
_cell_length_a 15.639904
_cell_length_b 10.062381
_cell_length_c 17.827263
_cell_angle_alpha 90.000000
_cell_angle_beta 129.709660
_cell_angle_gamma 90.000000
_cell_volume 2158.294195
_symmetry_space_group_name_H-M "C 2/C"
_symmetry_group_IT_number 15
_symmetry_cell_setting 'monoclinic'
loop_
_space_group_symop_operation_xyz
x,y,z
-x,y,1/2-z
-x,-y,-z
x,-y,1/2+z
1/2+x,1/2+y,z
1/2-x,1/2+y,1/2-z
1/2-x,1/2-y,-z
1/2+x,1/2-y,1/2+z
loop_
_atom_site_type_symbol
_atom_site_label
_atom_site_fract_x
_atom_site_fract_y
_atom_site_fract_z
Si Si1 0.721443 0.598553 0.965754
Si Si2 0.000000 0.263505 0.250000
Si Si3 0.560935 0.941251 0.419660
Si Si4 0.666736 0.440825 0.794131
Si Si5 0.901583 0.656169 0.398690
Si Si6 0.490919 0.561410 0.914125
O O1 0.695220 0.569016 0.862685
O O2 0.616009 0.566848 0.956278
O O3 0.750000 0.750000 0.000000
O O4 0.823513 0.502818 0.046143
O O5 0.000927 0.355804 0.323220
O O6 0.111861 0.174708 0.314151
O O7 0.578994 0.846360 0.501184
O O8 0.481326 0.060207 0.397854
O O9 0.775014 0.386141 0.812256
O O10 0.577709 0.470702 0.680590
O O11 0.926212 0.800292 0.380377
O O12 0.500000 0.500000 0.000000
#
# Coordination Sequence:
#
# PCOD8149845 Si02
#       6
#     8   4   8   8   8   8
#     4  11  23  46  67  93 131 172 216 272 327 389
#     4  12  24  42  66  96 130 176 220 258 334 392
#     4  10  24  42  66  93 129 173 212 268 327 385
#     4  11  26  43  64  97 134 168 218 275 320 394
#     4  10  24  44  63  94 132 166 216 268 322 389
#     4  12  25  42  69  97 128 171 218 269 330 384
#
# _framework density 20.386471
#
# number of rings (size 3 to 8) (size 9 to 14) (size 15 to 20)
#    0.000    1.091    3.636    1.091    5.091    4.364 
#    0.000    0.000    0.000    0.000    0.000    0.000 
#    0.000    0.000    0.000    0.000    0.000    0.000 
#
# Total GULP energy -272852.124902 kJ/mol
# GULP energy per Si atom -12402.369314 kJ/mol
# Density = 2.034007 g / cm^3
# Si number density = 20.386471 Si / 1000 Ang^3
#
#
#
# Elastic Constant Matrix: (Units=GPa)
#
#
# Indices 1 2 3 4 5 6 
#
# 1 163.9290 42.9217 45.6134 0.0000 19.9190 0.0000
# 2 42.9217 78.2896 41.3421 0.0000 -1.3891 0.0000
# 3 45.6134 41.3421 104.0742 0.0000 0.0072 0.0000
# 4 0.0000 0.0000 0.0000 22.6520 0.0000 9.6678
# 5 19.9190 -1.3891 0.0072 0.0000 31.7696 0.0000
# 6 0.0000 0.0000 0.0000 9.6678 0.0000 27.5140
#
#
#
# Elastic Compliance Matrix: (Units=1/GPa)
#
#
# Indices 1 2 3 4 5 6 
#
# 1 0.008279 -0.003439 -0.002262 0.000000 -0.005341 0.000000
# 2 -0.003439 0.017608 -0.005488 0.000000 0.002927 0.000000
# 3 -0.002262 -0.005488 0.012780 0.000000 0.001175 0.000000
# 4 0.000000 0.000000 0.000000 0.051934 0.000000 -0.018249
# 5 -0.005341 0.002927 0.001175 0.000000 0.034953 0.000000
# 6 0.000000 0.000000 0.000000 -0.018249 0.000000 0.042757
#
#
# Mechanical properties :
#
#
# Convention : Reuss Voigt Hill
#
# Bulk Modulus (GPa) = 61.38891 67.33859 64.36375
# Shear Modulus (GPa) = 25.49473 30.81484 28.15479
#
# Velocity S-wave (km/s) = 3.54018 3.89206 3.72028
# Velocity P-wave (km/s) = 6.84751 7.30070 7.07774
#
# Compressibility (1/GPa) = 0.01628959
#
# Stress axis : x y z
#
# Youngs Moduli (GPa) = 120.78719 56.79127 78.24918
#
# Poissons Ratio (x) = 0.19532 0.17700
# Poissons Ratio (y) = 0.41541 0.42940
# Poissons Ratio (z) = 0.27322 0.31165
#
# Static dielectric constant tensor:
#      x y z
#    x 2.059950 0.000000 -0.787160 
#    y 0.000000 3.746990 0.000000 
#    z -0.787160 0.000000 3.229160 
# 
# 
# High freq. dielectric constant tensor:
#      x y z
#    x 1.819170 0.000000 0.008450 
#    y 0.000000 1.801510 0.000000 
#    z 0.008450 0.000000 1.793100 
# 
# From -- ./inp_files/203081.got.cif
#   From: 2010.06.25/outbox.cif.g09.slc.cpg/sg15_102_cif.got.tgz:203081.got - 2010.06.28 07:06:18.
