data_PCOD8149282
_publ_section_title
;
Structure prediction by ZEFSAII (Michael W. Deem and Ramdas Pophale) SiO2 
 PCOD8149282
Probable space group: C 2/C
;
_chemical_formula_sum "Si O2"
_cell_formula_units_Z 40
_cell_length_a 15.541220
_cell_length_b 23.779428
_cell_length_c 9.257738
_cell_angle_alpha 90.000000
_cell_angle_beta 144.697900
_cell_angle_gamma 90.000000
_cell_volume 1977.127725
_symmetry_space_group_name_H-M "C 2/C"
_symmetry_group_IT_number 15
_symmetry_cell_setting 'monoclinic'
loop_
_space_group_symop_operation_xyz
x,y,z
-x,y,1/2-z
-x,-y,-z
x,-y,1/2+z
1/2+x,1/2+y,z
1/2-x,1/2+y,1/2-z
1/2-x,1/2-y,-z
1/2+x,1/2-y,1/2+z
loop_
_atom_site_type_symbol
_atom_site_label
_atom_site_fract_x
_atom_site_fract_y
_atom_site_fract_z
Si Si1 0.715320 0.303261 0.134642
Si Si2 0.107267 0.515626 0.016229
Si Si3 0.900342 0.199642 0.334714
Si Si4 0.651272 0.402072 0.522405
Si Si5 0.833008 0.606520 0.997195
O O1 0.833683 0.253724 0.325150
O O2 0.771133 0.362246 0.272669
O O3 0.697640 0.314593 0.940259
O O4 0.565442 0.284815 0.010131
O O5 0.245770 0.553825 0.251681
O O6 0.179234 0.460123 0.044775
O O7 0.000000 0.545606 0.750000
O O8 0.000000 0.500000 0.000000
O O9 0.899217 0.146897 0.439362
O O10 0.742895 0.375706 0.515952
O O11 0.500000 0.430443 0.250000
O O12 0.000000 0.626513 0.250000
#
# Coordination Sequence:
#
# PCOD8149282 Si02
#       5
#     8   8   8   8   8
#     4  10  23  45  63  99 127 173 216 266 330 387
#     4  11  24  46  67  97 132 177 222 264 325 400
#     4  10  24  42  68  93 133 169 218 267 325 396
#     4  12  25  44  66 103 134 170 220 275 329 383
#     4  11  24  43  66  95 132 171 219 267 326 395
#
# _framework density 20.231368
#
# number of rings (size 3 to 8) (size 9 to 14) (size 15 to 20)
#    0.000    1.200    6.000    0.000    5.600    2.400 
#    7.200    0.000    0.000    0.000    0.000    0.000 
#    0.000    0.000    0.000    0.000    0.000    0.000 
#
# Total GULP energy -248017.391296 kJ/mol
# GULP energy per Si atom -12400.869565 kJ/mol
# Density = 2.018532 g / cm^3
# Si number density = 20.231368 Si / 1000 Ang^3
#
#
#
# Elastic Constant Matrix: (Units=GPa)
#
#
# Indices 1 2 3 4 5 6 
#
# 1 116.3143 27.2136 36.9775 0.0000 2.7807 0.0000
# 2 27.2136 79.0646 53.0852 0.0000 -2.1121 0.0000
# 3 36.9775 53.0852 148.0342 0.0000 7.6308 0.0000
# 4 0.0000 0.0000 0.0000 0.6727 0.0000 -36.1709
# 5 2.7807 -2.1121 7.6308 0.0000 34.4829 0.0000
# 6 0.0000 0.0000 0.0000 -36.1709 0.0000 -8.8917
#
#
#
# Elastic Compliance Matrix: (Units=1/GPa)
#
#
# Indices 1 2 3 4 5 6 
#
# 1 0.009642 -0.002287 -0.001559 0.000000 -0.000573 0.000000
# 2 -0.002287 0.017395 -0.005797 0.000000 0.002533 0.000000
# 3 -0.001559 -0.005797 0.009342 0.000000 -0.002297 0.000000
# 4 0.000000 0.000000 0.000000 0.006765 0.000000 -0.027521
# 5 -0.000573 0.002533 -0.002297 0.000000 0.029709 0.000000
# 6 0.000000 0.000000 0.000000 -0.027521 0.000000 -0.000512
#
#
# Mechanical properties :
#
#
# Convention : Reuss Voigt Hill
#
# Bulk Modulus (GPa) = 58.50578 64.21841 61.36209
# Shear Modulus (GPa) = 51.37408 20.32856 35.85132
#
# Velocity S-wave (km/s) = 5.04464 3.17330 4.21416
# Velocity P-wave (km/s) = 7.93173 6.72587 7.35356
#
# Compressibility (1/GPa) = 0.01709233
#
# Stress axis : x y z
#
# Youngs Moduli (GPa) = 103.71532 57.48735 107.04635
#
# Poissons Ratio (x) = 0.13150 0.16684
# Poissons Ratio (y) = 0.23725 0.62056
# Poissons Ratio (z) = 0.16165 0.33326
#
# Static dielectric constant tensor:
#      x y z
#    x 3.848520 0.000000 -0.061880 
#    y 0.000000 3.498620 0.000000 
#    z -0.061880 0.000000 4.075690 
# 
# 
# High freq. dielectric constant tensor:
#      x y z
#    x 1.807960 0.000000 -0.000640 
#    y 0.000000 1.769870 0.000000 
#    z -0.000640 0.000000 1.806030 
# 
# From -- ./inp_files/41927.got.cif
#   From: 2010.06.25/outbox.cif.g09.slc.cpg/sg15_21_cif.got.tgz:41927.got - 2010.06.28 07:06:18.
