data_PCOD8149705
_publ_section_title
;
Structure prediction by ZEFSAII (Michael W. Deem and Ramdas Pophale) SiO2 
 PCOD8149705
Probable space group: C 2/C
;
_chemical_formula_sum "Si O2"
_cell_formula_units_Z 36
_cell_length_a 17.161744
_cell_length_b 10.429150
_cell_length_c 8.821341
_cell_angle_alpha 90.000000
_cell_angle_beta 80.619380
_cell_angle_gamma 90.000000
_cell_volume 1557.751197
_symmetry_space_group_name_H-M "C 2/C"
_symmetry_group_IT_number 15
_symmetry_cell_setting 'monoclinic'
loop_
_space_group_symop_operation_xyz
x,y,z
-x,y,1/2-z
-x,-y,-z
x,-y,1/2+z
1/2+x,1/2+y,z
1/2-x,1/2+y,1/2-z
1/2-x,1/2-y,-z
1/2+x,1/2-y,1/2+z
loop_
_atom_site_type_symbol
_atom_site_label
_atom_site_fract_x
_atom_site_fract_y
_atom_site_fract_z
Si Si1 0.755899 0.882624 0.904741
Si Si2 0.512749 0.365714 0.069721
Si Si3 0.500000 0.008298 0.750000
Si Si4 0.691265 0.643017 0.449624
Si Si5 0.918205 0.637237 0.018206
O O1 0.802480 0.863569 0.734062
O O2 0.665319 0.909801 0.892742
O O3 0.750000 0.750000 0.000000
O O4 0.792115 0.001657 0.986440
O O5 0.500000 0.374863 0.250000
O O6 0.440701 0.286417 0.016306
O O7 0.500000 0.500000 0.000000
O O8 0.601513 0.312854 0.011796
O O9 0.571025 0.095554 0.661375
O O10 0.519513 0.921149 0.885469
O O11 0.750000 0.750000 0.500000
#
# Coordination Sequence:
#
# PCOD8149705 Si02
#       5
#     8   8   4   8   8
#     4  12  26  46  71 102 142 185 232 283 353 417
#     4  12  26  45  68  98 137 181 228 278 341 409
#     4  10  24  40  70  98 130 170 226 288 332 394
#     4  12  27  45  71 103 143 181 231 291 350 408
#     4  11  24  43  71  98 135 173 235 276 341 404
#
# _framework density 23.110237000000001
#
# number of rings (size 3 to 8) (size 9 to 14) (size 15 to 20)
#    0.000    0.444    1.111    6.667   10.889    0.000 
#    0.000    0.000    0.000    0.000    0.000    0.000 
#    0.000    0.000    0.000    0.000    0.000    0.000 
#
# Total GULP energy -223092.252610 kJ/mol
# GULP energy per Si atom -12394.014034 kJ/mol
# Density = 2.305764 g / cm^3
# Si number density = 23.110237 Si / 1000 Ang^3
#
#
#
# Elastic Constant Matrix: (Units=GPa)
#
#
# Indices 1 2 3 4 5 6 
#
# 1 79.7765 -12.9325 20.2741 0.0000 -26.6345 0.0000
# 2 -12.9325 102.4191 43.8843 0.0000 6.9380 0.0000
# 3 20.2741 43.8843 163.8361 0.0000 -28.7095 0.0000
# 4 0.0000 0.0000 0.0000 35.6535 0.0000 2.6664
# 5 -26.6345 6.9380 -28.7095 0.0000 37.9518 0.0000
# 6 0.0000 0.0000 0.0000 2.6664 0.0000 39.3165
#
#
#
# Elastic Compliance Matrix: (Units=1/GPa)
#
#
# Indices 1 2 3 4 5 6 
#
# 1 0.016583 0.001597 -0.000567 0.000000 0.010917 0.000000
# 2 0.001597 0.012035 -0.004162 0.000000 -0.004228 0.000000
# 3 -0.000567 -0.004162 0.008476 0.000000 0.006775 0.000000
# 4 0.000000 0.000000 0.000000 0.028191 0.000000 -0.001912
# 5 0.010917 -0.004228 0.006775 0.000000 0.039908 0.000000
# 6 0.000000 0.000000 0.000000 -0.001912 0.000000 0.025564
#
#
# Mechanical properties :
#
#
# Convention : Reuss Voigt Hill
#
# Bulk Modulus (GPa) = 32.43564 49.83148 41.13356
# Shear Modulus (GPa) = 33.94483 42.23807 38.09145
#
# Velocity S-wave (km/s) = 3.83668 4.27977 4.06427
# Velocity P-wave (km/s) = 5.80452 6.78463 6.31363
#
# Compressibility (1/GPa) = 0.03083029
#
# Stress axis : x y z
#
# Youngs Moduli (GPa) = 60.30354 83.08885 117.98232
#
# Poissons Ratio (x) = -0.13272 0.06688
# Poissons Ratio (y) = -0.09632 0.49107
# Poissons Ratio (z) = 0.03419 0.34583
#
# Static dielectric constant tensor:
#      x y z
#    x 4.944690 0.000000 -0.414260 
#    y 0.000000 4.508670 0.000000 
#    z -0.414260 0.000000 4.784190 
# 
# 
# High freq. dielectric constant tensor:
#      x y z
#    x 1.918370 0.000000 -0.009030 
#    y 0.000000 1.928940 0.000000 
#    z -0.009030 0.000000 1.932350 
# 
# From -- ./inp_files/45885.got.cif
#   From: 2010.06.25/outbox.cif.g09.slc.cpg/sg15_23_cif.got.tgz:45885.got - 2010.06.28 07:06:18.
