data_PCOD8149921
_publ_section_title
;
Structure prediction by ZEFSAII (Michael W. Deem and Ramdas Pophale) SiO2 
 PCOD8149921
Probable space group: C 2/C
;
_chemical_formula_sum "Si O2"
_cell_formula_units_Z 36
_cell_length_a 15.443152
_cell_length_b 10.536409
_cell_length_c 16.803995
_cell_angle_alpha 90.000000
_cell_angle_beta 39.344369
_cell_angle_gamma 90.000000
_cell_volume 1733.471165
_symmetry_space_group_name_H-M "C 2/C"
_symmetry_group_IT_number 15
_symmetry_cell_setting 'monoclinic'
loop_
_space_group_symop_operation_xyz
x,y,z
-x,y,1/2-z
-x,-y,-z
x,-y,1/2+z
1/2+x,1/2+y,z
1/2-x,1/2+y,1/2-z
1/2-x,1/2-y,-z
1/2+x,1/2-y,1/2+z
loop_
_atom_site_type_symbol
_atom_site_label
_atom_site_fract_x
_atom_site_fract_y
_atom_site_fract_z
Si Si1 0.746872 0.601398 0.991401
Si Si2 0.500875 0.543408 0.910170
Si Si3 0.293259 0.014525 0.134552
Si Si4 0.000000 0.525842 0.250000
Si Si5 0.998305 0.662582 0.083034
O O1 0.864434 0.561417 0.845085
O O2 0.750000 0.750000 0.000000
O O3 0.602800 0.544030 0.065876
O O4 0.780691 0.551792 0.053183
O O5 0.650153 0.529917 0.769000
O O6 0.463041 0.690924 0.935348
O O7 0.500000 0.500000 0.000000
O O8 0.350537 0.129337 0.149269
O O9 0.395975 0.894864 0.057119
O O10 0.002957 0.610311 0.169108
#
# Coordination Sequence:
#
# PCOD8149921 Si02
#       5
#     8   8   8   4   8
#     4  11  25  44  67 100 132 178 224 277 342 404
#     4  12  26  41  71  99 132 180 227 280 342 407
#     4  10  24  43  67  97 135 175 219 285 332 400
#     4  10  24  42  72  94 138 176 218 288 340 402
#     4  10  24  45  67 100 136 176 228 278 346 404
#
# _framework density 20.767579999999999
#
# number of rings (size 3 to 8) (size 9 to 14) (size 15 to 20)
#    0.000    1.333    0.000    3.333   12.444    1.778 
#    0.000    0.000    0.000    0.000    0.000    0.000 
#    0.000    0.000    0.000    0.000    0.000    0.000 
#
# Total GULP energy -223152.884921 kJ/mol
# GULP energy per Si atom -12397.382496 kJ/mol
# Density = 2.072031 g / cm^3
# Si number density = 20.767580 Si / 1000 Ang^3
#
#
#
# Elastic Constant Matrix: (Units=GPa)
#
#
# Indices 1 2 3 4 5 6 
#
# 1 119.0012 49.1397 29.6715 0.0000 -8.3429 0.0000
# 2 49.1397 164.9100 50.6338 0.0000 -7.4024 0.0000
# 3 29.6715 50.6338 133.0970 0.0000 -12.7922 0.0000
# 4 0.0000 0.0000 0.0000 25.0910 0.0000 3.6709
# 5 -8.3429 -7.4024 -12.7922 0.0000 33.3718 0.0000
# 6 0.0000 0.0000 0.0000 3.6709 0.0000 26.7658
#
#
#
# Elastic Compliance Matrix: (Units=1/GPa)
#
#
# Indices 1 2 3 4 5 6 
#
# 1 0.009821 -0.002527 -0.001086 0.000000 0.001478 0.000000
# 2 -0.002527 0.007525 -0.002284 0.000000 0.000162 0.000000
# 3 -0.001086 -0.002284 0.008877 0.000000 0.002624 0.000000
# 4 0.000000 0.000000 0.000000 0.040671 0.000000 -0.005578
# 5 0.001478 0.000162 0.002624 0.000000 0.031377 0.000000
# 6 0.000000 0.000000 0.000000 -0.005578 0.000000 0.038126
#
#
# Mechanical properties :
#
#
# Convention : Reuss Voigt Hill
#
# Bulk Modulus (GPa) = 69.30255 75.09980 72.20118
# Shear Modulus (GPa) = 32.67963 36.21661 34.44812
#
# Velocity S-wave (km/s) = 3.97115 4.18053 4.07719
# Velocity P-wave (km/s) = 7.38036 7.71641 7.55026
#
# Compressibility (1/GPa) = 0.01442948
#
# Stress axis : x y z
#
# Youngs Moduli (GPa) = 101.82192 132.88422 112.65584
#
# Poissons Ratio (x) = 0.33575 0.12236
# Poissons Ratio (y) = 0.25727 0.25731
# Poissons Ratio (z) = 0.11059 0.30351
#
# Static dielectric constant tensor:
#      x y z
#    x 3.693330 0.000000 0.357740 
#    y 0.000000 4.247650 0.000000 
#    z 0.357740 0.000000 3.350080 
# 
# 
# High freq. dielectric constant tensor:
#      x y z
#    x 1.827660 0.000000 0.003340 
#    y 0.000000 1.814330 0.000000 
#    z 0.003340 0.000000 1.830850 
# 
# From -- ./inp_files/94653.got.cif
#   From: 2010.06.25/outbox.cif.g09.slc.cpg/sg15_48_cif.got.tgz:94653.got - 2010.06.28 07:06:18.
