data_PCOD8149059
_publ_section_title
;
Structure prediction by ZEFSAII (Michael W. Deem and Ramdas Pophale) SiO2 
 PCOD8149059
Probable space group: C 2/C
;
_chemical_formula_sum "Si O2"
_cell_formula_units_Z 48
_cell_length_a 13.886656
_cell_length_b 23.605514
_cell_length_c 10.643048
_cell_angle_alpha 90.000000
_cell_angle_beta 38.774231
_cell_angle_gamma 90.000000
_cell_volume 2184.877759
_symmetry_space_group_name_H-M "C 2/C"
_symmetry_group_IT_number 15
_symmetry_cell_setting 'monoclinic'
loop_
_space_group_symop_operation_xyz
x,y,z
-x,y,1/2-z
-x,-y,-z
x,-y,1/2+z
1/2+x,1/2+y,z
1/2-x,1/2+y,1/2-z
1/2-x,1/2-y,-z
1/2+x,1/2-y,1/2+z
loop_
_atom_site_type_symbol
_atom_site_label
_atom_site_fract_x
_atom_site_fract_y
_atom_site_fract_z
Si Si1 0.236576 0.676042 0.298238
Si Si2 0.667792 0.046271 0.028004
Si Si3 0.675660 0.920102 0.049353
Si Si4 0.331362 0.393656 0.143202
Si Si5 0.609060 0.602679 0.531988
Si Si6 0.039882 0.222635 0.063224
O O1 0.253198 0.627259 0.385372
O O2 0.089764 0.714778 0.469542
O O3 0.381419 0.717110 0.153524
O O4 0.252742 0.645881 0.146331
O O5 0.500000 0.062132 0.250000
O O6 0.673486 0.980601 0.979220
O O7 0.704750 0.089990 0.877425
O O8 0.799752 0.049788 0.001685
O O9 0.500000 0.901213 0.250000
O O10 0.777104 0.925633 0.072760
O O11 0.500716 0.413724 0.021773
O O12 0.339501 0.326272 0.102859
O O13 0.500000 0.630682 0.750000
O O14 0.000000 0.220168 0.250000
#
# Coordination Sequence:
#
# PCOD8149059 Si02
#       6
#     8   8   8   8   8   8
#     4  11  24  40  68  96 131 168 215 272 327 386
#     4  10  24  43  67  94 132 174 220 265 318 393
#     4  11  25  39  65 102 131 170 216 273 329 379
#     4  10  23  44  63  95 134 170 218 266 328 381
#     4   9  22  46  63  94 135 172 217 265 319 389
#     4  11  22  41  62  96 130 164 216 268 323 385
#
# _framework density 21.969192
#
# number of rings (size 3 to 8) (size 9 to 14) (size 15 to 20)
#    0.000    1.667    1.667    1.000    7.000    2.000 
#   15.000    8.333    0.000    0.000    0.000    0.000 
#    0.000    0.000    0.000    0.000    0.000    0.000 
#
# Total GULP energy -297330.071030 kJ/mol
# GULP energy per Si atom -12388.752960 kJ/mol
# Density = 2.191919 g / cm^3
# Si number density = 21.969192 Si / 1000 Ang^3
#
#
#
# Elastic Constant Matrix: (Units=GPa)
#
#
# Indices 1 2 3 4 5 6 
#
# 1 80.5410 25.7603 37.6675 0.0000 2.0508 0.0000
# 2 25.7603 103.4392 73.4175 0.0000 2.1575 0.0000
# 3 37.6675 73.4175 134.5612 0.0000 -1.2595 0.0001
# 4 0.0000 0.0000 0.0000 26.4321 0.0000 -10.3583
# 5 2.0508 2.1575 -1.2595 0.0000 19.4244 -0.0001
# 6 0.0000 0.0000 0.0001 -10.3583 -0.0001 22.8606
#
#
#
# Elastic Compliance Matrix: (Units=1/GPa)
#
#
# Indices 1 2 3 4 5 6 
#
# 1 0.014425 -0.001113 -0.003446 0.000000 -0.001623 0.000000
# 2 -0.001113 0.015968 -0.008421 0.000000 -0.002202 0.000000
# 3 -0.003446 -0.008421 0.013011 0.000000 0.002143 0.000000
# 4 0.000000 0.000000 0.000000 0.046001 0.000000 0.020844
# 5 -0.001623 -0.002202 0.002143 0.000000 0.052037 0.000000
# 6 0.000000 0.000000 0.000000 0.020844 0.000000 0.053188
#
#
# Mechanical properties :
#
#
# Convention : Reuss Voigt Hill
#
# Bulk Modulus (GPa) = 57.32739 65.80356 61.56548
# Shear Modulus (GPa) = 22.08451 25.85649 23.97050
#
# Velocity S-wave (km/s) = 3.17401 3.43438 3.30676
# Velocity P-wave (km/s) = 6.29154 6.76345 6.53176
#
# Compressibility (1/GPa) = 0.01744367
#
# Stress axis : x y z
#
# Youngs Moduli (GPa) = 69.32472 62.62684 76.85838
#
# Poissons Ratio (x) = 0.06968 0.26486
# Poissons Ratio (y) = 0.07713 0.64724
# Poissons Ratio (z) = 0.23890 0.52739
#
# Static dielectric constant tensor:
#      x y z
#    x 3.847970 0.000000 -0.069280 
#    y 0.000000 3.872160 0.000000 
#    z -0.069280 0.000000 4.159180 
# 
# 
# High freq. dielectric constant tensor:
#      x y z
#    x 1.853700 0.000000 -0.006350 
#    y 0.000000 1.851970 0.000000 
#    z -0.006350 0.000000 1.876730 
# 
# From -- ./inp_files/99966.got.cif
#   From: 2010.06.25/outbox.cif.g09.slc.cpg/sg15_50_cif.got.tgz:99966.got - 2010.06.28 07:06:18.
