data_PCOD8149945
_publ_section_title
;
Structure prediction by ZEFSAII (Michael W. Deem and Ramdas Pophale) SiO2 
 PCOD8149945
Probable space group: C 2/C
;
_chemical_formula_sum "Si O2"
_cell_formula_units_Z 40
_cell_length_a 24.691104
_cell_length_b 4.854179
_cell_length_c 13.918279
_cell_angle_alpha 90.000000
_cell_angle_beta 77.847210
_cell_angle_gamma 90.000000
_cell_volume 1630.791524
_symmetry_space_group_name_H-M "C 2/C"
_symmetry_group_IT_number 15
_symmetry_cell_setting 'monoclinic'
loop_
_space_group_symop_operation_xyz
x,y,z
-x,y,1/2-z
-x,-y,-z
x,-y,1/2+z
1/2+x,1/2+y,z
1/2-x,1/2+y,1/2-z
1/2-x,1/2-y,-z
1/2+x,1/2-y,1/2+z
loop_
_atom_site_type_symbol
_atom_site_label
_atom_site_fract_x
_atom_site_fract_y
_atom_site_fract_z
Si Si1 0.039971 0.278223 0.578594
Si Si2 0.566416 0.553927 0.371785
Si Si3 0.301222 0.077874 0.816265
Si Si4 0.592171 0.280913 0.651939
Si Si5 0.684213 0.575016 0.818482
O O1 0.045415 0.267209 0.460890
O O2 0.049018 0.589169 0.610543
O O3 0.086623 0.085314 0.610575
O O4 0.978990 0.180371 0.632566
O O5 0.576963 0.722000 0.270278
O O6 0.623003 0.400946 0.388422
O O7 0.344535 0.168472 0.883385
O O8 0.310205 0.261331 0.718293
O O9 0.236268 0.123413 0.872142
O O10 0.312946 0.766315 0.777749
#
# Coordination Sequence:
#
# PCOD8149945 Si02
#       5
#     8   8   8   8   8
#     4  11  26  41  63  95 122 160 209 246 300 372
#     4  10  24  43  64  90 128 162 200 254 304 356
#     4   9  18  34  58  88 116 155 207 244 295 365
#     4  11  23  41  64  90 124 162 200 253 306 355
#     4   9  18  34  59  85 117 161 198 245 305 351
#
# _framework density 24.527968999999999
#
# number of rings (size 3 to 8) (size 9 to 14) (size 15 to 20)
#    0.000    2.000    0.000    3.000    0.000   16.000 
#    0.000    2.000    0.000    0.000    0.000    0.000 
#    0.000    0.000    0.000    0.000    0.000    0.000 
#
# Total GULP energy -247908.117315 kJ/mol
# GULP energy per Si atom -12395.405866 kJ/mol
# Density = 2.447214 g / cm^3
# Si number density = 24.527969 Si / 1000 Ang^3
#
#
#
# Elastic Constant Matrix: (Units=GPa)
#
#
# Indices 1 2 3 4 5 6 
#
# 1 173.2963 -9.1699 12.9598 0.0000 -2.5702 0.0000
# 2 -9.1699 55.0770 7.4113 0.0000 4.1746 0.0000
# 3 12.9598 7.4113 56.0180 0.0000 17.1926 0.0000
# 4 0.0000 0.0000 0.0000 25.1828 0.0000 10.5109
# 5 -2.5702 4.1746 17.1926 0.0000 23.4841 0.0000
# 6 0.0000 0.0000 0.0000 10.5109 0.0000 25.7799
#
#
#
# Elastic Compliance Matrix: (Units=1/GPa)
#
#
# Indices 1 2 3 4 5 6 
#
# 1 0.006024 0.001140 -0.002173 0.000000 0.002047 0.000000
# 2 0.001140 0.018769 -0.002272 0.000000 -0.001549 0.000000
# 3 -0.002173 -0.002272 0.023995 0.000000 -0.017401 0.000000
# 4 0.000000 0.000000 0.000000 0.047853 0.000000 -0.019511
# 5 0.002047 -0.001549 -0.017401 0.000000 0.055820 0.000000
# 6 0.000000 0.000000 0.000000 -0.019511 0.000000 0.046745
#
#
# Mechanical properties :
#
#
# Convention : Reuss Voigt Hill
#
# Bulk Modulus (GPa) = 23.70831 34.08819 28.89825
# Shear Modulus (GPa) = 22.74021 33.10201 27.92111
#
# Velocity S-wave (km/s) = 3.04816 3.67762 3.37759
# Velocity P-wave (km/s) = 4.69842 5.65341 5.19790
#
# Compressibility (1/GPa) = 0.04217931
#
# Stress axis : x y z
#
# Youngs Moduli (GPa) = 166.01265 53.27855 41.67519
#
# Poissons Ratio (x) = -0.06074 0.09055
# Poissons Ratio (y) = -0.18927 0.09467
# Poissons Ratio (z) = 0.36070 0.12103
#
# Static dielectric constant tensor:
#      x y z
#    x 5.427480 0.000000 0.009130 
#    y 0.000000 4.181430 0.000000 
#    z 0.009130 0.000000 3.787500 
# 
# 
# High freq. dielectric constant tensor:
#      x y z
#    x 2.013730 0.000000 0.009860 
#    y 0.000000 1.975510 0.000000 
#    z 0.009860 0.000000 1.912030 
# 
# From -- ./inp_files/175134.got.cif
#   From: 2010.06.25/outbox.cif.g09.slc.cpg/sg15_88_cif.got.tgz:175134.got - 2010.06.28 07:06:18.
