data_PCOD8149557
_publ_section_title
;
Structure prediction by ZEFSAII (Michael W. Deem and Ramdas Pophale) SiO2 
 PCOD8149557
Probable space group: C 2/C
;
_chemical_formula_sum "Si O2"
_cell_formula_units_Z 60
_cell_length_a 21.475155
_cell_length_b 18.200429
_cell_length_c 8.576447
_cell_angle_alpha 90.000000
_cell_angle_beta 119.015781
_cell_angle_gamma 90.000000
_cell_volume 2931.421521
_symmetry_space_group_name_H-M "C 2/C"
_symmetry_group_IT_number 15
_symmetry_cell_setting 'monoclinic'
loop_
_space_group_symop_operation_xyz
x,y,z
-x,y,1/2-z
-x,-y,-z
x,-y,1/2+z
1/2+x,1/2+y,z
1/2-x,1/2+y,1/2-z
1/2-x,1/2-y,-z
1/2+x,1/2-y,1/2+z
loop_
_atom_site_type_symbol
_atom_site_label
_atom_site_fract_x
_atom_site_fract_y
_atom_site_fract_z
Si Si1 0.500000 0.963715 0.750000
Si Si2 0.578945 0.077811 0.634300
Si Si3 0.736901 0.903565 0.787559
Si Si4 0.476743 0.229794 0.886373
Si Si5 0.768789 0.800131 0.376684
Si Si6 0.650557 0.278304 0.572846
Si Si7 0.729873 0.949429 0.433091
Si Si8 0.372955 0.779116 0.791279
O O1 0.446084 0.915327 0.578083
O O2 0.543281 0.011261 0.680717
O O3 0.563255 0.153922 0.703096
O O4 0.661781 0.062028 0.741593
O O5 0.806935 0.854053 0.851441
O O6 0.713751 0.940136 0.596115
O O7 0.669943 0.856202 0.769948
O O8 0.758442 0.968456 0.934164
O O9 0.500000 0.266588 0.750000
O O10 0.421408 0.282266 0.910786
O O11 0.544303 0.207916 0.074154
O O12 0.750000 0.750000 0.500000
O O13 0.701465 0.790572 0.178637
O O14 0.783200 0.884525 0.442435
O O15 0.841376 0.771185 0.390130
O O16 0.631225 0.267609 0.370541
#
# Coordination Sequence:
#
# PCOD8149557 Si02
#       8
#     4   8   8   8   8   8   8   8
#     4  10  24  36  50  80 138 178 202 248 310 388
#     4  11  23  37  56  87 129 172 210 252 310 395
#     4  11  26  41  65  98 134 171 218 264 326 390
#     4  12  24  40  67  94 124 171 220 268 326 388
#     4  11  20  41  64  90 127 173 218 269 310 386
#     4  11  24  44  64  93 132 168 223 271 322 384
#     4  12  24  38  64  94 131 172 219 262 325 379
#     4  11  25  41  65  96 133 168 218 268 327 383
#
# _framework density 20.467884999999999
#
# number of rings (size 3 to 8) (size 9 to 14) (size 15 to 20)
#    0.000    0.800    4.667    4.400    9.333    0.000 
#    0.000    0.000    0.000    0.800    0.000    0.000 
#    0.000    0.000    0.000    0.000    0.000    0.000 
#
# Total GULP energy -371986.171978 kJ/mol
# GULP energy per Si atom -12399.539066 kJ/mol
# Density = 2.042130 g / cm^3
# Si number density = 20.467885 Si / 1000 Ang^3
#
#
#
# Elastic Constant Matrix: (Units=GPa)
#
#
# Indices 1 2 3 4 5 6 
#
# 1 108.0773 46.5924 27.7752 0.0000 -1.0397 0.0000
# 2 46.5924 109.7905 26.8607 0.0000 2.1092 0.0000
# 3 27.7752 26.8607 92.5668 0.0000 -14.1619 0.0000
# 4 0.0000 0.0000 0.0000 30.5040 0.0000 -3.5602
# 5 -1.0397 2.1092 -14.1619 0.0000 28.4272 0.0000
# 6 0.0000 0.0000 0.0000 -3.5602 0.0000 25.1463
#
#
#
# Elastic Compliance Matrix: (Units=1/GPa)
#
#
# Indices 1 2 3 4 5 6 
#
# 1 0.011743 -0.004413 -0.002303 0.000000 -0.000390 0.000000
# 2 -0.004413 0.011606 -0.002382 0.000000 -0.002209 0.000000
# 3 -0.002303 -0.002382 0.013206 0.000000 0.006671 0.000000
# 4 0.000000 0.000000 0.000000 0.033333 0.000000 0.004719
# 5 -0.000390 -0.002209 0.006671 0.000000 0.038651 0.000000
# 6 0.000000 0.000000 0.000000 0.004719 0.000000 0.040435
#
#
# Mechanical properties :
#
#
# Convention : Reuss Voigt Hill
#
# Bulk Modulus (GPa) = 54.46483 56.98790 55.72637
# Shear Modulus (GPa) = 28.85359 30.76258 29.80808
#
# Velocity S-wave (km/s) = 3.75867 3.88102 3.82034
# Velocity P-wave (km/s) = 6.74570 6.92720 6.83705
#
# Compressibility (1/GPa) = 0.01836047
#
# Stress axis : x y z
#
# Youngs Moduli (GPa) = 85.15752 86.16257 75.72441
#
# Poissons Ratio (x) = 0.38019 0.17438
# Poissons Ratio (y) = 0.37576 0.18036
# Poissons Ratio (z) = 0.19610 0.20522
#
# Static dielectric constant tensor:
#      x y z
#    x 3.740990 0.000000 -0.109870 
#    y 0.000000 3.745690 0.000000 
#    z -0.109870 0.000000 4.048860 
# 
# 
# High freq. dielectric constant tensor:
#      x y z
#    x 1.792600 0.000000 -0.016660 
#    y 0.000000 1.779000 0.000000 
#    z -0.016660 0.000000 1.811180 
# 
# From -- ./inp_files/57042.got.cif
#   From: 2010.06.25/outbox.cif.g09.slc.cpg/sg15_29_cif.got.tgz:57042.got - 2010.06.28 07:06:18.
