data_PCOD8149405
_publ_section_title
;
Structure prediction by ZEFSAII (Michael W. Deem and Ramdas Pophale) SiO2 
 PCOD8149405
Probable space group: C 2/C
;
_chemical_formula_sum "Si O2"
_cell_formula_units_Z 60
_cell_length_a 15.168506
_cell_length_b 18.996903
_cell_length_c 15.267406
_cell_angle_alpha 90.000000
_cell_angle_beta 38.850347
_cell_angle_gamma 90.000000
_cell_volume 2759.676130
_symmetry_space_group_name_H-M "C 2/C"
_symmetry_group_IT_number 15
_symmetry_cell_setting 'monoclinic'
loop_
_space_group_symop_operation_xyz
x,y,z
-x,y,1/2-z
-x,-y,-z
x,-y,1/2+z
1/2+x,1/2+y,z
1/2-x,1/2+y,1/2-z
1/2-x,1/2-y,-z
1/2+x,1/2-y,1/2+z
loop_
_atom_site_type_symbol
_atom_site_label
_atom_site_fract_x
_atom_site_fract_y
_atom_site_fract_z
Si Si1 0.820901 0.056825 0.711724
Si Si2 0.867168 0.026824 0.004955
Si Si3 0.335626 0.013538 0.497076
Si Si4 0.232097 0.343916 0.685404
Si Si5 0.500000 0.882289 0.750000
Si Si6 0.173205 0.302664 0.307627
Si Si7 0.117267 0.623320 0.450217
Si Si8 0.840794 0.776388 0.850910
O O1 0.800333 0.141554 0.721825
O O2 0.965904 0.024418 0.636316
O O3 0.802229 0.025715 0.628278
O O4 0.705956 0.035693 0.872493
O O5 0.795676 0.006506 0.967948
O O6 0.848005 0.107795 0.049271
O O7 0.443869 0.067865 0.371314
O O8 0.415412 0.940230 0.457088
O O9 0.114868 0.330386 0.701703
O O10 0.293322 0.268843 0.665784
O O11 0.165035 0.392677 0.814011
O O12 0.157484 0.288103 0.217541
O O13 0.019782 0.328624 0.455391
O O14 0.259795 0.657693 0.375417
O O15 0.000000 0.799075 0.750000
O O16 0.750000 0.750000 0.000000
#
# Coordination Sequence:
#
# PCOD8149405 Si02
#       8
#     8   8   8   8   4   8   8   8
#     4  11  24  44  67 101 135 180 232 290 344 418
#     4  10  24  43  70  97 140 180 231 283 353 419
#     4  11  24  44  68 102 131 178 230 290 348 418
#     4  10  23  46  63 103 134 181 226 285 347 411
#     4  10  24  44  74  96 138 182 234 284 352 414
#     4  11  26  40  70  97 137 185 230 287 354 415
#     4  11  24  41  71  99 141 178 225 292 351 413
#     4  11  24  42  62  98 139 180 230 280 347 425
#
# _framework density 21.741681
#
# number of rings (size 3 to 8) (size 9 to 14) (size 15 to 20)
#    0.000    1.333    2.667    1.200    9.333    2.133 
#    2.400    2.000    0.000    0.000    0.000    0.000 
#    0.000    0.000    0.000    0.000    0.000    0.000 
#
# Total GULP energy -371690.154192 kJ/mol
# GULP energy per Si atom -12389.671806 kJ/mol
# Density = 2.169220 g / cm^3
# Si number density = 21.741681 Si / 1000 Ang^3
#
#
#
# Elastic Constant Matrix: (Units=GPa)
#
#
# Indices 1 2 3 4 5 6 
#
# 1 93.7431 45.4991 20.2458 -0.0026 -9.1406 0.0022
# 2 45.4991 105.9645 24.4097 -0.0005 -0.9267 0.0008
# 3 20.2458 24.4097 98.6354 -0.0007 -0.1904 0.0000
# 4 -0.0026 -0.0005 -0.0007 23.1311 -0.0010 0.2118
# 5 -9.1406 -0.9267 -0.1904 -0.0010 34.2226 0.0009
# 6 0.0022 0.0008 0.0000 0.2118 0.0009 29.6993
#
#
#
# Elastic Compliance Matrix: (Units=1/GPa)
#
#
# Indices 1 2 3 4 5 6 
#
# 1 0.014095 -0.005680 -0.001481 0.000002 0.003603 -0.000001
# 2 -0.005680 0.012298 -0.001880 -0.000001 -0.001194 0.000000
# 3 -0.001481 -0.001880 0.010907 0.000000 -0.000386 0.000000
# 4 0.000002 -0.000001 0.000000 0.043235 0.000002 -0.000308
# 5 0.003603 -0.001194 -0.000386 0.000002 0.030148 -0.000001
# 6 -0.000001 0.000000 0.000000 -0.000308 -0.000001 0.033673
#
#
# Mechanical properties :
#
#
# Convention : Reuss Voigt Hill
#
# Bulk Modulus (GPa) = 52.02970 53.18355 52.60662
# Shear Modulus (GPa) = 29.61321 31.28983 30.45152
#
# Velocity S-wave (km/s) = 3.69460 3.79775 3.74653
# Velocity P-wave (km/s) = 6.49483 6.61401 6.55469
#
# Compressibility (1/GPa) = 0.01921979
#
# Stress axis : x y z
#
# Youngs Moduli (GPa) = 70.94637 81.31095 91.68602
#
# Poissons Ratio (x) = 0.46181 0.13575
# Poissons Ratio (y) = 0.40295 0.17238
# Poissons Ratio (z) = 0.10505 0.15287
#
# Static dielectric constant tensor:
#      x y z
#    x 3.885510 0.000000 0.085160 
#    y 0.000000 3.817770 0.000010 
#    z 0.085160 0.000010 3.986330 
# 
# 
# High freq. dielectric constant tensor:
#      x y z
#    x 1.871850 0.000000 0.002560 
#    y 0.000000 1.843140 0.000000 
#    z 0.002560 0.000000 1.861490 
# 
# From -- ./inp_files/156368.got.cif
#   From: 2010.06.25/outbox.cif.g09.slc.cpg/sg15_79_cif.got.tgz:156368.got - 2010.06.28 07:06:18.
