data_PCOD8149341
_publ_section_title
;
Structure prediction by ZEFSAII (Michael W. Deem and Ramdas Pophale) SiO2 
 PCOD8149341
Probable space group: C 2/C
;
_chemical_formula_sum "Si O2"
_cell_formula_units_Z 44
_cell_length_a 11.749541
_cell_length_b 12.769700
_cell_length_c 13.567888
_cell_angle_alpha 90.000000
_cell_angle_beta 103.466333
_cell_angle_gamma 90.000000
_cell_volume 1979.732661
_symmetry_space_group_name_H-M "C 2/C"
_symmetry_group_IT_number 15
_symmetry_cell_setting 'monoclinic'
loop_
_space_group_symop_operation_xyz
x,y,z
-x,y,1/2-z
-x,-y,-z
x,-y,1/2+z
1/2+x,1/2+y,z
1/2-x,1/2+y,1/2-z
1/2-x,1/2-y,-z
1/2+x,1/2-y,1/2+z
loop_
_atom_site_type_symbol
_atom_site_label
_atom_site_fract_x
_atom_site_fract_y
_atom_site_fract_z
Si Si1 0.214503 0.853061 0.935884
Si Si2 0.300000 0.708796 0.282140
Si Si3 0.098898 0.500027 0.439104
Si Si4 0.000000 0.641399 0.750000
Si Si5 0.639544 0.236940 0.410763
Si Si6 0.468034 0.615636 0.463224
O O1 0.243916 0.846868 0.825847
O O2 0.075224 0.849972 0.916605
O O3 0.250000 0.750000 0.000000
O O4 0.277798 0.957219 0.991106
O O5 0.401517 0.792721 0.286187
O O6 0.184333 0.763737 0.308296
O O7 0.351719 0.623457 0.371323
O O8 0.067393 0.427140 0.342351
O O9 0.101068 0.617310 0.400900
O O10 0.000000 0.500000 0.500000
O O11 0.750000 0.250000 0.500000
O O12 0.541256 0.313998 0.437814
O O13 0.500000 0.500000 0.500000
#
# Coordination Sequence:
#
# PCOD8149341 Si02
#       6
#     8   8   8   4   8   8
#     4  12  22  42  70 102 139 183 242 284 357 435
#     4  11  22  45  69 104 143 187 232 301 359 426
#     4  12  26  44  71 102 139 189 234 299 364 434
#     4  12  24  46  72  98 142 188 238 290 366 428
#     4  10  23  45  68  99 143 178 234 298 357 426
#     4  11  23  46  71 101 140 187 232 295 361 429
#
# _framework density 22.225221999999999
#
# number of rings (size 3 to 8) (size 9 to 14) (size 15 to 20)
#    0.000    0.727    3.636    5.455    2.545    0.000 
#    0.000    1.818    0.000    0.000    0.000    0.000 
#    0.000    0.000    0.000    0.000    0.000    0.000 
#
# Total GULP energy -272673.445587 kJ/mol
# GULP energy per Si atom -12394.247527 kJ/mol
# Density = 2.217464 g / cm^3
# Si number density = 22.225222 Si / 1000 Ang^3
#
#
#
# Elastic Constant Matrix: (Units=GPa)
#
#
# Indices 1 2 3 4 5 6 
#
# 1 94.5321 24.3091 41.2302 0.0000 -33.4154 0.0000
# 2 24.3091 135.7828 46.9269 0.0000 -10.0088 0.0000
# 3 41.2302 46.9269 148.3600 0.0000 -19.3994 0.0000
# 4 0.0000 0.0000 0.0000 30.3914 0.0000 2.1018
# 5 -33.4154 -10.0088 -19.3994 0.0000 48.8136 0.0000
# 6 0.0000 0.0000 0.0000 2.1018 0.0000 40.1841
#
#
#
# Elastic Compliance Matrix: (Units=1/GPa)
#
#
# Indices 1 2 3 4 5 6 
#
# 1 0.015280 -0.001130 -0.002691 0.000000 0.009159 0.000000
# 2 -0.001130 0.008374 -0.002333 0.000000 0.000016 0.000000
# 3 -0.002691 -0.002333 0.008357 0.000000 0.001001 0.000000
# 4 0.000000 0.000000 0.000000 0.033024 0.000000 -0.001727
# 5 0.009159 0.000016 0.001001 0.000000 0.027157 0.000000
# 6 0.000000 0.000000 0.000000 -0.001727 0.000000 0.024976
#
#
# Mechanical properties :
#
#
# Convention : Reuss Voigt Hill
#
# Bulk Modulus (GPa) = 50.75345 67.06747 58.91046
# Shear Modulus (GPa) = 36.75272 41.62506 39.18889
#
# Velocity S-wave (km/s) = 4.07092 4.33237 4.20368
# Velocity P-wave (km/s) = 6.70687 7.43422 7.07989
#
# Compressibility (1/GPa) = 0.01970309
#
# Stress axis : x y z
#
# Youngs Moduli (GPa) = 65.44314 119.41120 119.66086
#
# Poissons Ratio (x) = 0.13498 0.32205
# Poissons Ratio (y) = 0.07398 0.27912
# Poissons Ratio (z) = 0.17613 0.27854
#
# Static dielectric constant tensor:
#      x y z
#    x 4.510030 0.000000 -0.643080 
#    y 0.000000 3.957240 0.000000 
#    z -0.643080 0.000000 4.185810 
# 
# 
# High freq. dielectric constant tensor:
#      x y z
#    x 1.891590 0.000000 -0.019960 
#    y 0.000000 1.869650 0.000000 
#    z -0.019960 0.000000 1.879000 
# 
# From -- ./inp_files/142271.got.cif
#   From: 2010.06.25/outbox.cif.g09.slc.cpg/sg15_72_cif.got.tgz:142271.got - 2010.06.28 07:06:18.
