data_PCOD8149812
_publ_section_title
;
Structure prediction by ZEFSAII (Michael W. Deem and Ramdas Pophale) SiO2 
 PCOD8149812
Probable space group: C 2/C
;
_chemical_formula_sum "Si O2"
_cell_formula_units_Z 24
_cell_length_a 6.935365
_cell_length_b 7.873508
_cell_length_c 22.603935
_cell_angle_alpha 90.000000
_cell_angle_beta 64.809293
_cell_angle_gamma 90.000000
_cell_volume 1116.915612
_symmetry_space_group_name_H-M "C 2/C"
_symmetry_group_IT_number 15
_symmetry_cell_setting 'monoclinic'
loop_
_space_group_symop_operation_xyz
x,y,z
-x,y,1/2-z
-x,-y,-z
x,-y,1/2+z
1/2+x,1/2+y,z
1/2-x,1/2+y,1/2-z
1/2-x,1/2-y,-z
1/2+x,1/2-y,1/2+z
loop_
_atom_site_type_symbol
_atom_site_label
_atom_site_fract_x
_atom_site_fract_y
_atom_site_fract_z
Si Si1 0.548651 0.573122 0.677330
Si Si2 0.229215 0.104142 0.379726
Si Si3 0.018887 0.433502 0.431813
O O1 0.500000 0.513062 0.750000
O O2 0.577664 0.777922 0.670174
O O3 0.353510 0.516293 0.661620
O O4 0.768847 0.486207 0.626263
O O5 0.040270 0.227455 0.428977
O O6 0.310565 0.986818 0.422444
O O7 0.000000 0.500000 0.500000
#
# Coordination Sequence:
#
# PCOD8149812 Si02
#       3
#     8   8   8
#     4  10  26  40  66  90 126 160 206 250 306 360
#     4  10  25  40  64  90 125 160 206 250 305 360
#     4  10  24  42  64  92 124 162 204 252 304 362
#
# _framework density 21.487746999999999
#
# number of rings (size 3 to 8) (size 9 to 14) (size 15 to 20)
#    2.000    0.000    0.000    1.000    9.333    2.667 
#    0.000    0.000    0.000    0.000    0.000    0.000 
#    0.000    0.000    0.000    0.000    0.000    0.000 
#
# Total GULP energy -148703.510703 kJ/mol
# GULP energy per Si atom -12391.959225 kJ/mol
# Density = 2.143884 g / cm^3
# Si number density = 21.487747 Si / 1000 Ang^3
#
#
#
# Elastic Constant Matrix: (Units=GPa)
#
#
# Indices 1 2 3 4 5 6 
#
# 1 154.5842 76.6154 50.9819 0.0000 49.8001 0.0000
# 2 76.6154 84.2125 17.5122 0.0000 8.8897 0.0000
# 3 50.9819 17.5122 124.2829 0.0000 21.2905 0.0000
# 4 0.0000 0.0000 0.0000 11.3968 0.0000 8.0799
# 5 49.8001 8.8897 21.2905 0.0000 41.8936 0.0000
# 6 0.0000 0.0000 0.0000 8.0799 0.0000 58.2481
#
#
#
# Elastic Compliance Matrix: (Units=1/GPa)
#
#
# Indices 1 2 3 4 5 6 
#
# 1 0.024808 -0.019367 -0.003395 0.000000 -0.023655 0.000000
# 2 -0.019367 0.027489 0.001234 0.000000 0.016561 0.000000
# 3 -0.003395 0.001234 0.009440 0.000000 -0.001023 0.000000
# 4 0.000000 0.000000 0.000000 0.097314 0.000000 -0.013499
# 5 -0.023655 0.016561 -0.001023 0.000000 0.048995 0.000000
# 6 0.000000 0.000000 0.000000 -0.013499 0.000000 0.019040
#
#
# Mechanical properties :
#
#
# Convention : Reuss Voigt Hill
#
# Bulk Modulus (GPa) = 53.52928 72.58874 63.05901
# Shear Modulus (GPa) = 18.09171 36.83904 27.46538
#
# Velocity S-wave (km/s) = 2.90479 4.14505 3.57905
# Velocity P-wave (km/s) = 6.01798 7.53415 6.81834
#
# Compressibility (1/GPa) = 0.01868137
#
# Stress axis : x y z
#
# Youngs Moduli (GPa) = 40.31012 36.37775 105.92790
#
# Poissons Ratio (x) = 0.70451 0.35965
# Poissons Ratio (y) = 0.78067 -0.13070
# Poissons Ratio (z) = 0.13686 -0.04488
#
# Static dielectric constant tensor:
#      x y z
#    x 3.871040 0.000000 0.090840 
#    y 0.000000 3.665730 0.000000 
#    z 0.090840 0.000000 3.630120 
# 
# 
# High freq. dielectric constant tensor:
#      x y z
#    x 1.844570 0.000000 0.013450 
#    y 0.000000 1.828990 0.000000 
#    z 0.013450 0.000000 1.834200 
# 
# From -- ./inp_files/131253.got.cif
#   From: 2010.06.25/outbox.cif.g09.slc.cpg/sg15_66_cif.got.tgz:131253.got - 2010.06.28 07:06:18.
