data_PCOD8149623
_publ_section_title
;
Structure prediction by ZEFSAII (Michael W. Deem and Ramdas Pophale) SiO2 
 PCOD8149623
Probable space group: C 2/C
;
_chemical_formula_sum "Si O2"
_cell_formula_units_Z 64
_cell_length_a 9.182432
_cell_length_b 31.956328
_cell_length_c 17.220763
_cell_angle_alpha 90.000000
_cell_angle_beta 145.331335
_cell_angle_gamma 90.000000
_cell_volume 2874.414054
_symmetry_space_group_name_H-M "C 2/C"
_symmetry_group_IT_number 15
_symmetry_cell_setting 'monoclinic'
loop_
_space_group_symop_operation_xyz
x,y,z
-x,y,1/2-z
-x,-y,-z
x,-y,1/2+z
1/2+x,1/2+y,z
1/2-x,1/2+y,1/2-z
1/2-x,1/2-y,-z
1/2+x,1/2-y,1/2+z
loop_
_atom_site_type_symbol
_atom_site_label
_atom_site_fract_x
_atom_site_fract_y
_atom_site_fract_z
Si Si1 0.189063 0.070009 0.762689
Si Si2 0.217435 0.994336 0.659623
Si Si3 0.576023 0.278906 0.699399
Si Si4 0.047775 0.860760 0.079397
Si Si5 0.860423 0.309958 0.104305
Si Si6 0.999391 0.340404 0.881749
Si Si7 0.616108 0.121913 0.002389
Si Si8 0.881456 0.098853 0.351986
O O1 0.181594 0.028412 0.709796
O O2 0.470305 0.078161 0.922244
O O3 0.000000 0.063185 0.750000
O O4 0.113946 0.110960 0.681301
O O5 0.500000 0.999772 0.750000
O O6 0.191250 0.949405 0.688597
O O7 0.000000 0.000000 0.500000
O O8 0.500000 0.298177 0.750000
O O9 0.401411 0.296542 0.553885
O O10 0.556824 0.228784 0.695788
O O11 0.865662 0.294921 0.812087
O O12 0.273088 0.827622 0.152520
O O13 0.794539 0.834266 0.988875
O O14 0.010230 0.892492 0.991350
O O15 0.987385 0.345942 0.108701
O O16 0.875021 0.374025 0.768762
O O17 0.964473 0.358796 0.951833
O O18 0.919485 0.112871 0.128256
#
# Coordination Sequence:
#
# PCOD8149623 Si02
#       8
#     8   8   8   8   8   8   8   8
#     4  12  27  45  66 102 146 185 235 295 357 428
#     4  12  26  46  71 106 148 191 245 305 358 429
#     4  11  21  40  65  98 133 173 223 289 345 422
#     4  11  23  42  69 100 133 183 235 288 351 418
#     4  10  24  39  68  98 131 176 233 280 350 422
#     4  12  21  42  72  98 140 177 234 292 355 426
#     4  11  23  44  69  99 136 188 232 281 359 425
#     4  11  23  41  72 104 129 186 243 290 347 424
#
# _framework density 22.265407
#
# number of rings (size 3 to 8) (size 9 to 14) (size 15 to 20)
#    0.000    0.750    6.250    2.250    3.500    1.000 
#    0.000    2.500    8.250    0.000    0.000    0.000 
#    0.000    0.000    0.000    0.000    0.000    0.000 
#
# Total GULP energy -396820.343398 kJ/mol
# GULP energy per Si atom -12400.635731 kJ/mol
# Density = 2.221473 g / cm^3
# Si number density = 22.265407 Si / 1000 Ang^3
#
#
#
# Elastic Constant Matrix: (Units=GPa)
#
#
# Indices 1 2 3 4 5 6 
#
# 1 133.0484 63.0142 45.0169 0.0000 11.4999 0.0000
# 2 63.0142 150.1662 45.2916 0.0000 9.2217 0.0000
# 3 45.0169 45.2916 73.7903 0.0000 10.4672 0.0000
# 4 0.0000 0.0000 0.0000 35.9293 0.0000 0.2339
# 5 11.4999 9.2217 10.4672 0.0000 41.9178 0.0000
# 6 0.0000 0.0000 0.0000 0.2339 0.0000 24.2265
#
#
#
# Elastic Compliance Matrix: (Units=1/GPa)
#
#
# Indices 1 2 3 4 5 6 
#
# 1 0.010538 -0.003021 -0.004415 0.000000 -0.001124 0.000000
# 2 -0.003021 0.009051 -0.003678 0.000000 -0.000244 0.000000
# 3 -0.004415 -0.003678 0.018885 0.000000 -0.002695 0.000000
# 4 0.000000 0.000000 0.000000 0.027834 0.000000 -0.000269
# 5 -0.001124 -0.000244 -0.002695 0.000000 0.024891 0.000000
# 6 0.000000 0.000000 0.000000 -0.000269 0.000000 0.041280
#
#
# Mechanical properties :
#
#
# Convention : Reuss Voigt Hill
#
# Bulk Modulus (GPa) = 61.55293 73.73893 67.64593
# Shear Modulus (GPa) = 31.22594 33.99352 32.60973
#
# Velocity S-wave (km/s) = 3.74898 3.91159 3.83115
# Velocity P-wave (km/s) = 6.81505 7.32057 7.07233
#
# Compressibility (1/GPa) = 0.01624618
#
# Stress axis : x y z
#
# Youngs Moduli (GPa) = 94.89452 110.48001 52.95207
#
# Poissons Ratio (x) = 0.33381 0.23378
# Poissons Ratio (y) = 0.28672 0.19474
# Poissons Ratio (z) = 0.41895 0.40632
#
# Static dielectric constant tensor:
#      x y z
#    x 4.013370 0.000000 -0.060500 
#    y 0.000000 4.125140 0.000000 
#    z -0.060500 0.000000 4.232480 
# 
# 
# High freq. dielectric constant tensor:
#      x y z
#    x 1.877380 0.000000 -0.007040 
#    y 0.000000 1.876460 0.000000 
#    z -0.007040 0.000000 1.895820 
# 
# From -- ./inp_files/194250.got.cif
#   From: 2010.06.25/outbox.cif.g09.slc.cpg/sg15_98_cif.got.tgz:194250.got - 2010.06.28 07:06:18.
