data_PCOD8149732
_publ_section_title
;
Structure prediction by ZEFSAII (Michael W. Deem and Ramdas Pophale) SiO2 
 PCOD8149732
Probable space group: C 2/C
;
_chemical_formula_sum "Si O2"
_cell_formula_units_Z 64
_cell_length_a 16.984565
_cell_length_b 17.798587
_cell_length_c 14.271693
_cell_angle_alpha 90.000000
_cell_angle_beta 138.092378
_cell_angle_gamma 90.000000
_cell_volume 2881.691043
_symmetry_space_group_name_H-M "C 2/C"
_symmetry_group_IT_number 15
_symmetry_cell_setting 'monoclinic'
loop_
_space_group_symop_operation_xyz
x,y,z
-x,y,1/2-z
-x,-y,-z
x,-y,1/2+z
1/2+x,1/2+y,z
1/2-x,1/2+y,1/2-z
1/2-x,1/2-y,-z
1/2+x,1/2-y,1/2+z
loop_
_atom_site_type_symbol
_atom_site_label
_atom_site_fract_x
_atom_site_fract_y
_atom_site_fract_z
Si Si1 0.630966 0.511515 0.399019
Si Si2 0.577382 0.925243 0.567253
Si Si3 0.888380 0.690184 0.928497
Si Si4 0.285171 0.139868 0.466389
Si Si5 0.995237 0.155112 0.985822
Si Si6 0.320452 0.524455 0.347546
Si Si7 0.182310 0.106212 0.808606
Si Si8 0.259460 0.299862 0.375955
O O1 0.500000 0.516372 0.250000
O O2 0.682970 0.579119 0.383842
O O3 0.658543 0.516676 0.533843
O O4 0.676962 0.430171 0.406292
O O5 0.506314 0.856843 0.550735
O O6 0.603930 0.903309 0.481940
O O7 0.696880 0.930824 0.734459
O O8 0.500000 0.000000 0.500000
O O9 0.912292 0.778214 0.946823
O O10 0.790492 0.664541 0.916957
O O11 0.825753 0.665457 0.776534
O O12 0.253221 0.209077 0.369229
O O13 0.304742 0.172266 0.586828
O O14 0.068319 0.079485 0.076195
O O15 0.935208 0.149031 0.829792
O O16 0.895843 0.173064 0.978343
O O17 0.305088 0.459668 0.257801
#
# Coordination Sequence:
#
# PCOD8149732 Si02
#       8
#     8   8   8   8   8   8   8   8
#     4  12  25  43  71 104 139 178 237 296 343 406
#     4  12  24  45  66  95 138 192 231 274 343 423
#     4  11  23  43  68  98 138 190 229 279 352 421
#     4  11  23  42  65 106 142 178 225 283 352 437
#     4  11  23  41  72  95 138 183 227 286 348 412
#     4  12  25  44  72 103 134 184 238 285 354 411
#     4  11  24  45  69 103 136 179 240 290 343 416
#     4  10  24  41  64 108 144 176 224 282 364 421
#
# _framework density 22.209182999999999
#
# number of rings (size 3 to 8) (size 9 to 14) (size 15 to 20)
#    0.000    0.750    5.000    2.625    3.500    0.500 
#    0.000    2.500    2.750    0.000    0.000    0.000 
#    0.000    0.000    0.000    0.000    0.000    0.000 
#
# Total GULP energy -396516.090628 kJ/mol
# GULP energy per Si atom -12391.127832 kJ/mol
# Density = 2.215863 g / cm^3
# Si number density = 22.209183 Si / 1000 Ang^3
#
#
#
# Elastic Constant Matrix: (Units=GPa)
#
#
# Indices 1 2 3 4 5 6 
#
# 1 76.8013 49.1299 28.8533 0.0000 7.7567 0.0000
# 2 49.1299 114.8312 21.0254 0.0000 5.3886 0.0000
# 3 28.8533 21.0254 79.6843 0.0000 15.1020 0.0000
# 4 0.0000 0.0000 0.0000 31.2041 0.0000 3.8059
# 5 7.7567 5.3886 15.1020 0.0000 42.3360 0.0000
# 6 0.0000 0.0000 0.0000 3.8059 0.0000 38.8109
#
#
#
# Elastic Compliance Matrix: (Units=1/GPa)
#
#
# Indices 1 2 3 4 5 6 
#
# 1 0.019801 -0.007511 -0.005021 0.000000 -0.000881 0.000000
# 2 -0.007511 0.012004 -0.000449 0.000000 0.000009 0.000000
# 3 -0.005021 -0.000449 0.015338 0.000000 -0.004494 0.000000
# 4 0.000000 0.000000 0.000000 0.032435 0.000000 -0.003181
# 5 -0.000881 0.000009 -0.004494 0.000000 0.025384 0.000000
# 6 0.000000 0.000000 0.000000 -0.003181 0.000000 0.026078
#
#
# Mechanical properties :
#
#
# Convention : Reuss Voigt Hill
#
# Bulk Modulus (GPa) = 47.21431 52.14822 49.68127
# Shear Modulus (GPa) = 30.47637 33.95740 32.21689
#
# Velocity S-wave (km/s) = 3.70840 3.91446 3.81282
# Velocity P-wave (km/s) = 6.29614 6.63039 6.46543
#
# Compressibility (1/GPa) = 0.02118002
#
# Stress axis : x y z
#
# Youngs Moduli (GPa) = 50.50342 83.30693 65.19808
#
# Poissons Ratio (x) = 0.62571 0.32736
# Poissons Ratio (y) = 0.37933 0.02929
# Poissons Ratio (z) = 0.25358 0.03743
#
# Static dielectric constant tensor:
#      x y z
#    x 4.250950 0.000000 0.096360 
#    y 0.000000 4.419100 0.000000 
#    z 0.096360 0.000000 4.045290 
# 
# 
# High freq. dielectric constant tensor:
#      x y z
#    x 1.868040 0.000000 0.017090 
#    y 0.000000 1.895410 0.000000 
#    z 0.017090 0.000000 1.856740 
# 
# From -- ./inp_files/163284.got.cif
#   From: 2010.06.25/outbox.cif.g09.slc.cpg/sg15_82_cif.got.tgz:163284.got - 2010.06.28 07:06:18.
