data_PCOD8149755
_publ_section_title
;
Structure prediction by ZEFSAII (Michael W. Deem and Ramdas Pophale) SiO2 
 PCOD8149755
Probable space group: C 2/C
;
_chemical_formula_sum "Si O2"
_cell_formula_units_Z 40
_cell_length_a 22.795258
_cell_length_b 7.467230
_cell_length_c 13.992806
_cell_angle_alpha 90.000000
_cell_angle_beta 123.223584
_cell_angle_gamma 90.000000
_cell_volume 1992.484590
_symmetry_space_group_name_H-M "C 2/C"
_symmetry_group_IT_number 15
_symmetry_cell_setting 'monoclinic'
loop_
_space_group_symop_operation_xyz
x,y,z
-x,y,1/2-z
-x,-y,-z
x,-y,1/2+z
1/2+x,1/2+y,z
1/2-x,1/2+y,1/2-z
1/2-x,1/2-y,-z
1/2+x,1/2-y,1/2+z
loop_
_atom_site_type_symbol
_atom_site_label
_atom_site_fract_x
_atom_site_fract_y
_atom_site_fract_z
Si Si1 0.884125 0.703647 0.341005
Si Si2 0.873910 0.393082 0.035416
Si Si3 0.368803 0.481669 0.471083
Si Si4 0.528069 0.789222 0.873635
Si Si5 0.777273 0.411536 0.585803
O O1 0.860477 0.575666 0.408816
O O2 0.876917 0.912133 0.368605
O O3 0.838555 0.660972 0.208271
O O4 0.966005 0.673798 0.392263
O O5 0.892528 0.181062 0.064116
O O6 0.937308 0.521090 0.123269
O O7 0.806396 0.437471 0.039748
O O8 0.414092 0.657999 0.529059
O O9 0.286131 0.512626 0.409107
O O10 0.500000 0.702516 0.750000
O O11 0.750000 0.250000 0.500000
#
# Coordination Sequence:
#
# PCOD8149755 Si02
#       5
#     8   8   8   8   8
#     4  10  25  41  68  98 133 176 217 271 331 389
#     4  10  24  41  68  95 133 173 220 269 328 392
#     4  10  25  40  69  98 129 175 223 264 331 397
#     4  12  21  46  66  97 139 172 221 276 325 390
#     4  12  22  45  68  99 135 172 219 277 328 387
#
# _framework density 20.075437000000001
#
# number of rings (size 3 to 8) (size 9 to 14) (size 15 to 20)
#    1.200    0.000    4.000    1.800    2.800    0.800 
#    0.000    2.000    0.000    0.000    0.000    0.000 
#    0.000    0.000    0.000    0.000    0.000    0.000 
#
# Total GULP energy -247833.701986 kJ/mol
# GULP energy per Si atom -12391.685099 kJ/mol
# Density = 2.002974 g / cm^3
# Si number density = 20.075437 Si / 1000 Ang^3
#
#
#
# Elastic Constant Matrix: (Units=GPa)
#
#
# Indices 1 2 3 4 5 6 
#
# 1 113.3657 17.6882 38.3327 0.0000 22.2732 0.0000
# 2 17.6882 79.9801 18.9087 0.0000 18.9039 0.0000
# 3 38.3327 18.9087 78.9219 0.0000 2.5593 0.0000
# 4 0.0000 0.0000 0.0000 25.7833 0.0000 -2.2330
# 5 22.2732 18.9039 2.5593 0.0000 33.4013 0.0000
# 6 0.0000 0.0000 0.0000 -2.2330 0.0000 33.7154
#
#
#
# Elastic Compliance Matrix: (Units=1/GPa)
#
#
# Indices 1 2 3 4 5 6 
#
# 1 0.012295 0.000572 -0.005847 0.000000 -0.008074 0.000000
# 2 0.000572 0.015315 -0.003663 0.000000 -0.008768 0.000000
# 3 -0.005847 -0.003663 0.016235 0.000000 0.004728 0.000000
# 4 0.000000 0.000000 0.000000 0.039009 0.000000 0.002584
# 5 -0.008074 -0.008768 0.004728 0.000000 0.039923 0.000000
# 6 0.000000 0.000000 0.000000 0.002584 0.000000 0.029831
#
#
# Mechanical properties :
#
#
# Convention : Reuss Voigt Hill
#
# Bulk Modulus (GPa) = 38.50712 46.90298 42.70505
# Shear Modulus (GPa) = 27.91102 31.73586 29.82344
#
# Velocity S-wave (km/s) = 3.73273 3.98028 3.85849
# Velocity P-wave (km/s) = 6.14821 6.67365 6.41631
#
# Compressibility (1/GPa) = 0.02596922
#
# Stress axis : x y z
#
# Youngs Moduli (GPa) = 81.33208 65.29527 61.59587
#
# Poissons Ratio (x) = -0.03732 0.36015
# Poissons Ratio (y) = -0.04649 0.22560
# Poissons Ratio (z) = 0.47555 0.23915
#
# Static dielectric constant tensor:
#      x y z
#    x 1.874850 0.000000 0.157420 
#    y 0.000000 3.561030 0.000000 
#    z 0.157420 0.000000 3.397160 
# 
# 
# High freq. dielectric constant tensor:
#      x y z
#    x 1.807800 0.000000 -0.001260 
#    y 0.000000 1.774830 0.000000 
#    z -0.001260 0.000000 1.763010 
# 
# From -- ./inp_files/171503.got.cif
#   From: 2010.06.25/outbox.cif.g09.slc.cpg/sg15_86_cif.got.tgz:171503.got - 2010.06.28 07:06:18.
