data_PCOD8149068
_publ_section_title
;
Structure prediction by ZEFSAII (Michael W. Deem and Ramdas Pophale) SiO2 
 PCOD8149068
Probable space group: C 2/C
;
_chemical_formula_sum "Si O2"
_cell_formula_units_Z 56
_cell_length_a 5.893809
_cell_length_b 16.815863
_cell_length_c 28.798941
_cell_angle_alpha 90.000000
_cell_angle_beta 117.587647
_cell_angle_gamma 90.000000
_cell_volume 2529.730016
_symmetry_space_group_name_H-M "C 2/C"
_symmetry_group_IT_number 15
_symmetry_cell_setting 'monoclinic'
loop_
_space_group_symop_operation_xyz
x,y,z
-x,y,1/2-z
-x,-y,-z
x,-y,1/2+z
1/2+x,1/2+y,z
1/2-x,1/2+y,1/2-z
1/2-x,1/2-y,-z
1/2+x,1/2-y,1/2+z
loop_
_atom_site_type_symbol
_atom_site_label
_atom_site_fract_x
_atom_site_fract_y
_atom_site_fract_z
Si Si1 0.576080 0.206283 0.879199
Si Si2 0.445403 0.047713 0.099304
Si Si3 0.584851 0.102265 0.555244
Si Si4 0.806302 0.194339 0.276784
Si Si5 0.467161 0.809266 0.538123
Si Si6 0.874005 0.938477 0.375433
Si Si7 0.017574 0.972708 0.803528
O O1 0.413308 0.171966 0.906315
O O2 0.402725 0.258413 0.830124
O O3 0.668056 0.131018 0.857915
O O4 0.801243 0.258607 0.921210
O O5 0.370183 0.132232 0.069872
O O6 0.703019 0.056724 0.153855
O O7 0.457187 0.979188 0.060833
O O8 0.222356 0.022516 0.113240
O O9 0.441169 0.134192 0.495734
O O10 0.880653 0.086788 0.571095
O O11 0.500000 0.214958 0.250000
O O12 0.000000 0.212532 0.250000
O O13 0.823737 0.100895 0.288650
O O14 0.250000 0.750000 0.500000
O O15 0.937182 0.953183 0.327680
O O16 0.000000 0.007384 0.750000
#
# Coordination Sequence:
#
# PCOD8149068 Si02
#       7
#     8   8   8   8   8   8   8
#     4  11  24  47  67 103 146 179 242 303 368 438
#     4  10  23  44  67  97 140 182 236 299 352 438
#     4  10  23  44  64  98 141 185 232 287 361 436
#     4  11  27  47  76 107 143 192 244 305 375 443
#     4  12  23  42  71 101 136 190 236 297 369 433
#     4  10  23  44  68  99 142 182 232 303 352 446
#     4  10  23  44  71 100 132 186 243 292 362 431
#
# _framework density 22.136752000000001
#
# number of rings (size 3 to 8) (size 9 to 14) (size 15 to 20)
#    0.000    1.429    2.857    0.857    6.000    1.714 
#   12.857    0.000    0.000    0.000    0.000    0.000 
#    0.000    0.000    0.000    0.000    0.000    0.000 
#
# Total GULP energy -347037.315097 kJ/mol
# GULP energy per Si atom -12394.189825 kJ/mol
# Density = 2.208637 g / cm^3
# Si number density = 22.136752 Si / 1000 Ang^3
#
#
#
# Elastic Constant Matrix: (Units=GPa)
#
#
# Indices 1 2 3 4 5 6 
#
# 1 154.5480 792.7674 -47.9471 -0.0010 8.2832 -0.0005
# 2 792.767412521.0465-1586.9549 -0.0157 6.5617 -0.0078
# 3 -47.9471-1586.9549 364.7590 0.0020 4.6925 0.0010
# 4 -0.0010 -0.0157 0.0020 0.8166 -0.0001 -10.4858
# 5 8.2832 6.5617 4.6925 -0.0001 29.5782 0.0000
# 6 -0.0005 -0.0078 0.0010 -10.4858 0.0000 24.3558
#
#
#
# Elastic Compliance Matrix: (Units=1/GPa)
#
#
# Indices 1 2 3 4 5 6 
#
# 1 0.011597 -0.001195 -0.003642 0.000000 -0.002405 0.000000
# 2 -0.001195 0.000302 0.001155 0.000000 0.000084 0.000000
# 3 -0.003642 0.001155 0.007294 0.000000 -0.000394 0.000000
# 4 0.000000 0.000000 0.000000 -0.270434 -0.000001 -0.116429
# 5 -0.002405 0.000084 -0.000394 -0.000001 0.034526 0.000000
# 6 0.000000 0.000000 0.000000 -0.116429 0.000000 -0.009067
#
#
# Mechanical properties :
#
#
# Convention : Reuss Voigt Hill
#
# Bulk Modulus (GPa) = 84.52678 1261.78716 673.15697
# Shear Modulus (GPa) = -23.31266 936.44933 456.56833
#
# Velocity S-wave (km/s) = -3.24870 20.58999 14.37695
# Velocity P-wave (km/s) = 4.91881 33.71198 24.09037
#
# Compressibility (1/GPa) = 0.01183057
#
# Stress axis : x y z
#
# Youngs Moduli (GPa) = 86.22562 3312.51935 137.09595
#
# Poissons Ratio (x) = 3.95729 0.49932
# Poissons Ratio (y) = 0.10301 -0.15839
# Poissons Ratio (z) = 0.31404 -3.82692
#
# Static dielectric constant tensor:
#      x y z
#    x 3.884220 0.000000 -0.635710 
#    y 0.000000 4.116080 0.000000 
#    z -0.635710 0.000000 3.080040 
# 
# 
# High freq. dielectric constant tensor:
#      x y z
#    x 1.866820 0.000000 -0.004940 
#    y 0.000000 1.881030 0.000000 
#    z -0.004940 0.000000 1.875570 
# 
# From -- ./inp_files/305840.got.cif
#   From: 2010.06.25/outbox.cif.g09.slc.cpg/sg15_153_cif.got.tgz:305840.got - 2010.06.28 07:06:18.
