data_PCOD8149448
_publ_section_title
;
Structure prediction by ZEFSAII (Michael W. Deem and Ramdas Pophale) SiO2 
 PCOD8149448
Probable space group: C 2/C
;
_chemical_formula_sum "Si O2"
_cell_formula_units_Z 60
_cell_length_a 28.814789
_cell_length_b 10.430838
_cell_length_c 8.373360
_cell_angle_alpha 90.000000
_cell_angle_beta 92.309385
_cell_angle_gamma 90.000000
_cell_volume 2514.673088
_symmetry_space_group_name_H-M "C 2/C"
_symmetry_group_IT_number 15
_symmetry_cell_setting 'monoclinic'
loop_
_space_group_symop_operation_xyz
x,y,z
-x,y,1/2-z
-x,-y,-z
x,-y,1/2+z
1/2+x,1/2+y,z
1/2-x,1/2+y,1/2-z
1/2-x,1/2-y,-z
1/2+x,1/2-y,1/2+z
loop_
_atom_site_type_symbol
_atom_site_label
_atom_site_fract_x
_atom_site_fract_y
_atom_site_fract_z
Si Si1 0.827343 0.252919 0.883031
Si Si2 0.307414 0.505822 0.524429
Si Si3 0.834922 0.623706 0.709013
Si Si4 0.482201 0.634268 0.431513
Si Si5 0.098321 0.603462 0.288051
Si Si6 0.379604 0.702327 0.452815
Si Si7 0.000000 0.306105 0.750000
Si Si8 0.258462 0.075035 0.231114
O O1 0.827976 0.100724 0.905566
O O2 0.877620 0.300348 0.834018
O O3 0.785236 0.289497 0.755901
O O4 0.814558 0.333079 0.038196
O O5 0.348331 0.609380 0.561549
O O6 0.259752 0.569182 0.451916
O O7 0.290267 0.435182 0.680734
O O8 0.882107 0.539860 0.704298
O O9 0.847425 0.755729 0.800517
O O10 0.794843 0.537661 0.782925
O O11 0.500000 0.665106 0.250000
O O12 0.500000 0.500000 0.500000
O O13 0.426339 0.629371 0.406692
O O14 0.496739 0.728819 0.580421
O O15 0.107364 0.664592 0.461897
O O16 0.044008 0.600107 0.239486
#
# Coordination Sequence:
#
# PCOD8149448 Si02
#       8
#     8   8   8   8   8   8   4   8
#     4  11  24  42  66  95 140 182 230 285 354 412
#     4  12  25  41  67  98 135 178 235 285 341 425
#     4  11  24  46  67  96 141 179 234 285 355 424
#     4  11  25  46  75 106 149 191 235 295 367 434
#     4  10  23  46  70  99 136 183 222 296 355 418
#     4  11  27  44  69 105 134 180 236 287 357 429
#     4  10  24  46  74 108 144 184 242 298 360 438
#     4  11  24  41  63  96 134 185 225 286 344 402
#
# _framework density 23.859961999999999
#
# number of rings (size 3 to 8) (size 9 to 14) (size 15 to 20)
#    0.000    1.067    2.000    3.600    7.467    1.600 
#    1.200    2.000    0.000    0.000    0.000    0.000 
#    0.000    0.000    0.000    0.000    0.000    0.000 
#
# Total GULP energy -371809.248794 kJ/mol
# GULP energy per Si atom -12393.641626 kJ/mol
# Density = 2.380566 g / cm^3
# Si number density = 23.859962 Si / 1000 Ang^3
#
#
#
# Elastic Constant Matrix: (Units=GPa)
#
#
# Indices 1 2 3 4 5 6 
#
# 1 127.3449 20.4483 10.7767 0.0000 -6.7379 0.0000
# 2 20.4483 60.2520 -3.4447 0.0000 7.9825 0.0000
# 3 10.7767 -3.4447 81.4861 0.0000 -2.1985 0.0000
# 4 0.0000 0.0000 0.0000 28.4790 0.0000 2.0505
# 5 -6.7379 7.9825 -2.1985 0.0000 33.9823 0.0000
# 6 0.0000 0.0000 0.0000 2.0505 0.0000 39.3599
#
#
#
# Elastic Compliance Matrix: (Units=1/GPa)
#
#
# Indices 1 2 3 4 5 6 
#
# 1 0.008615 -0.003312 -0.001214 0.000000 0.002408 0.000000
# 2 -0.003312 0.018434 0.001085 0.000000 -0.004917 0.000000
# 3 -0.001214 0.001085 0.012487 0.000000 0.000312 0.000000
# 4 0.000000 0.000000 0.000000 0.035246 0.000000 -0.001836
# 5 0.002408 -0.004917 0.000312 0.000000 0.031080 0.000000
# 6 0.000000 0.000000 0.000000 -0.001836 0.000000 0.025502
#
#
# Mechanical properties :
#
#
# Convention : Reuss Voigt Hill
#
# Bulk Modulus (GPa) = 30.62553 36.07150 33.34851
# Shear Modulus (GPa) = 33.52753 36.45110 34.98931
#
# Velocity S-wave (km/s) = 3.75264 3.91283 3.83357
# Velocity P-wave (km/s) = 5.62493 5.96360 5.79674
#
# Compressibility (1/GPa) = 0.03265250
#
# Stress axis : x y z
#
# Youngs Moduli (GPa) = 116.08110 54.24639 80.08391
#
# Poissons Ratio (x) = 0.17967 0.09725
# Poissons Ratio (y) = 0.38446 -0.08686
# Poissons Ratio (z) = 0.14096 -0.05884
#
# Static dielectric constant tensor:
#      x y z
#    x 4.281070 0.000000 -0.033380 
#    y 0.000000 4.086840 0.000000 
#    z -0.033380 0.000000 4.620220 
# 
# 
# High freq. dielectric constant tensor:
#      x y z
#    x 1.947550 0.000000 0.002110 
#    y 0.000000 1.939310 0.000000 
#    z 0.002110 0.000000 1.954950 
# 
# From -- ./inp_files/65494.got.cif
#   From: 2010.06.25/outbox.cif.g09.slc.cpg/sg15_33_cif.got.tgz:65494.got - 2010.06.28 07:06:18.
