data_PCOD8149685
_publ_section_title
;
Structure prediction by ZEFSAII (Michael W. Deem and Ramdas Pophale) SiO2 
 PCOD8149685
Probable space group: C 2/C
;
_chemical_formula_sum "Si O2"
_cell_formula_units_Z 36
_cell_length_a 19.033139
_cell_length_b 19.337302
_cell_length_c 8.806883
_cell_angle_alpha 90.000000
_cell_angle_beta 30.056610
_cell_angle_gamma 90.000000
_cell_volume 1623.457411
_symmetry_space_group_name_H-M "C 2/C"
_symmetry_group_IT_number 15
_symmetry_cell_setting 'monoclinic'
loop_
_space_group_symop_operation_xyz
x,y,z
-x,y,1/2-z
-x,-y,-z
x,-y,1/2+z
1/2+x,1/2+y,z
1/2-x,1/2+y,1/2-z
1/2-x,1/2-y,-z
1/2+x,1/2-y,1/2+z
loop_
_atom_site_type_symbol
_atom_site_label
_atom_site_fract_x
_atom_site_fract_y
_atom_site_fract_z
Si Si1 0.000000 0.483273 0.750000
Si Si2 0.653363 0.692518 0.764116
Si Si3 0.833732 0.810215 0.914256
Si Si4 0.683512 0.946175 0.150410
Si Si5 0.091682 0.949811 0.223738
O O1 0.065604 0.432057 0.499760
O O2 0.113519 0.532550 0.621940
O O3 0.750000 0.750000 0.500000
O O4 0.655203 0.618933 0.679077
O O5 0.707948 0.682522 0.832204
O O6 0.491138 0.713020 0.082074
O O7 0.750000 0.750000 0.000000
O O8 0.787516 0.881985 0.921464
O O9 0.770228 0.006816 0.071665
O O10 0.000000 0.929410 0.250000
O O11 0.000000 0.000000 0.500000
#
# Coordination Sequence:
#
# PCOD8149685 Si02
#       5
#     4   8   8   8   8
#     4  10  24  40  68 102 146 180 230 322 360 440
#     4  11  27  46  69 107 142 188 249 305 375 438
#     4  11  26  45  69  98 146 193 243 304 369 453
#     4  11  23  43  68 104 141 186 246 295 375 429
#     4  12  24  43  78 104 141 190 252 308 362 440
#
# _framework density 22.174896
#
# number of rings (size 3 to 8) (size 9 to 14) (size 15 to 20)
#    0.000    0.889    2.222    4.000    3.111    7.111 
#    0.000    0.000    0.000    0.000    0.000    0.000 
#    0.000    0.000    0.000    0.000    0.000    0.000 
#
# Total GULP energy -223072.602330 kJ/mol
# GULP energy per Si atom -12392.922352 kJ/mol
# Density = 2.212442 g / cm^3
# Si number density = 22.174896 Si / 1000 Ang^3
#
#
#
# Elastic Constant Matrix: (Units=GPa)
#
#
# Indices 1 2 3 4 5 6 
#
# 1 140.2045 63.9042 38.7931 -0.0005 -16.7462 0.0003
# 2 63.9042 166.2942 51.8616 -0.0003 -8.9162 0.0002
# 3 38.7931 51.8616 98.2640 -0.0010 4.9370 0.0006
# 4 -0.0005 -0.0003 -0.0010 46.9136 0.0006 -11.3673
# 5 -16.7462 -8.9162 4.9370 0.0006 35.9363 -0.0005
# 6 0.0003 0.0002 0.0006 -11.3673 -0.0005 39.3295
#
#
#
# Elastic Compliance Matrix: (Units=1/GPa)
#
#
# Indices 1 2 3 4 5 6 
#
# 1 0.009546 -0.002640 -0.002584 0.000000 0.004148 0.000000
# 2 -0.002640 0.008127 -0.003309 0.000000 0.001241 0.000000
# 3 -0.002584 -0.003309 0.013135 0.000000 -0.003830 0.000000
# 4 0.000000 0.000000 0.000000 0.022921 0.000000 0.006625
# 5 0.004148 0.001241 -0.003830 0.000000 0.030594 0.000000
# 6 0.000000 0.000000 0.000000 0.006625 0.000000 0.027341
#
#
# Mechanical properties :
#
#
# Convention : Reuss Voigt Hill
#
# Bulk Modulus (GPa) = 72.76755 79.32006 76.04381
# Shear Modulus (GPa) = 37.50635 41.11614 39.31124
#
# Velocity S-wave (km/s) = 4.11711 4.31068 4.21501
# Velocity P-wave (km/s) = 7.44898 7.78613 7.61942
#
# Compressibility (1/GPa) = 0.01374239
#
# Stress axis : x y z
#
# Youngs Moduli (GPa) = 104.75359 123.05370 76.12982
#
# Poissons Ratio (x) = 0.32490 0.19669
# Poissons Ratio (y) = 0.27658 0.25191
# Poissons Ratio (z) = 0.27064 0.40718
#
# Static dielectric constant tensor:
#      x y z
#    x 1.416750 0.000250 0.479250 
#    y 0.000250 3.445360 -0.000040 
#    z 0.479250 -0.000040 3.778070 
# 
# 
# High freq. dielectric constant tensor:
#      x y z
#    x 1.888770 0.000000 -0.005700 
#    y 0.000000 1.860510 0.000000 
#    z -0.005700 0.000000 1.891290 
# 
# From -- ./inp_files/50550.got.cif
#   From: 2010.06.25/outbox.cif.g09.slc.cpg/sg15_26_cif.got.tgz:50550.got - 2010.06.28 07:06:18.
