data_PCOD8149743
_publ_section_title
;
Structure prediction by ZEFSAII (Michael W. Deem and Ramdas Pophale) SiO2 
 PCOD8149743
Probable space group: C 2/C
;
_chemical_formula_sum "Si O2"
_cell_formula_units_Z 40
_cell_length_a 17.770587
_cell_length_b 7.664765
_cell_length_c 17.573801
_cell_angle_alpha 90.000000
_cell_angle_beta 127.976456
_cell_angle_gamma 90.000000
_cell_volume 1886.851996
_symmetry_space_group_name_H-M "C 2/C"
_symmetry_group_IT_number 15
_symmetry_cell_setting 'monoclinic'
loop_
_space_group_symop_operation_xyz
x,y,z
-x,y,1/2-z
-x,-y,-z
x,-y,1/2+z
1/2+x,1/2+y,z
1/2-x,1/2+y,1/2-z
1/2-x,1/2-y,-z
1/2+x,1/2-y,1/2+z
loop_
_atom_site_type_symbol
_atom_site_label
_atom_site_fract_x
_atom_site_fract_y
_atom_site_fract_z
Si Si1 0.660416 0.623893 0.233382
Si Si2 0.941955 0.437535 0.577065
Si Si3 0.148317 0.746933 0.897058
Si Si4 0.863609 0.461574 0.365159
Si Si5 0.520762 0.430476 0.348535
O O1 0.654807 0.722858 0.310932
O O2 0.763322 0.545129 0.281698
O O3 0.639907 0.756101 0.152361
O O4 0.581226 0.472133 0.176009
O O5 0.903693 0.561038 0.621179
O O6 0.885528 0.496504 0.466897
O O7 0.923345 0.232970 0.580448
O O8 0.055449 0.455532 0.637892
O O9 0.086430 0.899241 0.897232
O O10 0.250000 0.750000 0.000000
O O11 0.500000 0.376261 0.250000
#
# Coordination Sequence:
#
# PCOD8149743 Si02
#       5
#     8   8   8   8   8
#     4  11  23  43  65 100 136 170 219 278 330 394
#     4  11  24  44  66  95 129 176 220 270 330 398
#     4  11  23  45  68  93 133 173 219 276 326 391
#     4  11  24  41  66  97 133 171 218 269 343 391
#     4  10  24  41  66  96 127 168 226 268 322 395
#
# _framework density 21.199331999999998
#
# number of rings (size 3 to 8) (size 9 to 14) (size 15 to 20)
#    0.000    1.200    4.000    1.200    2.800    3.200 
#    0.000    0.000    0.000    0.000    0.000    0.000 
#    0.000    0.000    0.000    0.000    0.000    0.000 
#
# Total GULP energy -248069.443678 kJ/mol
# GULP energy per Si atom -12403.472184 kJ/mol
# Density = 2.115108 g / cm^3
# Si number density = 21.199332 Si / 1000 Ang^3
#
#
#
# Elastic Constant Matrix: (Units=GPa)
#
#
# Indices 1 2 3 4 5 6 
#
# 1 86.7739 33.4251 16.1434 0.0000 18.1449 0.0000
# 2 33.4251 125.5327 16.7526 0.0000 8.1123 0.0000
# 3 16.1434 16.7526 43.5436 0.0000 18.3045 0.0000
# 4 0.0000 0.0000 0.0000 39.0841 0.0000 7.0196
# 5 18.1449 8.1123 18.3045 0.0000 32.6308 0.0000
# 6 0.0000 0.0000 0.0000 7.0196 0.0000 24.0160
#
#
#
# Elastic Compliance Matrix: (Units=1/GPa)
#
#
# Indices 1 2 3 4 5 6 
#
# 1 0.014365 -0.003225 -0.001392 0.000000 -0.006405 0.000000
# 2 -0.003225 0.009125 -0.002768 0.000000 0.001078 0.000000
# 3 -0.001392 -0.002768 0.031317 0.000000 -0.016105 0.000000
# 4 0.000000 0.000000 0.000000 0.027003 0.000000 -0.007893
# 5 -0.006405 0.001078 -0.016105 0.000000 0.042974 0.000000
# 6 0.000000 0.000000 0.000000 -0.007893 0.000000 0.043946
#
#
# Mechanical properties :
#
#
# Convention : Reuss Voigt Hill
#
# Bulk Modulus (GPa) = 24.97786 43.16582 34.07184
# Shear Modulus (GPa) = 25.40073 31.78147 28.59110
#
# Velocity S-wave (km/s) = 3.46524 3.87612 3.67642
# Velocity P-wave (km/s) = 5.27432 6.35912 5.84196
#
# Compressibility (1/GPa) = 0.04003545
#
# Stress axis : x y z
#
# Youngs Moduli (GPa) = 69.61430 109.59468 31.93194
#
# Poissons Ratio (x) = 0.35346 0.04446
# Poissons Ratio (y) = 0.22452 0.08838
# Poissons Ratio (z) = 0.09693 0.30333
#
# Static dielectric constant tensor:
#      x y z
#    x 3.950070 0.000000 0.134220 
#    y 0.000000 3.789370 0.000000 
#    z 0.134220 0.000000 3.687270 
# 
# 
# High freq. dielectric constant tensor:
#      x y z
#    x 1.838040 0.000000 0.012440 
#    y 0.000000 1.834920 0.000000 
#    z 0.012440 0.000000 1.828790 
# 
# From -- ./inp_files/176071.got.cif
#   From: 2010.06.25/outbox.cif.g09.slc.cpg/sg15_89_cif.got.tgz:176071.got - 2010.06.28 07:06:18.
