data_PCOD8149446
_publ_section_title
;
Structure prediction by ZEFSAII (Michael W. Deem and Ramdas Pophale) SiO2 
 PCOD8149446
Probable space group: C 2/C
;
_chemical_formula_sum "Si O2"
_cell_formula_units_Z 40
_cell_length_a 9.755578
_cell_length_b 10.895011
_cell_length_c 16.818598
_cell_angle_alpha 90.000000
_cell_angle_beta 90.000247
_cell_angle_gamma 90.000000
_cell_volume 1787.600506
_symmetry_space_group_name_H-M "C 2/C"
_symmetry_group_IT_number 15
_symmetry_cell_setting 'monoclinic'
loop_
_space_group_symop_operation_xyz
x,y,z
-x,y,1/2-z
-x,-y,-z
x,-y,1/2+z
1/2+x,1/2+y,z
1/2-x,1/2+y,1/2-z
1/2-x,1/2-y,-z
1/2+x,1/2-y,1/2+z
loop_
_atom_site_type_symbol
_atom_site_label
_atom_site_fract_x
_atom_site_fract_y
_atom_site_fract_z
Si Si1 0.000001 0.293837 0.402920
Si Si2 0.499999 0.947499 0.839958
Si Si3 0.292893 0.263469 0.159710
Si Si4 0.707107 0.263471 0.159712
Si Si5 0.000001 0.874379 0.048861
O O1 0.133854 0.243853 0.358285
O O2 0.000006 0.245002 0.492421
O O3 0.999998 0.441605 0.402528
O O4 0.866145 0.243849 0.358289
O O5 0.500000 0.001274 0.750000
O O6 0.635200 0.867133 0.854270
O O7 0.364798 0.867131 0.854268
O O8 0.313824 0.308385 0.249998
O O9 0.363443 0.366147 0.103306
O O10 0.636556 0.366150 0.103309
O O11 0.000000 0.000000 0.000000
#
# Coordination Sequence:
#
# PCOD8149446 Si02
#       5
#     8   8   8   8   8
#     4  12  24  42  72 104 132 176 237 284 344 405
#     4   9  21  42  67  96 133 176 224 282 346 402
#     4  10  23  46  70  98 137 184 231 284 346 414
#     4  10  23  46  70  98 137 184 231 284 346 414
#     4  11  26  45  67 104 145 185 227 283 353 410
#
# _framework density 22.376363000000001
#
# number of rings (size 3 to 8) (size 9 to 14) (size 15 to 20)
#    0.000    1.600    0.000    4.800    5.600    3.200 
#    0.000    4.000    0.000    0.000    0.000    0.000 
#    0.000    0.000    0.000    0.000    0.000    0.000 
#
# Total GULP energy -248038.344768 kJ/mol
# GULP energy per Si atom -12401.917238 kJ/mol
# Density = 2.232543 g / cm^3
# Si number density = 22.376363 Si / 1000 Ang^3
#
#
#
# Elastic Constant Matrix: (Units=GPa)
#
#
# Indices 1 2 3 4 5 6 
#
# 1 207.9390 65.6392 69.0996 0.0000 10.1248 0.0000
# 2 65.6392 111.6831 71.7517 0.0000 -0.5856 0.0000
# 3 69.0996 71.7517 162.4409 0.0000 -5.8337 0.0000
# 4 0.0000 0.0000 0.0000 31.2781 0.0000 -1.2876
# 5 10.1248 -0.5856 -5.8337 0.0000 17.4977 0.0000
# 6 0.0000 0.0000 0.0000 -1.2876 0.0000 17.7129
#
#
#
# Elastic Compliance Matrix: (Units=1/GPa)
#
#
# Indices 1 2 3 4 5 6 
#
# 1 0.006446 -0.002721 -0.001698 0.000000 -0.004387 0.000000
# 2 -0.002721 0.013686 -0.004873 0.000000 0.000407 0.000000
# 3 -0.001698 -0.004873 0.009170 0.000000 0.003877 0.000000
# 4 0.000000 0.000000 0.000000 0.032067 0.000000 0.002331
# 5 -0.004387 0.000407 0.003877 0.000000 0.060995 0.000000
# 6 0.000000 0.000000 0.000000 0.002331 0.000000 0.056626
#
#
# Mechanical properties :
#
#
# Convention : Reuss Voigt Hill
#
# Bulk Modulus (GPa) = 93.29682 99.44932 96.37307
# Shear Modulus (GPa) = 24.85770 31.66924 28.26347
#
# Velocity S-wave (km/s) = 3.33662 3.76613 3.55786
# Velocity P-wave (km/s) = 7.52522 7.96568 7.74858
#
# Compressibility (1/GPa) = 0.01071848
#
# Stress axis : x y z
#
# Youngs Moduli (GPa) = 155.14331 73.06809 109.05075
#
# Poissons Ratio (x) = 0.19879 0.18514
# Poissons Ratio (y) = 0.42208 0.53143
# Poissons Ratio (z) = 0.26339 0.35608
#
# Static dielectric constant tensor:
#      x y z
#    x 4.311290 0.000000 0.008790 
#    y 0.000000 3.723880 0.000000 
#    z 0.008790 0.000000 4.218550 
# 
# 
# High freq. dielectric constant tensor:
#      x y z
#    x 1.895400 0.000000 0.000190 
#    y 0.000000 1.862420 0.000000 
#    z 0.000190 0.000000 1.893420 
# 
# From -- ./inp_files/187972.got.cif
#   From: 2010.06.25/outbox.cif.g09.slc.cpg/sg15_94_cif.got.tgz:187972.got - 2010.06.28 07:06:18.
