data_PCOD8149715
_publ_section_title
;
Structure prediction by ZEFSAII (Michael W. Deem and Ramdas Pophale) SiO2 
 PCOD8149715
Probable space group: C 2/C
;
_chemical_formula_sum "Si O2"
_cell_formula_units_Z 28
_cell_length_a 9.540511
_cell_length_b 13.552242
_cell_length_c 14.197310
_cell_angle_alpha 90.000000
_cell_angle_beta 144.468723
_cell_angle_gamma 90.000000
_cell_volume 1066.780485
_symmetry_space_group_name_H-M "C 2/C"
_symmetry_group_IT_number 15
_symmetry_cell_setting 'monoclinic'
loop_
_space_group_symop_operation_xyz
x,y,z
-x,y,1/2-z
-x,-y,-z
x,-y,1/2+z
1/2+x,1/2+y,z
1/2-x,1/2+y,1/2-z
1/2-x,1/2-y,-z
1/2+x,1/2-y,1/2+z
loop_
_atom_site_type_symbol
_atom_site_label
_atom_site_fract_x
_atom_site_fract_y
_atom_site_fract_z
Si Si1 0.898006 0.484731 0.294054
Si Si2 0.500000 0.779873 0.750000
Si Si3 0.511144 0.671759 0.564665
Si Si4 0.781943 0.632924 0.392117
O O1 0.640857 0.433373 0.136638
O O2 0.880667 0.579825 0.352000
O O3 0.000000 0.520789 0.250000
O O4 0.081032 0.406191 0.440843
O O5 0.472733 0.705117 0.649694
O O6 0.254224 0.844550 0.626344
O O7 0.661102 0.751044 0.585336
O O8 0.500000 0.613945 0.250000
#
# Coordination Sequence:
#
# PCOD8149715 Si02
#       4
#     8   4   8   8
#     4  11  27  48  74 108 148 192 245 301 368 436
#     4  10  24  40  78 106 142 188 242 294 370 422
#     4  11  23  46  74 108 147 192 240 301 362 439
#     4  11  27  47  73 108 149 191 244 304 364 437
#
# _framework density 26.247198999999998
#
# number of rings (size 3 to 8) (size 9 to 14) (size 15 to 20)
#    0.000    1.143    2.857    0.857    8.000    5.714 
#    0.000    0.000    0.000    0.000    0.000    0.000 
#    0.000    0.000    0.000    0.000    0.000    0.000 
#
# Total GULP energy -173703.530283 kJ/mol
# GULP energy per Si atom -12407.395020 kJ/mol
# Density = 2.618746 g / cm^3
# Si number density = 26.247199 Si / 1000 Ang^3
#
#
#
# Elastic Constant Matrix: (Units=GPa)
#
#
# Indices 1 2 3 4 5 6 
#
# 1 111.4641 1.6937 43.2764 0.0003 -2.6232 0.0001
# 2 1.6937 84.3686 22.1692 0.0004 10.0178 0.0001
# 3 43.2764 22.1692 163.5995 0.0009 21.6282 0.0004
# 4 0.0003 0.0004 0.0009 47.6299 0.0005 9.2835
# 5 -2.6232 10.0178 21.6282 0.0005 51.7626 0.0002
# 6 0.0001 0.0001 0.0004 9.2835 0.0002 24.9593
#
#
#
# Elastic Compliance Matrix: (Units=1/GPa)
#
#
# Indices 1 2 3 4 5 6 
#
# 1 0.010154 0.000374 -0.002959 0.000000 0.001678 0.000000
# 2 0.000374 0.012461 -0.001557 0.000000 -0.001742 0.000000
# 3 -0.002959 -0.001557 0.007500 0.000000 -0.002982 0.000000
# 4 0.000000 0.000000 0.000000 0.022636 0.000000 -0.008419
# 5 0.001678 -0.001742 -0.002982 0.000000 0.020987 0.000000
# 6 0.000000 0.000000 0.000000 -0.008419 0.000000 0.043197
#
#
# Mechanical properties :
#
#
# Convention : Reuss Voigt Hill
#
# Bulk Modulus (GPa) = 45.80339 54.85678 50.33008
# Shear Modulus (GPa) = 37.73673 44.35654 41.04664
#
# Velocity S-wave (km/s) = 3.79587 4.11536 3.95884
# Velocity P-wave (km/s) = 6.05807 6.59750 6.33353
#
# Compressibility (1/GPa) = 0.02183245
#
# Stress axis : x y z
#
# Youngs Moduli (GPa) = 98.48333 80.24851 133.32549
#
# Poissons Ratio (x) = -0.03004 0.39446
# Poissons Ratio (y) = -0.03686 0.20763
# Poissons Ratio (z) = 0.29137 0.12497
#
# Static dielectric constant tensor:
#      x y z
#    x 4.714080 0.000000 -0.015770 
#    y 0.000000 4.485750 0.000000 
#    z -0.015770 0.000000 5.350590 
# 
# 
# High freq. dielectric constant tensor:
#      x y z
#    x 2.055340 0.000000 -0.004820 
#    y 0.000000 2.062350 0.000000 
#    z -0.004820 0.000000 2.079720 
# 
# From -- ./inp_files/133039.got.cif
#   From: 2010.06.25/outbox.cif.g09.slc.cpg/sg15_67_cif.got.tgz:133039.got - 2010.06.28 07:06:18.
