data_PCOD8149159
_publ_section_title
;
Structure prediction by ZEFSAII (Michael W. Deem and Ramdas Pophale) SiO2 
 PCOD8149159
Probable space group: C 2/C
;
_chemical_formula_sum "Si O2"
_cell_formula_units_Z 36
_cell_length_a 5.083272
_cell_length_b 23.115713
_cell_length_c 14.526941
_cell_angle_alpha 90.000000
_cell_angle_beta 108.588689
_cell_angle_gamma 90.000000
_cell_volume 1617.915696
_symmetry_space_group_name_H-M "C 2/C"
_symmetry_group_IT_number 15
_symmetry_cell_setting 'monoclinic'
loop_
_space_group_symop_operation_xyz
x,y,z
-x,y,1/2-z
-x,-y,-z
x,-y,1/2+z
1/2+x,1/2+y,z
1/2-x,1/2+y,1/2-z
1/2-x,1/2-y,-z
1/2+x,1/2-y,1/2+z
loop_
_atom_site_type_symbol
_atom_site_label
_atom_site_fract_x
_atom_site_fract_y
_atom_site_fract_z
Si Si1 0.190569 0.729441 0.683476
Si Si2 0.500000 0.426358 0.750000
Si Si3 0.464106 0.872431 0.463667
Si Si4 0.078796 0.849761 0.586326
Si Si5 0.294139 0.962815 0.309408
O O1 0.500000 0.743340 0.750000
O O2 0.183791 0.672753 0.620350
O O3 0.000000 0.719373 0.750000
O O4 0.080310 0.782291 0.610107
O O5 0.618350 0.386679 0.682788
O O6 0.251802 0.467718 0.683392
O O7 0.792397 0.862856 0.502885
O O8 0.408337 0.936540 0.417295
O O9 0.336466 0.866569 0.550683
O O10 0.500000 0.948437 0.250000
O O11 0.000000 0.933287 0.250000
#
# Coordination Sequence:
#
# PCOD8149159 Si02
#       5
#     8   4   8   8   8
#     4  12  24  44  73  98 139 179 217 271 345 405
#     4  10  28  44  70  92 142 182 226 266 342 398
#     4  12  25  43  70 103 135 172 229 282 326 394
#     4  12  26  43  68 101 137 175 225 278 335 396
#     4  10  23  44  68  95 135 176 230 266 332 396
#
# _framework density 22.250851000000001
#
# number of rings (size 3 to 8) (size 9 to 14) (size 15 to 20)
#    0.667    0.000    1.111    6.667    3.111    1.778 
#    0.000    0.000    0.000    0.000    0.000    0.000 
#    0.000    0.000    0.000    0.000    0.000    0.000 
#
# Total GULP energy -223295.164882 kJ/mol
# GULP energy per Si atom -12405.286938 kJ/mol
# Density = 2.220021 g / cm^3
# Si number density = 22.250851 Si / 1000 Ang^3
#
#
#
# Elastic Constant Matrix: (Units=GPa)
#
#
# Indices 1 2 3 4 5 6 
#
# 1 108.3172 14.8414 17.6475 0.0000 -8.4967 0.0000
# 2 14.8414 74.2232 17.3667 0.0000 -14.7467 0.0000
# 3 17.6475 17.3667 73.2858 0.0000 -30.4049 0.0000
# 4 0.0000 0.0000 0.0000 5.0075 0.0000 26.5217
# 5 -8.4967 -14.7467 -30.4049 0.0000 56.8863 0.0000
# 6 0.0000 0.0000 0.0000 26.5217 0.0000 -8.4464
#
#
#
# Elastic Compliance Matrix: (Units=1/GPa)
#
#
# Indices 1 2 3 4 5 6 
#
# 1 0.009761 -0.001483 -0.001996 0.000000 0.000006 0.000000
# 2 -0.001483 0.014755 -0.002113 0.000000 0.002474 0.000000
# 3 -0.001996 -0.002113 0.018343 0.000000 0.008958 0.000000
# 4 0.000000 0.000000 0.000000 0.011327 0.000000 0.035566
# 5 0.000006 0.002474 0.008958 0.000000 0.023009 0.000000
# 6 0.000000 0.000000 0.000000 0.035566 0.000000 -0.006715
#
#
# Mechanical properties :
#
#
# Convention : Reuss Voigt Hill
#
# Bulk Modulus (GPa) = 31.57118 39.50415 35.53766
# Shear Modulus (GPa) = 54.21554 24.42085 39.31819
#
# Velocity S-wave (km/s) = 4.94151 3.31648 4.20818
# Velocity P-wave (km/s) = 6.83941 5.69719 6.29426
#
# Compressibility (1/GPa) = 0.03167446
#
# Stress axis : x y z
#
# Youngs Moduli (GPa) = 102.44690 67.77154 54.51591
#
# Poissons Ratio (x) = 0.10054 0.10883
# Poissons Ratio (y) = 0.15197 0.11519
# Poissons Ratio (z) = 0.20452 0.14320
#
# Static dielectric constant tensor:
#      x y z
#    x 3.974790 0.000000 -0.009710 
#    y 0.000000 4.042970 0.000000 
#    z -0.009710 0.000000 4.075560 
# 
# 
# High freq. dielectric constant tensor:
#      x y z
#    x 1.888130 0.000000 -0.005240 
#    y 0.000000 1.884190 0.000000 
#    z -0.005240 0.000000 1.877890 
# 
# From -- ./inp_files/72681.got.cif
#   From: 2010.06.25/outbox.cif.g09.slc.cpg/sg15_37_cif.got.tgz:72681.got - 2010.06.28 07:06:18.
