data_PCOD8149149
_publ_section_title
;
Structure prediction by ZEFSAII (Michael W. Deem and Ramdas Pophale) SiO2 
 PCOD8149149
Probable space group: C 2/C
;
_chemical_formula_sum "Si O2"
_cell_formula_units_Z 60
_cell_length_a 18.585756
_cell_length_b 11.533957
_cell_length_c 22.443502
_cell_angle_alpha 90.000000
_cell_angle_beta 147.810138
_cell_angle_gamma 90.000000
_cell_volume 2563.028983
_symmetry_space_group_name_H-M "C 2/C"
_symmetry_group_IT_number 15
_symmetry_cell_setting 'monoclinic'
loop_
_space_group_symop_operation_xyz
x,y,z
-x,y,1/2-z
-x,-y,-z
x,-y,1/2+z
1/2+x,1/2+y,z
1/2-x,1/2+y,1/2-z
1/2-x,1/2-y,-z
1/2+x,1/2-y,1/2+z
loop_
_atom_site_type_symbol
_atom_site_label
_atom_site_fract_x
_atom_site_fract_y
_atom_site_fract_z
Si Si1 0.995771 0.553585 0.085855
Si Si2 0.000000 0.634563 0.750000
Si Si3 0.012268 0.964305 0.193026
Si Si4 0.604943 0.300881 0.913808
Si Si5 0.810653 0.524674 0.172673
Si Si6 0.379108 0.328070 0.439019
Si Si7 0.410449 0.690907 0.515415
Si Si8 0.200331 0.579424 0.124903
O O1 0.058087 0.547767 0.195158
O O2 0.119669 0.540531 0.127030
O O3 0.908468 0.671305 0.020990
O O4 0.889402 0.451250 0.996863
O O5 0.997638 0.715119 0.807123
O O6 0.134786 0.554226 0.843833
O O7 0.158504 0.014268 0.278342
O O8 0.000000 0.906284 0.250000
O O9 0.905802 0.069987 0.120664
O O10 0.975566 0.867625 0.118958
O O11 0.750000 0.250000 0.000000
O O12 0.566856 0.314086 0.956101
O O13 0.698697 0.447703 0.127526
O O14 0.742458 0.643596 0.101660
O O15 0.506679 0.336469 0.485774
O O16 0.281366 0.218164 0.357903
#
# Coordination Sequence:
#
# PCOD8149149 Si02
#       8
#     8   4   8   8   8   8   8   8
#     4  10  25  46  70  96 143 187 240 298 344 424
#     4  12  24  42  68 106 140 188 226 288 366 426
#     4  12  24  42  70 102 145 188 231 295 357 434
#     4  12  22  40  66 106 149 176 228 289 375 427
#     4  12  24  44  68 101 141 183 237 298 353 426
#     4  11  22  42  73 104 140 176 232 306 355 425
#     4  11  26  45  69 104 134 194 243 287 352 423
#     4  10  23  44  68 106 135 186 236 291 366 419
#
# _framework density 23.409801000000002
#
# number of rings (size 3 to 8) (size 9 to 14) (size 15 to 20)
#    0.000    0.800    3.333    3.600    3.733    1.067 
#    6.000    1.333    0.000    0.000    0.000    0.000 
#    0.000    0.000    0.000    0.000    0.000    0.000 
#
# Total GULP energy -371991.079359 kJ/mol
# GULP energy per Si atom -12399.702645 kJ/mol
# Density = 2.335652 g / cm^3
# Si number density = 23.409801 Si / 1000 Ang^3
#
#
#
# Elastic Constant Matrix: (Units=GPa)
#
#
# Indices 1 2 3 4 5 6 
#
# 1 89.8118 26.2677 27.4940 0.0000 -23.1808 0.0000
# 2 26.2677 84.7979 18.8329 0.0000 5.1739 0.0000
# 3 27.4940 18.8329 87.9869 -0.0001 -11.9342 0.0000
# 4 0.0000 0.0000 -0.0001 27.9576 -0.0001 -1.9765
# 5 -23.1808 5.1739 -11.9342 -0.0001 33.9359 0.0000
# 6 0.0000 0.0000 0.0000 -1.9765 0.0000 33.2331
#
#
#
# Elastic Compliance Matrix: (Units=1/GPa)
#
#
# Indices 1 2 3 4 5 6 
#
# 1 0.016241 -0.005152 -0.002479 0.000000 0.011008 0.000000
# 2 -0.005152 0.014306 -0.002337 0.000000 -0.006522 0.000000
# 3 -0.002479 -0.002337 0.013083 0.000000 0.003264 0.000000
# 4 0.000000 0.000000 0.000000 0.035919 0.000000 0.002136
# 5 0.011008 -0.006522 0.003264 0.000000 0.039129 0.000000
# 6 0.000000 0.000000 0.000000 0.002136 0.000000 0.030218
#
#
# Mechanical properties :
#
#
# Convention : Reuss Voigt Hill
#
# Bulk Modulus (GPa) = 42.20530 45.30955 43.75742
# Shear Modulus (GPa) = 28.29185 31.69211 29.99198
#
# Velocity S-wave (km/s) = 3.48019 3.68339 3.58323
# Velocity P-wave (km/s) = 5.84953 6.12264 5.98764
#
# Compressibility (1/GPa) = 0.02369371
#
# Stress axis : x y z
#
# Youngs Moduli (GPa) = 61.57121 69.90279 76.43592
#
# Poissons Ratio (x) = 0.36014 0.18951
# Poissons Ratio (y) = 0.31722 0.17861
# Poissons Ratio (z) = 0.15265 0.16334
#
# Static dielectric constant tensor:
#      x y z
#    x 4.164560 0.000000 -0.145500 
#    y 0.000000 4.411220 0.000000 
#    z -0.145500 0.000000 4.222310 
# 
# 
# High freq. dielectric constant tensor:
#      x y z
#    x 1.924820 0.000000 -0.003140 
#    y 0.000000 1.931480 0.000000 
#    z -0.003140 0.000000 1.924760 
# 
# From -- ./inp_files/280108.got.cif
#   From: 2010.06.25/outbox.cif.g09.slc.cpg/sg15_141_cif.got.tgz:280108.got - 2010.06.28 07:06:18.
