data_PCOD8149421
_publ_section_title
;
Structure prediction by ZEFSAII (Michael W. Deem and Ramdas Pophale) SiO2 
 PCOD8149421
Probable space group: C 2/C
;
_chemical_formula_sum "Si O2"
_cell_formula_units_Z 40
_cell_length_a 15.285257
_cell_length_b 17.032464
_cell_length_c 15.380921
_cell_angle_alpha 90.000000
_cell_angle_beta 150.291043
_cell_angle_gamma 90.000000
_cell_volume 1984.536106
_symmetry_space_group_name_H-M "C 2/C"
_symmetry_group_IT_number 15
_symmetry_cell_setting 'monoclinic'
loop_
_space_group_symop_operation_xyz
x,y,z
-x,y,1/2-z
-x,-y,-z
x,-y,1/2+z
1/2+x,1/2+y,z
1/2-x,1/2+y,1/2-z
1/2-x,1/2-y,-z
1/2+x,1/2-y,1/2+z
loop_
_atom_site_type_symbol
_atom_site_label
_atom_site_fract_x
_atom_site_fract_y
_atom_site_fract_z
Si Si1 0.500000 0.409868 0.750000
Si Si2 0.939070 0.653913 0.877832
Si Si3 0.840647 0.790956 0.495691
Si Si4 0.646303 0.152919 0.499914
Si Si5 0.385626 0.023365 0.568627
Si Si6 0.000000 0.774089 0.250000
O O1 0.487587 0.353201 0.654879
O O2 0.324383 0.462791 0.602332
O O3 0.799207 0.660759 0.680168
O O4 0.842815 0.655419 0.886987
O O5 0.046373 0.573092 0.955631
O O6 0.072921 0.726538 0.991344
O O7 0.750000 0.750000 0.500000
O O8 0.514498 0.218799 0.347927
O O9 0.836113 0.168399 0.621364
O O10 0.576613 0.067923 0.412473
O O11 0.500000 0.051904 0.750000
#
# Coordination Sequence:
#
# PCOD8149421 Si02
#       6
#     4   8   8   8   8   4
#     4  12  23  38  65  96 130 174 206 248 313 402
#     4  12  22  38  64  99 131 163 218 265 311 383
#     4  12  20  37  63  97 132 170 202 252 322 383
#     4  11  24  43  67  91 122 169 218 274 317 377
#     4  12  23  42  65  93 134 173 208 257 330 388
#     4  10  23  46  67  86 120 170 224 266 329 376
#
# _framework density 20.155844999999999
#
# number of rings (size 3 to 8) (size 9 to 14) (size 15 to 20)
#    0.000    0.400    7.000    2.400    0.000    0.000 
#    0.000    1.000    0.000    0.000    0.000    0.000 
#    0.000    0.000    0.000    0.000    0.000    0.000 
#
# Total GULP energy -248040.022732 kJ/mol
# GULP energy per Si atom -12402.001137 kJ/mol
# Density = 2.010997 g / cm^3
# Si number density = 20.155845 Si / 1000 Ang^3
#
#
#
# Elastic Constant Matrix: (Units=GPa)
#
#
# Indices 1 2 3 4 5 6 
#
# 1 92.9325 33.3500 27.4737 -0.0033 -13.0772 0.0008
# 2 33.3500 101.4348 18.1687 -0.0108 1.3712 -0.0055
# 3 27.4737 18.1687 105.3420 -0.0180 -0.7441 -0.0096
# 4 -0.0033 -0.0108 -0.0180 30.1453 -0.0078 -4.9150
# 5 -13.0772 1.3712 -0.7441 -0.0078 29.9580 -0.0022
# 6 0.0008 -0.0055 -0.0096 -4.9150 -0.0022 16.8254
#
#
#
# Elastic Compliance Matrix: (Units=1/GPa)
#
#
# Indices 1 2 3 4 5 6 
#
# 1 0.013984 -0.004165 -0.002885 -0.000001 0.006223 -0.000003
# 2 -0.004165 0.011421 -0.000900 0.000003 -0.002363 0.000004
# 3 -0.002885 -0.000900 0.010394 0.000007 -0.000960 0.000008
# 4 -0.000001 0.000003 0.000007 0.034832 0.000010 0.010175
# 5 0.006223 -0.002363 -0.000960 0.000010 0.036181 0.000006
# 6 -0.000003 0.000004 0.000008 0.010175 0.000006 0.062406
#
#
# Mechanical properties :
#
#
# Convention : Reuss Voigt Hill
#
# Bulk Modulus (GPa) = 50.25493 50.85492 50.55492
# Shear Modulus (GPa) = 26.07557 30.10019 28.08788
#
# Velocity S-wave (km/s) = 3.60070 3.86861 3.73706
# Velocity P-wave (km/s) = 6.50185 6.72611 6.61493
#
# Compressibility (1/GPa) = 0.01989855
#
# Stress axis : x y z
#
# Youngs Moduli (GPa) = 71.51200 87.55693 96.21187
#
# Poissons Ratio (x) = 0.36468 0.27754
# Poissons Ratio (y) = 0.29785 0.08662
# Poissons Ratio (z) = 0.20629 0.07883
#
# Static dielectric constant tensor:
#      x y z
#    x 3.570750 0.000020 -0.041590 
#    y 0.000020 3.779440 -0.000020 
#    z -0.041590 -0.000020 3.750610 
# 
# 
# High freq. dielectric constant tensor:
#      x y z
#    x 1.768640 0.000000 -0.000040 
#    y 0.000000 1.796890 0.000000 
#    z -0.000040 0.000000 1.797910 
# 
# From -- ./inp_files/38091.got.cif
#   From: 2010.06.25/outbox.cif.g09.slc.cpg/sg15_20_cif.got.tgz:38091.got - 2010.06.28 07:06:18.
