data_PCOD8149950
_publ_section_title
;
Structure prediction by ZEFSAII (Michael W. Deem and Ramdas Pophale) SiO2 
 PCOD8149950
Probable space group: C 2/C
;
_chemical_formula_sum "Si O2"
_cell_formula_units_Z 40
_cell_length_a 24.006001
_cell_length_b 12.419973
_cell_length_c 5.449442
_cell_angle_alpha 90.000000
_cell_angle_beta 103.120682
_cell_angle_gamma 90.000000
_cell_volume 1582.356139
_symmetry_space_group_name_H-M "C 2/C"
_symmetry_group_IT_number 15
_symmetry_cell_setting 'monoclinic'
loop_
_space_group_symop_operation_xyz
x,y,z
-x,y,1/2-z
-x,-y,-z
x,-y,1/2+z
1/2+x,1/2+y,z
1/2-x,1/2+y,1/2-z
1/2-x,1/2-y,-z
1/2+x,1/2-y,1/2+z
loop_
_atom_site_type_symbol
_atom_site_label
_atom_site_fract_x
_atom_site_fract_y
_atom_site_fract_z
Si Si1 0.186181 0.542642 0.599245
Si Si2 0.066893 0.564579 0.781355
Si Si3 0.366325 0.750000 0.366325
Si Si4 0.933107 0.935421 0.147568
Si Si5 0.813819 0.042642 0.226884
O O1 0.158250 0.475706 0.345934
O O2 0.177430 0.668697 0.533941
O O3 0.250000 0.500000 0.711341
O O4 0.085023 0.506258 0.538421
O O5 0.094100 0.685186 0.788441
O O6 0.000000 0.582464 0.750000
O O7 0.405900 0.685186 0.600240
O O8 0.322570 0.668697 0.179081
O O9 0.000000 0.917537 0.250000
O O10 0.914977 0.006258 0.368374
O O11 0.841751 0.024294 0.529435
#
# Coordination Sequence:
#
# PCOD8149950 Si02
#       5
#     8   8   8   8   8
#     4  10  24  43  64  98 137 176 229 285 335 403
#     4  10  24  44  65  96 134 171 224 283 331 398
#     4  12  24  42  74  98 134 190 228 272 354 410
#     4  10  24  44  65  96 134 171 224 283 331 398
#     4  10  24  43  64  98 137 176 229 285 335 403
#
# _framework density 25.278760999999999
#
# number of rings (size 3 to 8) (size 9 to 14) (size 15 to 20)
#    0.000    1.600    0.000    2.400    0.000   17.600 
#    0.000    0.000    0.000    0.000    0.000    0.000 
#    0.000    0.000    0.000    0.000    0.000    0.000 
#
# Total GULP energy -247835.970307 kJ/mol
# GULP energy per Si atom -12391.798515 kJ/mol
# Density = 2.522123 g / cm^3
# Si number density = 25.278761 Si / 1000 Ang^3
#
#
#
# Elastic Constant Matrix: (Units=GPa)
#
#
# Indices 1 2 3 4 5 6 
#
# 1 169.2903 84.1281 94.1683 0.0000 -1.4968 0.0000
# 2 84.1281 205.6395 83.9437 0.0000 0.0364 0.0000
# 3 94.1683 83.9437 177.8232 0.0000 -0.1958 0.0000
# 4 0.0000 0.0000 0.0000 40.2847 0.0000 4.9947
# 5 -1.4968 0.0364 -0.1958 0.0000 41.0756 0.0000
# 6 0.0000 0.0000 0.0000 4.9947 0.0000 65.4654
#
#
#
# Elastic Compliance Matrix: (Units=1/GPa)
#
#
# Indices 1 2 3 4 5 6 
#
# 1 0.009100 -0.002175 -0.003792 0.000000 0.000315 0.000000
# 2 -0.002175 0.006543 -0.001937 0.000000 -0.000094 0.000000
# 3 -0.003792 -0.001937 0.008546 0.000000 -0.000096 0.000000
# 4 0.000000 0.000000 0.000000 0.025060 0.000000 -0.001912
# 5 0.000315 -0.000094 -0.000096 0.000000 0.024356 0.000000
# 6 0.000000 0.000000 0.000000 -0.001912 0.000000 0.015421
#
#
# Mechanical properties :
#
#
# Convention : Reuss Voigt Hill
#
# Bulk Modulus (GPa) = 119.31539 119.69258 119.50398
# Shear Modulus (GPa) = 46.45576 48.73269 47.59423
#
# Velocity S-wave (km/s) = 4.29154 4.39545 4.34380
# Velocity P-wave (km/s) = 8.47695 8.55639 8.51676
#
# Compressibility (1/GPa) = 0.00838115
#
# Stress axis : x y z
#
# Youngs Moduli (GPa) = 109.89137 152.82348 117.01398
#
# Poissons Ratio (x) = 0.33239 0.44370
# Poissons Ratio (y) = 0.23901 0.22669
# Poissons Ratio (z) = 0.41669 0.29606
#
# Static dielectric constant tensor:
#      x y z
#    x 5.326230 0.000000 0.006580 
#    y 0.000000 4.362980 0.000000 
#    z 0.006580 0.000000 5.293060 
# 
# 
# High freq. dielectric constant tensor:
#      x y z
#    x 2.098090 0.000000 0.012950 
#    y 0.000000 1.991300 0.000000 
#    z 0.012950 0.000000 2.032810 
# 
# From -- ./inp_files/18002.got.cif
#   From: 2010.06.25/outbox.cif.g09.slc.cpg/sg15_10_cif.got.tgz:18002.got - 2010.06.28 07:06:18.
