data_PCOD8149519
_publ_section_title
;
Structure prediction by ZEFSAII (Michael W. Deem and Ramdas Pophale) SiO2 
 PCOD8149519
Probable space group: C 2/C
;
_chemical_formula_sum "Si O2"
_cell_formula_units_Z 48
_cell_length_a 8.088710
_cell_length_b 11.513148
_cell_length_c 24.188497
_cell_angle_alpha 90.000000
_cell_angle_beta 105.838238
_cell_angle_gamma 90.000000
_cell_volume 2167.073241
_symmetry_space_group_name_H-M "C 2/C"
_symmetry_group_IT_number 15
_symmetry_cell_setting 'monoclinic'
loop_
_space_group_symop_operation_xyz
x,y,z
-x,y,1/2-z
-x,-y,-z
x,-y,1/2+z
1/2+x,1/2+y,z
1/2-x,1/2+y,1/2-z
1/2-x,1/2-y,-z
1/2+x,1/2-y,1/2+z
loop_
_atom_site_type_symbol
_atom_site_label
_atom_site_fract_x
_atom_site_fract_y
_atom_site_fract_z
Si Si1 0.589444 0.553364 0.926597
Si Si2 0.428275 0.126787 0.007247
Si Si3 0.526089 0.702512 0.425223
Si Si4 0.138362 0.632078 0.375086
Si Si5 0.225980 0.618811 0.872649
Si Si6 0.515445 0.341475 0.188980
O O1 0.724850 0.629827 0.973557
O O2 0.629168 0.418021 0.942710
O O3 0.394906 0.590396 0.926692
O O4 0.610392 0.582110 0.862659
O O5 0.531754 0.222373 0.981715
O O6 0.446213 0.160541 0.072977
O O7 0.500000 0.000000 0.000000
O O8 0.336481 0.668164 0.388695
O O9 0.616448 0.774489 0.384903
O O10 0.109246 0.496443 0.360338
O O11 0.037246 0.706193 0.320111
O O12 0.288959 0.646209 0.815696
O O13 0.500000 0.386743 0.250000
#
# Coordination Sequence:
#
# PCOD8149519 Si02
#       6
#     8   8   8   8   8   8
#     4   9  24  41  62  92 129 167 211 260 319 389
#     4  12  24  39  65  96 139 171 205 257 328 391
#     4  11  21  41  65  94 130 168 206 259 319 389
#     4  11  23  43  62  96 130 167 212 264 315 388
#     4   9  22  42  63  95 127 160 220 255 319 386
#     4  10  23  48  66  86 126 170 215 273 322 367
#
# _framework density 22.149691000000001
#
# number of rings (size 3 to 8) (size 9 to 14) (size 15 to 20)
#    1.000    0.667    3.333    0.500    2.333    4.667 
#    3.000    0.833    0.000    0.000    0.000    0.000 
#    0.000    0.000    0.000    0.000    0.000    0.000 
#
# Total GULP energy -297531.585892 kJ/mol
# GULP energy per Si atom -12397.149412 kJ/mol
# Density = 2.209928 g / cm^3
# Si number density = 22.149691 Si / 1000 Ang^3
#
#
#
# Elastic Constant Matrix: (Units=GPa)
#
#
# Indices 1 2 3 4 5 6 
#
# 1 44.2595 21.6231 24.2827 0.0000 -24.7243 0.0000
# 2 21.6231 109.7902 22.5266 0.0000 -9.9974 0.0000
# 3 24.2827 22.5266 100.9964 0.0000 -23.2213 0.0000
# 4 0.0000 0.0000 0.0000 23.1061 0.0000 -8.6223
# 5 -24.7243 -9.9974 -23.2213 0.0000 33.1308 0.0000
# 6 0.0000 0.0000 0.0000 -8.6223 0.0000 44.2834
#
#
#
# Elastic Compliance Matrix: (Units=1/GPa)
#
#
# Indices 1 2 3 4 5 6 
#
# 1 0.042302 -0.005246 -0.002511 0.000000 0.028225 0.000000
# 2 -0.005246 0.010272 -0.001451 0.000000 -0.001832 0.000000
# 3 -0.002511 -0.001451 0.012275 0.000000 0.006292 0.000000
# 4 0.000000 0.000000 0.000000 0.046669 0.000000 0.009087
# 5 0.028225 -0.001832 0.006292 0.000000 0.055104 0.000000
# 6 0.000000 0.000000 0.000000 0.009087 0.000000 0.024351
#
#
# Mechanical properties :
#
#
# Convention : Reuss Voigt Hill
#
# Bulk Modulus (GPa) = 21.53618 43.54566 32.54092
# Shear Modulus (GPa) = 22.23522 32.54498 27.39010
#
# Velocity S-wave (km/s) = 3.17181 3.83733 3.52033
# Velocity P-wave (km/s) = 4.81228 6.27183 5.58990
#
# Compressibility (1/GPa) = 0.04643350
#
# Stress axis : x y z
#
# Youngs Moduli (GPa) = 23.63962 97.34848 81.46367
#
# Poissons Ratio (x) = 0.51069 0.20455
# Poissons Ratio (y) = 0.12401 0.11822
# Poissons Ratio (z) = 0.05936 0.14127
#
# Static dielectric constant tensor:
#      x y z
#    x 3.931640 0.000000 -0.224400 
#    y 0.000000 4.248400 0.000000 
#    z -0.224400 0.000000 3.475290 
# 
# 
# High freq. dielectric constant tensor:
#      x y z
#    x 1.861850 0.000000 -0.022340 
#    y 0.000000 1.895630 0.000000 
#    z -0.022340 0.000000 1.825160 
# 
# From -- ./inp_files/263169.got.cif
#   From: 2010.06.25/outbox.cif.g09.slc.cpg/sg15_132_cif.got.tgz:263169.got - 2010.06.28 07:06:18.
