data_PCOD8149457
_publ_section_title
;
Structure prediction by ZEFSAII (Michael W. Deem and Ramdas Pophale) SiO2 
 PCOD8149457
Probable space group: C 2/C
;
_chemical_formula_sum "Si O2"
_cell_formula_units_Z 56
_cell_length_a 12.475600
_cell_length_b 23.351055
_cell_length_c 9.132472
_cell_angle_alpha 90.000000
_cell_angle_beta 111.891384
_cell_angle_gamma 90.000000
_cell_volume 2468.617957
_symmetry_space_group_name_H-M "C 2/C"
_symmetry_group_IT_number 15
_symmetry_cell_setting 'monoclinic'
loop_
_space_group_symop_operation_xyz
x,y,z
-x,y,1/2-z
-x,-y,-z
x,-y,1/2+z
1/2+x,1/2+y,z
1/2-x,1/2+y,1/2-z
1/2-x,1/2-y,-z
1/2+x,1/2-y,1/2+z
loop_
_atom_site_type_symbol
_atom_site_label
_atom_site_fract_x
_atom_site_fract_y
_atom_site_fract_z
Si Si1 0.179318 0.821301 0.546933
Si Si2 0.052243 0.169950 0.426082
Si Si3 0.240453 0.498433 0.817817
Si Si4 0.777997 0.215970 0.750698
Si Si5 0.378370 0.454660 0.624040
Si Si6 0.111590 0.612174 0.707043
Si Si7 0.608582 0.097180 0.382299
O O1 0.160795 0.795088 0.375367
O O2 0.220179 0.778086 0.697537
O O3 0.272333 0.870719 0.583232
O O4 0.057376 0.848511 0.531023
O O5 0.131762 0.213113 0.565427
O O6 0.122643 0.112676 0.419456
O O7 0.000000 0.198980 0.250000
O O8 0.275091 0.466978 0.686158
O O9 0.204944 0.564816 0.796879
O O10 0.130459 0.466220 0.831320
O O11 0.353913 0.501794 0.978322
O O12 0.674203 0.173157 0.733010
O O13 0.500000 0.474040 0.750000
O O14 0.066896 0.593936 0.526181
O O15 0.000000 0.616448 0.750000
O O16 0.500000 0.127716 0.250000
#
# Coordination Sequence:
#
# PCOD8149457 Si02
#       7
#     8   8   8   8   8   8   8
#     4  10  24  45  71 100 132 180 235 280 349 408
#     4  11  23  42  69 104 138 177 222 290 345 407
#     4  12  23  44  65  99 136 183 230 278 345 409
#     4  10  23  46  71  98 133 180 233 286 340 416
#     4  11  24  41  67 100 140 181 229 282 340 408
#     4  11  25  42  66  99 133 178 229 278 343 406
#     4  11  25  42  67  98 137 180 226 286 339 409
#
# _framework density 22.684757999999999
#
# number of rings (size 3 to 8) (size 9 to 14) (size 15 to 20)
#    0.000    1.143    2.857    3.000    2.000    6.857 
#    0.000    0.000    0.000    0.000    0.000    0.000 
#    0.000    0.000    0.000    0.000    0.000    0.000 
#
# Total GULP energy -347036.073893 kJ/mol
# GULP energy per Si atom -12394.145496 kJ/mol
# Density = 2.263313 g / cm^3
# Si number density = 22.684758 Si / 1000 Ang^3
#
#
#
# Elastic Constant Matrix: (Units=GPa)
#
#
# Indices 1 2 3 4 5 6 
#
# 1 120.9825 23.6761 44.0953 0.0000 -17.8170 0.0000
# 2 23.6761 71.4734 31.9743 0.0000 -11.7226 0.0000
# 3 44.0953 31.9743 137.0627 0.0000 -0.3502 0.0000
# 4 0.0000 0.0000 0.0000 33.9850 0.0000 -8.2253
# 5 -17.8170 -11.7226 -0.3502 0.0000 34.4078 0.0000
# 6 0.0000 0.0000 0.0000 -8.2253 0.0000 37.7690
#
#
#
# Elastic Compliance Matrix: (Units=1/GPa)
#
#
# Indices 1 2 3 4 5 6 
#
# 1 0.010333 -0.001273 -0.003015 0.000000 0.004886 0.000000
# 2 -0.001273 0.016802 -0.003497 0.000000 0.005030 0.000000
# 3 -0.003015 -0.003497 0.009075 0.000000 -0.002660 0.000000
# 4 0.000000 0.000000 0.000000 0.031062 0.000000 0.006765
# 5 0.004886 0.005030 -0.002660 0.000000 0.033280 0.000000
# 6 0.000000 0.000000 0.000000 0.006765 0.000000 0.027950
#
#
# Mechanical properties :
#
#
# Convention : Reuss Voigt Hill
#
# Bulk Modulus (GPa) = 48.44873 58.77891 53.61382
# Shear Modulus (GPa) = 33.12291 36.55055 34.83673
#
# Velocity S-wave (km/s) = 3.82532 4.01838 3.92304
# Velocity P-wave (km/s) = 6.39645 6.89183 6.64875
#
# Compressibility (1/GPa) = 0.02064038
#
# Stress axis : x y z
#
# Youngs Moduli (GPa) = 96.77506 59.51539 110.19310
#
# Poissons Ratio (x) = 0.07575 0.33223
# Poissons Ratio (y) = 0.12317 0.38539
# Poissons Ratio (z) = 0.29177 0.20815
#
# Static dielectric constant tensor:
#      x y z
#    x 3.931090 0.000000 -0.139710 
#    y 0.000000 3.854080 0.000000 
#    z -0.139710 0.000000 4.500430 
# 
# 
# High freq. dielectric constant tensor:
#      x y z
#    x 1.899690 0.000000 -0.005150 
#    y 0.000000 1.878750 0.000000 
#    z -0.005150 0.000000 1.911390 
# 
# From -- ./inp_files/34303.got.cif
#   From: 2010.06.25/outbox.cif.g09.slc.cpg/sg15_18_cif.got.tgz:34303.got - 2010.06.28 07:06:18.
