data_PCOD8149923
_publ_section_title
;
Structure prediction by ZEFSAII (Michael W. Deem and Ramdas Pophale) SiO2 
 PCOD8149923
Probable space group: C 2/C
;
_chemical_formula_sum "Si O2"
_cell_formula_units_Z 44
_cell_length_a 20.464067
_cell_length_b 13.925644
_cell_length_c 8.236780
_cell_angle_alpha 90.000000
_cell_angle_beta 127.931407
_cell_angle_gamma 90.000000
_cell_volume 1851.409798
_symmetry_space_group_name_H-M "C 2/C"
_symmetry_group_IT_number 15
_symmetry_cell_setting 'monoclinic'
loop_
_space_group_symop_operation_xyz
x,y,z
-x,y,1/2-z
-x,-y,-z
x,-y,1/2+z
1/2+x,1/2+y,z
1/2-x,1/2+y,1/2-z
1/2-x,1/2-y,-z
1/2+x,1/2-y,1/2+z
loop_
_atom_site_type_symbol
_atom_site_label
_atom_site_fract_x
_atom_site_fract_y
_atom_site_fract_z
Si Si1 0.500000 0.510841 0.250000
Si Si2 0.748632 0.101117 0.582013
Si Si3 0.076724 0.561421 0.461899
Si Si4 0.121410 0.071266 0.185080
Si Si5 0.246594 0.300057 0.738988
Si Si6 0.082083 0.636100 0.834405
O O1 0.569824 0.577307 0.272929
O O2 0.549818 0.439191 0.442571
O O3 0.657098 0.064516 0.471116
O O4 0.759924 0.190528 0.719095
O O5 0.754047 0.129099 0.402828
O O6 0.815492 0.018990 0.721571
O O7 0.090317 0.602855 0.660633
O O8 0.062063 0.447017 0.440307
O O9 0.000000 0.613377 0.250000
O O10 0.171153 0.171927 0.239617
O O11 0.167502 0.313641 0.505698
O O12 0.000000 0.702121 0.750000
#
# Coordination Sequence:
#
# PCOD8149923 Si02
#       6
#     4   8   8   8   8   8
#     4  10  24  42  72  96 132 184 234 288 350 396
#     4  11  24  43  69 100 137 181 228 289 352 420
#     4  11  22  39  65  97 132 175 223 278 345 414
#     4  11  22  46  69 100 134 182 234 292 343 421
#     4  11  24  43  69 100 138 181 231 284 357 413
#     4  11  22  39  65  96 133 174 225 277 343 417
#
# _framework density 23.765671999999999
#
# number of rings (size 3 to 8) (size 9 to 14) (size 15 to 20)
#    0.000    1.091    3.636    4.364    2.545    0.727 
#    3.273    1.818    0.000    0.000    0.000    0.000 
#    0.000    0.000    0.000    0.000    0.000    0.000 
#
# Total GULP energy -272611.751318 kJ/mol
# GULP energy per Si atom -12391.443242 kJ/mol
# Density = 2.371158 g / cm^3
# Si number density = 23.765672 Si / 1000 Ang^3
#
#
#
# Elastic Constant Matrix: (Units=GPa)
#
#
# Indices 1 2 3 4 5 6 
#
# 1 152.6017 30.9377 29.9237 0.0000 27.1738 0.0000
# 2 30.9377 55.9010 36.6183 0.0000 -2.4310 0.0000
# 3 29.9237 36.6183 126.3101 0.0000 20.3382 0.0000
# 4 0.0000 0.0000 0.0000 13.9738 0.0000 -10.4260
# 5 27.1738 -2.4310 20.3382 0.0000 43.8093 0.0000
# 6 0.0000 0.0000 0.0000 -10.4260 0.0000 5.7418
#
#
#
# Elastic Compliance Matrix: (Units=1/GPa)
#
#
# Indices 1 2 3 4 5 6 
#
# 1 0.008574 -0.005284 0.000437 0.000000 -0.005814 0.000000
# 2 -0.005284 0.026206 -0.007682 0.000000 0.008298 0.000000
# 3 0.000437 -0.007682 0.010973 0.000000 -0.005791 0.000000
# 4 0.000000 0.000000 0.000000 -0.201698 0.000000 -0.366247
# 5 -0.005814 0.008298 -0.005791 0.000000 0.029582 0.000000
# 6 0.000000 0.000000 0.000000 -0.366247 0.000000 -0.490874
#
#
# Mechanical properties :
#
#
# Convention : Reuss Voigt Hill
#
# Bulk Modulus (GPa) = 48.32041 58.86357 53.59199
# Shear Modulus (GPa) = -8.54290 28.52717 9.99214
#
# Velocity S-wave (km/s) = -1.89801 3.46837 2.05270
# Velocity P-wave (km/s) = 3.94625 6.39230 5.31199
#
# Compressibility (1/GPa) = 0.02069519
#
# Stress axis : x y z
#
# Youngs Moduli (GPa) = 116.63192 38.15924 91.13286
#
# Poissons Ratio (x) = 0.20164 -0.03982
# Poissons Ratio (y) = 0.61631 0.70004
# Poissons Ratio (z) = -0.05096 0.29312
#
# Static dielectric constant tensor:
#      x y z
#    x 4.991120 0.000000 0.392830 
#    y 0.000000 3.948610 0.000000 
#    z 0.392830 0.000000 4.613690 
# 
# 
# High freq. dielectric constant tensor:
#      x y z
#    x 1.972110 0.000000 0.008510 
#    y 0.000000 1.902240 0.000000 
#    z 0.008510 0.000000 1.964680 
# 
# From -- ./inp_files/56287.got.cif
#   From: 2010.06.25/outbox.cif.g09.slc.cpg/sg15_29_cif.got.tgz:56287.got - 2010.06.28 07:06:18.
