data_PCOD8149104
_publ_section_title
;
Structure prediction by ZEFSAII (Michael W. Deem and Ramdas Pophale) SiO2 
 PCOD8149104
Probable space group: C 2/C
;
_chemical_formula_sum "Si O2"
_cell_formula_units_Z 56
_cell_length_a 7.555154
_cell_length_b 12.165305
_cell_length_c 29.952335
_cell_angle_alpha 90.000000
_cell_angle_beta 115.488059
_cell_angle_gamma 90.000000
_cell_volume 2485.011575
_symmetry_space_group_name_H-M "C 2/C"
_symmetry_group_IT_number 15
_symmetry_cell_setting 'monoclinic'
loop_
_space_group_symop_operation_xyz
x,y,z
-x,y,1/2-z
-x,-y,-z
x,-y,1/2+z
1/2+x,1/2+y,z
1/2-x,1/2+y,1/2-z
1/2-x,1/2-y,-z
1/2+x,1/2-y,1/2+z
loop_
_atom_site_type_symbol
_atom_site_label
_atom_site_fract_x
_atom_site_fract_y
_atom_site_fract_z
Si Si1 0.806825 0.807412 0.796254
Si Si2 0.475666 0.812379 0.440095
Si Si3 0.483587 0.710042 0.600381
Si Si4 0.566270 0.853859 0.689519
Si Si5 0.390998 0.917318 0.341693
Si Si6 0.812838 0.340285 0.951464
Si Si7 0.080111 0.009118 0.366287
O O1 0.765250 0.843429 0.740741
O O2 0.608116 0.799034 0.802495
O O3 0.898583 0.685591 0.808546
O O4 0.944106 0.892656 0.836369
O O5 0.250719 0.773671 0.421280
O O6 0.506522 0.888049 0.399768
O O7 0.605517 0.703336 0.447730
O O8 0.551146 0.877178 0.492170
O O9 0.599466 0.788713 0.647397
O O10 0.566572 0.744336 0.561312
O O11 0.536046 0.582654 0.617215
O O12 0.513004 0.980769 0.673945
O O13 0.169169 0.951164 0.331827
O O14 0.763911 0.445771 0.915636
#
# Coordination Sequence:
#
# PCOD8149104 Si02
#       7
#     8   8   8   8   8   8   8
#     4  11  25  43  64  96 134 168 227 275 334 405
#     4  10  23  44  66  97 143 171 224 287 327 398
#     4  11  23  43  66  99 133 177 228 275 336 406
#     4  11  24  42  66  94 130 178 214 279 340 391
#     4  11  23  44  66  93 134 173 211 288 322 392
#     4  11  22  44  67  99 134 181 225 273 343 401
#     4  11  23  42  67  96 129 174 228 277 330 405
#
# _framework density 22.535105999999999
#
# number of rings (size 3 to 8) (size 9 to 14) (size 15 to 20)
#    0.000    1.143    5.714    0.429    4.000    2.857 
#    2.571    1.429    0.000    0.000    0.000    0.000 
#    0.000    0.000    0.000    0.000    0.000    0.000 
#
# Total GULP energy -347192.559447 kJ/mol
# GULP energy per Si atom -12399.734266 kJ/mol
# Density = 2.248382 g / cm^3
# Si number density = 22.535106 Si / 1000 Ang^3
#
#
#
# Elastic Constant Matrix: (Units=GPa)
#
#
# Indices 1 2 3 4 5 6 
#
# 1 40.9234 9.7884 20.2270 0.0000 3.7877 0.0000
# 2 9.7884 146.8037 57.6470 0.0000 8.4542 0.0000
# 3 20.2270 57.6470 167.2881 0.0000 13.1042 0.0000
# 4 0.0000 0.0000 0.0000 26.0903 0.0000 -5.5811
# 5 3.7877 8.4542 13.1042 0.0000 23.2001 0.0000
# 6 0.0000 0.0000 0.0000 -5.5811 0.0000 30.3589
#
#
#
# Elastic Compliance Matrix: (Units=1/GPa)
#
#
# Indices 1 2 3 4 5 6 
#
# 1 0.026170 -0.000503 -0.002794 0.000000 -0.002511 0.000000
# 2 -0.000503 0.007931 -0.002566 0.000000 -0.001359 0.000000
# 3 -0.002794 -0.002566 0.007419 0.000000 -0.002799 0.000000
# 4 0.000000 0.000000 0.000000 0.039897 0.000000 0.007335
# 5 -0.002511 -0.001359 -0.002799 0.000000 0.045589 0.000000
# 6 0.000000 0.000000 0.000000 0.007335 0.000000 0.034288
#
#
# Mechanical properties :
#
#
# Convention : Reuss Voigt Hill
#
# Bulk Modulus (GPa) = 33.56405 58.92665 46.24535
# Shear Modulus (GPa) = 27.32963 33.75339 30.54151
#
# Velocity S-wave (km/s) = 3.48625 3.87436 3.68541
# Velocity P-wave (km/s) = 5.57958 6.79851 6.21898
#
# Compressibility (1/GPa) = 0.02979378
#
# Stress axis : x y z
#
# Youngs Moduli (GPa) = 38.21213 126.08520 134.78914
#
# Poissons Ratio (x) = 0.06343 0.37662
# Poissons Ratio (y) = 0.01922 0.34584
# Poissons Ratio (z) = 0.10677 0.32351
#
# Static dielectric constant tensor:
#      x y z
#    x 3.829790 0.000000 0.012190 
#    y 0.000000 4.031670 0.000000 
#    z 0.012190 0.000000 4.475790 
# 
# 
# High freq. dielectric constant tensor:
#      x y z
#    x 1.873250 0.000000 0.000270 
#    y 0.000000 1.889250 0.000000 
#    z 0.000270 0.000000 1.897150 
# 
# From -- ./inp_files/307570.got.cif
#   From: 2010.06.25/outbox.cif.g09.slc.cpg/sg15_154_cif.got.tgz:307570.got - 2010.06.28 07:06:18.
