data_PCOD8149791
_publ_section_title
;
Structure prediction by ZEFSAII (Michael W. Deem and Ramdas Pophale) SiO2 
 PCOD8149791
Probable space group: C 2/C
;
_chemical_formula_sum "Si O2"
_cell_formula_units_Z 56
_cell_length_a 14.063643
_cell_length_b 7.659758
_cell_length_c 26.759809
_cell_angle_alpha 90.000000
_cell_angle_beta 74.765229
_cell_angle_gamma 90.000000
_cell_volume 2781.371081
_symmetry_space_group_name_H-M "C 2/C"
_symmetry_group_IT_number 15
_symmetry_cell_setting 'monoclinic'
loop_
_space_group_symop_operation_xyz
x,y,z
-x,y,1/2-z
-x,-y,-z
x,-y,1/2+z
1/2+x,1/2+y,z
1/2-x,1/2+y,1/2-z
1/2-x,1/2-y,-z
1/2+x,1/2-y,1/2+z
loop_
_atom_site_type_symbol
_atom_site_label
_atom_site_fract_x
_atom_site_fract_y
_atom_site_fract_z
Si Si1 0.864501 0.875007 0.521001
Si Si2 0.053764 0.806601 0.553072
Si Si3 0.458689 0.581679 0.334924
Si Si4 0.456387 0.831671 0.834922
Si Si5 0.140997 0.328224 0.750751
Si Si6 0.356841 0.056618 0.446926
Si Si7 0.358255 0.578240 0.250750
O O1 0.756256 0.926327 0.556665
O O2 0.869564 0.706747 0.485537
O O3 0.937073 0.823661 0.556669
O O4 0.894905 0.043294 0.485549
O O5 0.069845 0.827131 0.609790
O O6 0.109239 0.624988 0.531514
O O7 0.452997 0.375004 0.343999
O O8 0.381555 0.648163 0.303253
O O9 0.566134 0.648880 0.301548
O O10 0.565196 0.898144 0.803255
O O11 0.382321 0.898875 0.801545
O O12 0.429633 0.922873 0.890206
O O13 0.249408 0.374989 0.751187
O O14 0.123095 0.124993 0.749999
#
# Coordination Sequence:
#
# PCOD8149791 Si02
#       7
#     8   8   8   8   8   8   8
#     4  10  24  42  62  87 126 154 200 264 300 358
#     4  11  22  41  64  90 118 161 203 249 311 366
#     4   9  19  38  56  81 122 159 190 247 301 352
#     4   9  19  38  56  81 122 159 190 247 301 352
#     4   9  19  35  57  82 119 157 193 239 300 356
#     4  11  22  41  64  90 118 161 203 249 311 366
#     4   9  19  35  57  82 119 157 193 239 300 356
#
# _framework density 20.133956000000001
#
# number of rings (size 3 to 8) (size 9 to 14) (size 15 to 20)
#    0.000    2.286    1.429    2.571    2.000    2.286 
#    5.143    4.286    0.000    0.000    0.000    0.000 
#    0.000    0.000    0.000    0.000    0.000    0.000 
#
# Total GULP energy -346994.776194 kJ/mol
# GULP energy per Si atom -12392.670578 kJ/mol
# Density = 2.008813 g / cm^3
# Si number density = 20.133956 Si / 1000 Ang^3
#
#
#
# Elastic Constant Matrix: (Units=GPa)
#
#
# Indices 1 2 3 4 5 6 
#
# 1 149.1089 29.7849 36.8906 0.0000 -2.2286 0.0000
# 2 29.7849 92.3124 23.4117 0.0000 -0.2078 0.0000
# 3 36.8906 23.4117 97.7632 0.0000 0.5435 0.0000
# 4 0.0000 0.0000 0.0000 91.1972 0.0000 1.9834
# 5 -2.2286 -0.2078 0.5435 0.0000 22.2407 0.0000
# 6 0.0000 0.0000 0.0000 1.9834 0.0000 30.9404
#
#
#
# Elastic Compliance Matrix: (Units=1/GPa)
#
#
# Indices 1 2 3 4 5 6 
#
# 1 0.007700 -0.001857 -0.002465 0.000000 0.000814 0.000000
# 2 -0.001857 0.011982 -0.002168 0.000000 -0.000021 0.000000
# 3 -0.002465 -0.002168 0.011681 0.000000 -0.000553 0.000000
# 4 0.000000 0.000000 0.000000 0.010981 0.000000 -0.000704
# 5 0.000814 -0.000021 -0.000553 0.000000 0.045058 0.000000
# 6 0.000000 0.000000 0.000000 -0.000704 0.000000 0.032365
#
#
# Mechanical properties :
#
#
# Convention : Reuss Voigt Hill
#
# Bulk Modulus (GPa) = 54.40344 57.70656 56.05500
# Shear Modulus (GPa) = 36.00361 45.48215 40.74288
#
# Velocity S-wave (km/s) = 4.23330 4.75803 4.50331
# Velocity P-wave (km/s) = 7.13960 7.67519 7.41224
#
# Compressibility (1/GPa) = 0.01838119
#
# Stress axis : x y z
#
# Youngs Moduli (GPa) = 129.87733 83.45911 85.60638
#
# Poissons Ratio (x) = 0.15501 0.21103
# Poissons Ratio (y) = 0.24122 0.18563
# Poissons Ratio (z) = 0.32017 0.18097
#
# Static dielectric constant tensor:
#      x y z
#    x 3.698340 0.000000 -0.004630 
#    y 0.000000 3.645570 0.000000 
#    z -0.004630 0.000000 3.554590 
# 
# 
# High freq. dielectric constant tensor:
#      x y z
#    x 1.789590 0.000000 -0.000250 
#    y 0.000000 1.786340 0.000000 
#    z -0.000250 0.000000 1.781910 
# 
# From -- ./inp_files/294783.got.cif
#   From: 2010.06.25/outbox.cif.g09.slc.cpg/sg15_148_cif.got.tgz:294783.got - 2010.06.28 07:06:18.
