data_PCOD8149076
_publ_section_title
;
Structure prediction by ZEFSAII (Michael W. Deem and Ramdas Pophale) SiO2 
 PCOD8149076
Probable space group: C 2/C
;
_chemical_formula_sum "Si O2"
_cell_formula_units_Z 48
_cell_length_a 12.643216
_cell_length_b 21.226597
_cell_length_c 8.393660
_cell_angle_alpha 90.000000
_cell_angle_beta 111.493045
_cell_angle_gamma 90.000000
_cell_volume 2095.984034
_symmetry_space_group_name_H-M "C 2/C"
_symmetry_group_IT_number 15
_symmetry_cell_setting 'monoclinic'
loop_
_space_group_symop_operation_xyz
x,y,z
-x,y,1/2-z
-x,-y,-z
x,-y,1/2+z
1/2+x,1/2+y,z
1/2-x,1/2+y,1/2-z
1/2-x,1/2-y,-z
1/2+x,1/2-y,1/2+z
loop_
_atom_site_type_symbol
_atom_site_label
_atom_site_fract_x
_atom_site_fract_y
_atom_site_fract_z
Si Si1 0.480101 0.431173 0.054169
Si Si2 0.169298 0.149892 0.496742
Si Si3 0.000000 0.561192 0.750000
Si Si4 0.500000 0.742559 0.250000
Si Si5 0.730180 0.078824 0.446184
Si Si6 0.356501 0.161381 0.838332
Si Si7 0.685387 0.958273 0.584068
O O1 0.500000 0.427668 0.250000
O O2 0.564205 0.386016 0.011023
O O3 0.500000 0.500000 0.000000
O O4 0.354247 0.405185 0.943839
O O5 0.112447 0.204755 0.361050
O O6 0.243087 0.181609 0.679157
O O7 0.247394 0.103911 0.434211
O O8 0.099861 0.598587 0.719667
O O9 0.933539 0.525845 0.571386
O O10 0.544514 0.785761 0.125018
O O11 0.673795 0.141417 0.495317
O O12 0.656728 0.051604 0.256082
O O13 0.754675 0.023227 0.591068
#
# Coordination Sequence:
#
# PCOD8149076 Si02
#       7
#     8   8   4   4   8   8   8
#     4  12  23  38  66 103 140 172 209 274 352 405
#     4  11  22  43  68  98 133 176 225 285 336 406
#     4   9  22  42  66  92 132 186 221 278 344 405
#     4  11  24  44  74  92 130 190 235 268 340 405
#     4  12  23  39  65 102 141 173 221 284 337 414
#     4  10  23  44  65  93 131 181 231 278 331 398
#     4  11  23  39  66 104 135 174 225 277 352 405
#
# _framework density 22.900936999999999
#
# number of rings (size 3 to 8) (size 9 to 14) (size 15 to 20)
#    0.000    1.000    3.333    4.500    1.167    3.333 
#    0.000    3.333    7.333    0.000    0.000    0.000 
#    0.000    0.000    0.000    0.000    0.000    0.000 
#
# Total GULP energy -297427.281193 kJ/mol
# GULP energy per Si atom -12392.803383 kJ/mol
# Density = 2.284881 g / cm^3
# Si number density = 22.900937 Si / 1000 Ang^3
#
#
#
# Elastic Constant Matrix: (Units=GPa)
#
#
# Indices 1 2 3 4 5 6 
#
# 1 110.1333 38.6352 41.9929 0.0000 -4.4047 0.0000
# 2 38.6352 82.6637 23.3906 0.0000 -12.8624 0.0000
# 3 41.9929 23.3906 121.8831 0.0000 -9.1369 0.0000
# 4 0.0000 0.0000 0.0000 23.6876 0.0000 -10.5524
# 5 -4.4047 -12.8624 -9.1369 0.0000 39.1216 0.0000
# 6 0.0000 0.0000 0.0000 -10.5524 0.0000 45.6580
#
#
#
# Elastic Compliance Matrix: (Units=1/GPa)
#
#
# Indices 1 2 3 4 5 6 
#
# 1 0.011984 -0.004830 -0.003277 0.000000 -0.001004 0.000000
# 2 -0.004830 0.015286 -0.000950 0.000000 0.004260 0.000000
# 3 -0.003277 -0.000950 0.009634 0.000000 0.001569 0.000000
# 4 0.000000 0.000000 0.000000 0.047062 0.000000 0.010877
# 5 -0.001004 0.004260 0.001569 0.000000 0.027215 0.000000
# 6 0.000000 0.000000 0.000000 0.010877 0.000000 0.024416
#
#
# Mechanical properties :
#
#
# Convention : Reuss Voigt Hill
#
# Bulk Modulus (GPa) = 53.22207 58.07973 55.65090
# Shear Modulus (GPa) = 31.25517 35.73752 33.49634
#
# Velocity S-wave (km/s) = 3.69833 3.95464 3.82863
# Velocity P-wave (km/s) = 6.44418 6.80210 6.62555
#
# Compressibility (1/GPa) = 0.01878920
#
# Stress axis : x y z
#
# Youngs Moduli (GPa) = 83.44727 65.41805 103.80324
#
# Poissons Ratio (x) = 0.31596 0.34018
# Poissons Ratio (y) = 0.40303 0.09863
# Poissons Ratio (z) = 0.27347 0.06216
#
# Static dielectric constant tensor:
#      x y z
#    x 4.559570 0.000000 -0.120240 
#    y 0.000000 4.934880 0.000000 
#    z -0.120240 0.000000 4.713050 
# 
# 
# High freq. dielectric constant tensor:
#      x y z
#    x 1.924620 0.000000 0.004090 
#    y 0.000000 1.877430 0.000000 
#    z 0.004090 0.000000 1.901410 
# 
# From -- ./inp_files/32683.got.cif
#   From: 2010.06.25/outbox.cif.g09.slc.cpg/sg15_17_cif.got.tgz:32683.got - 2010.06.28 07:06:18.
