data_PCOD8149179
_publ_section_title
;
Structure prediction by ZEFSAII (Michael W. Deem and Ramdas Pophale) SiO2 
 PCOD8149179
Probable space group: C 2/C
;
_chemical_formula_sum "Si O2"
_cell_formula_units_Z 48
_cell_length_a 11.396612
_cell_length_b 11.004667
_cell_length_c 21.266959
_cell_angle_alpha 90.000000
_cell_angle_beta 138.581847
_cell_angle_gamma 90.000000
_cell_volume 1764.494873
_symmetry_space_group_name_H-M "C 2/C"
_symmetry_group_IT_number 15
_symmetry_cell_setting 'monoclinic'
loop_
_space_group_symop_operation_xyz
x,y,z
-x,y,1/2-z
-x,-y,-z
x,-y,1/2+z
1/2+x,1/2+y,z
1/2-x,1/2+y,1/2-z
1/2-x,1/2-y,-z
1/2+x,1/2-y,1/2+z
loop_
_atom_site_type_symbol
_atom_site_label
_atom_site_fract_x
_atom_site_fract_y
_atom_site_fract_z
Si Si1 0.341115 0.475113 0.138384
Si Si2 0.307834 0.798889 0.853093
Si Si3 0.336424 0.721116 0.449434
Si Si4 0.541995 0.627428 0.422644
Si Si5 0.006378 0.603937 0.182035
Si Si6 0.096121 0.335684 0.356977
O O1 0.500000 0.456331 0.250000
O O2 0.217511 0.589244 0.108545
O O3 0.218912 0.357116 0.091950
O O4 0.426181 0.501713 0.103044
O O5 0.321270 0.848157 0.786829
O O6 0.146879 0.703019 0.803394
O O7 0.490752 0.728862 0.938501
O O8 0.377514 0.631771 0.405605
O O9 0.177161 0.653755 0.423246
O O10 0.715791 0.656512 0.532691
O O11 0.491068 0.729207 0.350049
O O12 0.013416 0.459250 0.184070
O O13 0.000000 0.658059 0.250000
#
# Coordination Sequence:
#
# PCOD8149179 Si02
#       6
#     8   8   8   8   8   8
#     4  11  23  40  66  98 131 173 222 283 340 400
#     4  10  23  44  69  92 130 179 228 271 330 407
#     4  11  23  42  67  96 133 178 223 276 328 412
#     4   9  20  40  69  94 123 170 230 266 324 399
#     4  12  26  41  61 102 140 172 217 280 352 401
#     4   9  20  42  68  93 124 175 222 273 322 401
#
# _framework density 27.203251999999999
#
# number of rings (size 3 to 8) (size 9 to 14) (size 15 to 20)
#    0.000    1.667    0.000    4.500    2.333    6.667 
#    3.000    0.000    0.000    0.000    0.000    0.000 
#    0.000    0.000    0.000    0.000    0.000    0.000 
#
# Total GULP energy -297548.165091 kJ/mol
# GULP energy per Si atom -12397.840212 kJ/mol
# Density = 2.714134 g / cm^3
# Si number density = 27.203252 Si / 1000 Ang^3
#
#
#
# Elastic Constant Matrix: (Units=GPa)
#
#
# Indices 1 2 3 4 5 6 
#
# 1 191.9526 52.3682 30.5530 0.0000 -12.8047 0.0000
# 2 52.3682 114.4047 17.2005 0.0000 1.2390 0.0000
# 3 30.5530 17.2005 48.7084 0.0000 -3.4229 0.0000
# 4 0.0000 0.0000 0.0000 25.9247 0.0000 3.0775
# 5 -12.8047 1.2390 -3.4229 0.0000 44.3700 0.0000
# 6 0.0000 0.0000 0.0000 3.0775 0.0000 37.9623
#
#
#
# Elastic Compliance Matrix: (Units=1/GPa)
#
#
# Indices 1 2 3 4 5 6 
#
# 1 0.006503 -0.002535 -0.003064 0.000000 0.001711 0.000000
# 2 -0.002535 0.010230 -0.002106 0.000000 -0.001180 0.000000
# 3 -0.003064 -0.002106 0.023264 0.000000 0.000969 0.000000
# 4 0.000000 0.000000 0.000000 0.038948 0.000000 -0.003157
# 5 0.001711 -0.001180 0.000969 0.000000 0.023139 0.000000
# 6 0.000000 0.000000 0.000000 -0.003157 0.000000 0.026598
#
#
# Mechanical properties :
#
#
# Convention : Reuss Voigt Hill
#
# Bulk Modulus (GPa) = 40.66847 61.70101 51.18474
# Shear Modulus (GPa) = 32.83275 38.64766 35.74020
#
# Velocity S-wave (km/s) = 3.47788 3.77331 3.62860
# Velocity P-wave (km/s) = 5.57762 6.45868 6.03425
#
# Compressibility (1/GPa) = 0.02458908
#
# Stress axis : x y z
#
# Youngs Moduli (GPa) = 153.77756 97.74733 42.98512
#
# Poissons Ratio (x) = 0.24775 0.13170
# Poissons Ratio (y) = 0.38976 0.09052
# Poissons Ratio (z) = 0.47114 0.20583
#
# Static dielectric constant tensor:
#      x y z
#    x 5.255410 0.000000 -0.175170 
#    y 0.000000 4.797290 0.000000 
#    z -0.175170 0.000000 5.096740 
# 
# 
# High freq. dielectric constant tensor:
#      x y z
#    x 2.108520 0.000000 0.006180 
#    y 0.000000 2.082840 0.000000 
#    z 0.006180 0.000000 2.120170 
# 
# From -- ./inp_files/237719.got.cif
#   From: 2010.06.25/outbox.cif.g09.slc.cpg/sg15_119_cif.got.tgz:237719.got - 2010.06.28 07:06:18.
