data_PCOD8149184
_publ_section_title
;
Structure prediction by ZEFSAII (Michael W. Deem and Ramdas Pophale) SiO2 
 PCOD8149184
Probable space group: C 2/C
;
_chemical_formula_sum "Si O2"
_cell_formula_units_Z 60
_cell_length_a 11.809288
_cell_length_b 29.402895
_cell_length_c 8.533945
_cell_angle_alpha 90.000000
_cell_angle_beta 107.119963
_cell_angle_gamma 90.000000
_cell_volume 2831.919598
_symmetry_space_group_name_H-M "C 2/C"
_symmetry_group_IT_number 15
_symmetry_cell_setting 'monoclinic'
loop_
_space_group_symop_operation_xyz
x,y,z
-x,y,1/2-z
-x,-y,-z
x,-y,1/2+z
1/2+x,1/2+y,z
1/2-x,1/2+y,1/2-z
1/2-x,1/2-y,-z
1/2+x,1/2-y,1/2+z
loop_
_atom_site_type_symbol
_atom_site_label
_atom_site_fract_x
_atom_site_fract_y
_atom_site_fract_z
Si Si1 0.482446 0.788713 0.929204
Si Si2 0.183803 0.358283 0.990840
Si Si3 0.765731 0.001738 0.673944
Si Si4 0.000000 0.228446 0.250000
Si Si5 0.627000 0.587322 0.379054
Si Si6 0.269299 0.328257 0.716869
Si Si7 0.623520 0.596561 0.727913
Si Si8 0.376763 0.043916 0.127828
O O1 0.500000 0.772077 0.750000
O O2 0.573206 0.829205 0.006080
O O3 0.349609 0.806410 0.901407
O O4 0.503953 0.753936 0.082305
O O5 0.260748 0.327781 0.902134
O O6 0.128924 0.401831 0.880442
O O7 0.268480 0.372895 0.166109
O O8 0.826656 0.964179 0.588190
O O9 0.734440 0.975964 0.820995
O O10 0.856670 0.043117 0.733237
O O11 0.643062 0.021266 0.550596
O O12 0.882691 0.198058 0.198279
O O13 0.500000 0.588375 0.250000
O O14 0.721063 0.618767 0.326980
O O15 0.613882 0.608435 0.543960
O O16 0.500000 0.612267 0.750000
O O17 0.500000 0.027708 0.250000
#
# Coordination Sequence:
#
# PCOD8149184 Si02
#       8
#     8   8   8   4   8   8   8   8
#     4  10  25  48  73 102 136 181 219 281 351 415
#     4  10  23  44  69  97 133 178 226 274 337 407
#     4  11  23  38  61  91 131 175 226 274 324 385
#     4  12  26  46  72 106 138 172 226 292 344 428
#     4  12  24  40  64  93 130 174 223 279 331 398
#     4  11  23  45  69 102 134 176 222 274 349 405
#     4  11  25  41  62  99 130 182 230 275 333 395
#     4  11  21  39  60  92 132 177 222 271 322 389
#
# _framework density 21.187042000000002
#
# number of rings (size 3 to 8) (size 9 to 14) (size 15 to 20)
#    0.000    1.067    3.333    3.200    3.733    3.200 
#    2.400    0.000    0.000    0.000    0.000    0.000 
#    0.000    0.000    0.000    0.000    0.000    0.000 
#
# Total GULP energy -371847.049470 kJ/mol
# GULP energy per Si atom -12394.901649 kJ/mol
# Density = 2.113882 g / cm^3
# Si number density = 21.187042 Si / 1000 Ang^3
#
#
#
# Elastic Constant Matrix: (Units=GPa)
#
#
# Indices 1 2 3 4 5 6 
#
# 1 126.5861 41.7700 41.9702 0.0000 12.2433 0.0000
# 2 41.7700 86.8104 39.2987 0.0000 1.6632 0.0000
# 3 41.9702 39.2987 112.6010 0.0000 12.3941 0.0000
# 4 0.0000 0.0000 0.0000 30.6411 0.0000 -13.3827
# 5 12.2433 1.6632 12.3941 0.0000 31.9233 0.0000
# 6 0.0000 0.0000 0.0000 -13.3827 0.0000 43.3925
#
#
#
# Elastic Compliance Matrix: (Units=1/GPa)
#
#
# Indices 1 2 3 4 5 6 
#
# 1 0.010158 -0.003874 -0.002118 0.000000 -0.002872 0.000000
# 2 -0.003874 0.015202 -0.004114 0.000000 0.002291 0.000000
# 3 -0.002118 -0.004114 0.011484 0.000000 -0.003432 0.000000
# 4 0.000000 0.000000 0.000000 0.037716 0.000000 0.011632
# 5 -0.002872 0.002291 -0.003432 0.000000 0.033639 0.000000
# 6 0.000000 0.000000 0.000000 0.011632 0.000000 0.026633
#
#
# Mechanical properties :
#
#
# Convention : Reuss Voigt Hill
#
# Bulk Modulus (GPa) = 60.12444 63.56394 61.84419
# Shear Modulus (GPa) = 31.13561 34.72195 32.92878
#
# Velocity S-wave (km/s) = 3.83764 4.05264 3.94660
# Velocity P-wave (km/s) = 6.93370 7.20867 7.07252
#
# Compressibility (1/GPa) = 0.01663217
#
# Stress axis : x y z
#
# Youngs Moduli (GPa) = 98.44425 65.78216 87.07815
#
# Poissons Ratio (x) = 0.25482 0.18445
# Poissons Ratio (y) = 0.38135 0.35822
# Poissons Ratio (z) = 0.20852 0.27061
#
# Static dielectric constant tensor:
#      x y z
#    x 3.695470 0.000000 -0.032770 
#    y 0.000000 3.890630 0.000000 
#    z -0.032770 0.000000 3.891500 
# 
# 
# High freq. dielectric constant tensor:
#      x y z
#    x 1.835930 0.000000 0.002330 
#    y 0.000000 1.825090 0.000000 
#    z 0.002330 0.000000 1.838730 
# 
# From -- ./inp_files/35743.got.cif
#   From: 2010.06.25/outbox.cif.g09.slc.cpg/sg15_18_cif.got.tgz:35743.got - 2010.06.28 07:06:18.
