data_PCOD8149036
_publ_section_title
;
Structure prediction by ZEFSAII (Michael W. Deem and Ramdas Pophale) SiO2 
 PCOD8149036
Probable space group: C 2/C
;
_chemical_formula_sum "Si O2"
_cell_formula_units_Z 36
_cell_length_a 7.445516
_cell_length_b 12.000875
_cell_length_c 21.777053
_cell_angle_alpha 90.000000
_cell_angle_beta 125.616695
_cell_angle_gamma 90.000000
_cell_volume 1581.832751
_symmetry_space_group_name_H-M "C 2/C"
_symmetry_group_IT_number 15
_symmetry_cell_setting 'monoclinic'
loop_
_space_group_symop_operation_xyz
x,y,z
-x,y,1/2-z
-x,-y,-z
x,-y,1/2+z
1/2+x,1/2+y,z
1/2-x,1/2+y,1/2-z
1/2-x,1/2-y,-z
1/2+x,1/2-y,1/2+z
loop_
_atom_site_type_symbol
_atom_site_label
_atom_site_fract_x
_atom_site_fract_y
_atom_site_fract_z
Si Si1 0.000000 0.641145 0.250000
Si Si2 0.325969 0.516635 0.877424
Si Si3 0.037059 0.669732 0.462706
Si Si4 0.739490 0.269187 0.197958
Si Si5 0.770274 0.572308 0.510090
O O1 0.124240 0.566368 0.325110
O O2 0.169441 0.720989 0.249232
O O3 0.350019 0.603638 0.826116
O O4 0.283429 0.596735 0.928973
O O5 0.543039 0.441604 0.927265
O O6 0.250000 0.750000 0.500000
O O7 0.105772 0.544475 0.464059
O O8 0.854963 0.696114 0.376074
O O9 0.919530 0.669452 0.507463
O O10 0.000000 0.268212 0.250000
#
# Coordination Sequence:
#
# PCOD8149036 Si02
#       5
#     4   8   8   8   8
#     4  12  26  48  66  98 150 182 230 292 346 422
#     4  11  23  47  69 103 135 186 238 285 356 416
#     4  11  22  43  70 103 133 183 236 281 356 413
#     4  12  26  45  70 103 140 188 231 280 356 419
#     4  10  23  43  73  98 140 176 232 305 338 408
#
# _framework density 22.758410999999999
#
# number of rings (size 3 to 8) (size 9 to 14) (size 15 to 20)
#    0.000    0.889    5.556    1.333    0.000    2.667 
#    6.000    0.000    0.000    0.000    0.000    0.000 
#    0.000    0.000    0.000    0.000    0.000    0.000 
#
# Total GULP energy -223182.774679 kJ/mol
# GULP energy per Si atom -12399.043038 kJ/mol
# Density = 2.270661 g / cm^3
# Si number density = 22.758411 Si / 1000 Ang^3
#
#
#
# Elastic Constant Matrix: (Units=GPa)
#
#
# Indices 1 2 3 4 5 6 
#
# 1 121.9283 49.1202 53.0743 0.0000 -2.5095 0.0000
# 2 49.1202 61.2585 37.5057 0.0000 -1.6337 0.0000
# 3 53.0743 37.5057 131.1630 0.0000 20.2953 0.0000
# 4 0.0000 0.0000 0.0000 18.3156 0.0000 1.8935
# 5 -2.5095 -1.6337 20.2953 0.0000 38.2116 0.0000
# 6 0.0000 0.0000 0.0000 1.8935 0.0000 42.2370
#
#
#
# Elastic Compliance Matrix: (Units=1/GPa)
#
#
# Indices 1 2 3 4 5 6 
#
# 1 0.013040 -0.008436 -0.003205 0.000000 0.002198 0.000000
# 2 -0.008436 0.025883 -0.004438 0.000000 0.002910 0.000000
# 3 -0.003205 -0.004438 0.011170 0.000000 -0.006333 0.000000
# 4 0.000000 0.000000 0.000000 0.054852 0.000000 -0.002459
# 5 0.002198 0.002910 -0.006333 0.000000 0.029802 0.000000
# 6 0.000000 0.000000 0.000000 -0.002459 0.000000 0.023786
#
#
# Mechanical properties :
#
#
# Convention : Reuss Voigt Hill
#
# Bulk Modulus (GPa) = 55.75179 65.97224 60.86201
# Shear Modulus (GPa) = 25.42342 31.39615 28.40978
#
# Velocity S-wave (km/s) = 3.34593 3.71825 3.53699
# Velocity P-wave (km/s) = 6.28310 6.89092 6.59402
#
# Compressibility (1/GPa) = 0.01793664
#
# Stress axis : x y z
#
# Youngs Moduli (GPa) = 76.68681 38.63511 89.52779
#
# Poissons Ratio (x) = 0.32591 0.28689
# Poissons Ratio (y) = 0.64690 0.39733
# Poissons Ratio (z) = 0.24574 0.17146
#
# Static dielectric constant tensor:
#      x y z
#    x 4.702000 0.000000 -0.155930 
#    y 0.000000 4.156640 0.000000 
#    z -0.155930 0.000000 4.270880 
# 
# 
# High freq. dielectric constant tensor:
#      x y z
#    x 1.901290 0.000000 0.007450 
#    y 0.000000 1.903740 0.000000 
#    z 0.007450 0.000000 1.902580 
# 
# From -- ./inp_files/187675.got.cif
#   From: 2010.06.25/outbox.cif.g09.slc.cpg/sg15_94_cif.got.tgz:187675.got - 2010.06.28 07:06:18.
