data_PCOD8149752
_publ_section_title
;
Structure prediction by ZEFSAII (Michael W. Deem and Ramdas Pophale) SiO2 
 PCOD8149752
Probable space group: C 2/C
;
_chemical_formula_sum "Si O2"
_cell_formula_units_Z 32
_cell_length_a 21.844434
_cell_length_b 6.911486
_cell_length_c 20.830394
_cell_angle_alpha 90.000000
_cell_angle_beta 154.820416
_cell_angle_gamma 90.000000
_cell_volume 1338.028102
_symmetry_space_group_name_H-M "C 2/C"
_symmetry_group_IT_number 15
_symmetry_cell_setting 'monoclinic'
loop_
_space_group_symop_operation_xyz
x,y,z
-x,y,1/2-z
-x,-y,-z
x,-y,1/2+z
1/2+x,1/2+y,z
1/2-x,1/2+y,1/2-z
1/2-x,1/2-y,-z
1/2+x,1/2-y,1/2+z
loop_
_atom_site_type_symbol
_atom_site_label
_atom_site_fract_x
_atom_site_fract_y
_atom_site_fract_z
Si Si1 0.577420 0.381605 0.981307
Si Si2 0.116411 0.160583 0.910175
Si Si3 0.039504 0.435368 0.944772
Si Si4 0.671385 0.353088 0.208481
O O1 0.659209 0.483636 0.998919
O O2 0.425377 0.488114 0.847346
O O3 0.539200 0.161056 0.930541
O O4 0.679306 0.398547 0.140250
O O5 0.000000 0.076718 0.750000
O O6 0.250000 0.250000 0.000000
O O7 0.042729 0.335099 0.878782
O O8 0.171459 0.356504 0.112643
O O9 0.102034 0.638263 0.151200
#
# Coordination Sequence:
#
# PCOD8149752 Si02
#       4
#     8   8   8   8
#     4  10  24  41  68 100 138 183 220 281 356 413
#     4  11  25  46  65  97 140 183 239 282 330 415
#     4  11  24  44  74 100 142 181 226 298 350 415
#     4  10  24  43  67 111 138 170 231 287 358 417
#
# _framework density 23.915790999999999
#
# number of rings (size 3 to 8) (size 9 to 14) (size 15 to 20)
#    0.000    1.500    0.000    3.750   10.500    8.000 
#    0.000    0.000    0.000    0.000    0.000    0.000 
#    0.000    0.000    0.000    0.000    0.000    0.000 
#
# Total GULP energy -198434.908112 kJ/mol
# GULP energy per Si atom -12402.181757 kJ/mol
# Density = 2.386136 g / cm^3
# Si number density = 23.915791 Si / 1000 Ang^3
#
#
#
# Elastic Constant Matrix: (Units=GPa)
#
#
# Indices 1 2 3 4 5 6 
#
# 1 125.1529 58.8951 47.8820 -0.0002 -31.6275 -0.0001
# 2 58.8951 195.3883 33.5072 -0.0013 -3.8111 -0.0011
# 3 47.8820 33.5072 80.2802 -0.0002 -17.4909 -0.0002
# 4 -0.0002 -0.0013 -0.0002 20.3602 -0.0002 -4.6852
# 5 -31.6275 -3.8111 -17.4909 -0.0002 31.6418 -0.0001
# 6 -0.0001 -0.0011 -0.0002 -4.6852 -0.0001 46.2736
#
#
#
# Elastic Compliance Matrix: (Units=1/GPa)
#
#
# Indices 1 2 3 4 5 6 
#
# 1 0.014103 -0.003240 -0.004631 0.000000 0.011147 0.000000
# 2 -0.003240 0.006270 -0.001394 0.000000 -0.003253 0.000000
# 3 -0.004631 -0.001394 0.016775 0.000000 0.004476 0.000000
# 4 0.000000 0.000000 0.000000 0.050287 0.000000 0.005092
# 5 0.011147 -0.003253 0.004476 0.000000 0.044828 0.000000
# 6 0.000000 0.000000 0.000000 0.005092 0.000000 0.022126
#
#
# Mechanical properties :
#
#
# Convention : Reuss Voigt Hill
#
# Bulk Modulus (GPa) = 53.70426 75.71001 64.70713
# Shear Modulus (GPa) = 27.91339 37.02426 32.46883
#
# Velocity S-wave (km/s) = 3.42007 3.93887 3.68860
# Velocity P-wave (km/s) = 6.17253 7.23961 6.72726
#
# Compressibility (1/GPa) = 0.01862050
#
# Stress axis : x y z
#
# Youngs Moduli (GPa) = 70.90458 159.48887 59.61105
#
# Poissons Ratio (x) = 0.51667 0.27606
# Poissons Ratio (y) = 0.22970 0.08307
# Poissons Ratio (z) = 0.32836 0.22226
#
# Static dielectric constant tensor:
#      x y z
#    x 4.395900 0.000000 0.056550 
#    y 0.000000 4.570770 0.000000 
#    z 0.056550 0.000000 3.658570 
# 
# 
# High freq. dielectric constant tensor:
#      x y z
#    x 1.946680 0.000000 -0.005470 
#    y 0.000000 1.960840 0.000000 
#    z -0.005470 0.000000 1.948590 
# 
# From -- ./inp_files/214175.got.cif
#   From: 2010.06.25/outbox.cif.g09.slc.cpg/sg15_108_cif.got.tgz:214175.got - 2010.06.28 07:06:18.
