data_PCOD8149125
_publ_section_title
;
Structure prediction by ZEFSAII (Michael W. Deem and Ramdas Pophale) SiO2 
 PCOD8149125
Probable space group: C 2/C
;
_chemical_formula_sum "Si O2"
_cell_formula_units_Z 60
_cell_length_a 14.022740
_cell_length_b 9.129587
_cell_length_c 21.189826
_cell_angle_alpha 90.000000
_cell_angle_beta 83.535044
_cell_angle_gamma 90.000000
_cell_volume 2695.509502
_symmetry_space_group_name_H-M "C 2/C"
_symmetry_group_IT_number 15
_symmetry_cell_setting 'monoclinic'
loop_
_space_group_symop_operation_xyz
x,y,z
-x,y,1/2-z
-x,-y,-z
x,-y,1/2+z
1/2+x,1/2+y,z
1/2-x,1/2+y,1/2-z
1/2-x,1/2-y,-z
1/2+x,1/2-y,1/2+z
loop_
_atom_site_type_symbol
_atom_site_label
_atom_site_fract_x
_atom_site_fract_y
_atom_site_fract_z
Si Si1 0.211046 0.606425 0.538705
Si Si2 0.294379 0.222449 0.267798
Si Si3 0.496409 0.410261 0.822322
Si Si4 0.824227 0.100633 0.112439
Si Si5 0.138280 0.423156 0.433341
Si Si6 0.500000 0.114120 0.250000
Si Si7 0.964248 0.401902 0.364664
Si Si8 0.788918 0.027672 0.326683
O O1 0.250000 0.750000 0.500000
O O2 0.300400 0.523757 0.563392
O O3 0.152423 0.487815 0.501733
O O4 0.138452 0.649145 0.600453
O O5 0.263340 0.131628 0.332665
O O6 0.406335 0.208896 0.239914
O O7 0.273529 0.392462 0.280212
O O8 0.227668 0.172968 0.214151
O O9 0.500000 0.463099 0.750000
O O10 0.583880 0.470041 0.858036
O O11 0.510374 0.236126 0.825719
O O12 0.392715 0.468163 0.853574
O O13 0.844501 0.248783 0.071401
O O14 0.211677 0.518541 0.386848
O O15 0.031257 0.455666 0.417160
O O16 0.461136 0.026496 0.312779
#
# Coordination Sequence:
#
# PCOD8149125 Si02
#       8
#     8   8   8   8   8   4   8   8
#     4  12  25  45  68  99 133 176 233 288 319 388
#     4  11  24  39  66  97 138 170 220 278 339 398
#     4  11  22  40  66  96 138 173 215 270 347 408
#     4  10  23  44  67  96 131 181 221 268 340 403
#     4  10  23  45  65  93 131 184 226 264 338 403
#     4  12  22  40  64 104 136 164 220 274 346 396
#     4  11  23  41  70  99 131 177 219 280 337 401
#     4  11  24  41  64 101 135 179 222 276 337 404
#
# _framework density 22.259242
#
# number of rings (size 3 to 8) (size 9 to 14) (size 15 to 20)
#    0.000    1.067    4.667    1.600    2.800    1.067 
#    2.400    7.333    0.000    0.000    0.000    0.000 
#    0.000    0.000    0.000    0.000    0.000    0.000 
#
# Total GULP energy -371951.355263 kJ/mol
# GULP energy per Si atom -12398.378509 kJ/mol
# Density = 2.220858 g / cm^3
# Si number density = 22.259242 Si / 1000 Ang^3
#
#
#
# Elastic Constant Matrix: (Units=GPa)
#
#
# Indices 1 2 3 4 5 6 
#
# 1 123.1034 24.7939 29.9345 0.0000 9.7614 0.0000
# 2 24.7939 54.2295 24.5341 0.0000 13.4298 0.0000
# 3 29.9345 24.5341 74.8653 0.0000 10.4925 0.0000
# 4 0.0000 0.0000 0.0000 40.8465 0.0000 1.4571
# 5 9.7614 13.4298 10.4925 0.0000 44.6089 0.0000
# 6 0.0000 0.0000 0.0000 1.4571 0.0000 25.3566
#
#
#
# Elastic Compliance Matrix: (Units=1/GPa)
#
#
# Indices 1 2 3 4 5 6 
#
# 1 0.009421 -0.002941 -0.002728 0.000000 -0.000535 0.000000
# 2 -0.002941 0.023710 -0.005878 0.000000 -0.005112 0.000000
# 3 -0.002728 -0.005878 0.016590 0.000000 -0.001536 0.000000
# 4 0.000000 0.000000 0.000000 0.024532 0.000000 -0.001410
# 5 -0.000535 -0.005112 -0.001536 0.000000 0.024434 0.000000
# 6 0.000000 0.000000 0.000000 -0.001410 0.000000 0.039519
#
#
# Mechanical properties :
#
#
# Convention : Reuss Voigt Hill
#
# Bulk Modulus (GPa) = 37.55567 45.63591 41.59579
# Shear Modulus (GPa) = 29.38151 33.69145 31.53648
#
# Velocity S-wave (km/s) = 3.63708 3.89471 3.76810
# Velocity P-wave (km/s) = 5.87762 6.38526 6.13669
#
# Compressibility (1/GPa) = 0.02662714
#
# Stress axis : x y z
#
# Youngs Moduli (GPa) = 106.14143 42.17674 60.27855
#
# Poissons Ratio (x) = 0.12403 0.16447
# Poissons Ratio (y) = 0.31213 0.35429
# Poissons Ratio (z) = 0.28960 0.24790
#
# Static dielectric constant tensor:
#      x y z
#    x 4.142140 0.000000 0.042630 
#    y 0.000000 3.767610 0.000000 
#    z 0.042630 0.000000 3.915910 
# 
# 
# High freq. dielectric constant tensor:
#      x y z
#    x 1.890170 0.000000 0.000960 
#    y 0.000000 1.867180 0.000000 
#    z 0.000960 0.000000 1.865700 
# 
# From -- ./inp_files/272708.got.cif
#   From: 2010.06.25/outbox.cif.g09.slc.cpg/sg15_137_cif.got.tgz:272708.got - 2010.06.28 07:06:18.
