data_PCOD8149617
_publ_section_title
;
Structure prediction by ZEFSAII (Michael W. Deem and Ramdas Pophale) SiO2 
 PCOD8149617
Probable space group: C 2/C
;
_chemical_formula_sum "Si O2"
_cell_formula_units_Z 56
_cell_length_a 10.153635
_cell_length_b 24.795024
_cell_length_c 14.728216
_cell_angle_alpha 90.000000
_cell_angle_beta 139.116092
_cell_angle_gamma 90.000000
_cell_volume 2426.972118
_symmetry_space_group_name_H-M "C 2/C"
_symmetry_group_IT_number 15
_symmetry_cell_setting 'monoclinic'
loop_
_space_group_symop_operation_xyz
x,y,z
-x,y,1/2-z
-x,-y,-z
x,-y,1/2+z
1/2+x,1/2+y,z
1/2-x,1/2+y,1/2-z
1/2-x,1/2-y,-z
1/2+x,1/2-y,1/2+z
loop_
_atom_site_type_symbol
_atom_site_label
_atom_site_fract_x
_atom_site_fract_y
_atom_site_fract_z
Si Si1 0.994329 0.580938 0.921989
Si Si2 0.007173 0.751577 0.963320
Si Si3 0.170540 0.329940 0.412957
Si Si4 0.848478 0.047213 0.451267
Si Si5 0.433407 0.252862 0.309884
Si Si6 0.927727 0.124257 0.806124
Si Si7 0.958557 0.462021 0.859674
O O1 0.814586 0.624146 0.818567
O O2 0.170114 0.607435 0.949685
O O3 0.900095 0.524699 0.839310
O O4 0.068300 0.572960 0.063454
O O5 0.145797 0.707013 0.988925
O O6 0.802825 0.756906 0.801137
O O7 0.119320 0.810445 0.023207
O O8 0.963550 0.730517 0.044195
O O9 0.000000 0.320805 0.250000
O O10 0.702748 0.064690 0.292362
O O11 0.691549 0.033611 0.450259
O O12 0.983693 0.096207 0.557681
O O13 0.000000 0.000000 0.500000
O O14 0.500000 0.223869 0.250000
O O15 0.502198 0.314771 0.342462
O O16 0.000000 0.095239 0.750000
#
# Coordination Sequence:
#
# PCOD8149617 Si02
#       7
#     8   8   8   8   8   8   8
#     4  11  21  42  67  95 136 180 228 275 341 408
#     4  11  22  44  67 101 135 166 234 285 342 412
#     4  11  23  40  72  98 136 183 225 283 347 420
#     4  11  22  39  63  96 136 178 224 281 341 392
#     4  11  24  43  71  98 131 183 225 279 353 418
#     4  11  21  40  65  91 132 183 233 273 334 415
#     4  10  24  39  65 100 136 176 229 286 331 401
#
# _framework density 23.074017999999999
#
# number of rings (size 3 to 8) (size 9 to 14) (size 15 to 20)
#    0.000    1.143    5.714    0.429    2.000    1.143 
#    2.571    0.000    6.286    0.000    0.000    0.000 
#    0.000    0.000    0.000    0.000    0.000    0.000 
#
# Total GULP energy -347020.743623 kJ/mol
# GULP energy per Si atom -12393.597987 kJ/mol
# Density = 2.302150 g / cm^3
# Si number density = 23.074018 Si / 1000 Ang^3
#
#
#
# Elastic Constant Matrix: (Units=GPa)
#
#
# Indices 1 2 3 4 5 6 
#
# 1 82.4929 18.0206 22.9259 0.0000 -18.0662 0.0000
# 2 18.0206 56.9276 39.8459 0.0000 -6.9359 0.0000
# 3 22.9259 39.8459 113.7829 0.0000 -17.7364 0.0000
# 4 0.0000 0.0000 0.0000 20.7454 0.0000 -8.0445
# 5 -18.0662 -6.9359 -17.7364 0.0000 44.2342 0.0000
# 6 0.0000 0.0000 0.0000 -8.0445 0.0000 34.8664
#
#
#
# Elastic Compliance Matrix: (Units=1/GPa)
#
#
# Indices 1 2 3 4 5 6 
#
# 1 0.014164 -0.003211 -0.000967 0.000000 0.004894 0.000000
# 2 -0.003211 0.024005 -0.007869 0.000000 -0.000703 0.000000
# 3 -0.000967 -0.007869 0.012251 0.000000 0.003284 0.000000
# 4 0.000000 0.000000 0.000000 0.052940 0.000000 0.012215
# 5 0.004894 -0.000703 0.003284 0.000000 0.025812 0.000000
# 6 0.000000 0.000000 0.000000 0.012215 0.000000 0.031499
#
#
# Mechanical properties :
#
#
# Convention : Reuss Voigt Hill
#
# Bulk Modulus (GPa) = 37.98380 46.08758 42.03569
# Shear Modulus (GPa) = 25.83456 31.46325 28.64890
#
# Velocity S-wave (km/s) = 3.34973 3.69667 3.52747
# Velocity P-wave (km/s) = 5.60878 6.18366 5.90322
#
# Compressibility (1/GPa) = 0.02632701
#
# Stress axis : x y z
#
# Youngs Moduli (GPa) = 70.60117 41.65855 81.62685
#
# Poissons Ratio (x) = 0.13376 0.07890
# Poissons Ratio (y) = 0.22669 0.64231
# Poissons Ratio (z) = 0.06824 0.32780
#
# Static dielectric constant tensor:
#      x y z
#    x 4.555830 0.000000 -0.239970 
#    y 0.000000 3.833950 0.000000 
#    z -0.239970 0.000000 4.091730 
# 
# 
# High freq. dielectric constant tensor:
#      x y z
#    x 1.923220 0.000000 -0.017440 
#    y 0.000000 1.883860 0.000000 
#    z -0.017440 0.000000 1.915410 
# 
# From -- ./inp_files/148589.got.cif
#   From: 2010.06.25/outbox.cif.g09.slc.cpg/sg15_75_cif.got.tgz:148589.got - 2010.06.28 07:06:18.
