data_PCOD8149371
_publ_section_title
;
Structure prediction by ZEFSAII (Michael W. Deem and Ramdas Pophale) SiO2 
 PCOD8149371
Probable space group: C 2/C
;
_chemical_formula_sum "Si O2"
_cell_formula_units_Z 56
_cell_length_a 11.641049
_cell_length_b 27.355451
_cell_length_c 10.572097
_cell_angle_alpha 90.000000
_cell_angle_beta 126.608942
_cell_angle_gamma 90.000000
_cell_volume 2702.486963
_symmetry_space_group_name_H-M "C 2/C"
_symmetry_group_IT_number 15
_symmetry_cell_setting 'monoclinic'
loop_
_space_group_symop_operation_xyz
x,y,z
-x,y,1/2-z
-x,-y,-z
x,-y,1/2+z
1/2+x,1/2+y,z
1/2-x,1/2+y,1/2-z
1/2-x,1/2-y,-z
1/2+x,1/2-y,1/2+z
loop_
_atom_site_type_symbol
_atom_site_label
_atom_site_fract_x
_atom_site_fract_y
_atom_site_fract_z
Si Si1 0.226994 0.218759 0.608440
Si Si2 0.509485 0.164518 0.071405
Si Si3 0.394055 0.449300 0.566626
Si Si4 0.435143 0.559930 0.575248
Si Si5 0.266432 0.146497 0.067702
Si Si6 0.588384 0.267608 0.549308
Si Si7 0.861142 0.376064 0.097487
O O1 0.250000 0.250000 0.500000
O O2 0.299137 0.250135 0.769167
O O3 0.303257 0.166098 0.652667
O O4 0.057395 0.206180 0.499206
O O5 0.351329 0.140621 0.989645
O O6 0.616842 0.149157 0.248672
O O7 0.476911 0.221782 0.067099
O O8 0.587011 0.150903 0.994064
O O9 0.500000 0.434323 0.750000
O O10 0.363386 0.507134 0.551879
O O11 0.450146 0.438810 0.462475
O O12 0.251092 0.418997 0.500457
O O13 0.500000 0.578858 0.750000
O O14 0.314933 0.597201 0.455012
O O15 0.165531 0.194678 0.004287
O O16 0.000000 0.401432 0.250000
#
# Coordination Sequence:
#
# PCOD8149371 Si02
#       7
#     8   8   8   8   8   8   8
#     4  12  22  37  62  93 131 173 220 277 324 398
#     4  11  24  41  59  93 136 171 220 271 324 409
#     4  10  23  45  73 101 135 172 223 282 340 404
#     4  10  23  45  72 101 130 170 233 282 330 406
#     4  11  24  42  64  90 131 178 220 272 335 394
#     4  12  22  41  62  89 129 176 224 270 329 390
#     4  12  23  40  65  98 136 171 219 276 335 399
#
# _framework density 20.721654000000001
#
# number of rings (size 3 to 8) (size 9 to 14) (size 15 to 20)
#    0.000    0.857    4.286    2.571    2.000    2.286 
#    5.143    0.714    0.000    0.000    0.000    0.000 
#    0.000    0.000    0.000    0.000    0.000    0.000 
#
# Total GULP energy -346998.092728 kJ/mol
# GULP energy per Si atom -12392.789026 kJ/mol
# Density = 2.067449 g / cm^3
# Si number density = 20.721654 Si / 1000 Ang^3
#
#
#
# Elastic Constant Matrix: (Units=GPa)
#
#
# Indices 1 2 3 4 5 6 
#
# 1 114.3160 44.5494 42.7886 0.0000 18.7164 0.0000
# 2 44.5494 103.1477 45.7284 0.0000 23.1614 0.0000
# 3 42.7886 45.7284 111.1823 0.0000 15.4883 0.0000
# 4 0.0000 0.0000 0.000010510.8773 0.0000 2521.0629
# 5 18.7164 23.1614 15.4883 0.0000 36.2939 0.0000
# 6 0.0000 0.0000 0.0000 2521.0629 0.0000 614.0960
#
#
#
# Elastic Compliance Matrix: (Units=1/GPa)
#
#
# Indices 1 2 3 4 5 6 
#
# 1 0.011433 -0.003107 -0.002740 0.000000 -0.002744 0.000000
# 2 -0.003107 0.013988 -0.003761 0.000000 -0.005720 0.000000
# 3 -0.002740 -0.003761 0.011764 0.000000 -0.001207 0.000000
# 4 0.000000 0.000000 0.000000 0.006207 0.000000 -0.025484
# 5 -0.002744 -0.005720 -0.001207 0.000000 0.033133 0.000000
# 6 0.000000 0.000000 0.000000 -0.025484 0.000000 0.106246
#
#
# Mechanical properties :
#
#
# Convention : Reuss Voigt Hill
#
# Bulk Modulus (GPa) = 55.64942 66.08656 60.86799
# Shear Modulus (GPa) = 24.04099 2245.29206 1134.66653
#
# Velocity S-wave (km/s) = 3.40985 32.95301 23.42571
# Velocity P-wave (km/s) = 6.51281 38.46855 27.58846
#
# Compressibility (1/GPa) = 0.01796964
#
# Stress axis : x y z
#
# Youngs Moduli (GPa) = 87.46309 71.48770 85.00784
#
# Poissons Ratio (x) = 0.22213 0.23292
# Poissons Ratio (y) = 0.27177 0.31969
# Poissons Ratio (z) = 0.23964 0.26885
#
# Static dielectric constant tensor:
#      x y z
#    x 6.904800 0.000000 -1.876830 
#    y 0.000000 3.710110 0.000000 
#    z -1.876830 0.000000 5.437830 
# 
# 
# High freq. dielectric constant tensor:
#      x y z
#    x 1.827290 0.000000 0.003530 
#    y 0.000000 1.801040 0.000000 
#    z 0.003530 0.000000 1.816530 
# 
# From -- ./inp_files/92105.got.cif
#   From: 2010.06.25/outbox.cif.g09.slc.cpg/sg15_47_cif.got.tgz:92105.got - 2010.06.28 07:06:18.
