data_PCOD8149726
_publ_section_title
;
Structure prediction by ZEFSAII (Michael W. Deem and Ramdas Pophale) SiO2 
 PCOD8149726
Probable space group: C 2/C
;
_chemical_formula_sum "Si O2"
_cell_formula_units_Z 48
_cell_length_a 10.717470
_cell_length_b 9.057183
_cell_length_c 22.971190
_cell_angle_alpha 90.000000
_cell_angle_beta 97.682980
_cell_angle_gamma 90.000000
_cell_volume 2209.798266
_symmetry_space_group_name_H-M "C 2/C"
_symmetry_group_IT_number 15
_symmetry_cell_setting 'monoclinic'
loop_
_space_group_symop_operation_xyz
x,y,z
-x,y,1/2-z
-x,-y,-z
x,-y,1/2+z
1/2+x,1/2+y,z
1/2-x,1/2+y,1/2-z
1/2-x,1/2-y,-z
1/2+x,1/2-y,1/2+z
loop_
_atom_site_type_symbol
_atom_site_label
_atom_site_fract_x
_atom_site_fract_y
_atom_site_fract_z
Si Si1 0.200252 0.078094 0.123874
Si Si2 0.449378 0.122799 0.420842
Si Si3 0.693100 0.767307 0.405454
Si Si4 0.457509 0.431786 0.685300
Si Si5 0.449758 0.199199 0.955303
Si Si6 0.072975 0.263980 0.812573
O O1 0.159991 0.184845 0.067647
O O2 0.292814 0.157100 0.175068
O O3 0.075472 0.036354 0.150669
O O4 0.275805 0.939010 0.103199
O O5 0.317639 0.186647 0.434679
O O6 0.555186 0.164094 0.476068
O O7 0.486955 0.193894 0.362230
O O8 0.432556 0.947117 0.414853
O O9 0.640644 0.689306 0.343810
O O10 0.588988 0.740815 0.448645
O O11 0.500000 0.368762 0.750000
O O12 0.393047 0.591069 0.688147
O O13 0.000000 0.315148 0.750000
#
# Coordination Sequence:
#
# PCOD8149726 Si02
#       6
#     8   8   8   8   8   8
#     4  11  23  42  63  94 127 162 211 262 309 374
#     4  11  22  43  65  92 127 168 206 261 315 374
#     4  11  22  42  63  95 125 160 212 259 313 367
#     4  10  24  41  63  91 125 171 208 255 315 376
#     4  10  24  43  64  92 127 165 212 255 319 373
#     4  11  24  43  64  94 128 165 209 257 316 372
#
# _framework density 21.721440000000001
#
# number of rings (size 3 to 8) (size 9 to 14) (size 15 to 20)
#    0.000    1.333    3.333    1.500    2.333    2.000 
#    3.000    0.000    0.000    0.000    0.000    0.000 
#    0.000    0.000    0.000    0.000    0.000    0.000 
#
# Total GULP energy -297635.379349 kJ/mol
# GULP energy per Si atom -12401.474140 kJ/mol
# Density = 2.167200 g / cm^3
# Si number density = 21.721440 Si / 1000 Ang^3
#
#
#
# Elastic Constant Matrix: (Units=GPa)
#
#
# Indices 1 2 3 4 5 6 
#
# 1 62.0469 33.3360 21.0353 0.0000 21.1261 0.0000
# 2 33.3360 86.1795 31.0551 0.0000 14.2824 0.0000
# 3 21.0353 31.0551 116.0115 0.0000 9.0701 0.0000
# 4 0.0000 0.0000 0.0000 21.8234 0.0000 2.2411
# 5 21.1261 14.2824 9.0701 0.0000 29.0103 0.0000
# 6 0.0000 0.0000 0.0000 2.2411 0.0000 34.4092
#
#
#
# Elastic Compliance Matrix: (Units=1/GPa)
#
#
# Indices 1 2 3 4 5 6 
#
# 1 0.025264 -0.006773 -0.001630 0.000000 -0.014554 0.000000
# 2 -0.006773 0.015533 -0.002786 0.000000 -0.001844 0.000000
# 3 -0.001630 -0.002786 0.009698 0.000000 -0.000474 0.000000
# 4 0.000000 0.000000 0.000000 0.046131 0.000000 -0.003004
# 5 -0.014554 -0.001844 -0.000474 0.000000 0.046125 0.000000
# 6 0.000000 0.000000 0.000000 -0.003004 0.000000 0.029258
#
#
# Mechanical properties :
#
#
# Convention : Reuss Voigt Hill
#
# Bulk Modulus (GPa) = 35.56540 48.34341 41.95440
# Shear Modulus (GPa) = 24.53885 28.96935 26.75410
#
# Velocity S-wave (km/s) = 3.36476 3.65591 3.51335
# Velocity P-wave (km/s) = 5.61288 6.33446 5.98455
#
# Compressibility (1/GPa) = 0.02811722
#
# Stress axis : x y z
#
# Youngs Moduli (GPa) = 39.58236 64.37839 103.11266
#
# Poissons Ratio (x) = 0.43605 0.16806
# Poissons Ratio (y) = 0.26810 0.28725
# Poissons Ratio (z) = 0.06451 0.17934
#
# Static dielectric constant tensor:
#      x y z
#    x 3.847430 0.000000 0.169960 
#    y 0.000000 3.956190 0.000000 
#    z 0.169960 0.000000 3.840240 
# 
# 
# High freq. dielectric constant tensor:
#      x y z
#    x 1.855180 0.000000 0.009230 
#    y 0.000000 1.859580 0.000000 
#    z 0.009230 0.000000 1.853210 
# 
# From -- ./inp_files/267656.got.cif
#   From: 2010.06.25/outbox.cif.g09.slc.cpg/sg15_134_cif.got.tgz:267656.got - 2010.06.28 07:06:18.
