data_PCOD8149545
_publ_section_title
;
Structure prediction by ZEFSAII (Michael W. Deem and Ramdas Pophale) SiO2 
 PCOD8149545
Probable space group: C 2/C
;
_chemical_formula_sum "Si O2"
_cell_formula_units_Z 64
_cell_length_a 26.466933
_cell_length_b 8.550031
_cell_length_c 21.938022
_cell_angle_alpha 90.000000
_cell_angle_beta 32.968712
_cell_angle_gamma 90.000000
_cell_volume 2701.544517
_symmetry_space_group_name_H-M "C 2/C"
_symmetry_group_IT_number 15
_symmetry_cell_setting 'monoclinic'
loop_
_space_group_symop_operation_xyz
x,y,z
-x,y,1/2-z
-x,-y,-z
x,-y,1/2+z
1/2+x,1/2+y,z
1/2-x,1/2+y,1/2-z
1/2-x,1/2-y,-z
1/2+x,1/2-y,1/2+z
loop_
_atom_site_type_symbol
_atom_site_label
_atom_site_fract_x
_atom_site_fract_y
_atom_site_fract_z
Si Si1 0.272729 0.653229 0.691540
Si Si2 0.732022 0.092616 0.555026
Si Si3 0.268750 0.306579 0.648949
Si Si4 0.636533 0.720240 0.247023
Si Si5 0.115371 0.662691 0.207402
Si Si6 0.595166 0.508231 0.679823
Si Si7 0.039621 0.345727 0.536019
Si Si8 0.043705 0.691815 0.505827
O O1 0.251054 0.474921 0.697362
O O2 0.274691 0.674674 0.762638
O O3 0.193822 0.786394 0.752221
O O4 0.371605 0.696594 0.562285
O O5 0.750000 0.250000 0.500000
O O6 0.703453 0.142683 0.651771
O O7 0.643780 0.975958 0.629477
O O8 0.828627 0.001130 0.451114
O O9 0.212373 0.297413 0.643001
O O10 0.376900 0.265623 0.525754
O O11 0.631198 0.573910 0.206102
O O12 0.532930 0.775468 0.365124
O O13 0.077893 0.810711 0.209044
O O14 0.034264 0.617387 0.336226
O O15 0.500000 0.432622 0.750000
O O16 0.078354 0.512663 0.473753
O O17 0.990702 0.264297 0.527418
#
# Coordination Sequence:
#
# PCOD8149545 Si02
#       8
#     8   8   8   8   8   8   8   8
#     4  12  25  42  71 106 152 196 236 285 359 447
#     4  10  23  51  73  95 133 191 245 310 355 425
#     4  12  26  42  71 107 153 195 236 285 365 449
#     4  11  24  46  74 100 147 193 238 295 372 426
#     4  12  25  47  74 104 145 190 234 310 370 424
#     4  11  29  48  74 105 138 185 260 317 363 418
#     4  11  24  42  67 107 152 187 233 283 362 449
#     4  11  23  42  68 105 148 189 234 285 350 458
#
# _framework density 23.690152999999999
#
# number of rings (size 3 to 8) (size 9 to 14) (size 15 to 20)
#    0.000    0.750    5.000    1.125    8.750    0.500 
#    0.000    2.500    0.000    0.000    0.000    0.000 
#    0.000    0.000    0.000    0.000    0.000    0.000 
#
# Total GULP energy -396437.670476 kJ/mol
# GULP energy per Si atom -12388.677202 kJ/mol
# Density = 2.363623 g / cm^3
# Si number density = 23.690153 Si / 1000 Ang^3
#
#
#
# Elastic Constant Matrix: (Units=GPa)
#
#
# Indices 1 2 3 4 5 6 
#
# 1 58.9598 16.9069 16.0458 0.0179 -15.6954 -0.0148
# 2 16.9069 74.7635 30.7733 0.0320 1.4336 -0.0434
# 3 16.0458 30.7733 153.4653 0.0001 -8.8553 -0.0033
# 4 0.0179 0.0320 0.0001 43.4177 -0.0141 1.8347
# 5 -15.6954 1.4336 -8.8553 -0.0141 29.8474 0.0126
# 6 -0.0148 -0.0434 -0.0033 1.8347 0.0126 28.0119
#
#
#
# Elastic Compliance Matrix: (Units=1/GPa)
#
#
# Indices 1 2 3 4 5 6 
#
# 1 0.021545 -0.004832 -0.000627 -0.000002 0.011376 -0.000001
# 2 -0.004832 0.015738 -0.002890 -0.000012 -0.004154 0.000024
# 3 -0.000627 -0.002890 0.007275 0.000003 0.001967 -0.000005
# 4 -0.000002 -0.000012 0.000003 0.023096 0.000012 -0.001513
# 5 0.011376 -0.004154 0.001967 0.000012 0.040269 -0.000019
# 6 -0.000001 0.000024 -0.000005 -0.001513 -0.000019 0.035798
#
#
# Mechanical properties :
#
#
# Convention : Reuss Voigt Hill
#
# Bulk Modulus (GPa) = 35.89599 46.07120 40.98359
# Shear Modulus (GPa) = 29.46265 35.15291 32.30778
#
# Velocity S-wave (km/s) = 3.53039 3.85627 3.69692
# Velocity P-wave (km/s) = 5.63945 6.27036 5.96325
#
# Compressibility (1/GPa) = 0.02785827
#
# Stress axis : x y z
#
# Youngs Moduli (GPa) = 46.41378 63.54228 137.46093
#
# Poissons Ratio (x) = 0.30704 0.08624
# Poissons Ratio (y) = 0.22428 0.39729
# Poissons Ratio (z) = 0.02912 0.18365
#
# Static dielectric constant tensor:
#      x y z
#    x 4.064120 0.000000 0.040800 
#    y 0.000000 4.275370 0.000020 
#    z 0.040800 0.000020 4.647780 
# 
# 
# High freq. dielectric constant tensor:
#      x y z
#    x 1.913320 0.000000 0.000470 
#    y 0.000000 1.936920 0.000000 
#    z 0.000470 0.000000 1.961520 
# 
# From -- ./inp_files/284425.got.cif
#   From: 2010.06.25/outbox.cif.g09.slc.cpg/sg15_143_cif.got.tgz:284425.got - 2010.06.28 07:06:18.
