data_PCOD8149072
_publ_section_title
;
Structure prediction by ZEFSAII (Michael W. Deem and Ramdas Pophale) SiO2 
 PCOD8149072
Probable space group: C 2/C
;
_chemical_formula_sum "Si O2"
_cell_formula_units_Z 56
_cell_length_a 13.925870
_cell_length_b 12.389946
_cell_length_c 17.659031
_cell_angle_alpha 90.000000
_cell_angle_beta 58.046562
_cell_angle_gamma 90.000000
_cell_volume 2585.231511
_symmetry_space_group_name_H-M "C 2/C"
_symmetry_group_IT_number 15
_symmetry_cell_setting 'monoclinic'
loop_
_space_group_symop_operation_xyz
x,y,z
-x,y,1/2-z
-x,-y,-z
x,-y,1/2+z
1/2+x,1/2+y,z
1/2-x,1/2+y,1/2-z
1/2-x,1/2-y,-z
1/2+x,1/2-y,1/2+z
loop_
_atom_site_type_symbol
_atom_site_label
_atom_site_fract_x
_atom_site_fract_y
_atom_site_fract_z
Si Si1 0.079906 0.332766 0.282509
Si Si2 0.243292 0.168291 0.573186
Si Si3 0.066631 0.839903 0.444867
Si Si4 0.806767 0.761136 0.244758
Si Si5 0.512253 0.121870 0.968662
Si Si6 0.833613 0.959360 0.520956
Si Si7 0.130441 0.440963 0.714171
O O1 0.175481 0.251788 0.272909
O O2 0.998451 0.373258 0.383751
O O3 0.151510 0.435018 0.224476
O O4 0.000000 0.282485 0.250000
O O5 0.250000 0.250000 0.500000
O O6 0.170001 0.203367 0.677233
O O7 0.365391 0.154303 0.555861
O O8 0.191287 0.057352 0.558623
O O9 0.119593 0.841681 0.338381
O O10 0.074657 0.713498 0.465284
O O11 0.938949 0.883609 0.500506
O O12 0.140249 0.915484 0.470842
O O13 0.846855 0.636602 0.223289
O O14 0.500000 0.000000 0.000000
O O15 0.721737 0.913923 0.610489
O O16 0.000000 0.421715 0.750000
#
# Coordination Sequence:
#
# PCOD8149072 Si02
#       7
#     8   8   8   8   8   8   8
#     4  10  23  44  65  91 136 180 223 281 342 410
#     4  11  22  41  67  99 137 172 229 297 338 405
#     4  11  24  42  67  98 146 187 218 290 355 418
#     4  11  23  39  66 106 130 172 244 280 348 417
#     4  11  24  41  67 103 133 175 237 283 337 408
#     4  11  23  43  66  97 140 181 227 278 364 407
#     4  11  23  39  72  98 131 177 230 286 345 399
#
# _framework density 21.661504000000001
#
# number of rings (size 3 to 8) (size 9 to 14) (size 15 to 20)
#    0.000    1.143    4.286    1.714    8.000    0.000 
#    0.000    5.714    0.000    0.857    0.000    0.000 
#    0.000    0.000    0.000    0.000    0.000    0.000 
#
# Total GULP energy -346894.348701 kJ/mol
# GULP energy per Si atom -12389.083882 kJ/mol
# Density = 2.161220 g / cm^3
# Si number density = 21.661504 Si / 1000 Ang^3
#
#
#
# Elastic Constant Matrix: (Units=GPa)
#
#
# Indices 1 2 3 4 5 6 
#
# 1 106.3865 39.3021 46.4622 0.0000 9.0915 0.0000
# 2 39.3021 109.9170 26.7487 0.0000 4.9800 0.0000
# 3 46.4622 26.7487 118.0117 0.0000 5.3515 0.0000
# 4 0.0000 0.0000 0.0000 26.7861 0.0000 1.8215
# 5 9.0915 4.9800 5.3515 0.0000 40.9667 0.0000
# 6 0.0000 0.0000 0.0000 1.8215 0.0000 32.1473
#
#
#
# Elastic Compliance Matrix: (Units=1/GPa)
#
#
# Indices 1 2 3 4 5 6 
#
# 1 0.012618 -0.003429 -0.004107 0.000000 -0.001847 0.000000
# 2 -0.003429 0.010593 -0.001033 0.000000 -0.000392 0.000000
# 3 -0.004107 -0.001033 0.010339 0.000000 -0.000314 0.000000
# 4 0.000000 0.000000 0.000000 0.037477 0.000000 -0.002124
# 5 -0.001847 -0.000392 -0.000314 0.000000 0.024909 0.000000
# 6 0.000000 0.000000 0.000000 -0.002124 0.000000 0.031227
#
#
# Mechanical properties :
#
#
# Convention : Reuss Voigt Hill
#
# Bulk Modulus (GPa) = 60.93028 62.14902 61.53965
# Shear Modulus (GPa) = 33.38435 34.76682 34.07559
#
# Velocity S-wave (km/s) = 3.93005 4.01060 3.97053
# Velocity P-wave (km/s) = 6.98449 7.08518 7.03502
#
# Compressibility (1/GPa) = 0.01641220
#
# Stress axis : x y z
#
# Youngs Moduli (GPa) = 79.25390 94.40272 96.72041
#
# Poissons Ratio (x) = 0.32366 0.39721
# Poissons Ratio (y) = 0.27172 0.09995
# Poissons Ratio (z) = 0.32548 0.09756
#
# Static dielectric constant tensor:
#      x y z
#    x 3.889870 0.000000 0.212650 
#    y 0.000000 4.021150 0.000000 
#    z 0.212650 0.000000 4.428670 
# 
# 
# High freq. dielectric constant tensor:
#      x y z
#    x 1.845500 0.000000 -0.001650 
#    y 0.000000 1.844680 0.000000 
#    z -0.001650 0.000000 1.855130 
# 
# From -- ./inp_files/204345.got.cif
#   From: 2010.06.25/outbox.cif.g09.slc.cpg/sg15_103_cif.got.tgz:204345.got - 2010.06.28 07:06:18.
