data_PCOD8149086
_publ_section_title
;
Structure prediction by ZEFSAII (Michael W. Deem and Ramdas Pophale) SiO2 
 PCOD8149086
Probable space group: C 2/C
;
_chemical_formula_sum "Si O2"
_cell_formula_units_Z 36
_cell_length_a 16.228673
_cell_length_b 12.913055
_cell_length_c 17.511853
_cell_angle_alpha 90.000000
_cell_angle_beta 26.072082
_cell_angle_gamma 90.000000
_cell_volume 1612.889142
_symmetry_space_group_name_H-M "C 2/C"
_symmetry_group_IT_number 15
_symmetry_cell_setting 'monoclinic'
loop_
_space_group_symop_operation_xyz
x,y,z
-x,y,1/2-z
-x,-y,-z
x,-y,1/2+z
1/2+x,1/2+y,z
1/2-x,1/2+y,1/2-z
1/2-x,1/2-y,-z
1/2+x,1/2-y,1/2+z
loop_
_atom_site_type_symbol
_atom_site_label
_atom_site_fract_x
_atom_site_fract_y
_atom_site_fract_z
Si Si1 0.340329 0.140336 0.443608
Si Si2 0.000000 0.013931 0.250000
Si Si3 0.438724 0.880239 0.214906
Si Si4 0.204644 0.844183 0.684819
Si Si5 0.906037 0.437319 0.645837
O O1 0.500000 0.111158 0.250000
O O2 0.250000 0.250000 0.500000
O O3 0.442076 0.140425 0.441734
O O4 0.178076 0.054861 0.579488
O O5 0.029940 0.088833 0.298697
O O6 0.500000 0.898180 0.250000
O O7 0.317204 0.778198 0.305483
O O8 0.327628 0.981361 0.274871
O O9 0.624741 0.875218 0.010433
O O10 0.239804 0.870038 0.745276
O O11 0.000000 0.500000 0.500000
#
# Coordination Sequence:
#
# PCOD8149086 Si02
#       5
#     8   4   8   8   8
#     4  12  26  45  76 104 142 189 232 287 362 424
#     4  12  24  46  70 102 144 180 242 284 354 410
#     4  11  22  41  67  97 134 184 231 281 352 416
#     4  11  25  41  72  98 142 180 234 295 346 414
#     4  10  23  44  66 100 146 181 229 301 343 413
#
# _framework density 22.320194999999998
#
# number of rings (size 3 to 8) (size 9 to 14) (size 15 to 20)
#    0.000    0.889    6.667    1.333    0.000    5.333 
#    0.000    2.222    0.000    0.000    0.000    0.000 
#    0.000    0.000    0.000    0.000    0.000    0.000 
#
# Total GULP energy -223095.147105 kJ/mol
# GULP energy per Si atom -12394.174839 kJ/mol
# Density = 2.226939 g / cm^3
# Si number density = 22.320195 Si / 1000 Ang^3
#
#
#
# Elastic Constant Matrix: (Units=GPa)
#
#
# Indices 1 2 3 4 5 6 
#
# 1 223.0228 85.0227 36.7029 -0.0042 -12.1977 0.0057
# 2 85.0227 138.1651 19.7410 0.0089 -4.1349 -0.0021
# 3 36.7029 19.7410 64.8054 0.0262 -1.8249 -0.0182
# 4 -0.0042 0.0089 0.0262 75.6349 -0.0033 -38.9363
# 5 -12.1977 -4.1349 -1.8249 -0.0033 29.0164 -0.0011
# 6 0.0057 -0.0021 -0.0182 -38.9363 -0.0011 74.3833
#
#
#
# Elastic Compliance Matrix: (Units=1/GPa)
#
#
# Indices 1 2 3 4 5 6 
#
# 1 0.006326 -0.003481 -0.002466 0.000002 0.002008 0.000000
# 2 -0.003481 0.009507 -0.000930 -0.000001 -0.000167 0.000000
# 3 -0.002466 -0.000930 0.017108 -0.000005 -0.000093 0.000002
# 4 0.000002 -0.000001 -0.000005 0.018098 0.000003 0.009474
# 5 0.002008 -0.000167 -0.000093 0.000003 0.035278 0.000002
# 6 0.000000 0.000000 0.000002 0.009474 0.000002 0.018403
#
#
# Mechanical properties :
#
#
# Convention : Reuss Voigt Hill
#
# Bulk Modulus (GPa) = 52.11270 78.76959 65.44114
# Shear Modulus (GPa) = 40.04151 54.77538 47.40845
#
# Velocity S-wave (km/s) = 4.24011 4.95923 4.61370
# Velocity P-wave (km/s) = 6.88258 8.25587 7.60030
#
# Compressibility (1/GPa) = 0.01918918
#
# Stress axis : x y z
#
# Youngs Moduli (GPa) = 158.06583 105.18089 58.45183
#
# Poissons Ratio (x) = 0.36610 0.14415
# Poissons Ratio (y) = 0.55017 0.05433
# Poissons Ratio (z) = 0.38982 0.09777
#
# Static dielectric constant tensor:
#      x y z
#    x 5.545060 -0.000130 -0.193470 
#    y -0.000130 5.471810 0.000040 
#    z -0.193470 0.000040 3.865790 
# 
# 
# High freq. dielectric constant tensor:
#      x y z
#    x 1.898970 0.000000 -0.002560 
#    y 0.000000 1.898220 0.000000 
#    z -0.002560 0.000000 1.852670 
# 
# From -- ./inp_files/205258.got.cif
#   From: 2010.06.25/outbox.cif.g09.slc.cpg/sg15_103_cif.got.tgz:205258.got - 2010.06.28 07:06:18.
