data_PCOD8149111
_publ_section_title
;
Structure prediction by ZEFSAII (Michael W. Deem and Ramdas Pophale) SiO2 
 PCOD8149111
Probable space group: C 2/C
;
_chemical_formula_sum "Si O2"
_cell_formula_units_Z 60
_cell_length_a 18.787441
_cell_length_b 24.381904
_cell_length_c 8.621408
_cell_angle_alpha 90.000000
_cell_angle_beta 45.919373
_cell_angle_gamma 90.000000
_cell_volume 2836.981672
_symmetry_space_group_name_H-M "C 2/C"
_symmetry_group_IT_number 15
_symmetry_cell_setting 'monoclinic'
loop_
_space_group_symop_operation_xyz
x,y,z
-x,y,1/2-z
-x,-y,-z
x,-y,1/2+z
1/2+x,1/2+y,z
1/2-x,1/2+y,1/2-z
1/2-x,1/2-y,-z
1/2+x,1/2-y,1/2+z
loop_
_atom_site_type_symbol
_atom_site_label
_atom_site_fract_x
_atom_site_fract_y
_atom_site_fract_z
Si Si1 0.515707 0.321607 0.408654
Si Si2 0.217092 0.883727 0.058553
Si Si3 0.319946 0.614486 0.230545
Si Si4 0.596088 0.034874 0.890600
Si Si5 0.902217 0.650334 0.475214
Si Si6 0.239944 0.493885 0.922790
Si Si7 0.317392 0.802319 0.401563
Si Si8 0.500000 0.248710 0.750000
O O1 0.500000 0.298969 0.250000
O O2 0.620512 0.352469 0.269324
O O3 0.432533 0.366691 0.565577
O O4 0.505877 0.280770 0.573394
O O5 0.210654 0.949393 0.096531
O O6 0.229026 0.872353 0.859949
O O7 0.314538 0.858478 0.986712
O O8 0.326731 0.549018 0.249763
O O9 0.249909 0.645066 0.460213
O O10 0.668406 0.041953 0.638518
O O11 0.665537 0.001620 0.897518
O O12 0.561167 0.093258 0.006363
O O13 0.500000 0.000000 0.000000
O O14 0.864877 0.692216 0.660139
O O15 0.000000 0.676980 0.250000
O O16 0.250000 0.750000 0.500000
O O17 0.404586 0.791055 0.392860
#
# Coordination Sequence:
#
# PCOD8149111 Si02
#       8
#     8   8   8   8   8   8   8   4
#     4  10  24  47  73  99 136 180 232 292 351 413
#     4  10  23  44  67 100 138 179 223 279 350 410
#     4  11  23  45  67  97 138 176 227 290 338 411
#     4  11  21  37  59  93 135 179 218 263 339 409
#     4  11  25  43  65  99 139 175 225 282 339 415
#     4  11  21  36  65  94 134 176 221 272 335 416
#     4  12  26  46  69  99 130 175 235 286 348 408
#     4  12  26  46  72  98 134 180 236 286 362 400
#
# _framework density 21.149238
#
# number of rings (size 3 to 8) (size 9 to 14) (size 15 to 20)
#    0.000    1.067    4.000    2.800    1.867    1.067 
#    0.000    2.000    0.000    0.000    0.000    0.000 
#    0.000    0.000    0.000    0.000    0.000    0.000 
#
# Total GULP energy -371677.705451 kJ/mol
# GULP energy per Si atom -12389.256848 kJ/mol
# Density = 2.110110 g / cm^3
# Si number density = 21.149238 Si / 1000 Ang^3
#
#
#
# Elastic Constant Matrix: (Units=GPa)
#
#
# Indices 1 2 3 4 5 6 
#
# 1 96.3511 22.6981 38.0568 0.0000 -6.6293 0.0000
# 2 22.6981 65.7672 31.9518 0.0000 -5.9533 0.0000
# 3 38.0568 31.9518 130.7586 0.0000 1.7693 0.0000
# 4 0.0000 0.0000 0.0000 30.2733 0.0000 -2.7604
# 5 -6.6293 -5.9533 1.7693 0.0000 40.6423 0.0000
# 6 0.0000 0.0000 0.0000 -2.7604 0.0000 14.2888
#
#
#
# Elastic Compliance Matrix: (Units=1/GPa)
#
#
# Indices 1 2 3 4 5 6 
#
# 1 0.012289 -0.002649 -0.002953 0.000000 0.001745 0.000000
# 2 -0.002649 0.018128 -0.003691 0.000000 0.002384 0.000000
# 3 -0.002953 -0.003691 0.009429 0.000000 -0.001433 0.000000
# 4 0.000000 0.000000 0.000000 0.033625 0.000000 0.006496
# 5 0.001745 0.002384 -0.001433 0.000000 0.025301 0.000000
# 6 0.000000 0.000000 0.000000 0.006496 0.000000 0.071240
#
#
# Mechanical properties :
#
#
# Convention : Reuss Voigt Hill
#
# Bulk Modulus (GPa) = 47.03629 53.14337 50.08983
# Shear Modulus (GPa) = 25.55132 30.38555 27.96844
#
# Velocity S-wave (km/s) = 3.47961 3.79452 3.64047
# Velocity P-wave (km/s) = 6.19936 6.66185 6.43476
#
# Compressibility (1/GPa) = 0.02126018
#
# Stress axis : x y z
#
# Youngs Moduli (GPa) = 81.37249 55.16216 106.06109
#
# Poissons Ratio (x) = 0.14611 0.31321
# Poissons Ratio (y) = 0.21553 0.39149
# Poissons Ratio (z) = 0.24030 0.20361
#
# Static dielectric constant tensor:
#      x y z
#    x 4.016070 0.000000 0.211640 
#    y 0.000000 3.816530 0.000000 
#    z 0.211640 0.000000 4.031930 
# 
# 
# High freq. dielectric constant tensor:
#      x y z
#    x 1.836500 0.000000 0.004250 
#    y 0.000000 1.827300 0.000000 
#    z 0.004250 0.000000 1.844740 
# 
# From -- ./inp_files/58755.got.cif
#   From: 2010.06.25/outbox.cif.g09.slc.cpg/sg15_30_cif.got.tgz:58755.got - 2010.06.28 07:06:18.
