data_PCOD8149191
_publ_section_title
;
Structure prediction by ZEFSAII (Michael W. Deem and Ramdas Pophale) SiO2 
 PCOD8149191
Probable space group: C 2/C
;
_chemical_formula_sum "Si O2"
_cell_formula_units_Z 36
_cell_length_a 7.131640
_cell_length_b 21.761736
_cell_length_c 11.264490
_cell_angle_alpha 90.000000
_cell_angle_beta 72.198607
_cell_angle_gamma 90.000000
_cell_volume 1664.512517
_symmetry_space_group_name_H-M "C 2/C"
_symmetry_group_IT_number 15
_symmetry_cell_setting 'monoclinic'
loop_
_space_group_symop_operation_xyz
x,y,z
-x,y,1/2-z
-x,-y,-z
x,-y,1/2+z
1/2+x,1/2+y,z
1/2-x,1/2+y,1/2-z
1/2-x,1/2-y,-z
1/2+x,1/2-y,1/2+z
loop_
_atom_site_type_symbol
_atom_site_label
_atom_site_fract_x
_atom_site_fract_y
_atom_site_fract_z
Si Si1 0.358764 0.617613 0.567975
Si Si2 0.595912 0.695677 0.350500
Si Si3 0.500000 0.459392 0.250000
Si Si4 0.335634 0.959739 0.594277
Si Si5 0.000000 0.632730 0.250000
Si Si6 0.000000 0.686522 0.750000
O O1 0.477173 0.674775 0.489598
O O2 0.498052 0.582804 0.633673
O O3 0.304483 0.569697 0.476816
O O4 0.167765 0.642307 0.670694
O O5 0.500000 0.664875 0.250000
O O6 0.580543 0.769930 0.341514
O O7 0.821273 0.676647 0.321021
O O8 0.301857 0.500125 0.291999
O O9 0.446422 0.908192 0.647763
O O10 0.500000 0.000000 0.500000
#
# Coordination Sequence:
#
# PCOD8149191 Si02
#       6
#     8   8   4   8   4   4
#     4  12  23  46  67  97 144 177 224 289 331 404
#     4  10  23  44  69  99 136 175 225 277 337 400
#     4  12  26  42  66 104 136 182 226 276 344 396
#     4  12  23  40  64  97 135 179 227 276 332 406
#     4  12  22  42  70 100 130 184 222 270 352 394
#     4  10  24  44  70 100 136 180 228 280 340 404
#
# _framework density 21.627953000000002
#
# number of rings (size 3 to 8) (size 9 to 14) (size 15 to 20)
#    0.667    0.000    2.222    6.667    0.000    0.889 
#    0.000    3.333    0.000    0.000    0.000    0.000 
#    0.000    0.000    0.000    0.000    0.000    0.000 
#
# Total GULP energy -223295.705885 kJ/mol
# GULP energy per Si atom -12405.316994 kJ/mol
# Density = 2.157873 g / cm^3
# Si number density = 21.627953 Si / 1000 Ang^3
#
#
#
# Elastic Constant Matrix: (Units=GPa)
#
#
# Indices 1 2 3 4 5 6 
#
# 1 97.7109 14.7405 24.1245 0.0000 -11.2786 0.0000
# 2 14.7405 67.4112 12.1027 0.0000 -1.1854 0.0000
# 3 24.1245 12.1027 74.8522 0.0000 -3.9262 0.0000
# 4 0.0000 0.0000 0.0000 17.8254 0.0000 1.8414
# 5 -11.2786 -1.1854 -3.9262 0.0000 61.3627 0.0000
# 6 0.0000 0.0000 0.0000 1.8414 0.0000 25.1084
#
#
#
# Elastic Compliance Matrix: (Units=1/GPa)
#
#
# Indices 1 2 3 4 5 6 
#
# 1 0.011557 -0.001898 -0.003319 0.000000 0.001875 0.000000
# 2 -0.001898 0.015591 -0.001918 0.000000 -0.000170 0.000000
# 3 -0.003319 -0.001918 0.014755 0.000000 0.000297 0.000000
# 4 0.000000 0.000000 0.000000 0.056528 0.000000 -0.004146
# 5 0.001875 -0.000170 0.000297 0.000000 0.016657 0.000000
# 6 0.000000 0.000000 0.000000 -0.004146 0.000000 0.040131
#
#
# Mechanical properties :
#
#
# Convention : Reuss Voigt Hill
#
# Bulk Modulus (GPa) = 36.19062 37.98999 37.09030
# Shear Modulus (GPa) = 27.97979 33.45972 30.71976
#
# Velocity S-wave (km/s) = 3.60069 3.93753 3.77287
# Velocity P-wave (km/s) = 5.83577 6.18673 6.01381
#
# Compressibility (1/GPa) = 0.02763147
#
# Stress axis : x y z
#
# Youngs Moduli (GPa) = 86.53058 64.14061 67.77284
#
# Poissons Ratio (x) = 0.12175 0.22496
# Poissons Ratio (y) = 0.16425 0.12999
# Poissons Ratio (z) = 0.28723 0.12302
#
# Static dielectric constant tensor:
#      x y z
#    x 3.910740 0.000000 -0.061320 
#    y 0.000000 3.871980 0.000000 
#    z -0.061320 0.000000 3.671270 
# 
# 
# High freq. dielectric constant tensor:
#      x y z
#    x 1.855220 0.000000 -0.008940 
#    y 0.000000 1.853410 0.000000 
#    z -0.008940 0.000000 1.854750 
# 
# From -- ./inp_files/72508.got.cif
#   From: 2010.06.25/outbox.cif.g09.slc.cpg/sg15_37_cif.got.tgz:72508.got - 2010.06.28 07:06:18.
