data_PCOD8149799
_publ_section_title
;
Structure prediction by ZEFSAII (Michael W. Deem and Ramdas Pophale) SiO2 
 PCOD8149799
Probable space group: C 2/C
;
_chemical_formula_sum "Si O2"
_cell_formula_units_Z 60
_cell_length_a 14.665351
_cell_length_b 12.264075
_cell_length_c 15.261630
_cell_angle_alpha 90.000000
_cell_angle_beta 100.789783
_cell_angle_gamma 90.000000
_cell_volume 2696.382211
_symmetry_space_group_name_H-M "C 2/C"
_symmetry_group_IT_number 15
_symmetry_cell_setting 'monoclinic'
loop_
_space_group_symop_operation_xyz
x,y,z
-x,y,1/2-z
-x,-y,-z
x,-y,1/2+z
1/2+x,1/2+y,z
1/2-x,1/2+y,1/2-z
1/2-x,1/2-y,-z
1/2+x,1/2-y,1/2+z
loop_
_atom_site_type_symbol
_atom_site_label
_atom_site_fract_x
_atom_site_fract_y
_atom_site_fract_z
Si Si1 0.698131 0.488379 0.055857
Si Si2 0.151580 0.179746 0.174983
Si Si3 0.500000 0.423478 0.750000
Si Si4 0.072007 0.211105 0.573134
Si Si5 0.091363 0.086245 0.887937
Si Si6 0.637620 0.778263 0.771025
Si Si7 0.594105 0.036896 0.397979
Si Si8 0.468252 0.140705 0.937588
O O1 0.652616 0.578114 0.110019
O O2 0.655597 0.370126 0.067476
O O3 0.807387 0.476064 0.090676
O O4 0.676601 0.528646 0.953175
O O5 0.089522 0.150433 0.247582
O O6 0.254553 0.202390 0.227216
O O7 0.106751 0.286446 0.124847
O O8 0.522707 0.495382 0.838194
O O9 0.086452 0.272536 0.668447
O O10 0.971811 0.152676 0.555432
O O11 0.059900 0.297209 0.491955
O O12 0.130132 0.161885 0.817575
O O13 0.588960 0.872803 0.820034
O O14 0.589281 0.091817 0.492110
O O15 0.508920 0.950303 0.377256
#
# Coordination Sequence:
#
# PCOD8149799 Si02
#       8
#     8   8   4   8   8   8   8   8
#     4  11  22  40  67  97 127 160 215 263 320 374
#     4  11  23  41  62  93 127 170 206 263 318 384
#     4  12  24  38  62  94 128 156 212 264 326 362
#     4  12  22  39  68  99 123 165 217 268 310 380
#     4  12  20  38  69  95 122 165 209 267 309 383
#     4  11  23  41  66  91 129 167 217 255 317 374
#     4  10  24  42  63  93 127 169 214 262 309 385
#     4  11  23  43  66  91 129 171 218 250 320 380
#
# _framework density 22.252037000000001
#
# number of rings (size 3 to 8) (size 9 to 14) (size 15 to 20)
#    0.000    0.800    5.333    2.000    0.000    4.800 
#    0.000    9.333    0.000    0.000    0.000    0.000 
#    0.000    0.000    0.000    0.000    0.000    0.000 
#
# Total GULP energy -372027.798057 kJ/mol
# GULP energy per Si atom -12400.926602 kJ/mol
# Density = 2.220139 g / cm^3
# Si number density = 22.252037 Si / 1000 Ang^3
#
#
#
# Elastic Constant Matrix: (Units=GPa)
#
#
# Indices 1 2 3 4 5 6 
#
# 1 109.3365 38.5262 10.9338 0.0000 -12.4213 0.0000
# 2 38.5262 87.9563 17.2751 0.0000 -15.2535 0.0000
# 3 10.9338 17.2751 58.4524 0.0000 5.1173 0.0000
# 4 0.0000 0.0000 0.0000 18.6499 0.0000 -4.9368
# 5 -12.4213 -15.2535 5.1173 0.0000 21.0071 0.0000
# 6 0.0000 0.0000 0.0000 -4.9368 0.0000 44.4911
#
#
#
# Elastic Compliance Matrix: (Units=1/GPa)
#
#
# Indices 1 2 3 4 5 6 
#
# 1 0.011112 -0.003917 -0.001274 0.000000 0.004037 0.000000
# 2 -0.003917 0.015836 -0.004855 0.000000 0.010365 0.000000
# 3 -0.001274 -0.004855 0.019573 0.000000 -0.009047 0.000000
# 4 0.000000 0.000000 0.000000 0.055242 0.000000 0.006130
# 5 0.004037 0.010365 -0.009047 0.000000 0.059720 0.000000
# 6 0.000000 0.000000 0.000000 0.006130 0.000000 0.023157
#
#
# Mechanical properties :
#
#
# Convention : Reuss Voigt Hill
#
# Bulk Modulus (GPa) = 37.83740 43.24617 40.54179
# Shear Modulus (GPa) = 23.41450 29.43029 26.42239
#
# Velocity S-wave (km/s) = 3.24734 3.64069 3.44963
# Velocity P-wave (km/s) = 5.57685 6.09505 5.84170
#
# Compressibility (1/GPa) = 0.02642888
#
# Stress axis : x y z
#
# Youngs Moduli (GPa) = 89.99001 63.14691 51.09030
#
# Poissons Ratio (x) = 0.24735 0.06511
# Poissons Ratio (y) = 0.35249 0.24804
# Poissons Ratio (z) = 0.11468 0.30658
#
# Static dielectric constant tensor:
#      x y z
#    x 3.954200 0.000000 -0.023650 
#    y 0.000000 4.203260 0.000000 
#    z -0.023650 0.000000 3.780720 
# 
# 
# High freq. dielectric constant tensor:
#      x y z
#    x 1.881560 0.000000 0.001370 
#    y 0.000000 1.881090 0.000000 
#    z 0.001370 0.000000 1.863870 
# 
# From -- ./inp_files/204086.got.cif
#   From: 2010.06.25/outbox.cif.g09.slc.cpg/sg15_103_cif.got.tgz:204086.got - 2010.06.28 07:06:18.
