data_PCOD8149604
_publ_section_title
;
Structure prediction by ZEFSAII (Michael W. Deem and Ramdas Pophale) SiO2 
 PCOD8149604
Probable space group: C 2/C
;
_chemical_formula_sum "Si O2"
_cell_formula_units_Z 44
_cell_length_a 30.227060
_cell_length_b 9.062465
_cell_length_c 9.057883
_cell_angle_alpha 90.000000
_cell_angle_beta 54.767214
_cell_angle_gamma 90.000000
_cell_volume 2026.714698
_symmetry_space_group_name_H-M "C 2/C"
_symmetry_group_IT_number 15
_symmetry_cell_setting 'monoclinic'
loop_
_space_group_symop_operation_xyz
x,y,z
-x,y,1/2-z
-x,-y,-z
x,-y,1/2+z
1/2+x,1/2+y,z
1/2-x,1/2+y,1/2-z
1/2-x,1/2-y,-z
1/2+x,1/2-y,1/2+z
loop_
_atom_site_type_symbol
_atom_site_label
_atom_site_fract_x
_atom_site_fract_y
_atom_site_fract_z
Si Si1 0.794926 0.162535 0.999480
Si Si2 0.794359 0.146181 0.338752
Si Si3 0.500000 0.488128 0.750000
Si Si4 0.518964 0.703323 0.959182
Si Si5 0.893351 0.386626 0.831377
Si Si6 0.400829 0.171960 0.647844
O O1 0.776900 0.128698 0.201737
O O2 0.750000 0.250000 0.000000
O O3 0.848235 0.263420 0.890011
O O4 0.800782 0.009246 0.905130
O O5 0.750000 0.250000 0.500000
O O6 0.854416 0.208115 0.231692
O O7 0.534033 0.594866 0.792709
O O8 0.536488 0.382681 0.575071
O O9 0.554349 0.848126 0.869236
O O10 0.455877 0.747366 0.092537
O O11 0.878273 0.549530 0.805295
O O12 0.909552 0.400131 0.970769
#
# Coordination Sequence:
#
# PCOD8149604 Si02
#       6
#     8   8   4   8   8   8
#     4  11  25  44  68  97 128 169 214 265 320 380
#     4  11  25  44  68  97 128 169 214 265 320 380
#     4  10  24  38  66  92 136 162 212 262 316 378
#     4  11  23  42  63  96 131 167 212 259 321 376
#     4  11  25  42  65  94 131 169 214 261 317 379
#     4  11  25  42  65  94 131 169 214 261 317 379
#
# _framework density 21.710013
#
# number of rings (size 3 to 8) (size 9 to 14) (size 15 to 20)
#    0.000    1.091    1.818    2.727    7.636    5.818 
#    0.000    0.000    0.000    0.000    0.000    0.000 
#    0.000    0.000    0.000    0.000    0.000    0.000 
#
# Total GULP energy -272762.660052 kJ/mol
# GULP energy per Si atom -12398.302730 kJ/mol
# Density = 2.166060 g / cm^3
# Si number density = 21.710013 Si / 1000 Ang^3
#
#
#
# Elastic Constant Matrix: (Units=GPa)
#
#
# Indices 1 2 3 4 5 6 
#
# 1 89.5234 35.6267 50.7668 0.0000 6.0087 0.0000
# 2 35.6267 123.0116 56.5209 0.0000 20.4783 0.0000
# 3 50.7668 56.5209 126.2645 0.0000 22.2993 0.0000
# 4 0.0000 0.0000 0.0000 48.3933 0.0000 4.4741
# 5 6.0087 20.4783 22.2993 0.0000 41.0228 0.0000
# 6 0.0000 0.0000 0.0000 4.4741 0.0000 22.4796
#
#
#
# Elastic Compliance Matrix: (Units=1/GPa)
#
#
# Indices 1 2 3 4 5 6 
#
# 1 0.014951 -0.002168 -0.005360 0.000000 0.001806 0.000000
# 2 -0.002168 0.010870 -0.003420 0.000000 -0.003249 0.000000
# 3 -0.005360 -0.003420 0.012351 0.000000 -0.004222 0.000000
# 4 0.000000 0.000000 0.000000 0.021051 0.000000 -0.004190
# 5 0.001806 -0.003249 -0.004222 0.000000 0.028029 0.000000
# 6 0.000000 0.000000 0.000000 -0.004190 0.000000 0.045319
#
#
# Mechanical properties :
#
#
# Convention : Reuss Voigt Hill
#
# Bulk Modulus (GPa) = 61.43889 69.40314 65.42102
# Shear Modulus (GPa) = 31.27090 35.43814 33.35452
#
# Velocity S-wave (km/s) = 3.79937 4.04461 3.92390
# Velocity P-wave (km/s) = 6.89986 7.33822 7.12242
#
# Compressibility (1/GPa) = 0.01627633
#
# Stress axis : x y z
#
# Youngs Moduli (GPa) = 66.88364 91.99945 80.96223
#
# Poissons Ratio (x) = 0.19947 0.43394
# Poissons Ratio (y) = 0.14501 0.27690
# Poissons Ratio (z) = 0.35849 0.31464
#
# Static dielectric constant tensor:
#      x y z
#    x 3.667750 0.000000 -0.015540 
#    y 0.000000 3.954520 0.000000 
#    z -0.015540 0.000000 3.920080 
# 
# 
# High freq. dielectric constant tensor:
#      x y z
#    x 1.847830 0.000000 0.013990 
#    y 0.000000 1.870980 0.000000 
#    z 0.013990 0.000000 1.863740 
# 
# From -- ./inp_files/68492.got.cif
#   From: 2010.06.25/outbox.cif.g09.slc.cpg/sg15_35_cif.got.tgz:68492.got - 2010.06.28 07:06:18.
