data_PCOD8149476
_publ_section_title
;
Structure prediction by ZEFSAII (Michael W. Deem and Ramdas Pophale) SiO2 
 PCOD8149476
Probable space group: C 2/C
;
_chemical_formula_sum "Si O2"
_cell_formula_units_Z 40
_cell_length_a 13.016119
_cell_length_b 14.325459
_cell_length_c 8.692846
_cell_angle_alpha 90.000000
_cell_angle_beta 77.765658
_cell_angle_gamma 90.000000
_cell_volume 1584.072583
_symmetry_space_group_name_H-M "C 2/C"
_symmetry_group_IT_number 15
_symmetry_cell_setting 'monoclinic'
loop_
_space_group_symop_operation_xyz
x,y,z
-x,y,1/2-z
-x,-y,-z
x,-y,1/2+z
1/2+x,1/2+y,z
1/2-x,1/2+y,1/2-z
1/2-x,1/2-y,-z
1/2+x,1/2-y,1/2+z
loop_
_atom_site_type_symbol
_atom_site_label
_atom_site_fract_x
_atom_site_fract_y
_atom_site_fract_z
Si Si1 0.781061 0.876538 0.314315
Si Si2 0.703824 0.694519 0.201786
Si Si3 0.000000 0.201306 0.750000
Si Si4 0.078517 0.302062 0.021303
Si Si5 0.500000 0.035666 0.750000
Si Si6 0.722548 0.030995 0.135521
O O1 0.726881 0.775984 0.319583
O O2 0.902892 0.866038 0.314021
O O3 0.723773 0.943260 0.455711
O O4 0.766997 0.927021 0.152577
O O5 0.800975 0.675806 0.057072
O O6 0.696905 0.600782 0.303703
O O7 0.594647 0.721691 0.149258
O O8 0.014768 0.264798 0.895883
O O9 0.019117 0.395245 0.098149
O O10 0.398737 0.967990 0.763287
#
# Coordination Sequence:
#
# PCOD8149476 Si02
#       6
#     8   8   4   8   4   8
#     4  11  26  48  71 111 147 200 251 312 376 455
#     4  10  23  48  74 100 158 199 248 306 390 437
#     4  10  26  47  79 104 146 204 266 293 385 452
#     4  10  23  46  75 104 146 199 251 315 362 460
#     4  12  26  47  77 122 148 196 262 307 391 446
#     4  12  27  44  75 110 157 197 248 320 370 454
#
# _framework density 25.251366000000001
#
# number of rings (size 3 to 8) (size 9 to 14) (size 15 to 20)
#    0.000    1.200    2.000    1.800    8.400   10.400 
#    0.000    0.000    0.000    0.000    0.000    0.000 
#    0.000    0.000    0.000    0.000    0.000    0.000 
#
# Total GULP energy -247916.368874 kJ/mol
# GULP energy per Si atom -12395.818444 kJ/mol
# Density = 2.519389 g / cm^3
# Si number density = 25.251366 Si / 1000 Ang^3
#
#
#
# Elastic Constant Matrix: (Units=GPa)
#
#
# Indices 1 2 3 4 5 6 
#
# 1 98.4568 26.9790 44.9194 0.0000 19.4294 0.0000
# 2 26.9790 94.3269 34.5497 0.0000 2.2842 0.0000
# 3 44.9194 34.5497 110.4621 0.0000 9.1740 0.0000
# 4 0.0000 0.0000 0.0000 32.3719 0.0000 -12.6210
# 5 19.4294 2.2842 9.1740 0.0000 43.5654 0.0000
# 6 0.0000 0.0000 0.0000 -12.6210 0.0000 38.4922
#
#
#
# Elastic Compliance Matrix: (Units=1/GPa)
#
#
# Indices 1 2 3 4 5 6 
#
# 1 0.013819 -0.002175 -0.004516 0.000000 -0.005098 0.000000
# 2 -0.002175 0.012317 -0.003048 0.000000 0.000966 0.000000
# 3 -0.004516 -0.003048 0.011870 0.000000 -0.000326 0.000000
# 4 0.000000 0.000000 0.000000 0.035419 0.000000 0.011613
# 5 -0.005098 0.000966 -0.000326 0.000000 0.025246 0.000000
# 6 0.000000 0.000000 0.000000 0.011613 0.000000 0.029787
#
#
# Mechanical properties :
#
#
# Convention : Reuss Voigt Hill
#
# Bulk Modulus (GPa) = 53.97392 57.34913 55.66152
# Shear Modulus (GPa) = 32.44431 36.00574 34.22503
#
# Velocity S-wave (km/s) = 3.58837 3.78020 3.68553
# Velocity P-wave (km/s) = 6.21206 6.46636 6.34048
#
# Compressibility (1/GPa) = 0.01852747
#
# Stress axis : x y z
#
# Youngs Moduli (GPa) = 72.36377 81.19159 84.24846
#
# Poissons Ratio (x) = 0.17659 0.38045
# Poissons Ratio (y) = 0.15739 0.25680
# Poissons Ratio (z) = 0.32678 0.24748
#
# Static dielectric constant tensor:
#      x y z
#    x 4.528720 0.000000 0.122410 
#    y 0.000000 4.488790 0.000000 
#    z 0.122410 0.000000 4.712590 
# 
# 
# High freq. dielectric constant tensor:
#      x y z
#    x 1.992760 0.000000 0.014910 
#    y 0.000000 2.006680 0.000000 
#    z 0.014910 0.000000 2.017470 
# 
# From -- ./inp_files/37991.got.cif
#   From: 2010.06.25/outbox.cif.g09.slc.cpg/sg15_19_cif.got.tgz:37991.got - 2010.06.28 07:06:18.
