data_PCOD8149442
_publ_section_title
;
Structure prediction by ZEFSAII (Michael W. Deem and Ramdas Pophale) SiO2 
 PCOD8149442
Probable space group: C 2/C
;
_chemical_formula_sum "Si O2"
_cell_formula_units_Z 44
_cell_length_a 25.874514
_cell_length_b 7.979485
_cell_length_c 9.801712
_cell_angle_alpha 90.000000
_cell_angle_beta 111.248135
_cell_angle_gamma 90.000000
_cell_volume 1886.140662
_symmetry_space_group_name_H-M "C 2/C"
_symmetry_group_IT_number 15
_symmetry_cell_setting 'monoclinic'
loop_
_space_group_symop_operation_xyz
x,y,z
-x,y,1/2-z
-x,-y,-z
x,-y,1/2+z
1/2+x,1/2+y,z
1/2-x,1/2+y,1/2-z
1/2-x,1/2-y,-z
1/2+x,1/2-y,1/2+z
loop_
_atom_site_type_symbol
_atom_site_label
_atom_site_fract_x
_atom_site_fract_y
_atom_site_fract_z
Si Si1 0.500000 0.341381 0.750000
Si Si2 0.948405 0.381805 0.978328
Si Si3 0.735359 0.061955 0.446740
Si Si4 0.914526 0.909897 0.268354
Si Si5 0.153905 0.080884 0.068103
Si Si6 0.331723 0.038920 0.866468
O O1 0.458728 0.230518 0.620970
O O2 0.536690 0.453347 0.683255
O O3 0.939549 0.268474 0.835744
O O4 0.894464 0.490249 0.960621
O O5 0.000000 0.500000 0.000000
O O6 0.750000 0.250000 0.500000
O O7 0.792292 0.982792 0.442355
O O8 0.686438 0.051805 0.289284
O O9 0.710869 0.972292 0.557767
O O10 0.868174 0.962460 0.333560
O O11 0.890652 0.892098 0.093822
O O12 0.171017 0.259497 0.148413
#
# Coordination Sequence:
#
# PCOD8149442 Si02
#       6
#     4   8   8   8   8   8
#     4  12  28  46  72 110 144 200 240 302 372 432
#     4  12  28  45  75 106 148 193 250 305 362 434
#     4  10  23  46  70 106 145 185 240 301 366 429
#     4  12  26  50  71 108 147 191 245 298 375 439
#     4  11  25  47  75 104 147 193 237 305 368 440
#     4  11  25  45  74 108 142 191 248 298 363 436
#
# _framework density 23.328057999999999
#
# number of rings (size 3 to 8) (size 9 to 14) (size 15 to 20)
#    0.000    0.727    1.818    4.909   10.182    1.455 
#    0.000    5.455    0.000    0.000    0.000    0.000 
#    0.000    0.000    0.000    0.000    0.000    0.000 
#
# Total GULP energy -272903.910349 kJ/mol
# GULP energy per Si atom -12404.723198 kJ/mol
# Density = 2.327496 g / cm^3
# Si number density = 23.328058 Si / 1000 Ang^3
#
#
#
# Elastic Constant Matrix: (Units=GPa)
#
#
# Indices 1 2 3 4 5 6 
#
# 1 126.6058 47.0417 6.9098 0.0000 2.4976 0.0000
# 2 47.0417 92.4460 30.5630 0.0000 1.3849 0.0000
# 3 6.9098 30.5630 108.4529 0.0000 -1.8912 0.0000
# 4 0.0000 0.0000 0.0000 36.2105 0.0000 3.3613
# 5 2.4976 1.3849 -1.8912 0.0000 41.1643 0.0000
# 6 0.0000 0.0000 0.0000 3.3613 0.0000 29.8737
#
#
#
# Elastic Compliance Matrix: (Units=1/GPa)
#
#
# Indices 1 2 3 4 5 6 
#
# 1 0.009819 -0.005273 0.000854 0.000000 -0.000379 0.000000
# 2 -0.005273 0.014773 -0.003833 0.000000 -0.000353 0.000000
# 3 0.000854 -0.003833 0.010256 0.000000 0.000548 0.000000
# 4 0.000000 0.000000 0.000000 0.027908 0.000000 -0.003140
# 5 -0.000379 -0.000353 0.000548 0.000000 0.024353 0.000000
# 6 0.000000 0.000000 0.000000 -0.003140 0.000000 0.033828
#
#
# Mechanical properties :
#
#
# Convention : Reuss Voigt Hill
#
# Bulk Modulus (GPa) = 54.51778 55.17043 54.84410
# Shear Modulus (GPa) = 34.82991 37.64905 36.23948
#
# Velocity S-wave (km/s) = 3.86819 4.02169 3.94569
# Velocity P-wave (km/s) = 6.58569 6.72804 6.65724
#
# Compressibility (1/GPa) = 0.01834264
#
# Stress axis : x y z
#
# Youngs Moduli (GPa) = 101.84768 67.69176 97.50367
#
# Poissons Ratio (x) = 0.35693 -0.08324
# Poissons Ratio (y) = 0.53702 0.37376
# Poissons Ratio (z) = -0.08695 0.25949
#
# Static dielectric constant tensor:
#      x y z
#    x 5.098690 0.000000 0.148540 
#    y 0.000000 4.060780 0.000000 
#    z 0.148540 0.000000 4.256300 
# 
# 
# High freq. dielectric constant tensor:
#      x y z
#    x 1.943200 0.000000 0.003510 
#    y 0.000000 1.911850 0.000000 
#    z 0.003510 0.000000 1.931670 
# 
# From -- ./inp_files/116869.got.cif
#   From: 2010.06.25/outbox.cif.g09.slc.cpg/sg15_59_cif.got.tgz:116869.got - 2010.06.28 07:06:18.
