data_PCOD8149650
_publ_section_title
;
Structure prediction by ZEFSAII (Michael W. Deem and Ramdas Pophale) SiO2 
 PCOD8149650
Probable space group: C 2/C
;
_chemical_formula_sum "Si O2"
_cell_formula_units_Z 64
_cell_length_a 8.041245
_cell_length_b 11.390380
_cell_length_c 31.643466
_cell_angle_alpha 90.000000
_cell_angle_beta 94.246364
_cell_angle_gamma 90.000000
_cell_volume 2890.358594
_symmetry_space_group_name_H-M "C 2/C"
_symmetry_group_IT_number 15
_symmetry_cell_setting 'monoclinic'
loop_
_space_group_symop_operation_xyz
x,y,z
-x,y,1/2-z
-x,-y,-z
x,-y,1/2+z
1/2+x,1/2+y,z
1/2-x,1/2+y,1/2-z
1/2-x,1/2-y,-z
1/2+x,1/2-y,1/2+z
loop_
_atom_site_type_symbol
_atom_site_label
_atom_site_fract_x
_atom_site_fract_y
_atom_site_fract_z
Si Si1 0.829604 0.276320 0.046186
Si Si2 0.671229 0.121346 0.114073
Si Si3 0.098085 0.218981 0.856367
Si Si4 0.326085 0.316934 0.926622
Si Si5 0.190059 0.796681 0.264624
Si Si6 0.434173 0.020425 0.045426
Si Si7 0.478360 0.529016 0.358913
Si Si8 0.673179 0.455114 0.732237
O O1 0.735070 0.219967 0.083314
O O2 0.816675 0.413063 0.055990
O O3 0.024008 0.240958 0.044912
O O4 0.750000 0.250000 0.000000
O O5 0.529224 0.169647 0.143746
O O6 0.585182 0.024977 0.082092
O O7 0.828166 0.071548 0.143625
O O8 0.238546 0.221568 0.895014
O O9 0.203238 0.205194 0.815418
O O10 0.977086 0.110184 0.861742
O O11 0.184264 0.365036 0.955684
O O12 0.400290 0.421911 0.899925
O O13 0.260569 0.670544 0.248353
O O14 0.000000 0.791693 0.250000
O O15 0.271296 0.919566 0.246175
O O16 0.500000 0.000000 0.000000
O O17 0.355217 0.563451 0.318245
O O18 0.500000 0.482144 0.750000
#
# Coordination Sequence:
#
# PCOD8149650 Si02
#       8
#     8   8   8   8   8   8   8   8
#     4  11  22  42  61  93 128 165 211 262 318 384
#     4  10  24  40  63  92 124 162 214 264 317 378
#     4  11  21  42  65  91 123 166 212 266 317 384
#     4  10  24  40  65  92 126 168 216 264 327 382
#     4  11  24  43  66  95 130 169 214 267 326 391
#     4  11  22  42  61  93 128 165 211 262 318 384
#     4  11  21  42  65  91 123 166 212 266 317 384
#     4  11  24  43  66  95 130 169 214 267 326 391
#
# _framework density 22.142581
#
# number of rings (size 3 to 8) (size 9 to 14) (size 15 to 20)
#    0.000    1.250    5.000    1.500    1.750    1.500 
#    2.250    0.000    0.000    0.000    0.000    0.000 
#    0.000    0.000    0.000    0.000    0.000    0.000 
#
# Total GULP energy -396479.470014 kJ/mol
# GULP energy per Si atom -12389.983438 kJ/mol
# Density = 2.209218 g / cm^3
# Si number density = 22.142581 Si / 1000 Ang^3
#
#
#
# Elastic Constant Matrix: (Units=GPa)
#
#
# Indices 1 2 3 4 5 6 
#
# 1 63.9748 7.4381 14.5958 0.0000 8.2753 0.0000
# 2 7.4381 120.7856 19.2257 0.0000 11.8972 0.0000
# 3 14.5958 19.2257 79.6800 0.0000 5.6637 0.0000
# 4 0.0000 0.0000 0.0000 25.3207 0.0000 3.7515
# 5 8.2753 11.8972 5.6637 0.0000 23.7758 0.0000
# 6 0.0000 0.0000 0.0000 3.7515 0.0000 41.4916
#
#
#
# Elastic Compliance Matrix: (Units=1/GPa)
#
#
# Indices 1 2 3 4 5 6 
#
# 1 0.016933 -0.000100 -0.002708 0.000000 -0.005199 0.000000
# 2 -0.000100 0.008977 -0.001863 0.000000 -0.004014 0.000000
# 3 -0.002708 -0.001863 0.013593 0.000000 -0.001363 0.000000
# 4 0.000000 0.000000 0.000000 0.040030 0.000000 -0.003619
# 5 -0.005199 -0.004014 -0.001363 0.000000 0.046202 0.000000
# 6 0.000000 0.000000 0.000000 -0.003619 0.000000 0.024429
#
#
# Mechanical properties :
#
#
# Convention : Reuss Voigt Hill
#
# Bulk Modulus (GPa) = 33.15426 38.55108 35.85267
# Shear Modulus (GPa) = 29.48848 32.99636 31.24242
#
# Velocity S-wave (km/s) = 3.65328 3.86447 3.76036
# Velocity P-wave (km/s) = 5.72720 6.11231 5.92289
#
# Compressibility (1/GPa) = 0.03016204
#
# Stress axis : x y z
#
# Youngs Moduli (GPa) = 59.05601 111.39492 73.56947
#
# Poissons Ratio (x) = 0.01110 0.19924
# Poissons Ratio (y) = 0.00588 0.13702
# Poissons Ratio (z) = 0.15994 0.20747
#
# Static dielectric constant tensor:
#      x y z
#    x 3.962460 0.000000 0.322900 
#    y 0.000000 4.593500 0.000000 
#    z 0.322900 0.000000 4.168610 
# 
# 
# High freq. dielectric constant tensor:
#      x y z
#    x 1.862480 0.000000 0.006510 
#    y 0.000000 1.885740 0.000000 
#    z 0.006510 0.000000 1.864250 
# 
# From -- ./inp_files/307490.got.cif
#   From: 2010.06.25/outbox.cif.g09.slc.cpg/sg15_154_cif.got.tgz:307490.got - 2010.06.28 07:06:18.
