data_PCOD8149218
_publ_section_title
;
Structure prediction by ZEFSAII (Michael W. Deem and Ramdas Pophale) SiO2 
 PCOD8149218
Probable space group: C 2/C
;
_chemical_formula_sum "Si O2"
_cell_formula_units_Z 48
_cell_length_a 9.274700
_cell_length_b 10.457322
_cell_length_c 18.404411
_cell_angle_alpha 90.000000
_cell_angle_beta 66.324105
_cell_angle_gamma 90.000000
_cell_volume 1634.774697
_symmetry_space_group_name_H-M "C 2/C"
_symmetry_group_IT_number 15
_symmetry_cell_setting 'monoclinic'
loop_
_space_group_symop_operation_xyz
x,y,z
-x,y,1/2-z
-x,-y,-z
x,-y,1/2+z
1/2+x,1/2+y,z
1/2-x,1/2+y,1/2-z
1/2-x,1/2-y,-z
1/2+x,1/2-y,1/2+z
loop_
_atom_site_type_symbol
_atom_site_label
_atom_site_fract_x
_atom_site_fract_y
_atom_site_fract_z
Si Si1 0.814388 0.514957 0.009400
Si Si2 0.340081 0.872926 0.353576
Si Si3 0.912542 0.677947 0.113251
Si Si4 0.780539 0.020475 0.760472
Si Si5 0.774651 0.777646 0.387126
Si Si6 0.998024 0.136729 0.126344
O O1 0.946383 0.584733 0.036208
O O2 0.777858 0.366871 0.034770
O O3 0.656073 0.598290 0.052586
O O4 0.868723 0.528881 0.914780
O O5 0.164260 0.811963 0.395308
O O6 0.473232 0.764376 0.332323
O O7 0.350190 0.945148 0.274317
O O8 0.780334 0.605065 0.186756
O O9 0.932713 0.702229 0.372431
O O10 0.946517 0.980966 0.688998
O O11 0.804242 0.140049 0.808462
O O12 0.641556 0.668785 0.402248
#
# Coordination Sequence:
#
# PCOD8149218 Si02
#       6
#     8   8   8   8   8   8
#     4  10  25  49  71  99 141 186 231 285 346 411
#     4  11  25  47  72 100 142 186 229 286 348 411
#     4  10  23  44  71 102 140 181 230 289 345 407
#     4  11  26  43  70 104 141 184 232 285 349 414
#     4  11  26  46  72 106 141 181 234 288 344 414
#     4  11  25  44  70 101 138 185 232 284 346 409
#
# _framework density 29.361844000000001
#
# number of rings (size 3 to 8) (size 9 to 14) (size 15 to 20)
#    0.000    1.333    0.000    4.000    0.000   27.333 
#    0.000    7.500    0.000    0.000    0.000    0.000 
#    0.000    0.000    0.000    0.000    0.000    0.000 
#
# Total GULP energy -297833.985387 kJ/mol
# GULP energy per Si atom -12409.749391 kJ/mol
# Density = 2.929502 g / cm^3
# Si number density = 29.361844 Si / 1000 Ang^3
#
#
#
# Elastic Constant Matrix: (Units=GPa)
#
#
# Indices 1 2 3 4 5 6 
#
# 1 150.9086 21.8941 39.1214 0.0000 19.0161 0.0000
# 2 21.8941 96.9564 47.0912 0.0000 11.1033 0.0000
# 3 39.1214 47.0912 82.9778 0.0000 30.8618 0.0000
# 4 0.0000 0.0000 0.0000 29.8141 0.0000 -2.8111
# 5 19.0161 11.1033 30.8618 0.0000 46.1865 0.0000
# 6 0.0000 0.0000 0.0000 -2.8111 0.0000 55.1168
#
#
#
# Elastic Compliance Matrix: (Units=1/GPa)
#
#
# Indices 1 2 3 4 5 6 
#
# 1 0.007582 -0.000057 -0.003176 0.000000 -0.000986 0.000000
# 2 -0.000057 0.014483 -0.009190 0.000000 0.002683 0.000000
# 3 -0.003176 -0.009190 0.023229 0.000000 -0.012005 0.000000
# 4 0.000000 0.000000 0.000000 0.033703 0.000000 0.001719
# 5 -0.000986 0.002683 -0.012005 0.000000 0.029434 0.000000
# 6 0.000000 0.000000 0.000000 0.001719 0.000000 0.018231
#
#
# Mechanical properties :
#
#
# Convention : Reuss Voigt Hill
#
# Bulk Modulus (GPa) = 48.90254 60.78402 54.84328
# Shear Modulus (GPa) = 31.58045 41.07256 36.32650
#
# Velocity S-wave (km/s) = 3.28313 3.74417 3.52120
# Velocity P-wave (km/s) = 5.57344 6.28000 5.93724
#
# Compressibility (1/GPa) = 0.02044884
#
# Stress axis : x y z
#
# Youngs Moduli (GPa) = 131.88563 69.04516 43.04886
#
# Poissons Ratio (x) = 0.00392 0.13672
# Poissons Ratio (y) = 0.00749 0.39564
# Poissons Ratio (z) = 0.41885 0.63456
#
# Static dielectric constant tensor:
#      x y z
#    x 5.839700 0.000000 0.236390 
#    y 0.000000 5.540910 0.000000 
#    z 0.236390 0.000000 5.380150 
# 
# 
# High freq. dielectric constant tensor:
#      x y z
#    x 2.231760 0.000000 0.001920 
#    y 0.000000 2.211420 0.000000 
#    z 0.001920 0.000000 2.192080 
# 
# From -- ./inp_files/197211.got.cif
#   From: 2010.06.25/outbox.cif.g09.slc.cpg/sg15_99_cif.got.tgz:197211.got - 2010.06.28 07:06:18.
