data_PCOD8149996
_publ_section_title
;
Structure prediction by ZEFSAII (Michael W. Deem and Ramdas Pophale) SiO2 
 PCOD8149996
Probable space group: C 2/C
;
_chemical_formula_sum "Si O2"
_cell_formula_units_Z 48
_cell_length_a 18.001008
_cell_length_b 5.193015
_cell_length_c 24.340040
_cell_angle_alpha 90.000000
_cell_angle_beta 117.155150
_cell_angle_gamma 90.000000
_cell_volume 2024.498017
_symmetry_space_group_name_H-M "C 2/C"
_symmetry_group_IT_number 15
_symmetry_cell_setting 'monoclinic'
loop_
_space_group_symop_operation_xyz
x,y,z
-x,y,1/2-z
-x,-y,-z
x,-y,1/2+z
1/2+x,1/2+y,z
1/2-x,1/2+y,1/2-z
1/2-x,1/2-y,-z
1/2+x,1/2-y,1/2+z
loop_
_atom_site_type_symbol
_atom_site_label
_atom_site_fract_x
_atom_site_fract_y
_atom_site_fract_z
Si Si1 0.482537 0.783461 0.685750
Si Si2 0.575646 0.688176 0.531284
Si Si3 0.336527 0.551999 0.173883
Si Si4 0.996239 0.562650 0.907373
Si Si5 0.263872 0.528548 0.369805
Si Si6 0.624728 0.534374 0.191292
O O1 0.500000 0.928414 0.750000
O O2 0.425311 0.532591 0.677825
O O3 0.572930 0.717387 0.690952
O O4 0.447933 0.964879 0.625893
O O5 0.500000 0.500000 0.500000
O O6 0.570180 0.858519 0.474258
O O7 0.659688 0.517378 0.562090
O O8 0.564659 0.855721 0.583074
O O9 0.305877 0.817886 0.136032
O O10 0.343792 0.640365 0.239746
O O11 0.271689 0.318396 0.140042
O O12 0.935062 0.784792 0.865355
O O13 0.295045 0.467865 0.318413
#
# Coordination Sequence:
#
# PCOD8149996 Si02
#       6
#     8   8   8   8   8   8
#     4  10  24  43  68 103 141 196 232 299 361 453
#     4  11  23  42  72 105 139 191 255 304 343 438
#     4  11  28  42  68 106 154 177 230 300 383 421
#     4  11  22  41  76 102 138 186 263 293 350 420
#     4  12  24  45  67 106 140 188 234 303 361 423
#     4  11  23  42  72 101 136 193 244 293 349 441
#
# _framework density 23.709581
#
# number of rings (size 3 to 8) (size 9 to 14) (size 15 to 20)
#    0.000    1.000    3.333    2.000    9.333    0.667 
#    0.000    1.667    0.000    0.000    0.000    0.000 
#    0.000    0.000    0.000    0.000    0.000    0.000 
#
# Total GULP energy -297362.871905 kJ/mol
# GULP energy per Si atom -12390.119663 kJ/mol
# Density = 2.365562 g / cm^3
# Si number density = 23.709581 Si / 1000 Ang^3
#
#
#
# Elastic Constant Matrix: (Units=GPa)
#
#
# Indices 1 2 3 4 5 6 
#
# 1 50.2011 -4.2832 14.8675 0.0003 -3.1368 -0.0004
# 2 -4.2832 52.9933 34.7359 -0.0013 -12.9757 -0.0002
# 3 14.8675 34.7359 144.3326 -0.0002 -2.9679 0.0001
# 4 0.0003 -0.0013 -0.0002 39.3299 0.0003 6.0704
# 5 -3.1368 -12.9757 -2.9679 0.0003 39.2231 -0.0002
# 6 -0.0004 -0.0002 0.0001 6.0704 -0.0002 33.5532
#
#
#
# Elastic Compliance Matrix: (Units=1/GPa)
#
#
# Indices 1 2 3 4 5 6 
#
# 1 0.021464 0.004603 -0.003257 0.000000 0.002993 0.000000
# 2 0.004603 0.025500 -0.006440 0.000001 0.008317 0.000000
# 3 -0.003257 -0.006440 0.008778 0.000000 -0.001727 0.000000
# 4 0.000000 0.000001 0.000000 0.026156 0.000000 -0.004732
# 5 0.002993 0.008317 -0.001727 0.000000 0.028355 0.000000
# 6 0.000000 0.000000 0.000000 -0.004732 0.000000 0.030660
#
#
# Mechanical properties :
#
#
# Convention : Reuss Voigt Hill
#
# Bulk Modulus (GPa) = 21.95224 37.57416 29.76320
# Shear Modulus (GPa) = 30.06843 35.90168 32.98506
#
# Velocity S-wave (km/s) = 3.56504 3.89553 3.73394
# Velocity P-wave (km/s) = 5.12103 6.00963 5.58303
#
# Compressibility (1/GPa) = 0.04555344
#
# Stress axis : x y z
#
# Youngs Moduli (GPa) = 46.58912 39.21563 113.91651
#
# Poissons Ratio (x) = -0.18050 0.37105
# Poissons Ratio (y) = -0.21443 0.73363
# Poissons Ratio (z) = 0.15175 0.25255
#
# Static dielectric constant tensor:
#      x y z
#    x 6.853760 -0.000660 -9.805460 
#    y -0.000660 4.804670 0.002470 
#    z -9.805460 0.002470 43.160380 
# 
# 
# High freq. dielectric constant tensor:
#      x y z
#    x 1.924500 0.000000 0.004430 
#    y 0.000000 1.936150 0.000000 
#    z 0.004430 0.000000 1.948090 
# 
# From -- ./inp_files/275694.got.cif
#   From: 2010.06.25/outbox.cif.g09.slc.cpg/sg15_138_cif.got.tgz:275694.got - 2010.06.28 07:06:18.
