data_PCOD8149892
_publ_section_title
;
Structure prediction by ZEFSAII (Michael W. Deem and Ramdas Pophale) SiO2 
 PCOD8149892
Probable space group: C 2/C
;
_chemical_formula_sum "Si O2"
_cell_formula_units_Z 40
_cell_length_a 21.712771
_cell_length_b 15.586710
_cell_length_c 8.325863
_cell_angle_alpha 90.000000
_cell_angle_beta 37.231882
_cell_angle_gamma 90.000000
_cell_volume 1704.844088
_symmetry_space_group_name_H-M "C 2/C"
_symmetry_group_IT_number 15
_symmetry_cell_setting 'monoclinic'
loop_
_space_group_symop_operation_xyz
x,y,z
-x,y,1/2-z
-x,-y,-z
x,-y,1/2+z
1/2+x,1/2+y,z
1/2-x,1/2+y,1/2-z
1/2-x,1/2-y,-z
1/2+x,1/2-y,1/2+z
loop_
_atom_site_type_symbol
_atom_site_label
_atom_site_fract_x
_atom_site_fract_y
_atom_site_fract_z
Si Si1 0.272752 0.341120 0.033233
Si Si2 0.621134 0.038633 0.006394
Si Si3 0.533353 0.409349 0.997936
Si Si4 0.874496 0.195335 0.660510
Si Si5 0.683814 0.880191 0.701602
O O1 0.344827 0.396991 0.765687
O O2 0.250000 0.250000 0.000000
O O3 0.168038 0.392614 0.282452
O O4 0.332737 0.332102 0.075371
O O5 0.666698 0.942673 0.888168
O O6 0.500000 0.039480 0.250000
O O7 0.654008 0.061308 0.115242
O O8 0.500000 0.396201 0.250000
O O9 0.484924 0.339957 0.976682
O O10 0.500000 0.500000 0.000000
O O11 0.888760 0.297522 0.639117
O O12 0.798635 0.156741 0.954543
#
# Coordination Sequence:
#
# PCOD8149892 Si02
#       5
#     8   8   8   8   8
#     4  11  27  44  73 106 143 193 244 304 374 438
#     4  11  25  43  66 101 142 186 239 290 361 441
#     4  12  27  47  79 109 145 194 249 309 372 448
#     4  10  24  46  71 104 147 186 245 301 366 443
#     4  10  24  42  69 100 140 189 237 294 360 437
#
# _framework density 23.462557
#
# number of rings (size 3 to 8) (size 9 to 14) (size 15 to 20)
#    0.000    1.200    0.000    3.600   14.000    4.800 
#    0.000    0.000    0.000    0.000    0.000    0.000 
#    0.000    0.000    0.000    0.000    0.000    0.000 
#
# Total GULP energy -248019.073630 kJ/mol
# GULP energy per Si atom -12400.953682 kJ/mol
# Density = 2.340916 g / cm^3
# Si number density = 23.462557 Si / 1000 Ang^3
#
#
#
# Elastic Constant Matrix: (Units=GPa)
#
#
# Indices 1 2 3 4 5 6 
#
# 1 63.6220 19.6860 20.4126 0.0000 6.6527 0.0000
# 2 19.6860 168.6682 46.2244 0.0000 -3.2610 0.0000
# 3 20.4126 46.2244 132.4585 0.0000 -10.1641 0.0000
# 4 0.0000 0.0000 0.0000 45.3231 0.0000 1.2433
# 5 6.6527 -3.2610 -10.1641 0.0000 35.8283 0.0000
# 6 0.0000 0.0000 0.0000 1.2433 0.0000 42.7235
#
#
#
# Elastic Compliance Matrix: (Units=1/GPa)
#
#
# Indices 1 2 3 4 5 6 
#
# 1 0.017384 -0.001424 -0.002494 0.000000 -0.004065 0.000000
# 2 -0.001424 0.006673 -0.002088 0.000000 0.000280 0.000000
# 3 -0.002494 -0.002088 0.008877 0.000000 0.002791 0.000000
# 4 0.000000 0.000000 0.000000 0.022081 0.000000 -0.000643
# 5 -0.004065 0.000280 0.002791 0.000000 0.029483 0.000000
# 6 0.000000 0.000000 0.000000 -0.000643 0.000000 0.023425
#
#
# Mechanical properties :
#
#
# Convention : Reuss Voigt Hill
#
# Bulk Modulus (GPa) = 47.79741 59.71051 53.75396
# Shear Modulus (GPa) = 39.39886 43.33669 41.36777
#
# Velocity S-wave (km/s) = 4.10228 4.30240 4.20353
# Velocity P-wave (km/s) = 6.54632 7.08417 6.82054
#
# Compressibility (1/GPa) = 0.02092164
#
# Stress axis : x y z
#
# Youngs Moduli (GPa) = 57.52523 149.86802 112.65618
#
# Poissons Ratio (x) = 0.21342 0.28095
# Poissons Ratio (y) = 0.08192 0.23518
# Poissons Ratio (z) = 0.14346 0.31287
#
# Static dielectric constant tensor:
#      x y z
#    x 4.293440 0.000000 0.030350 
#    y 0.000000 3.728130 0.000000 
#    z 0.030350 0.000000 4.424310 
# 
# 
# High freq. dielectric constant tensor:
#      x y z
#    x 1.922240 0.000000 0.005370 
#    y 0.000000 1.941710 0.000000 
#    z 0.005370 0.000000 1.942560 
# 
# From -- ./inp_files/37976.got.cif
#   From: 2010.06.25/outbox.cif.g09.slc.cpg/sg15_19_cif.got.tgz:37976.got - 2010.06.28 07:06:18.
