data_PCOD8149178
_publ_section_title
;
Structure prediction by ZEFSAII (Michael W. Deem and Ramdas Pophale) SiO2 
 PCOD8149178
Probable space group: C 2/C
;
_chemical_formula_sum "Si O2"
_cell_formula_units_Z 48
_cell_length_a 15.188547
_cell_length_b 13.960830
_cell_length_c 11.423148
_cell_angle_alpha 90.000000
_cell_angle_beta 65.607649
_cell_angle_gamma 90.000000
_cell_volume 2206.008147
_symmetry_space_group_name_H-M "C 2/C"
_symmetry_group_IT_number 15
_symmetry_cell_setting 'monoclinic'
loop_
_space_group_symop_operation_xyz
x,y,z
-x,y,1/2-z
-x,-y,-z
x,-y,1/2+z
1/2+x,1/2+y,z
1/2-x,1/2+y,1/2-z
1/2-x,1/2-y,-z
1/2+x,1/2-y,1/2+z
loop_
_atom_site_type_symbol
_atom_site_label
_atom_site_fract_x
_atom_site_fract_y
_atom_site_fract_z
Si Si1 0.370907 0.936815 0.735509
Si Si2 0.500000 0.105439 0.750000
Si Si3 0.497355 0.807794 0.494736
Si Si4 0.440855 0.599937 0.518813
Si Si5 0.308061 0.469059 0.263864
Si Si6 0.000000 0.060265 0.250000
Si Si7 0.692428 0.157826 0.995647
O O1 0.440210 0.880020 0.610289
O O2 0.414313 0.040267 0.743823
O O3 0.266545 0.947486 0.730094
O O4 0.360508 0.880702 0.861116
O O5 0.534990 0.171757 0.622069
O O6 0.484061 0.698519 0.547339
O O7 0.611938 0.825037 0.441369
O O8 0.500000 0.500000 0.500000
O O9 0.331764 0.591728 0.631784
O O10 0.442767 0.622470 0.378350
O O11 0.416612 0.498010 0.236422
O O12 0.269274 0.413903 0.397537
O O13 0.750000 0.250000 0.000000
#
# Coordination Sequence:
#
# PCOD8149178 Si02
#       7
#     8   4   8   8   8   4   8
#     4  12  24  46  71 106 144 183 234 293 354 420
#     4  12  23  46  73 100 152 174 229 292 351 424
#     4  12  25  45  71 106 141 189 233 290 355 421
#     4  10  24  45  67  96 139 180 234 285 345 411
#     4  11  24  43  69 102 135 186 232 292 354 415
#     4  10  23  44  69  90 138 188 231 286 357 404
#     4  12  26  40  70 105 141 180 241 284 348 418
#
# _framework density 21.758759999999999
#
# number of rings (size 3 to 8) (size 9 to 14) (size 15 to 20)
#    0.000    0.667    3.333    4.000    9.333    0.000 
#    0.000    1.667    0.000    0.000    0.000    0.000 
#    0.000    0.000    0.000    0.000    0.000    0.000 
#
# Total GULP energy -297338.126761 kJ/mol
# GULP energy per Si atom -12389.088615 kJ/mol
# Density = 2.170924 g / cm^3
# Si number density = 21.758760 Si / 1000 Ang^3
#
#
#
# Elastic Constant Matrix: (Units=GPa)
#
#
# Indices 1 2 3 4 5 6 
#
# 1 117.4593 39.5932 29.7036 0.0000 -8.2852 0.0000
# 2 39.5932 108.5028 23.5855 0.0000 1.3187 0.0000
# 3 29.7036 23.5855 155.6813 0.0000 1.2235 0.0000
# 4 0.0000 0.0000 0.0000 15.3823 0.0000 -0.4658
# 5 -8.2852 1.3187 1.2235 0.0000 30.0452 0.0000
# 6 0.0000 0.0000 0.0000 -0.4658 0.0000 34.3489
#
#
#
# Elastic Compliance Matrix: (Units=1/GPa)
#
#
# Indices 1 2 3 4 5 6 
#
# 1 0.010265 -0.003466 -0.001457 0.000000 0.003042 0.000000
# 2 -0.003466 0.010704 -0.000950 0.000000 -0.001387 0.000000
# 3 -0.001457 -0.000950 0.006850 0.000000 -0.000639 0.000000
# 4 0.000000 0.000000 0.000000 0.065036 0.000000 0.000882
# 5 0.003042 -0.001387 -0.000639 0.000000 0.034209 0.000000
# 6 0.000000 0.000000 0.000000 0.000882 0.000000 0.029125
#
#
# Mechanical properties :
#
#
# Convention : Reuss Voigt Hill
#
# Bulk Modulus (GPa) = 62.21201 63.04533 62.62867
# Shear Modulus (GPa) = 28.85277 35.20602 32.02939
#
# Velocity S-wave (km/s) = 3.64542 4.02682 3.84086
# Velocity P-wave (km/s) = 6.80974 7.11744 6.96529
#
# Compressibility (1/GPa) = 0.01607407
#
# Stress axis : x y z
#
# Youngs Moduli (GPa) = 97.41835 93.42008 145.97873
#
# Poissons Ratio (x) = 0.32379 0.21274
# Poissons Ratio (y) = 0.33765 0.13861
# Poissons Ratio (z) = 0.14197 0.08870
#
# Static dielectric constant tensor:
#      x y z
#    x 3.769310 0.000000 0.121810 
#    y 0.000000 3.954660 0.000000 
#    z 0.121810 0.000000 4.276980 
# 
# 
# High freq. dielectric constant tensor:
#      x y z
#    x 1.842860 0.000000 0.000390 
#    y 0.000000 1.845330 0.000000 
#    z 0.000390 0.000000 1.892220 
# 
# From -- ./inp_files/96899.got.cif
#   From: 2010.06.25/outbox.cif.g09.slc.cpg/sg15_49_cif.got.tgz:96899.got - 2010.06.28 07:06:18.
