data_PCOD8149838
_publ_section_title
;
Structure prediction by ZEFSAII (Michael W. Deem and Ramdas Pophale) SiO2 
 PCOD8149838
Probable space group: C 2/C
;
_chemical_formula_sum "Si O2"
_cell_formula_units_Z 40
_cell_length_a 8.249525
_cell_length_b 11.688123
_cell_length_c 19.921858
_cell_angle_alpha 90.000000
_cell_angle_beta 108.364529
_cell_angle_gamma 90.000000
_cell_volume 1823.065914
_symmetry_space_group_name_H-M "C 2/C"
_symmetry_group_IT_number 15
_symmetry_cell_setting 'monoclinic'
loop_
_space_group_symop_operation_xyz
x,y,z
-x,y,1/2-z
-x,-y,-z
x,-y,1/2+z
1/2+x,1/2+y,z
1/2-x,1/2+y,1/2-z
1/2-x,1/2-y,-z
1/2+x,1/2-y,1/2+z
loop_
_atom_site_type_symbol
_atom_site_label
_atom_site_fract_x
_atom_site_fract_y
_atom_site_fract_z
Si Si1 0.141498 0.079124 0.486236
Si Si2 0.000000 0.874368 0.250000
Si Si3 0.000000 0.203775 0.250000
Si Si4 0.927145 0.698841 0.602905
Si Si5 0.862017 0.346631 0.783292
Si Si6 0.712323 0.021450 0.623770
O O1 0.056345 0.184152 0.436148
O O2 0.264213 0.124323 0.560830
O O3 0.249375 0.003793 0.448238
O O4 0.000000 0.000000 0.500000
O O5 0.102275 0.790526 0.211317
O O6 0.118831 0.956409 0.309881
O O7 0.910037 0.277959 0.179969
O O8 0.839910 0.134614 0.262939
O O9 0.101681 0.634626 0.610584
O O10 0.887014 0.410846 0.857982
O O11 0.000000 0.404797 0.750000
#
# Coordination Sequence:
#
# PCOD8149838 Si02
#       6
#     8   4   4   8   8   8
#     4  11  28  45  69 101 143 189 242 285 358 433
#     4  10  25  39  68 108 136 186 239 299 358 424
#     4  12  21  47  74 100 146 178 239 303 360 418
#     4  11  26  46  70 101 140 189 228 306 351 422
#     4  10  24  42  66 108 141 180 235 300 359 420
#     4  12  24  44  72 100 145 189 240 293 359 430
#
# _framework density 21.941061000000001
#
# number of rings (size 3 to 8) (size 9 to 14) (size 15 to 20)
#    0.600    0.400    4.000    1.200    4.200    4.000 
#    0.000    0.000    0.000    0.000    0.000    0.000 
#    0.000    0.000    0.000    0.000    0.000    0.000 
#
# Total GULP energy -247860.282247 kJ/mol
# GULP energy per Si atom -12393.014112 kJ/mol
# Density = 2.189112 g / cm^3
# Si number density = 21.941061 Si / 1000 Ang^3
#
#
#
# Elastic Constant Matrix: (Units=GPa)
#
#
# Indices 1 2 3 4 5 6 
#
# 1 162.7564 41.0391 59.5741 0.0000 -12.1165 0.0000
# 2 41.0391 64.1211 32.2321 0.0000 2.4858 0.0000
# 3 59.5741 32.2321 137.7364 0.0000 1.8888 0.0000
# 4 0.0000 0.0000 0.0000 21.3383 0.0000 -0.3035
# 5 -12.1165 2.4858 1.8888 0.0000 42.1726 0.0000
# 6 0.0000 0.0000 0.0000 -0.3035 0.0000 33.5892
#
#
#
# Elastic Compliance Matrix: (Units=1/GPa)
#
#
# Indices 1 2 3 4 5 6 
#
# 1 0.008374 -0.004111 -0.002698 0.000000 0.002769 0.000000
# 2 -0.004111 0.019724 -0.002807 0.000000 -0.002218 0.000000
# 3 -0.002698 -0.002807 0.009098 0.000000 -0.001017 0.000000
# 4 0.000000 0.000000 0.000000 0.046870 0.000000 0.000423
# 5 0.002769 -0.002218 -0.001017 0.000000 0.024684 0.000000
# 6 0.000000 0.000000 0.000000 0.000423 0.000000 0.029775
#
#
# Mechanical properties :
#
#
# Convention : Reuss Voigt Hill
#
# Bulk Modulus (GPa) = 55.66725 70.03385 62.85055
# Shear Modulus (GPa) = 30.53511 34.87126 32.70319
#
# Velocity S-wave (km/s) = 3.73458 3.99095 3.86489
# Velocity P-wave (km/s) = 6.63494 7.29556 6.97308
#
# Compressibility (1/GPa) = 0.01796388
#
# Stress axis : x y z
#
# Youngs Moduli (GPa) = 119.41036 50.70057 109.91323
#
# Poissons Ratio (x) = 0.20843 0.29656
# Poissons Ratio (y) = 0.49089 0.30854
# Poissons Ratio (z) = 0.32218 0.14232
#
# Static dielectric constant tensor:
#      x y z
#    x 4.596940 0.000000 -0.136740 
#    y 0.000000 3.985670 0.000000 
#    z -0.136740 0.000000 4.045980 
# 
# 
# High freq. dielectric constant tensor:
#      x y z
#    x 1.873150 0.000000 -0.000720 
#    y 0.000000 1.868390 0.000000 
#    z -0.000720 0.000000 1.850910 
# 
# From -- ./inp_files/187981.got.cif
#   From: 2010.06.25/outbox.cif.g09.slc.cpg/sg15_94_cif.got.tgz:187981.got - 2010.06.28 07:06:18.
