data_PCOD8149248
_publ_section_title
;
Structure prediction by ZEFSAII (Michael W. Deem and Ramdas Pophale) SiO2 
 PCOD8149248
Probable space group: C 2/C
;
_chemical_formula_sum "Si O2"
_cell_formula_units_Z 44
_cell_length_a 11.615243
_cell_length_b 10.478820
_cell_length_c 20.291631
_cell_angle_alpha 90.000000
_cell_angle_beta 129.607957
_cell_angle_gamma 90.000000
_cell_volume 1902.776773
_symmetry_space_group_name_H-M "C 2/C"
_symmetry_group_IT_number 15
_symmetry_cell_setting 'monoclinic'
loop_
_space_group_symop_operation_xyz
x,y,z
-x,y,1/2-z
-x,-y,-z
x,-y,1/2+z
1/2+x,1/2+y,z
1/2-x,1/2+y,1/2-z
1/2-x,1/2-y,-z
1/2+x,1/2-y,1/2+z
loop_
_atom_site_type_symbol
_atom_site_label
_atom_site_fract_x
_atom_site_fract_y
_atom_site_fract_z
Si Si1 0.399950 0.279378 0.357465
Si Si2 0.304799 0.216458 0.593798
Si Si3 0.500000 0.392745 0.750000
Si Si4 0.549869 0.011215 0.409185
Si Si5 0.694822 0.637553 0.935568
Si Si6 0.239952 0.099692 0.811504
O O1 0.335108 0.273783 0.407189
O O2 0.483370 0.148925 0.364308
O O3 0.525731 0.391973 0.398395
O O4 0.271074 0.313400 0.257851
O O5 0.250000 0.250000 0.500000
O O6 0.434714 0.311505 0.665483
O O7 0.375357 0.072884 0.622220
O O8 0.636728 0.473617 0.769165
O O9 0.686529 0.022059 0.512261
O O10 0.412837 0.931387 0.388426
O O11 0.685749 0.678040 0.855726
O O12 0.750000 0.750000 0.000000
#
# Coordination Sequence:
#
# PCOD8149248 Si02
#       6
#     8   8   4   8   8   8
#     4  11  25  48  71 111 149 198 254 311 391 454
#     4  12  28  48  76 112 151 203 261 313 388 467
#     4  12  24  50  70 108 152 198 256 306 398 452
#     4  11  26  46  75 103 152 192 252 314 381 454
#     4  10  23  44  72 110 140 193 249 310 389 450
#     4  12  23  47  78  97 153 198 245 318 382 461
#
# _framework density 23.124099000000001
#
# number of rings (size 3 to 8) (size 9 to 14) (size 15 to 20)
#    0.000    0.727    3.636    2.727    5.091    0.727 
#   19.636    0.000    0.000    0.000    0.000    0.000 
#    0.000    0.000    0.000    0.000    0.000    0.000 
#
# Total GULP energy -272537.051264 kJ/mol
# GULP energy per Si atom -12388.047785 kJ/mol
# Density = 2.307147 g / cm^3
# Si number density = 23.124099 Si / 1000 Ang^3
#
#
#
# Elastic Constant Matrix: (Units=GPa)
#
#
# Indices 1 2 3 4 5 6 
#
# 1 153.0108 49.4357 73.8372 0.0000 4.7707 0.0000
# 2 49.4357 96.0214 54.9901 0.0000 -6.7302 0.0000
# 3 73.8372 54.9901 158.5896 0.0000 -15.7134 0.0000
# 4 0.0000 0.0000 0.0000 42.2933 0.0000 5.8865
# 5 4.7707 -6.7302 -15.7134 0.0000 45.5721 0.0000
# 6 0.0000 0.0000 0.0000 5.8865 0.0000 37.8458
#
#
#
# Elastic Compliance Matrix: (Units=1/GPa)
#
#
# Indices 1 2 3 4 5 6 
#
# 1 0.009284 -0.002919 -0.003571 0.000000 -0.002634 0.000000
# 2 -0.002919 0.013919 -0.003348 0.000000 0.001207 0.000000
# 3 -0.003571 -0.003348 0.009440 0.000000 0.003134 0.000000
# 4 0.000000 0.000000 0.000000 0.024168 0.000000 -0.003759
# 5 -0.002634 0.001207 0.003134 0.000000 0.023478 0.000000
# 6 0.000000 0.000000 0.000000 -0.003759 0.000000 0.027008
#
#
# Mechanical properties :
#
#
# Convention : Reuss Voigt Hill
#
# Bulk Modulus (GPa) = 77.12218 84.90529 81.01373
# Shear Modulus (GPa) = 38.08222 40.43283 39.25752
#
# Velocity S-wave (km/s) = 4.06256 4.18606 4.12477
# Velocity P-wave (km/s) = 7.44511 7.75636 7.60233
#
# Compressibility (1/GPa) = 0.01296644
#
# Stress axis : x y z
#
# Youngs Moduli (GPa) = 107.70961 71.84421 105.93561
#
# Poissons Ratio (x) = 0.20973 0.37834
# Poissons Ratio (y) = 0.31443 0.35463
# Poissons Ratio (z) = 0.38467 0.24050
#
# Static dielectric constant tensor:
#      x y z
#    x 4.481250 0.000000 0.774850 
#    y 0.000000 4.372760 0.000000 
#    z 0.774850 0.000000 4.923900 
# 
# 
# High freq. dielectric constant tensor:
#      x y z
#    x 1.919350 0.000000 0.025800 
#    y 0.000000 1.900830 0.000000 
#    z 0.025800 0.000000 1.928130 
# 
# From -- ./inp_files/237310.got.cif
#   From: 2010.06.25/outbox.cif.g09.slc.cpg/sg15_119_cif.got.tgz:237310.got - 2010.06.28 07:06:18.
