data_PCOD8149547
_publ_section_title
;
Structure prediction by ZEFSAII (Michael W. Deem and Ramdas Pophale) SiO2 
 PCOD8149547
Probable space group: C 2/C
;
_chemical_formula_sum "Si O2"
_cell_formula_units_Z 44
_cell_length_a 25.905725
_cell_length_b 11.857238
_cell_length_c 9.056728
_cell_angle_alpha 90.000000
_cell_angle_beta 117.604472
_cell_angle_gamma 90.000000
_cell_volume 2465.280781
_symmetry_space_group_name_H-M "C 2/C"
_symmetry_group_IT_number 15
_symmetry_cell_setting 'monoclinic'
loop_
_space_group_symop_operation_xyz
x,y,z
-x,y,1/2-z
-x,-y,-z
x,-y,1/2+z
1/2+x,1/2+y,z
1/2-x,1/2+y,1/2-z
1/2-x,1/2-y,-z
1/2+x,1/2-y,1/2+z
loop_
_atom_site_type_symbol
_atom_site_label
_atom_site_fract_x
_atom_site_fract_y
_atom_site_fract_z
Si Si1 0.831756 0.280597 0.409254
Si Si2 0.578325 0.073719 0.604996
Si Si3 0.204974 0.945563 0.527228
Si Si4 0.000000 0.493174 0.250000
Si Si5 0.203263 0.850736 0.206323
Si Si6 0.834344 0.376202 0.732198
O O1 0.880026 0.317243 0.353426
O O2 0.835851 0.147686 0.448102
O O3 0.768250 0.307732 0.262309
O O4 0.843871 0.352207 0.572726
O O5 0.545141 0.084367 0.717516
O O6 0.532649 0.073715 0.409839
O O7 0.615688 0.958506 0.643817
O O8 0.201337 0.930295 0.347787
O O9 0.271285 0.932312 0.672017
O O10 0.182822 0.070701 0.542763
O O11 0.162037 0.741491 0.171164
#
# Coordination Sequence:
#
# PCOD8149547 Si02
#       6
#     8   8   8   4   8   8
#     4   9  17  30  50  67 103 135 154 190 247 286
#     4  11  18  36  48  74  96 128 162 207 248 274
#     4   9  17  30  46  74 100 134 161 181 228 311
#     4  10  24  30  52  70  94 122 178 208 240 286
#     4   9  17  30  46  74 100 134 161 181 228 311
#     4   9  17  30  50  67 103 135 154 190 247 286
#
# _framework density 17.847867000000001
#
# number of rings (size 3 to 8) (size 9 to 14) (size 15 to 20)
#    0.000    2.545    3.636    2.182    0.000    0.000 
#    3.273    1.818    0.000    0.000    0.000    7.636 
#    0.000    0.000    0.000    0.000    0.000    0.000 
#
# Total GULP energy -272705.722091 kJ/mol
# GULP energy per Si atom -12395.714640 kJ/mol
# Density = 1.780724 g / cm^3
# Si number density = 17.847867 Si / 1000 Ang^3
#
#
#
# Elastic Constant Matrix: (Units=GPa)
#
#
# Indices 1 2 3 4 5 6 
#
# 1 100.4481 23.3929 14.0389 0.0000 -18.3971 0.0000
# 2 23.3929 44.4037 -0.2443 0.0000 -1.5047 0.0000
# 3 14.0389 -0.2443 34.4079 0.0000 -0.2911 0.0000
# 4 0.0000 0.0000 0.0000 25.5506 0.0000 -7.7818
# 5 -18.3971 -1.5047 -0.2911 0.0000 23.5473 0.0000
# 6 0.0000 0.0000 0.0000 -7.7818 0.0000 23.0979
#
#
#
# Elastic Compliance Matrix: (Units=1/GPa)
#
#
# Indices 1 2 3 4 5 6 
#
# 1 0.014434 -0.007272 -0.005850 0.000000 0.010740 0.000000
# 2 -0.007272 0.026235 0.003120 0.000000 -0.003967 0.000000
# 3 -0.005850 0.003120 0.031438 0.000000 -0.003982 0.000000
# 4 0.000000 0.000000 0.000000 0.043613 0.000000 0.014693
# 5 0.010740 -0.003967 -0.003982 0.000000 0.050556 0.000000
# 6 0.000000 0.000000 0.000000 0.014693 0.000000 0.048244
#
#
# Mechanical properties :
#
#
# Convention : Reuss Voigt Hill
#
# Bulk Modulus (GPa) = 19.19309 28.18163 23.68736
# Shear Modulus (GPa) = 19.84984 23.91065 21.88024
#
# Velocity S-wave (km/s) = 3.33854 3.66415 3.50513
# Velocity P-wave (km/s) = 5.06341 5.80737 5.44811
#
# Compressibility (1/GPa) = 0.05210210
#
# Stress axis : x y z
#
# Youngs Moduli (GPa) = 69.28313 38.11772 31.80830
#
# Poissons Ratio (x) = 0.27720 0.18607
# Poissons Ratio (y) = 0.50384 -0.09924
# Poissons Ratio (z) = 0.40529 -0.11892
#
# Static dielectric constant tensor:
#      x y z
#    x 3.307590 0.000000 -0.169970 
#    y 0.000000 3.183170 0.000000 
#    z -0.169970 0.000000 3.069920 
# 
# 
# High freq. dielectric constant tensor:
#      x y z
#    x 1.672090 0.000000 -0.020970 
#    y 0.000000 1.673670 0.000000 
#    z -0.020970 0.000000 1.672520 
# 
# From -- ./inp_files/54426.got.cif
#   From: 2010.06.25/outbox.cif.g09.slc.cpg/sg15_28_cif.got.tgz:54426.got - 2010.06.28 07:06:18.
