data_PCOD8149157
_publ_section_title
;
Structure prediction by ZEFSAII (Michael W. Deem and Ramdas Pophale) SiO2 
 PCOD8149157
Probable space group: C 2/C
;
_chemical_formula_sum "Si O2"
_cell_formula_units_Z 52
_cell_length_a 27.596266
_cell_length_b 8.926711
_cell_length_c 13.810956
_cell_angle_alpha 90.000000
_cell_angle_beta 44.792992
_cell_angle_gamma 90.000000
_cell_volume 2397.042669
_symmetry_space_group_name_H-M "C 2/C"
_symmetry_group_IT_number 15
_symmetry_cell_setting 'monoclinic'
loop_
_space_group_symop_operation_xyz
x,y,z
-x,y,1/2-z
-x,-y,-z
x,-y,1/2+z
1/2+x,1/2+y,z
1/2-x,1/2+y,1/2-z
1/2-x,1/2-y,-z
1/2+x,1/2-y,1/2+z
loop_
_atom_site_type_symbol
_atom_site_label
_atom_site_fract_x
_atom_site_fract_y
_atom_site_fract_z
Si Si1 0.345031 0.320368 0.695536
Si Si2 0.389871 0.901454 0.282094
Si Si3 0.500000 0.277148 0.750000
Si Si4 0.799691 0.783366 0.560837
Si Si5 0.256503 0.492637 0.463120
Si Si6 0.441521 0.196207 0.268593
Si Si7 0.973007 0.968469 0.434389
O O1 0.386467 0.179273 0.682354
O O2 0.288004 0.280377 0.694590
O O3 0.315154 0.406919 0.830486
O O4 0.395518 0.414376 0.555649
O O5 0.438393 0.820139 0.291440
O O6 0.312971 0.910213 0.435020
O O7 0.417364 0.071744 0.224358
O O8 0.531064 0.381747 0.622602
O O9 0.748730 0.656249 0.593807
O O10 0.779394 0.942141 0.539165
O O11 0.878115 0.742376 0.425515
O O12 0.500000 0.115577 0.250000
O O13 0.473610 0.347585 0.182213
O O14 0.000000 0.000000 0.500000
#
# Coordination Sequence:
#
# PCOD8149157 Si02
#       7
#     8   8   4   8   8   8   8
#     4  12  24  40  69 100 132 180 232 273 346 411
#     4  11  26  44  69 100 141 175 228 288 345 403
#     4  12  24  44  68 104 140 174 226 286 344 400
#     4  10  23  44  68  95 133 185 230 274 341 412
#     4  10  25  46  67  95 138 180 225 285 341 401
#     4  11  21  45  68  96 139 180 220 286 347 400
#     4  12  24  41  67 100 134 179 226 277 336 414
#
# _framework density 21.693397999999998
#
# number of rings (size 3 to 8) (size 9 to 14) (size 15 to 20)
#    0.000    0.923    4.615    1.385    4.308    1.846 
#    5.538    0.000    0.000    0.000    0.000    0.000 
#    0.000    0.000    0.000    0.000    0.000    0.000 
#
# Total GULP energy -322275.799342 kJ/mol
# GULP energy per Si atom -12395.223052 kJ/mol
# Density = 2.164402 g / cm^3
# Si number density = 21.693398 Si / 1000 Ang^3
#
#
#
# Elastic Constant Matrix: (Units=GPa)
#
#
# Indices 1 2 3 4 5 6 
#
# 1 142.8597 52.2598 23.3474 0.0000 23.5681 0.0000
# 2 52.2598 97.7026 32.2606 0.0002 1.8929 0.0000
# 3 23.3474 32.2606 49.4637 0.0000 -2.7647 0.0000
# 4 0.0000 0.0002 0.0000 21.8210 0.0000 -0.6350
# 5 23.5681 1.8929 -2.7647 0.0000 39.1543 0.0000
# 6 0.0000 0.0000 0.0000 -0.6350 0.0000 32.9098
#
#
#
# Elastic Compliance Matrix: (Units=1/GPa)
#
#
# Indices 1 2 3 4 5 6 
#
# 1 0.009978 -0.004534 -0.002084 0.000000 -0.005934 0.000000
# 2 -0.004534 0.015164 -0.007669 0.000000 0.001454 0.000000
# 3 -0.002084 -0.007669 0.026397 0.000000 0.003489 0.000000
# 4 0.000000 0.000000 0.000000 0.045853 0.000000 0.000885
# 5 -0.005934 0.001454 0.003489 0.000000 0.029288 0.000000
# 6 0.000000 0.000000 0.000000 0.000885 0.000000 0.030403
#
#
# Mechanical properties :
#
#
# Convention : Reuss Voigt Hill
#
# Bulk Modulus (GPa) = 43.54375 56.19571 49.86973
# Shear Modulus (GPa) = 25.86472 30.92091 28.39282
#
# Velocity S-wave (km/s) = 3.45669 3.77949 3.62169
# Velocity P-wave (km/s) = 6.00396 6.70871 6.36610
#
# Compressibility (1/GPa) = 0.02296541
#
# Stress axis : x y z
#
# Youngs Moduli (GPa) = 100.22006 65.94439 37.88241
#
# Poissons Ratio (x) = 0.29899 0.07896
# Poissons Ratio (y) = 0.45439 0.29052
# Poissons Ratio (z) = 0.20890 0.50572
#
# Static dielectric constant tensor:
#      x y z
#    x 4.227810 0.000000 -0.032990 
#    y 0.000000 5.046520 0.000000 
#    z -0.032990 0.000000 3.652380 
# 
# 
# High freq. dielectric constant tensor:
#      x y z
#    x 1.871890 0.000000 -0.005610 
#    y 0.000000 1.858960 0.000000 
#    z -0.005610 0.000000 1.833990 
# 
# From -- ./inp_files/181056.got.cif
#   From: 2010.06.25/outbox.cif.g09.slc.cpg/sg15_91_cif.got.tgz:181056.got - 2010.06.28 07:06:18.
