data_PCOD8149727
_publ_section_title
;
Structure prediction by ZEFSAII (Michael W. Deem and Ramdas Pophale) SiO2 
 PCOD8149727
Probable space group: C 2/C
;
_chemical_formula_sum "Si O2"
_cell_formula_units_Z 64
_cell_length_a 13.855152
_cell_length_b 25.614334
_cell_length_c 11.623718
_cell_angle_alpha 90.000000
_cell_angle_beta 133.615647
_cell_angle_gamma 90.000000
_cell_volume 2986.538375
_symmetry_space_group_name_H-M "C 2/C"
_symmetry_group_IT_number 15
_symmetry_cell_setting 'monoclinic'
loop_
_space_group_symop_operation_xyz
x,y,z
-x,y,1/2-z
-x,-y,-z
x,-y,1/2+z
1/2+x,1/2+y,z
1/2-x,1/2+y,1/2-z
1/2-x,1/2-y,-z
1/2+x,1/2-y,1/2+z
loop_
_atom_site_type_symbol
_atom_site_label
_atom_site_fract_x
_atom_site_fract_y
_atom_site_fract_z
Si Si1 0.588630 0.627598 0.078935
Si Si2 0.668626 0.562750 0.704003
Si Si3 0.153873 0.437542 0.356408
Si Si4 0.863563 0.245498 0.686950
Si Si5 0.274634 0.720382 0.206679
Si Si6 0.856622 0.870173 0.127795
Si Si7 0.651085 0.816276 0.370495
Si Si8 0.369505 0.542704 0.214652
O O1 0.596184 0.686091 0.143196
O O2 0.667530 0.588611 0.227075
O O3 0.439572 0.603418 0.941489
O O4 0.678906 0.633381 0.036246
O O5 0.785232 0.543260 0.714680
O O6 0.737135 0.592582 0.870631
O O7 0.597237 0.510193 0.689348
O O8 0.173747 0.375960 0.360096
O O9 0.239948 0.463597 0.528029
O O10 0.000000 0.453503 0.250000
O O11 0.750000 0.250000 0.500000
O O12 0.832159 0.276423 0.777865
O O13 0.879238 0.183554 0.717198
O O14 0.000000 0.270326 0.750000
O O15 0.299082 0.780399 0.193412
O O16 0.217772 0.692360 0.048217
O O17 0.000000 0.899410 0.250000
O O18 0.500000 0.799902 0.250000
O O19 0.500000 0.559032 0.250000
#
# Coordination Sequence:
#
# PCOD8149727 Si02
#       8
#     8   8   8   8   8   8   8   8
#     4  11  21  39  65 101 131 161 219 290 331 397
#     4  11  24  41  72  97 130 172 222 285 334 402
#     4  11  25  46  64  95 140 176 218 272 339 404
#     4  11  23  40  62  94 135 179 221 272 329 403
#     4  11  23  40  65  97 132 177 228 279 340 399
#     4   9  20  37  61  95 128 167 220 273 336 390
#     4  10  24  41  63  93 130 180 228 276 329 407
#     4  12  24  42  73 101 127 169 225 285 343 390
#
# _framework density 21.429492
#
# number of rings (size 3 to 8) (size 9 to 14) (size 15 to 20)
#    0.000    1.250    3.750    2.250    3.500    3.000 
#    0.000    0.000    0.000    0.000    0.000    0.000 
#    0.000    0.000    0.000    0.000    0.000    0.000 
#
# Total GULP energy -396421.937834 kJ/mol
# GULP energy per Si atom -12388.185557 kJ/mol
# Density = 2.138072 g / cm^3
# Si number density = 21.429492 Si / 1000 Ang^3
#
#
#
# Elastic Constant Matrix: (Units=GPa)
#
#
# Indices 1 2 3 4 5 6 
#
# 1 106.2390 25.4671 52.6456 0.0000 -10.8396 0.0000
# 2 25.4671 69.0141 21.7174 0.0000 -8.5441 0.0000
# 3 52.6456 21.7174 98.6601 0.0000 -3.3458 0.0000
# 4 0.0000 0.0000 0.0000 39.1696 0.0000 -11.4262
# 5 -10.8396 -8.5441 -3.3458 0.0000 37.9720 0.0000
# 6 0.0000 0.0000 0.0000 -11.4262 0.0000 30.3827
#
#
#
# Elastic Compliance Matrix: (Units=1/GPa)
#
#
# Indices 1 2 3 4 5 6 
#
# 1 0.013573 -0.002603 -0.006578 0.000000 0.002709 0.000000
# 2 -0.002603 0.016468 -0.002142 0.000000 0.002774 0.000000
# 3 -0.006578 -0.002142 0.014079 0.000000 -0.001119 0.000000
# 4 0.000000 0.000000 0.000000 0.028676 0.000000 0.010784
# 5 0.002709 0.002774 -0.001119 0.000000 0.027634 0.000000
# 6 0.000000 0.000000 0.000000 0.010784 0.000000 0.036969
#
#
# Mechanical properties :
#
#
# Convention : Reuss Voigt Hill
#
# Bulk Modulus (GPa) = 46.56702 52.61927 49.59314
# Shear Modulus (GPa) = 29.90398 33.11041 31.50720
#
# Velocity S-wave (km/s) = 3.73964 3.93502 3.83857
# Velocity P-wave (km/s) = 6.35799 6.72709 6.54514
#
# Compressibility (1/GPa) = 0.02147443
#
# Stress axis : x y z
#
# Youngs Moduli (GPa) = 73.67784 60.72466 71.02721
#
# Poissons Ratio (x) = 0.15808 0.46718
# Poissons Ratio (y) = 0.19180 0.15212
# Poissons Ratio (z) = 0.48462 0.13006
#
# Static dielectric constant tensor:
#      x y z
#    x 4.613010 0.000000 -0.348980 
#    y 0.000000 5.601180 0.000000 
#    z -0.348980 0.000000 3.897870 
# 
# 
# High freq. dielectric constant tensor:
#      x y z
#    x 1.837090 0.000000 -0.031800 
#    y 0.000000 1.842480 0.000000 
#    z -0.031800 0.000000 1.829090 
# 
# From -- ./inp_files/101351.got.cif
#   From: 2010.06.25/outbox.cif.g09.slc.cpg/sg15_51_cif.got.tgz:101351.got - 2010.06.28 07:06:18.
