data_PCOD8149956
_publ_section_title
;
Structure prediction by ZEFSAII (Michael W. Deem and Ramdas Pophale) SiO2 
 PCOD8149956
Probable space group: C 2/C
;
_chemical_formula_sum "Si O2"
_cell_formula_units_Z 64
_cell_length_a 17.678180
_cell_length_b 28.001644
_cell_length_c 8.640381
_cell_angle_alpha 90.000000
_cell_angle_beta 44.765112
_cell_angle_gamma 90.000000
_cell_volume 3011.974132
_symmetry_space_group_name_H-M "C 2/C"
_symmetry_group_IT_number 15
_symmetry_cell_setting 'monoclinic'
loop_
_space_group_symop_operation_xyz
x,y,z
-x,y,1/2-z
-x,-y,-z
x,-y,1/2+z
1/2+x,1/2+y,z
1/2-x,1/2+y,1/2-z
1/2-x,1/2-y,-z
1/2+x,1/2-y,1/2+z
loop_
_atom_site_type_symbol
_atom_site_label
_atom_site_fract_x
_atom_site_fract_y
_atom_site_fract_z
Si Si1 0.636398 0.264858 0.226166
Si Si2 0.287415 0.939495 0.878394
Si Si3 0.266047 0.710765 0.610546
Si Si4 0.988616 0.587314 0.586654
Si Si5 0.606778 0.632138 0.679578
Si Si6 0.781400 0.460748 0.248472
Si Si7 0.620533 0.617509 0.022955
Si Si8 0.035511 0.318240 0.539270
O O1 0.644140 0.272424 0.399067
O O2 0.608533 0.310676 0.160634
O O3 0.544789 0.225781 0.349109
O O4 0.750000 0.250000 0.000000
O O5 0.405632 0.924427 0.661022
O O6 0.253058 0.984614 0.825217
O O7 0.207644 0.895300 0.955760
O O8 0.285257 0.953465 0.060264
O O9 0.250000 0.750000 0.500000
O O10 0.316082 0.660422 0.478825
O O11 0.155804 0.702573 0.865451
O O12 0.000000 0.575661 0.750000
O O13 0.894534 0.554486 0.657185
O O14 0.968201 0.644049 0.595101
O O15 0.500000 0.612444 0.750000
O O16 0.613769 0.622971 0.850229
O O17 0.687483 0.429854 0.464396
O O18 0.500000 0.611747 0.250000
O O19 0.000000 0.345363 0.750000
#
# Coordination Sequence:
#
# PCOD8149956 Si02
#       8
#     8   8   8   8   8   8   8   8
#     4  11  23  40  65  94 127 178 228 265 336 396
#     4  11  24  44  72  98 135 180 218 284 337 408
#     4  11  26  41  64  97 134 175 223 280 337 394
#     4  12  26  42  67 103 139 176 225 278 338 401
#     4  10  24  43  65  95 129 172 229 274 333 398
#     4  11  23  45  69  99 134 172 229 272 345 404
#     4  10  24  44  66  92 132 176 216 281 341 398
#     4  12  24  43  68  95 137 182 224 276 334 399
#
# _framework density 21.248522999999999
#
# number of rings (size 3 to 8) (size 9 to 14) (size 15 to 20)
#    0.000    1.000    2.500    3.375    7.000    2.500 
#    0.000    2.500    0.000    0.000    0.000    0.000 
#    0.000    0.000    0.000    0.000    0.000    0.000 
#
# Total GULP energy -396682.669324 kJ/mol
# GULP energy per Si atom -12396.333416 kJ/mol
# Density = 2.120016 g / cm^3
# Si number density = 21.248523 Si / 1000 Ang^3
#
#
#
# Elastic Constant Matrix: (Units=GPa)
#
#
# Indices 1 2 3 4 5 6 
#
# 1 88.5700 31.3095 24.1527 0.0000 -11.3910 0.0000
# 2 31.3095 113.5759 24.4802 0.0000 -10.1518 0.0000
# 3 24.1527 24.4802 109.9377 0.0000 -24.7814 0.0000
# 4 0.0000 0.0000 0.0000 29.6149 0.0000 -1.9543
# 5 -11.3910 -10.1518 -24.7814 0.0000 41.1849 0.0000
# 6 0.0000 0.0000 0.0000 -1.9543 0.0000 26.5408
#
#
#
# Elastic Compliance Matrix: (Units=1/GPa)
#
#
# Indices 1 2 3 4 5 6 
#
# 1 0.013092 -0.003063 -0.001791 0.000000 0.001788 0.000000
# 2 -0.003063 0.010017 -0.001379 0.000000 0.000792 0.000000
# 3 -0.001791 -0.001379 0.011116 0.000000 0.005853 0.000000
# 4 0.000000 0.000000 0.000000 0.033932 0.000000 0.002499
# 5 0.001788 0.000792 0.005853 0.000000 0.028493 0.000000
# 6 0.000000 0.000000 0.000000 0.002499 0.000000 0.037862
#
#
# Mechanical properties :
#
#
# Convention : Reuss Voigt Hill
#
# Bulk Modulus (GPa) = 45.95893 52.44091 49.19992
# Shear Modulus (GPa) = 32.41908 34.94420 33.68164
#
# Velocity S-wave (km/s) = 3.91027 4.05970 3.98569
# Velocity P-wave (km/s) = 6.48561 6.83434 6.66226
#
# Compressibility (1/GPa) = 0.02175856
#
# Stress axis : x y z
#
# Youngs Moduli (GPa) = 76.38426 99.82885 89.96011
#
# Poissons Ratio (x) = 0.30579 0.16112
# Poissons Ratio (y) = 0.23397 0.12406
# Poissons Ratio (z) = 0.13680 0.13767
#
# Static dielectric constant tensor:
#      x y z
#    x 4.082790 0.000000 0.046220 
#    y 0.000000 4.095130 0.000000 
#    z 0.046220 0.000000 3.625540 
# 
# 
# High freq. dielectric constant tensor:
#      x y z
#    x 1.839930 0.000000 -0.009710 
#    y 0.000000 1.843090 0.000000 
#    z -0.009710 0.000000 1.835520 
# 
# From -- ./inp_files/52829.got.cif
#   From: 2010.06.25/outbox.cif.g09.slc.cpg/sg15_27_cif.got.tgz:52829.got - 2010.06.28 07:06:18.
