data_PCOD8149266
_publ_section_title
;
Structure prediction by ZEFSAII (Michael W. Deem and Ramdas Pophale) SiO2 
 PCOD8149266
Probable space group: C 2/C
;
_chemical_formula_sum "Si O2"
_cell_formula_units_Z 40
_cell_length_a 10.611843
_cell_length_b 14.935492
_cell_length_c 11.392592
_cell_angle_alpha 90.000000
_cell_angle_beta 106.374345
_cell_angle_gamma 90.000000
_cell_volume 1732.410674
_symmetry_space_group_name_H-M "C 2/C"
_symmetry_group_IT_number 15
_symmetry_cell_setting 'monoclinic'
loop_
_space_group_symop_operation_xyz
x,y,z
-x,y,1/2-z
-x,-y,-z
x,-y,1/2+z
1/2+x,1/2+y,z
1/2-x,1/2+y,1/2-z
1/2-x,1/2-y,-z
1/2+x,1/2-y,1/2+z
loop_
_atom_site_type_symbol
_atom_site_label
_atom_site_fract_x
_atom_site_fract_y
_atom_site_fract_z
Si Si1 0.145954 0.307607 0.816596
Si Si2 0.737973 0.626651 0.916053
Si Si3 0.360270 0.461752 0.503082
Si Si4 0.358223 0.103889 0.709858
Si Si5 0.358779 0.697573 0.168359
O O1 0.133488 0.204516 0.858092
O O2 0.241743 0.322041 0.730361
O O3 0.000000 0.341618 0.750000
O O4 0.200522 0.363605 0.939441
O O5 0.844219 0.631125 0.841971
O O6 0.676077 0.527919 0.899857
O O7 0.500000 0.500000 0.500000
O O8 0.255508 0.462340 0.367176
O O9 0.348289 0.360346 0.546600
O O10 0.500000 0.054928 0.750000
O O11 0.361774 0.196987 0.636436
O O12 0.500000 0.665914 0.250000
#
# Coordination Sequence:
#
# PCOD8149266 Si02
#       5
#     8   8   8   8   8
#     4  10  23  44  73  98 138 192 237 291 355 431
#     4  10  25  43  66 104 139 180 241 292 355 426
#     4  12  27  41  73 105 143 183 240 302 356 417
#     4  10  25  47  68  99 144 191 235 291 359 439
#     4  10  23  45  70 101 144 188 235 288 364 430
#
# _framework density 23.089214999999999
#
# number of rings (size 3 to 8) (size 9 to 14) (size 15 to 20)
#    0.000    1.600    0.000    1.800   14.000    3.200 
#    0.000    0.000    0.000    0.000    0.000    0.000 
#    0.000    0.000    0.000    0.000    0.000    0.000 
#
# Total GULP energy -247808.934140 kJ/mol
# GULP energy per Si atom -12390.446707 kJ/mol
# Density = 2.303666 g / cm^3
# Si number density = 23.089215 Si / 1000 Ang^3
#
#
#
# Elastic Constant Matrix: (Units=GPa)
#
#
# Indices 1 2 3 4 5 6 
#
# 1 169.7384 32.4051 55.8777 0.0000 21.6591 0.0000
# 2 32.4051 83.9942 22.3502 0.0000 -5.2336 0.0000
# 3 55.8777 22.3502 90.1689 0.0000 6.4052 0.0000
# 4 0.0000 0.0000 0.0000 28.5218 0.0000 -6.2783
# 5 21.6591 -5.2336 6.4052 0.0000 30.3855 0.0000
# 6 0.0000 0.0000 0.0000 -6.2783 0.0000 27.4407
#
#
#
# Elastic Compliance Matrix: (Units=1/GPa)
#
#
# Indices 1 2 3 4 5 6 
#
# 1 0.008473 -0.002489 -0.004238 0.000000 -0.005575 0.000000
# 2 -0.002489 0.013735 -0.002189 0.000000 0.004601 0.000000
# 3 -0.004238 -0.002189 0.014285 0.000000 -0.000368 0.000000
# 4 0.000000 0.000000 0.000000 0.036920 0.000000 0.008447
# 5 -0.005575 0.004601 -0.000368 0.000000 0.037754 0.000000
# 6 0.000000 0.000000 0.000000 0.008447 0.000000 0.038375
#
#
# Mechanical properties :
#
#
# Convention : Reuss Voigt Hill
#
# Bulk Modulus (GPa) = 53.58494 62.79638 58.19066
# Shear Modulus (GPa) = 28.80277 32.82084 30.81180
#
# Velocity S-wave (km/s) = 3.53577 3.77434 3.65700
# Velocity P-wave (km/s) = 6.31878 6.80077 6.56420
#
# Compressibility (1/GPa) = 0.01866196
#
# Stress axis : x y z
#
# Youngs Moduli (GPa) = 118.02203 72.80736 70.00244
#
# Poissons Ratio (x) = 0.18119 0.29666
# Poissons Ratio (y) = 0.29371 0.15324
# Poissons Ratio (z) = 0.50016 0.15938
#
# Static dielectric constant tensor:
#      x y z
#    x 4.121660 0.000000 -0.042030 
#    y 0.000000 4.298220 0.000000 
#    z -0.042030 0.000000 4.091670 
# 
# 
# High freq. dielectric constant tensor:
#      x y z
#    x 1.910710 0.000000 0.001210 
#    y 0.000000 1.917040 0.000000 
#    z 0.001210 0.000000 1.908670 
# 
# From -- ./inp_files/85943.got.cif
#   From: 2010.06.25/outbox.cif.g09.slc.cpg/sg15_43_cif.got.tgz:85943.got - 2010.06.28 07:06:18.
