data_PCOD8149779
_publ_section_title
;
Structure prediction by ZEFSAII (Michael W. Deem and Ramdas Pophale) SiO2 
 PCOD8149779
Probable space group: C 2/C
;
_chemical_formula_sum "Si O2"
_cell_formula_units_Z 56
_cell_length_a 19.610134
_cell_length_b 21.039370
_cell_length_c 8.275743
_cell_angle_alpha 90.000000
_cell_angle_beta 49.696528
_cell_angle_gamma 90.000000
_cell_volume 2603.956232
_symmetry_space_group_name_H-M "C 2/C"
_symmetry_group_IT_number 15
_symmetry_cell_setting 'monoclinic'
loop_
_space_group_symop_operation_xyz
x,y,z
-x,y,1/2-z
-x,-y,-z
x,-y,1/2+z
1/2+x,1/2+y,z
1/2-x,1/2+y,1/2-z
1/2-x,1/2-y,-z
1/2+x,1/2-y,1/2+z
loop_
_atom_site_type_symbol
_atom_site_label
_atom_site_fract_x
_atom_site_fract_y
_atom_site_fract_z
Si Si1 0.000000 0.479125 0.250000
Si Si2 0.886160 0.829596 0.183872
Si Si3 0.223902 0.127718 0.359935
Si Si4 0.566249 0.408025 0.894223
Si Si5 0.108209 0.570906 0.298849
Si Si6 0.100612 0.704440 0.140000
Si Si7 0.244073 0.238626 0.819171
Si Si8 0.500000 0.506108 0.250000
O O1 0.917971 0.521106 0.302493
O O2 0.964347 0.434412 0.447297
O O3 0.832059 0.876162 0.386856
O O4 0.878865 0.761854 0.276103
O O5 0.834727 0.814215 0.093776
O O6 0.986201 0.856108 0.008492
O O7 0.159120 0.123587 0.302520
O O8 0.293160 0.067815 0.268676
O O9 0.273672 0.195125 0.251299
O O10 0.573568 0.445683 0.714533
O O11 0.550665 0.463194 0.047004
O O12 0.113072 0.639106 0.212048
O O13 0.000000 0.712353 0.250000
O O14 0.163444 0.707386 0.885545
O O15 0.250000 0.250000 0.000000
#
# Coordination Sequence:
#
# PCOD8149779 Si02
#       8
#     4   8   8   8   8   8   8   4
#     4  10  26  44  64  94 132 178 240 290 352 404
#     4  11  20  42  66  95 135 171 211 274 352 414
#     4  11  21  42  67  95 128 175 221 275 347 418
#     4  11  23  42  66  95 133 178 226 276 339 411
#     4  11  22  45  65  92 131 176 230 292 340 419
#     4  11  21  41  69  92 130 178 218 272 357 413
#     4  11  24  39  63 106 137 164 223 285 349 427
#     4  10  24  42  60  90 130 180 228 274 318 404
#
# _framework density 21.505737
#
# number of rings (size 3 to 8) (size 9 to 14) (size 15 to 20)
#    0.000    1.143    5.000    2.571    2.000    2.286 
#    0.000    0.000    0.000    0.000    0.000    0.000 
#    0.000    0.000    0.000    0.000    0.000    0.000 
#
# Total GULP energy -346876.923448 kJ/mol
# GULP energy per Si atom -12388.461552 kJ/mol
# Density = 2.145679 g / cm^3
# Si number density = 21.505737 Si / 1000 Ang^3
#
#
#
# Elastic Constant Matrix: (Units=GPa)
#
#
# Indices 1 2 3 4 5 6 
#
# 1 155.9066 37.9191 42.8073 0.0000 -12.3314 0.0000
# 2 37.9191 81.1750 42.8509 0.0000 -3.1256 0.0000
# 3 42.8073 42.8509 72.5993 0.0000 2.4719 0.0000
# 4 0.0000 0.0000 0.0000 27.0522 0.0000 -2.9440
# 5 -12.3314 -3.1256 2.4719 0.0000 40.4387 0.0000
# 6 0.0000 0.0000 0.0000 -2.9440 0.0000 28.2527
#
#
#
# Elastic Compliance Matrix: (Units=1/GPa)
#
#
# Indices 1 2 3 4 5 6 
#
# 1 0.008082 -0.001618 -0.003898 0.000000 0.002578 0.000000
# 2 -0.001618 0.018387 -0.009951 0.000000 0.001536 0.000000
# 3 -0.003898 -0.009951 0.022058 0.000000 -0.003306 0.000000
# 4 0.000000 0.000000 0.000000 0.037390 0.000000 0.003896
# 5 0.002578 0.001536 -0.003306 0.000000 0.025836 0.000000
# 6 0.000000 0.000000 0.000000 0.003896 0.000000 0.035801
#
#
# Mechanical properties :
#
#
# Convention : Reuss Voigt Hill
#
# Bulk Modulus (GPa) = 56.83994 61.87062 59.35528
# Shear Modulus (GPa) = 27.12206 31.55563 29.33884
#
# Velocity S-wave (km/s) = 3.55513 3.83471 3.69756
# Velocity P-wave (km/s) = 6.58327 6.95977 6.77414
#
# Compressibility (1/GPa) = 0.01759326
#
# Stress axis : x y z
#
# Youngs Moduli (GPa) = 123.73423 54.38615 45.33406
#
# Poissons Ratio (x) = 0.08802 0.17671
# Poissons Ratio (y) = 0.20025 0.45111
# Poissons Ratio (z) = 0.48230 0.54118
#
# Static dielectric constant tensor:
#      x y z
#    x 3.974400 0.000000 0.308460 
#    y 0.000000 3.983110 0.000000 
#    z 0.308460 0.000000 3.681650 
# 
# 
# High freq. dielectric constant tensor:
#      x y z
#    x 1.866990 0.000000 0.007770 
#    y 0.000000 1.841790 0.000000 
#    z 0.007770 0.000000 1.822140 
# 
# From -- ./inp_files/57816.got.cif
#   From: 2010.06.25/outbox.cif.g09.slc.cpg/sg15_29_cif.got.tgz:57816.got - 2010.06.28 07:06:18.
