data_PCOD8149158
_publ_section_title
;
Structure prediction by ZEFSAII (Michael W. Deem and Ramdas Pophale) SiO2 
 PCOD8149158
Probable space group: C 2/C
;
_chemical_formula_sum "Si O2"
_cell_formula_units_Z 48
_cell_length_a 8.353815
_cell_length_b 16.561568
_cell_length_c 16.250353
_cell_angle_alpha 90.000000
_cell_angle_beta 86.227245
_cell_angle_gamma 90.000000
_cell_volume 2243.401009
_symmetry_space_group_name_H-M "C 2/C"
_symmetry_group_IT_number 15
_symmetry_cell_setting 'monoclinic'
loop_
_space_group_symop_operation_xyz
x,y,z
-x,y,1/2-z
-x,-y,-z
x,-y,1/2+z
1/2+x,1/2+y,z
1/2-x,1/2+y,1/2-z
1/2-x,1/2-y,-z
1/2+x,1/2-y,1/2+z
loop_
_atom_site_type_symbol
_atom_site_label
_atom_site_fract_x
_atom_site_fract_y
_atom_site_fract_z
Si Si1 0.870649 0.915345 0.146962
Si Si2 0.210377 0.424630 0.669045
Si Si3 0.142043 0.446860 0.856694
Si Si4 0.166208 0.228523 0.417836
Si Si5 0.676997 0.334612 0.522490
Si Si6 0.231473 0.883359 0.175314
O O1 0.752079 0.886836 0.225487
O O2 0.045021 0.878967 0.158107
O O3 0.857833 0.013549 0.144660
O O4 0.817033 0.884896 0.061011
O O5 0.194777 0.413918 0.766664
O O6 0.228964 0.335691 0.633780
O O7 0.049188 0.457023 0.631368
O O8 0.212486 0.383239 0.918376
O O9 0.206946 0.536215 0.871307
O O10 0.250000 0.250000 0.500000
O O11 0.163106 0.309071 0.362080
O O12 0.997240 0.184210 0.435284
O O13 0.750000 0.250000 0.500000
#
# Coordination Sequence:
#
# PCOD8149158 Si02
#       6
#     8   8   8   8   8   8
#     4  10  23  44  68  95 135 175 219 268 338 392
#     4  10  24  45  69  95 130 178 220 272 331 397
#     4  10  24  45  68  96 133 174 224 272 331 391
#     4  12  25  42  68  99 133 173 224 270 334 392
#     4  12  27  42  65 101 135 172 224 278 329 390
#     4  10  23  44  71  96 131 178 218 272 330 400
#
# _framework density 21.396087000000001
#
# number of rings (size 3 to 8) (size 9 to 14) (size 15 to 20)
#    0.000    1.333    1.667    2.000    7.000    5.333 
#    0.000    0.000    0.000    0.000    0.000    0.000 
#    0.000    0.000    0.000    0.000    0.000    0.000 
#
# Total GULP energy -297556.957559 kJ/mol
# GULP energy per Si atom -12398.206565 kJ/mol
# Density = 2.134739 g / cm^3
# Si number density = 21.396087 Si / 1000 Ang^3
#
#
#
# Elastic Constant Matrix: (Units=GPa)
#
#
# Indices 1 2 3 4 5 6 
#
# 1 51.2728 11.8053 36.7664 0.0000 4.9988 0.0000
# 2 11.8053 136.8899 74.2226 0.0000 -6.9959 0.0000
# 3 36.7664 74.2226 123.9950 0.0000 14.8624 0.0000
# 4 0.0000 0.0000 0.0000 42.0395 0.0000 -5.3777
# 5 4.9988 -6.9959 14.8624 0.0000 28.5170 0.0000
# 6 0.0000 0.0000 0.0000 -5.3777 0.0000 36.6229
#
#
#
# Elastic Compliance Matrix: (Units=1/GPa)
#
#
# Indices 1 2 3 4 5 6 
#
# 1 0.025517 0.003028 -0.009527 0.000000 0.001235 0.000000
# 2 0.003028 0.012406 -0.009200 0.000000 0.007307 0.000000
# 3 -0.009527 -0.009200 0.017564 0.000000 -0.009741 0.000000
# 4 0.000000 0.000000 0.000000 0.024243 0.000000 0.003560
# 5 0.001235 0.007307 -0.009741 0.000000 0.041720 0.000000
# 6 0.000000 0.000000 0.000000 0.003560 0.000000 0.027828
#
#
# Mechanical properties :
#
#
# Convention : Reuss Voigt Hill
#
# Bulk Modulus (GPa) = 41.51071 61.97181 51.74126
# Shear Modulus (GPa) = 26.49649 34.06011 30.27830
#
# Velocity S-wave (km/s) = 3.52288 3.99417 3.76591
# Velocity P-wave (km/s) = 5.99923 7.09212 6.56845
#
# Compressibility (1/GPa) = 0.02409017
#
# Stress axis : x y z
#
# Youngs Moduli (GPa) = 39.18888 80.60929 56.93426
#
# Poissons Ratio (x) = -0.24409 0.54241
# Poissons Ratio (y) = -0.11867 0.52377
# Poissons Ratio (z) = 0.37335 0.74157
#
# Static dielectric constant tensor:
#      x y z
#    x 4.461780 0.000000 -0.034370 
#    y 0.000000 3.816240 0.000000 
#    z -0.034370 0.000000 4.028410 
# 
# 
# High freq. dielectric constant tensor:
#      x y z
#    x 1.838040 0.000000 -0.001380 
#    y 0.000000 1.850450 0.000000 
#    z -0.001380 0.000000 1.851260 
# 
# From -- ./inp_files/189195.got.cif
#   From: 2010.06.25/outbox.cif.g09.slc.cpg/sg15_95_cif.got.tgz:189195.got - 2010.06.28 07:06:18.
