data_PCOD8149331
_publ_section_title
;
Structure prediction by ZEFSAII (Michael W. Deem and Ramdas Pophale) SiO2 
 PCOD8149331
Probable space group: C 2/C
;
_chemical_formula_sum "Si O2"
_cell_formula_units_Z 60
_cell_length_a 26.858201
_cell_length_b 13.824415
_cell_length_c 18.578440
_cell_angle_alpha 90.000000
_cell_angle_beta 156.638182
_cell_angle_gamma 90.000000
_cell_volume 2735.368095
_symmetry_space_group_name_H-M "C 2/C"
_symmetry_group_IT_number 15
_symmetry_cell_setting 'monoclinic'
loop_
_space_group_symop_operation_xyz
x,y,z
-x,y,1/2-z
-x,-y,-z
x,-y,1/2+z
1/2+x,1/2+y,z
1/2-x,1/2+y,1/2-z
1/2-x,1/2-y,-z
1/2+x,1/2-y,1/2+z
loop_
_atom_site_type_symbol
_atom_site_label
_atom_site_fract_x
_atom_site_fract_y
_atom_site_fract_z
Si Si1 0.325727 0.073348 0.043984
Si Si2 0.384426 0.442582 0.878760
Si Si3 0.644495 0.343835 0.938249
Si Si4 0.429126 0.324789 0.296393
Si Si5 0.303051 0.960075 0.266914
Si Si6 0.000000 0.724958 0.250000
Si Si7 0.426777 0.116756 0.336153
Si Si8 0.267905 0.132483 0.448350
O O1 0.392188 0.150471 0.078445
O O2 0.381651 0.085402 0.197671
O O3 0.177542 0.093511 0.840765
O O4 0.353692 0.963870 0.056073
O O5 0.281424 0.515199 0.775516
O O6 0.332068 0.371453 0.748230
O O7 0.500000 0.500000 0.000000
O O8 0.436998 0.372421 0.010118
O O9 0.500000 0.377740 0.750000
O O10 0.699596 0.372787 0.934500
O O11 0.724485 0.394724 0.106928
O O12 0.648871 0.227678 0.951999
O O13 0.436012 0.291215 0.223754
O O14 0.403338 0.232175 0.313698
O O15 0.425819 0.903389 0.456230
O O16 0.343524 0.061307 0.284372
#
# Coordination Sequence:
#
# PCOD8149331 Si02
#       8
#     8   8   8   8   8   4   8   8
#     4  11  23  43  70  99 141 171 230 278 343 409
#     4  12  26  44  68 103 142 180 227 289 349 399
#     4  11  25  47  75  98 136 186 237 281 343 414
#     4  11  25  42  69 102 139 173 228 278 343 414
#     4  11  25  45  72 101 138 182 230 281 347 410
#     4  10  24  38  70 100 132 184 216 280 342 416
#     4  10  23  45  68 103 134 180 222 283 337 411
#     4  11  25  46  66 104 139 178 235 283 341 411
#
# _framework density 21.934891
#
# number of rings (size 3 to 8) (size 9 to 14) (size 15 to 20)
#    0.000    1.067    2.667    3.200    8.400    0.000 
#    7.200    0.000    0.000    0.000    0.000    0.000 
#    0.000    0.000    0.000    0.000    0.000    0.000 
#
# Total GULP energy -371916.644371 kJ/mol
# GULP energy per Si atom -12397.221479 kJ/mol
# Density = 2.188497 g / cm^3
# Si number density = 21.934891 Si / 1000 Ang^3
#
#
#
# Elastic Constant Matrix: (Units=GPa)
#
#
# Indices 1 2 3 4 5 6 
#
# 1 65.0330 16.9288 22.9598 0.0000 6.9059 0.0000
# 2 16.9288 110.4059 30.2169 0.0000 -1.0748 0.0000
# 3 22.9598 30.2169 135.3971 0.0000 -9.9818 0.0000
# 4 0.0000 0.0000 0.0000 38.7661 0.0000 -1.5214
# 5 6.9059 -1.0748 -9.9818 0.0000 35.4183 0.0000
# 6 0.0000 0.0000 0.0000 -1.5214 0.0000 14.2693
#
#
#
# Elastic Compliance Matrix: (Units=1/GPa)
#
#
# Indices 1 2 3 4 5 6 
#
# 1 0.017323 -0.001926 -0.002820 0.000000 -0.004231 0.000000
# 2 -0.001926 0.009864 -0.001864 0.000000 0.000150 0.000000
# 3 -0.002820 -0.001864 0.008493 0.000000 0.002887 0.000000
# 4 0.000000 0.000000 0.000000 0.025904 0.000000 0.002762
# 5 -0.004231 0.000150 0.002887 0.000000 0.029877 0.000000
# 6 0.000000 0.000000 0.000000 0.002762 0.000000 0.070375
#
#
# Mechanical properties :
#
#
# Convention : Reuss Voigt Hill
#
# Bulk Modulus (GPa) = 44.52082 50.11634 47.31858
# Shear Modulus (GPa) = 27.39103 33.73941 30.56522
#
# Velocity S-wave (km/s) = 3.53759 3.92620 3.73695
# Velocity P-wave (km/s) = 6.08497 6.59172 6.34341
#
# Compressibility (1/GPa) = 0.02246140
#
# Stress axis : x y z
#
# Youngs Moduli (GPa) = 57.72743 101.37534 117.74956
#
# Poissons Ratio (x) = 0.19521 0.33201
# Poissons Ratio (y) = 0.11116 0.21947
# Poissons Ratio (z) = 0.16277 0.18895
#
# Static dielectric constant tensor:
#      x y z
#    x 3.929510 0.000000 -0.065790 
#    y 0.000000 4.257030 0.000000 
#    z -0.065790 0.000000 4.227670 
# 
# 
# High freq. dielectric constant tensor:
#      x y z
#    x 1.854800 0.000000 -0.004820 
#    y 0.000000 1.876480 0.000000 
#    z -0.004820 0.000000 1.876130 
# 
# From -- ./inp_files/259418.got.cif
#   From: 2010.06.25/outbox.cif.g09.slc.cpg/sg15_130_cif.got.tgz:259418.got - 2010.06.28 07:06:18.
