data_PCOD8149882
_publ_section_title
;
Structure prediction by ZEFSAII (Michael W. Deem and Ramdas Pophale) SiO2 
 PCOD8149882
Probable space group: C 2/C
;
_chemical_formula_sum "Si O2"
_cell_formula_units_Z 48
_cell_length_a 5.836130
_cell_length_b 19.244799
_cell_length_c 25.027953
_cell_angle_alpha 90.000000
_cell_angle_beta 54.341002
_cell_angle_gamma 90.000000
_cell_volume 2283.954906
_symmetry_space_group_name_H-M "C 2/C"
_symmetry_group_IT_number 15
_symmetry_cell_setting 'monoclinic'
loop_
_space_group_symop_operation_xyz
x,y,z
-x,y,1/2-z
-x,-y,-z
x,-y,1/2+z
1/2+x,1/2+y,z
1/2-x,1/2+y,1/2-z
1/2-x,1/2-y,-z
1/2+x,1/2-y,1/2+z
loop_
_atom_site_type_symbol
_atom_site_label
_atom_site_fract_x
_atom_site_fract_y
_atom_site_fract_z
Si Si1 0.017956 0.229154 0.183898
Si Si2 0.666042 0.875000 0.283583
Si Si3 0.646971 0.945454 0.941781
Si Si4 0.605873 0.804546 0.558219
Si Si5 0.204436 0.125000 0.368226
Si Si6 0.187450 0.479154 0.816102
O O1 0.334182 0.230257 0.120842
O O2 0.000000 0.218706 0.250000
O O3 0.895433 0.302400 0.178527
O O4 0.852697 0.165110 0.179324
O O5 0.500000 0.864502 0.250000
O O6 0.000000 0.885498 0.250000
O O7 0.538068 0.947600 0.321474
O O8 0.463199 0.875000 0.964721
O O9 0.688394 0.980256 0.879158
O O10 0.962427 0.929244 0.918090
O O11 0.500000 0.000000 0.000000
O O12 0.750000 0.750000 0.500000
O O13 0.802873 0.820756 0.581911
O O14 0.499316 0.084889 0.320676
O O15 0.500000 0.468706 0.750000
#
# Coordination Sequence:
#
# PCOD8149882 Si02
#       6
#     8   8   8   8   8   8
#     4  10  24  43  66 101 134 175 229 284 349 417
#     4  10  24  43  64 101 140 182 228 283 355 414
#     4  10  24  43  64  97 129 177 228 277 351 415
#     4  10  24  43  64  97 129 177 228 277 351 415
#     4  10  24  42  68  95 136 176 224 288 348 414
#     4  10  24  43  66 101 134 175 229 284 349 417
#
# _framework density 21.016178
#
# number of rings (size 3 to 8) (size 9 to 14) (size 15 to 20)
#    0.000    2.000    0.000    0.000    9.333   16.667 
#    3.000    0.000    0.000    0.000    0.000    0.000 
#    0.000    0.000    0.000    0.000    0.000    0.000 
#
# Total GULP energy -297322.085840 kJ/mol
# GULP energy per Si atom -12388.420243 kJ/mol
# Density = 2.096834 g / cm^3
# Si number density = 21.016178 Si / 1000 Ang^3
#
#
#
# Elastic Constant Matrix: (Units=GPa)
#
#
# Indices 1 2 3 4 5 6 
#
# 1 127.9728 49.1084 62.2538 0.0000 -1.5543 0.0000
# 2 49.1084 141.1987 92.1092 0.0000 2.4428 0.0000
# 3 62.2538 92.1092 157.8567 0.0000 3.2511 0.0000
# 4 0.0000 0.0000 0.0000 66.8043 0.0000 2.2650
# 5 -1.5543 2.4428 3.2511 0.0000 19.4574 0.0000
# 6 0.0000 0.0000 0.0000 2.2650 0.0000 26.9003
#
#
#
# Elastic Compliance Matrix: (Units=1/GPa)
#
#
# Indices 1 2 3 4 5 6 
#
# 1 0.009890 -0.001455 -0.003082 0.000000 0.001488 0.000000
# 2 -0.001455 0.011651 -0.006213 0.000000 -0.000541 0.000000
# 3 -0.003082 -0.006213 0.011203 0.000000 -0.001338 0.000000
# 4 0.000000 0.000000 0.000000 0.015012 0.000000 -0.001264
# 5 0.001488 -0.000541 -0.001338 0.000000 0.051805 0.000000
# 6 0.000000 0.000000 0.000000 -0.001264 0.000000 0.037281
#
#
# Mechanical properties :
#
#
# Convention : Reuss Voigt Hill
#
# Bulk Modulus (GPa) = 88.93982 92.66345 90.80164
# Shear Modulus (GPa) = 30.84721 37.53619 34.19170
#
# Velocity S-wave (km/s) = 3.83532 4.23077 4.03789
# Velocity P-wave (km/s) = 7.87556 8.24943 8.06466
#
# Compressibility (1/GPa) = 0.01124356
#
# Stress axis : x y z
#
# Youngs Moduli (GPa) = 101.11458 85.83138 89.25958
#
# Poissons Ratio (x) = 0.12488 0.27509
# Poissons Ratio (y) = 0.14711 0.55460
# Poissons Ratio (z) = 0.31163 0.53330
#
# Static dielectric constant tensor:
#      x y z
#    x 3.032500 0.000000 -0.067670 
#    y 0.000000 4.504990 0.000000 
#    z -0.067670 0.000000 1.843570 
# 
# 
# High freq. dielectric constant tensor:
#      x y z
#    x 1.839270 0.000000 -0.002190 
#    y 0.000000 1.849350 0.000000 
#    z -0.002190 0.000000 1.800730 
# 
# From -- ./inp_files/286304.got.cif
#   From: 2010.06.25/outbox.cif.g09.slc.cpg/sg15_144_cif.got.tgz:286304.got - 2010.06.28 07:06:18.
