data_PCOD8149941
_publ_section_title
;
Structure prediction by ZEFSAII (Michael W. Deem and Ramdas Pophale) SiO2 
 PCOD8149941
Probable space group: C 2/C
;
_chemical_formula_sum "Si O2"
_cell_formula_units_Z 48
_cell_length_a 19.586439
_cell_length_b 14.621766
_cell_length_c 11.472748
_cell_angle_alpha 90.000000
_cell_angle_beta 44.064851
_cell_angle_gamma 90.000000
_cell_volume 2285.085701
_symmetry_space_group_name_H-M "C 2/C"
_symmetry_group_IT_number 15
_symmetry_cell_setting 'monoclinic'
loop_
_space_group_symop_operation_xyz
x,y,z
-x,y,1/2-z
-x,-y,-z
x,-y,1/2+z
1/2+x,1/2+y,z
1/2-x,1/2+y,1/2-z
1/2-x,1/2-y,-z
1/2+x,1/2-y,1/2+z
loop_
_atom_site_type_symbol
_atom_site_label
_atom_site_fract_x
_atom_site_fract_y
_atom_site_fract_z
Si Si1 0.763405 0.192210 0.366786
Si Si2 0.284386 0.851460 0.993482
Si Si3 0.500000 0.466208 0.250000
Si Si4 0.000000 0.694433 0.250000
Si Si5 0.797033 0.968317 0.971377
Si Si6 0.664810 0.342130 0.364035
Si Si7 0.466554 0.669103 0.990648
O O1 0.750000 0.250000 0.500000
O O2 0.746723 0.085994 0.423629
O O3 0.686135 0.234560 0.368669
O O4 0.870300 0.201739 0.176379
O O5 0.222607 0.876660 0.181741
O O6 0.253520 0.932883 0.942634
O O7 0.250000 0.750000 0.000000
O O8 0.399832 0.863338 0.876240
O O9 0.587004 0.524131 0.201851
O O10 0.552727 0.411137 0.079567
O O11 0.990678 0.749970 0.141561
O O12 0.789766 0.907305 0.094544
O O13 0.548847 0.355956 0.486145
#
# Coordination Sequence:
#
# PCOD8149941 Si02
#       7
#     8   8   4   4   8   8   8
#     4  10  24  43  62  92 135 172 210 263 323 389
#     4  12  23  43  65  95 130 171 218 262 321 387
#     4  11  22  36  64 103 130 154 210 285 330 381
#     4  11  22  40  66  97 126 166 222 265 306 389
#     4  11  25  40  62 100 131 162 215 265 330 380
#     4  11  23  41  68  93 129 174 209 270 325 383
#     4  11  21  39  68  97 126 165 214 269 329 378
#
# _framework density 21.005776000000001
#
# number of rings (size 3 to 8) (size 9 to 14) (size 15 to 20)
#    0.000    1.000    5.000    2.000    2.333    3.333 
#    0.000    4.167    0.000    0.000    0.000    0.000 
#    0.000    0.000    0.000    0.000    0.000    0.000 
#
# Total GULP energy -297369.200859 kJ/mol
# GULP energy per Si atom -12390.383369 kJ/mol
# Density = 2.095797 g / cm^3
# Si number density = 21.005776 Si / 1000 Ang^3
#
#
#
# Elastic Constant Matrix: (Units=GPa)
#
#
# Indices 1 2 3 4 5 6 
#
# 1 91.9089 40.5561 10.9209 0.0000 -10.0325 0.0000
# 2 40.5561 116.8164 15.8231 0.0000 -2.1852 0.0000
# 3 10.9209 15.8231 103.8985 0.0000 -1.2976 0.0000
# 4 0.0000 0.0000 0.0000 20.5850 0.0000 -6.1722
# 5 -10.0325 -2.1852 -1.2976 0.0000 33.8827 0.0000
# 6 0.0000 0.0000 0.0000 -6.1722 0.0000 32.6240
#
#
#
# Elastic Compliance Matrix: (Units=1/GPa)
#
#
# Indices 1 2 3 4 5 6 
#
# 1 0.013329 -0.004468 -0.000675 0.000000 0.003633 0.000000
# 2 -0.004468 0.010247 -0.001100 0.000000 -0.000704 0.000000
# 3 -0.000675 -0.001100 0.009865 0.000000 0.000107 0.000000
# 4 0.000000 0.000000 0.000000 0.051501 0.000000 0.009743
# 5 0.003633 -0.000704 0.000107 0.000000 0.030548 0.000000
# 6 0.000000 0.000000 0.000000 0.009743 0.000000 0.032496
#
#
# Mechanical properties :
#
#
# Convention : Reuss Voigt Hill
#
# Bulk Modulus (GPa) = 47.72190 49.69153 48.70672
# Shear Modulus (GPa) = 29.85867 33.77325 31.81596
#
# Velocity S-wave (km/s) = 3.77430 4.01410 3.89605
# Velocity P-wave (km/s) = 6.46232 6.72246 6.59367
#
# Compressibility (1/GPa) = 0.02095474
#
# Stress axis : x y z
#
# Youngs Moduli (GPa) = 75.02637 97.58540 101.37288
#
# Poissons Ratio (x) = 0.43601 0.06844
# Poissons Ratio (y) = 0.33522 0.11149
# Poissons Ratio (z) = 0.05066 0.10732
#
# Static dielectric constant tensor:
#      x y z
#    x 4.060580 0.000000 0.266870 
#    y 0.000000 4.059220 0.000000 
#    z 0.266870 0.000000 4.002740 
# 
# 
# High freq. dielectric constant tensor:
#      x y z
#    x 1.821280 0.000000 0.011170 
#    y 0.000000 1.814830 0.000000 
#    z 0.011170 0.000000 1.825860 
# 
# From -- ./inp_files/112950.got.cif
#   From: 2010.06.25/outbox.cif.g09.slc.cpg/sg15_57_cif.got.tgz:112950.got - 2010.06.28 07:06:18.
