data_PCOD8149166
_publ_section_title
;
Structure prediction by ZEFSAII (Michael W. Deem and Ramdas Pophale) SiO2 
 PCOD8149166
Probable space group: C 2/C
;
_chemical_formula_sum "Si O2"
_cell_formula_units_Z 40
_cell_length_a 13.816634
_cell_length_b 26.201399
_cell_length_c 13.819420
_cell_angle_alpha 90.000000
_cell_angle_beta 159.042367
_cell_angle_gamma 90.000000
_cell_volume 1789.403151
_symmetry_space_group_name_H-M "C 2/C"
_symmetry_group_IT_number 15
_symmetry_cell_setting 'monoclinic'
loop_
_space_group_symop_operation_xyz
x,y,z
-x,y,1/2-z
-x,-y,-z
x,-y,1/2+z
1/2+x,1/2+y,z
1/2-x,1/2+y,1/2-z
1/2-x,1/2-y,-z
1/2+x,1/2-y,1/2+z
loop_
_atom_site_type_symbol
_atom_site_label
_atom_site_fract_x
_atom_site_fract_y
_atom_site_fract_z
Si Si1 0.000000 0.285905 0.750000
Si Si2 0.500000 0.956085 0.750000
Si Si3 0.970807 0.626927 0.078042
Si Si4 0.051871 0.219367 0.185592
Si Si5 0.958784 0.878734 0.476347
Si Si6 0.224770 0.516143 0.788183
O O1 0.063689 0.321789 0.718127
O O2 0.750000 0.250000 0.500000
O O3 0.652640 0.917563 0.967040
O O4 0.689941 0.992657 0.862958
O O5 0.242586 0.603207 0.281607
O O6 0.723078 0.644028 0.779575
O O7 0.353809 0.239776 0.449442
O O8 0.000000 0.215039 0.250000
O O9 0.011821 0.163409 0.106379
O O10 0.765809 0.923053 0.340319
O O11 0.000000 0.500000 0.500000
O O12 0.500000 0.500000 0.000000
#
# Coordination Sequence:
#
# PCOD8149166 Si02
#       6
#     4   4   8   8   8   8
#     4  11  24  42  62 102 136 174 228 277 334 414
#     4  11  24  48  68  98 144 188 218 299 362 408
#     4  11  25  41  70  94 139 183 223 279 357 408
#     4  10  23  44  68  97 136 178 224 289 360 415
#     4  12  23  45  67 104 130 179 238 281 337 434
#     4  12  25  46  70 103 139 182 237 288 350 436
#
# _framework density 22.353822000000001
#
# number of rings (size 3 to 8) (size 9 to 14) (size 15 to 20)
#    0.000    0.800    4.000    2.400    0.000    9.600 
#   12.600    0.000    0.000    0.000    0.000    0.000 
#    0.000    0.000    0.000    0.000    0.000    0.000 
#
# Total GULP energy -247871.045208 kJ/mol
# GULP energy per Si atom -12393.552260 kJ/mol
# Density = 2.230294 g / cm^3
# Si number density = 22.353822 Si / 1000 Ang^3
#
#
#
# Elastic Constant Matrix: (Units=GPa)
#
#
# Indices 1 2 3 4 5 6 
#
# 1 92.0489 63.6833 52.4877 -0.0023 11.6389 -0.0033
# 2 63.6833 161.2688 52.6328 -0.0028 -10.4645 -0.0042
# 3 52.4877 52.6328 158.3056 -0.0136 -0.1640 -0.0192
# 4 -0.0023 -0.0028 -0.0136 44.8650 -0.0045 -3.7809
# 5 11.6389 -10.4645 -0.1640 -0.0045 26.6853 -0.0062
# 6 -0.0033 -0.0042 -0.0192 -3.7809 -0.0062 42.0202
#
#
#
# Elastic Compliance Matrix: (Units=1/GPa)
#
#
# Indices 1 2 3 4 5 6 
#
# 1 0.019587 -0.007121 -0.004138 -0.000002 -0.011361 -0.000003
# 2 -0.007121 0.009747 -0.000872 0.000001 0.006923 0.000001
# 3 -0.004138 -0.000872 0.007981 0.000003 0.001512 0.000004
# 4 -0.000002 0.000001 0.000003 0.022459 0.000006 0.002021
# 5 -0.011361 0.006923 0.001512 0.000006 0.045153 0.000008
# 6 -0.000003 0.000001 0.000004 0.002021 0.000008 0.023980
#
#
# Mechanical properties :
#
#
# Convention : Reuss Voigt Hill
#
# Bulk Modulus (GPa) = 76.62530 83.24787 79.93658
# Shear Modulus (GPa) = 31.74202 38.90209 35.32205
#
# Velocity S-wave (km/s) = 3.77235 4.17620 3.97940
# Velocity P-wave (km/s) = 7.30253 7.78306 7.54662
#
# Compressibility (1/GPa) = 0.01305052
#
# Stress axis : x y z
#
# Youngs Moduli (GPa) = 51.05501 102.59789 125.30404
#
# Poissons Ratio (x) = 0.73061 0.51855
# Poissons Ratio (y) = 0.36357 0.10930
# Poissons Ratio (z) = 0.21128 0.08950
#
# Static dielectric constant tensor:
#      x y z
#    x 3.900200 0.000050 -0.177620 
#    y 0.000050 4.524640 0.000030 
#    z -0.177620 0.000030 3.955580 
# 
# 
# High freq. dielectric constant tensor:
#      x y z
#    x 1.871090 0.000000 -0.004370 
#    y 0.000000 1.899340 0.000000 
#    z -0.004370 0.000000 1.886260 
# 
# From -- ./inp_files/157295.got.cif
#   From: 2010.06.25/outbox.cif.g09.slc.cpg/sg15_79_cif.got.tgz:157295.got - 2010.06.28 07:06:18.
