data_PCOD8149176
_publ_section_title
;
Structure prediction by ZEFSAII (Michael W. Deem and Ramdas Pophale) SiO2 
 PCOD8149176
Probable space group: C 2/C
;
_chemical_formula_sum "Si O2"
_cell_formula_units_Z 60
_cell_length_a 29.884163
_cell_length_b 11.614617
_cell_length_c 19.301345
_cell_angle_alpha 90.000000
_cell_angle_beta 157.238115
_cell_angle_gamma 90.000000
_cell_volume 2591.998919
_symmetry_space_group_name_H-M "C 2/C"
_symmetry_group_IT_number 15
_symmetry_cell_setting 'monoclinic'
loop_
_space_group_symop_operation_xyz
x,y,z
-x,y,1/2-z
-x,-y,-z
x,-y,1/2+z
1/2+x,1/2+y,z
1/2-x,1/2+y,1/2-z
1/2-x,1/2-y,-z
1/2+x,1/2-y,1/2+z
loop_
_atom_site_type_symbol
_atom_site_label
_atom_site_fract_x
_atom_site_fract_y
_atom_site_fract_z
Si Si1 0.739402 0.651153 0.541620
Si Si2 0.357161 0.731979 0.704320
Si Si3 0.000000 0.946919 0.750000
Si Si4 0.732502 0.287960 0.790732
Si Si5 0.097891 0.538732 0.289317
Si Si6 0.163398 0.846576 0.174376
Si Si7 0.643602 0.994565 0.004787
Si Si8 0.044706 0.057630 0.951923
O O1 0.750000 0.750000 0.500000
O O2 0.602443 0.627098 0.359908
O O3 0.803738 0.692853 0.704189
O O4 0.808054 0.537510 0.616275
O O5 0.250000 0.750000 0.500000
O O6 0.433262 0.845731 0.798006
O O7 0.335193 0.729867 0.754788
O O8 0.415662 0.608750 0.771534
O O9 0.935104 0.025491 0.599709
O O10 0.834244 0.239614 0.886589
O O11 0.627007 0.338355 0.594853
O O12 0.792337 0.387114 0.921190
O O13 0.141897 0.573880 0.429280
O O14 0.977349 0.473849 0.131367
O O15 0.282153 0.918694 0.336157
O O16 0.058487 0.940461 0.018102
#
# Coordination Sequence:
#
# PCOD8149176 Si02
#       8
#     8   8   4   8   8   8   8   8
#     4  12  27  47  77 109 150 195 258 308 378 463
#     4  12  25  43  73 109 145 197 253 307 370 454
#     4  12  28  48  78 114 146 202 258 314 374 460
#     4  11  25  46  71 108 146 197 239 320 377 443
#     4  11  24  43  73 109 142 192 248 306 368 458
#     4  11  24  46  69 103 152 192 249 309 381 447
#     4  10  23  44  69 104 148 188 241 306 381 434
#     4  11  27  46  75 103 155 198 251 312 391 448
#
# _framework density 23.148157000000001
#
# number of rings (size 3 to 8) (size 9 to 14) (size 15 to 20)
#    0.000    0.800    4.000    2.000    5.600    3.200 
#    0.000    2.000    0.000    0.000    0.000    0.000 
#    0.000    0.000    0.000    0.000    0.000    0.000 
#
# Total GULP energy -371821.952308 kJ/mol
# GULP energy per Si atom -12394.065077 kJ/mol
# Density = 2.309547 g / cm^3
# Si number density = 23.148157 Si / 1000 Ang^3
#
#
#
# Elastic Constant Matrix: (Units=GPa)
#
#
# Indices 1 2 3 4 5 6 
#
# 1 144.6195 52.9469 47.3755 0.0000 -8.3023 0.0000
# 2 52.9469 94.7542 41.5043 0.0000 -9.2512 0.0000
# 3 47.3755 41.5043 106.4410 0.0000 -9.4103 0.0000
# 4 0.0000 0.0000 0.0000 40.9441 0.0000 -8.1940
# 5 -8.3023 -9.2512 -9.4103 0.0000 38.4955 0.0000
# 6 0.0000 0.0000 0.0000 -8.1940 0.0000 51.0502
#
#
#
# Elastic Compliance Matrix: (Units=1/GPa)
#
#
# Indices 1 2 3 4 5 6 
#
# 1 0.009231 -0.004021 -0.002504 0.000000 0.000412 0.000000
# 2 -0.004021 0.014614 -0.003756 0.000000 0.001727 0.000000
# 3 -0.002504 -0.003756 0.012108 0.000000 0.001517 0.000000
# 4 0.000000 0.000000 0.000000 0.025234 0.000000 0.004050
# 5 0.000412 0.001727 0.001517 0.000000 0.026852 0.000000
# 6 0.000000 0.000000 0.000000 0.004050 0.000000 0.020239
#
#
# Mechanical properties :
#
#
# Convention : Reuss Voigt Hill
#
# Bulk Modulus (GPa) = 64.97409 69.94091 67.45750
# Shear Modulus (GPa) = 37.32157 39.69716 38.50937
#
# Velocity S-wave (km/s) = 4.01969 4.14565 4.08316
# Velocity P-wave (km/s) = 7.04795 7.29351 7.17178
#
# Compressibility (1/GPa) = 0.01539075
#
# Stress axis : x y z
#
# Youngs Moduli (GPa) = 108.33303 68.42624 82.58830
#
# Poissons Ratio (x) = 0.27513 0.20682
# Poissons Ratio (y) = 0.43559 0.31022
# Poissons Ratio (z) = 0.27129 0.25702
#
# Static dielectric constant tensor:
#      x y z
#    x 4.115690 0.000000 -0.138780 
#    y 0.000000 4.455440 0.000000 
#    z -0.138780 0.000000 4.171020 
# 
# 
# High freq. dielectric constant tensor:
#      x y z
#    x 1.916830 0.000000 -0.010160 
#    y 0.000000 1.918770 0.000000 
#    z -0.010160 0.000000 1.914870 
# 
# From -- ./inp_files/222571.got.cif
#   From: 2010.06.25/outbox.cif.g09.slc.cpg/sg15_112_cif.got.tgz:222571.got - 2010.06.28 07:06:18.
