data_PCOD8149449
_publ_section_title
;
Structure prediction by ZEFSAII (Michael W. Deem and Ramdas Pophale) SiO2 
 PCOD8149449
Probable space group: C 2/C
;
_chemical_formula_sum "Si O2"
_cell_formula_units_Z 36
_cell_length_a 10.538246
_cell_length_b 25.434377
_cell_length_c 8.727494
_cell_angle_alpha 90.000000
_cell_angle_beta 136.059835
_cell_angle_gamma 90.000000
_cell_volume 1623.230229
_symmetry_space_group_name_H-M "C 2/C"
_symmetry_group_IT_number 15
_symmetry_cell_setting 'monoclinic'
loop_
_space_group_symop_operation_xyz
x,y,z
-x,y,1/2-z
-x,-y,-z
x,-y,1/2+z
1/2+x,1/2+y,z
1/2-x,1/2+y,1/2-z
1/2-x,1/2-y,-z
1/2+x,1/2-y,1/2+z
loop_
_atom_site_type_symbol
_atom_site_label
_atom_site_fract_x
_atom_site_fract_y
_atom_site_fract_z
Si Si1 0.535326 0.939411 0.057186
Si Si2 0.000000 0.627217 0.250000
Si Si3 0.210207 0.098246 0.472556
Si Si4 0.239285 0.786482 0.639585
Si Si5 0.398356 0.708953 0.012759
O O1 0.600517 0.910426 0.958953
O O2 0.707854 0.937252 0.320904
O O3 0.348235 0.910784 0.950800
O O4 0.500000 0.000000 0.000000
O O5 0.135697 0.663487 0.272493
O O6 0.219832 0.158853 0.535807
O O7 0.000000 0.082451 0.250000
O O8 0.250000 0.750000 0.500000
O O9 0.037261 0.808764 0.497118
O O10 0.279753 0.754561 0.831652
O O11 0.500000 0.732823 0.250000
#
# Coordination Sequence:
#
# PCOD8149449 Si02
#       5
#     8   4   8   8   8
#     4  11  25  46  73 100 134 180 238 296 354 412
#     4  12  22  40  68  98 140 180 228 298 354 408
#     4  10  23  46  70  99 138 180 231 283 350 420
#     4  12  23  40  62  98 139 180 230 283 351 413
#     4  11  23  41  62  95 135 185 227 273 341 424
#
# _framework density 22.178000000000001
#
# number of rings (size 3 to 8) (size 9 to 14) (size 15 to 20)
#    0.000    0.889    2.222    6.000    0.000    0.889 
#    0.000    5.556    0.000    0.000    0.000    0.000 
#    0.000    0.000    0.000    0.000    0.000    0.000 
#
# Total GULP energy -223063.407923 kJ/mol
# GULP energy per Si atom -12392.411551 kJ/mol
# Density = 2.212752 g / cm^3
# Si number density = 22.178000 Si / 1000 Ang^3
#
#
#
# Elastic Constant Matrix: (Units=GPa)
#
#
# Indices 1 2 3 4 5 6 
#
# 1 122.4250 60.2980 26.4779 0.0000 9.7452 0.0000
# 2 60.2980 161.4331 56.4993 0.0000 -8.3767 0.0000
# 3 26.4779 56.4993 139.3259 0.0000 -8.8629 0.0000
# 4 0.0000 0.0000 0.0000 34.7321 0.0000 -4.6624
# 5 9.7452 -8.3767 -8.8629 0.0000 42.9037 0.0000
# 6 0.0000 0.0000 0.0000 -4.6624 0.0000 26.2549
#
#
#
# Elastic Compliance Matrix: (Units=1/GPa)
#
#
# Indices 1 2 3 4 5 6 
#
# 1 0.010464 -0.003856 -0.000632 0.000000 -0.003260 0.000000
# 2 -0.003856 0.008669 -0.002654 0.000000 0.002020 0.000000
# 3 -0.000632 -0.002654 0.008461 0.000000 0.001373 0.000000
# 4 0.000000 0.000000 0.000000 0.029495 0.000000 0.005238
# 5 -0.003260 0.002020 0.001373 0.000000 0.024727 0.000000
# 6 0.000000 0.000000 0.000000 0.005238 0.000000 0.039018
#
#
# Mechanical properties :
#
#
# Convention : Reuss Voigt Hill
#
# Bulk Modulus (GPa) = 75.13847 78.85939 76.99893
# Shear Modulus (GPa) = 35.82827 39.43872 37.63349
#
# Velocity S-wave (km/s) = 4.02367 4.22154 4.12379
# Velocity P-wave (km/s) = 7.45251 7.70692 7.58078
#
# Compressibility (1/GPa) = 0.01330876
#
# Stress axis : x y z
#
# Youngs Moduli (GPa) = 95.56672 115.35906 118.18776
#
# Poissons Ratio (x) = 0.44487 0.07471
# Poissons Ratio (y) = 0.36854 0.31366
# Poissons Ratio (z) = 0.06041 0.30615
#
# Static dielectric constant tensor:
#      x y z
#    x 4.354130 0.000000 -0.109770 
#    y 0.000000 3.835900 0.000000 
#    z -0.109770 0.000000 3.814570 
# 
# 
# High freq. dielectric constant tensor:
#      x y z
#    x 1.895080 0.000000 -0.014710 
#    y 0.000000 1.861930 0.000000 
#    z -0.014710 0.000000 1.875160 
# 
# From -- ./inp_files/33942.got.cif
#   From: 2010.06.25/outbox.cif.g09.slc.cpg/sg15_17_cif.got.tgz:33942.got - 2010.06.28 07:06:18.
