data_PCOD8149481
_publ_section_title
;
Structure prediction by ZEFSAII (Michael W. Deem and Ramdas Pophale) SiO2 
 PCOD8149481
Probable space group: C 2/C
;
_chemical_formula_sum "Si O2"
_cell_formula_units_Z 44
_cell_length_a 8.870583
_cell_length_b 12.279880
_cell_length_c 19.393983
_cell_angle_alpha 90.000000
_cell_angle_beta 120.384654
_cell_angle_gamma 90.000000
_cell_volume 1822.415950
_symmetry_space_group_name_H-M "C 2/C"
_symmetry_group_IT_number 15
_symmetry_cell_setting 'monoclinic'
loop_
_space_group_symop_operation_xyz
x,y,z
-x,y,1/2-z
-x,-y,-z
x,-y,1/2+z
1/2+x,1/2+y,z
1/2-x,1/2+y,1/2-z
1/2-x,1/2-y,-z
1/2+x,1/2-y,1/2+z
loop_
_atom_site_type_symbol
_atom_site_label
_atom_site_fract_x
_atom_site_fract_y
_atom_site_fract_z
Si Si1 0.215668 0.813491 0.415768
Si Si2 0.949836 0.641153 0.379967
Si Si3 0.036226 0.605630 0.923407
Si Si4 0.579695 0.700134 0.341854
Si Si5 0.593764 0.530108 0.451575
Si Si6 0.000000 0.730797 0.250000
O O1 0.358525 0.795752 0.559504
O O2 0.425279 0.835571 0.459783
O O3 0.152853 0.802406 0.321041
O O4 0.113377 0.917553 0.417751
O O5 0.790767 0.689736 0.387070
O O6 0.958316 0.513473 0.394175
O O7 0.911208 0.658089 0.289639
O O8 0.031662 0.677140 0.852976
O O9 0.231222 0.596262 0.993680
O O10 0.500000 0.672391 0.250000
O O11 0.494702 0.615096 0.377945
O O12 0.500000 0.500000 0.500000
#
# Coordination Sequence:
#
# PCOD8149481 Si02
#       6
#     8   8   8   8   8   4
#     4  10  23  46  76 106 151 194 252 310 374 447
#     4  10  24  47  74 111 149 196 251 311 383 445
#     4  12  26  47  77 112 150 200 252 311 386 454
#     4  12  28  49  78 111 154 197 259 317 379 455
#     4  12  28  49  76 112 156 207 251 317 383 461
#     4   8  22  44  72 112 148 190 250 320 380 440
#
# _framework density 24.143775000000002
#
# number of rings (size 3 to 8) (size 9 to 14) (size 15 to 20)
#    1.091    0.000    1.818    3.273    5.091    0.727 
#    0.000    0.000    0.000    0.000    0.000    0.000 
#    0.000    0.000    0.000    0.000    0.000    0.000 
#
# Total GULP energy -272697.690616 kJ/mol
# GULP energy per Si atom -12395.349573 kJ/mol
# Density = 2.408882 g / cm^3
# Si number density = 24.143775 Si / 1000 Ang^3
#
#
#
# Elastic Constant Matrix: (Units=GPa)
#
#
# Indices 1 2 3 4 5 6 
#
# 1 156.3463 75.3250 51.7425 0.0000 -11.9945 0.0000
# 2 75.3250 156.1821 57.4930 0.0000 -10.4699 0.0000
# 3 51.7425 57.4930 59.4115 0.0000 -14.1007 0.0000
# 4 0.0000 0.0000 0.0000 -28.9451 0.0000 831.0069
# 5 -11.9945 -10.4699 -14.1007 0.0000 40.7156 0.0000
# 6 0.0000 0.0000 0.0000 831.0069 0.0000**********
#
#
#
# Elastic Compliance Matrix: (Units=1/GPa)
#
#
# Indices 1 2 3 4 5 6 
#
# 1 0.009530 -0.002398 -0.005948 0.000000 0.000131 0.000000
# 2 -0.002398 0.010576 -0.008355 0.000000 -0.000880 0.000000
# 3 -0.005948 -0.008355 0.031784 0.000000 0.007107 0.000000
# 4 0.000000 0.000000 0.000000 0.025765 0.000000 0.002101
# 5 0.000131 -0.000880 0.007107 0.000000 0.026834 0.000000
# 6 0.000000 0.000000 0.000000 0.002101 0.000000 0.000073
#
#
# Mechanical properties :
#
#
# Convention : Reuss Voigt Hill
#
# Bulk Modulus (GPa) = 54.09010 82.34013 68.21511
# Shear Modulus (GPa) = 34.69153 -2023.53976 -994.42411
#
# Velocity S-wave (km/s) = 3.79472 -28.98172 -20.31675
# Velocity P-wave (km/s) = 6.45383 32.95060 22.84831
#
# Compressibility (1/GPa) = 0.01848767
#
# Stress axis : x y z
#
# Youngs Moduli (GPa) = 104.93308 94.55591 31.46208
#
# Poissons Ratio (x) = 0.22672 0.18715
# Poissons Ratio (y) = 0.25160 0.26287
# Poissons Ratio (z) = 0.62419 0.79001
#
# Static dielectric constant tensor:
#      x y z
#    x 3.486250 0.000000 -0.821700 
#    y 0.000000 4.359290 0.000000 
#    z -0.821700 0.000000 4.365480 
# 
# 
# High freq. dielectric constant tensor:
#      x y z
#    x 1.969720 0.000000 -0.019740 
#    y 0.000000 1.960080 0.000000 
#    z -0.019740 0.000000 1.975570 
# 
# From -- ./inp_files/189352.got.cif
#   From: 2010.06.25/outbox.cif.g09.slc.cpg/sg15_95_cif.got.tgz:189352.got - 2010.06.28 07:06:18.
