data_PCOD8149673
_publ_section_title
;
Structure prediction by ZEFSAII (Michael W. Deem and Ramdas Pophale) SiO2 
 PCOD8149673
Probable space group: C 2/C
;
_chemical_formula_sum "Si O2"
_cell_formula_units_Z 52
_cell_length_a 22.254787
_cell_length_b 16.407679
_cell_length_c 9.214924
_cell_angle_alpha 90.000000
_cell_angle_beta 130.956912
_cell_angle_gamma 90.000000
_cell_volume 2541.124295
_symmetry_space_group_name_H-M "C 2/C"
_symmetry_group_IT_number 15
_symmetry_cell_setting 'monoclinic'
loop_
_space_group_symop_operation_xyz
x,y,z
-x,y,1/2-z
-x,-y,-z
x,-y,1/2+z
1/2+x,1/2+y,z
1/2-x,1/2+y,1/2-z
1/2-x,1/2-y,-z
1/2+x,1/2-y,1/2+z
loop_
_atom_site_type_symbol
_atom_site_label
_atom_site_fract_x
_atom_site_fract_y
_atom_site_fract_z
Si Si1 0.584556 0.294930 0.961845
Si Si2 0.000000 0.507876 0.250000
Si Si3 0.486779 0.730757 0.560603
Si Si4 0.145054 0.904713 0.661446
Si Si5 0.074502 0.399115 0.118947
Si Si6 0.906857 0.966970 0.631730
Si Si7 0.297160 0.821882 0.002883
O O1 0.500000 0.285080 0.750000
O O2 0.625808 0.380105 0.980490
O O3 0.566039 0.302976 0.105615
O O4 0.639010 0.217020 0.008403
O O5 0.954935 0.455508 0.297478
O O6 0.065834 0.560130 0.445191
O O7 0.500000 0.741031 0.750000
O O8 0.409499 0.675482 0.412950
O O9 0.476055 0.816932 0.465330
O O10 0.114044 0.968701 0.732094
O O11 0.237171 0.880082 0.820488
O O12 0.137419 0.953785 0.500157
O O13 0.164319 0.375145 0.305412
O O14 0.000000 0.977435 0.750000
O O15 0.250000 0.750000 0.000000
#
# Coordination Sequence:
#
# PCOD8149673 Si02
#       7
#     8   4   8   8   8   8   8
#     4  11  20  41  70  94 123 175 222 268 325 388
#     4  10  24  40  66  96 120 162 212 274 320 368
#     4  12  23  40  69  99 126 170 226 272 314 391
#     4  12  25  40  65  98 137 174 213 268 332 390
#     4  11  21  41  65  93 125 160 215 265 321 379
#     4  11  22  40  65  98 132 171 219 268 324 390
#     4  12  22  42  69  92 131 174 215 261 332 392
#
# _framework density 20.463383
#
# number of rings (size 3 to 8) (size 9 to 14) (size 15 to 20)
#    0.000    0.615    8.462    1.846    2.154    1.231 
#    0.000    0.769    3.385    0.000    0.000    0.000 
#    0.000    0.000    0.000    0.000    0.000    0.000 
#
# Total GULP energy -322299.799457 kJ/mol
# GULP energy per Si atom -12396.146133 kJ/mol
# Density = 2.041681 g / cm^3
# Si number density = 20.463383 Si / 1000 Ang^3
#
#
#
# Elastic Constant Matrix: (Units=GPa)
#
#
# Indices 1 2 3 4 5 6 
#
# 1 67.7675 27.8475 43.3729 0.0000 2.2459 0.0000
# 2 27.8475 95.8564 62.9868 0.0000 -2.7038 0.0000
# 3 43.3729 62.9868 122.1247 0.0000 2.8394 0.0000
# 4 0.0000 0.0000 0.0000 32.7178 0.0000 -5.8372
# 5 2.2459 -2.7038 2.8394 0.0000 32.6337 0.0000
# 6 0.0000 0.0000 0.0000 -5.8372 0.0000 21.6576
#
#
#
# Elastic Compliance Matrix: (Units=1/GPa)
#
#
# Indices 1 2 3 4 5 6 
#
# 1 0.019301 -0.001731 -0.005940 0.000000 -0.000955 0.000000
# 2 -0.001731 0.016069 -0.007722 0.000000 0.002122 0.000000
# 3 -0.005940 -0.007722 0.014315 0.000000 -0.001477 0.000000
# 4 0.000000 0.000000 0.000000 0.032108 0.000000 0.008654
# 5 -0.000955 0.002122 -0.001477 0.000000 0.031013 0.000000
# 6 0.000000 0.000000 0.000000 0.008654 0.000000 0.048506
#
#
# Mechanical properties :
#
#
# Convention : Reuss Voigt Hill
#
# Bulk Modulus (GPa) = 52.91337 61.57368 57.24352
# Shear Modulus (GPa) = 25.20175 27.50459 26.35317
#
# Velocity S-wave (km/s) = 3.51316 3.67016 3.59252
# Velocity P-wave (km/s) = 6.50923 6.93650 6.72626
#
# Compressibility (1/GPa) = 0.01889882
#
# Stress axis : x y z
#
# Youngs Moduli (GPa) = 51.81103 62.22981 69.85622
#
# Poissons Ratio (x) = 0.10773 0.41493
# Poissons Ratio (y) = 0.08969 0.53946
# Poissons Ratio (z) = 0.30774 0.48057
#
# Static dielectric constant tensor:
#      x y z
#    x 3.734820 0.000000 -0.092830 
#    y 0.000000 4.029860 0.000000 
#    z -0.092830 0.000000 3.980550 
# 
# 
# High freq. dielectric constant tensor:
#      x y z
#    x 1.784100 0.000000 -0.014490 
#    y 0.000000 1.814550 0.000000 
#    z -0.014490 0.000000 1.792870 
# 
# From -- ./inp_files/57061.got.cif
#   From: 2010.06.25/outbox.cif.g09.slc.cpg/sg15_29_cif.got.tgz:57061.got - 2010.06.28 07:06:18.
