data_PCOD8149555
_publ_section_title
;
Structure prediction by ZEFSAII (Michael W. Deem and Ramdas Pophale) SiO2 
 PCOD8149555
Probable space group: C 2/C
;
_chemical_formula_sum "Si O2"
_cell_formula_units_Z 36
_cell_length_a 7.267754
_cell_length_b 12.369242
_cell_length_c 26.794898
_cell_angle_alpha 90.000000
_cell_angle_beta 41.957046
_cell_angle_gamma 90.000000
_cell_volume 1610.439582
_symmetry_space_group_name_H-M "C 2/C"
_symmetry_group_IT_number 15
_symmetry_cell_setting 'monoclinic'
loop_
_space_group_symop_operation_xyz
x,y,z
-x,y,1/2-z
-x,-y,-z
x,-y,1/2+z
1/2+x,1/2+y,z
1/2-x,1/2+y,1/2-z
1/2-x,1/2-y,-z
1/2+x,1/2-y,1/2+z
loop_
_atom_site_type_symbol
_atom_site_label
_atom_site_fract_x
_atom_site_fract_y
_atom_site_fract_z
Si Si1 0.500000 0.787652 0.250000
Si Si2 0.804071 0.602285 0.586372
Si Si3 0.294062 0.927715 0.978130
Si Si4 0.066215 0.681502 0.149183
Si Si5 0.704629 0.467114 0.361871
O O1 0.745237 0.709954 0.218668
O O2 0.410680 0.865730 0.314056
O O3 0.909462 0.619799 0.507699
O O4 0.752975 0.714764 0.625930
O O5 0.511484 0.537442 0.640949
O O6 0.029041 0.534971 0.571868
O O7 0.351273 0.839725 0.924793
O O8 0.967477 0.957395 0.051011
O O9 0.131395 0.580289 0.171786
#
# Coordination Sequence:
#
# PCOD8149555 Si02
#       5
#     4   8   8   8   8
#     4  10  24  36  50  80 116 148 182 218 274 328
#     4   8  19  35  56  88 109 133 174 232 279 316
#     4   9  18  38  59  85 112 131 184 240 262 320
#     4  11  20  37  60  78 107 151 183 219 278 318
#     4   9  20  38  55  81 112 140 184 231 263 327
#
# _framework density 22.354143000000001
#
# number of rings (size 3 to 8) (size 9 to 14) (size 15 to 20)
#    1.333    1.333    0.000    1.333    0.000    4.444 
#    0.000    2.222    0.000    0.000    0.000    0.000 
#    0.000    0.000    0.000    0.000    0.000    0.000 
#
# Total GULP energy -223017.316656 kJ/mol
# GULP energy per Si atom -12389.850925 kJ/mol
# Density = 2.230326 g / cm^3
# Si number density = 22.354143 Si / 1000 Ang^3
#
#
#
# Elastic Constant Matrix: (Units=GPa)
#
#
# Indices 1 2 3 4 5 6 
#
# 1 44.5662 53.8589 34.5311 0.0041 -22.8272 -0.0073
# 2 53.8589 143.9603 53.4722 -0.0005 -30.1130 -0.0004
# 3 34.5311 53.4722 105.9044 -0.0054 -39.3033 0.0059
# 4 0.0041 -0.0005 -0.0054 46.3600 -0.0019 -10.6195
# 5 -22.8272 -30.1130 -39.3033 -0.0019 29.6431 0.0056
# 6 -0.0073 -0.0004 0.0059 -10.6195 0.0056 27.3386
#
#
#
# Elastic Compliance Matrix: (Units=1/GPa)
#
#
# Indices 1 2 3 4 5 6 
#
# 1 0.053522 -0.014406 -0.000616 -0.000002 0.025765 0.000008
# 2 -0.014406 0.012972 -0.002124 0.000000 -0.000733 -0.000003
# 3 -0.000616 -0.002124 0.019174 0.000001 0.022790 -0.000008
# 4 -0.000002 0.000000 0.000001 0.023677 0.000000 0.009197
# 5 0.025765 -0.000733 0.022790 0.000000 0.083048 -0.000015
# 6 0.000008 -0.000003 -0.000008 0.009197 -0.000015 0.040151
#
#
# Mechanical properties :
#
#
# Convention : Reuss Voigt Hill
#
# Bulk Modulus (GPa) = 19.46444 64.23948 41.85196
# Shear Modulus (GPa) = 17.60806 30.83959 24.22383
#
# Velocity S-wave (km/s) = 2.80962 3.71831 3.29544
# Velocity P-wave (km/s) = 4.38765 6.87270 5.76565
#
# Compressibility (1/GPa) = 0.05137573
#
# Stress axis : x y z
#
# Youngs Moduli (GPa) = 18.68374 77.09103 52.15497
#
# Poissons Ratio (x) = 1.11056 0.03212
# Poissons Ratio (y) = 0.26915 0.11079
# Poissons Ratio (z) = 0.01151 0.16376
#
# Static dielectric constant tensor:
#      x y z
#    x 3.492130 -0.000010 -0.301130 
#    y -0.000010 3.862060 0.000010 
#    z -0.301130 0.000010 3.945980 
# 
# 
# High freq. dielectric constant tensor:
#      x y z
#    x 1.843450 0.000000 -0.023090 
#    y 0.000000 1.878990 0.000000 
#    z -0.023090 0.000000 1.873810 
# 
# From -- ./inp_files/187437.got.cif
#   From: 2010.06.25/outbox.cif.g09.slc.cpg/sg15_94_cif.got.tgz:187437.got - 2010.06.28 07:06:18.
