data_PCOD8149003
_publ_section_title
;
Structure prediction by ZEFSAII (Michael W. Deem and Ramdas Pophale) SiO2 
 PCOD8149003
Probable space group: C 2/C
;
_chemical_formula_sum "Si O2"
_cell_formula_units_Z 52
_cell_length_a 13.790097
_cell_length_b 14.368300
_cell_length_c 12.448066
_cell_angle_alpha 90.000000
_cell_angle_beta 69.131640
_cell_angle_gamma 90.000000
_cell_volume 2304.666232
_symmetry_space_group_name_H-M "C 2/C"
_symmetry_group_IT_number 15
_symmetry_cell_setting 'monoclinic'
loop_
_space_group_symop_operation_xyz
x,y,z
-x,y,1/2-z
-x,-y,-z
x,-y,1/2+z
1/2+x,1/2+y,z
1/2-x,1/2+y,1/2-z
1/2-x,1/2-y,-z
1/2+x,1/2-y,1/2+z
loop_
_atom_site_type_symbol
_atom_site_label
_atom_site_fract_x
_atom_site_fract_y
_atom_site_fract_z
Si Si1 0.413266 0.374630 0.528754
Si Si2 0.083083 0.548975 0.893320
Si Si3 0.303693 0.118319 0.269223
Si Si4 0.204403 0.797082 0.622118
Si Si5 0.354045 0.192069 0.466949
Si Si6 0.927170 0.960376 0.878824
Si Si7 0.500000 0.180459 0.750000
O O1 0.313498 0.393930 0.642491
O O2 0.435010 0.268518 0.480334
O O3 0.516614 0.401304 0.550619
O O4 0.395442 0.438109 0.431554
O O5 0.150800 0.478067 0.795242
O O6 0.014593 0.616311 0.847044
O O7 0.157337 0.608680 0.942771
O O8 0.000000 0.500000 0.000000
O O9 0.293397 0.197293 0.179769
O O10 0.378829 0.152351 0.337375
O O11 0.250000 0.750000 0.500000
O O12 0.177075 0.904700 0.609108
O O13 0.101220 0.744912 0.701847
O O14 0.250000 0.250000 0.500000
O O15 0.000000 0.975007 0.750000
#
# Coordination Sequence:
#
# PCOD8149003 Si02
#       7
#     8   8   8   8   8   8   4
#     4  10  23  43  70  99 135 181 222 286 349 415
#     4  12  26  44  69  99 139 182 229 287 344 413
#     4  11  24  43  69  99 136 176 230 281 344 417
#     4  12  25  43  71 100 135 179 234 281 343 419
#     4  10  23  44  67  97 137 177 226 283 345 414
#     4  11  22  44  67 101 137 174 228 289 346 411
#     4  12  24  46  70  96 138 182 224 292 340 406
#
# _framework density 22.562919999999998
#
# number of rings (size 3 to 8) (size 9 to 14) (size 15 to 20)
#    0.000    0.923    2.308    4.615    6.462    0.000 
#    8.308    0.000    0.000    0.000    0.000    0.000 
#    0.000    0.000    0.000    0.000    0.000    0.000 
#
# Total GULP energy -322327.509503 kJ/mol
# GULP energy per Si atom -12397.211904 kJ/mol
# Density = 2.251157 g / cm^3
# Si number density = 22.562920 Si / 1000 Ang^3
#
#
#
# Elastic Constant Matrix: (Units=GPa)
#
#
# Indices 1 2 3 4 5 6 
#
# 1 48.8473 29.6226 23.4359 0.0000 16.6844 0.0000
# 2 29.6226 142.4975 76.6625 0.0000 14.5316 0.0000
# 3 23.4359 76.6625 136.4149 0.0000 24.4565 0.0000
# 4 0.0000 0.0000 0.0000 51.4372 0.0000 13.1132
# 5 16.6844 14.5316 24.4565 0.0000 40.2411 0.0000
# 6 0.0000 0.0000 0.0000 13.1132 0.0000 25.9994
#
#
#
# Elastic Compliance Matrix: (Units=1/GPa)
#
#
# Indices 1 2 3 4 5 6 
#
# 1 0.026426 -0.004301 -0.000490 0.000000 -0.009105 0.000000
# 2 -0.004301 0.010761 -0.005534 0.000000 0.001261 0.000000
# 3 -0.000490 -0.005534 0.011369 0.000000 -0.004708 0.000000
# 4 0.000000 0.000000 0.000000 0.022310 0.000000 -0.011252
# 5 -0.009105 0.001261 -0.004708 0.000000 0.031031 0.000000
# 6 0.000000 0.000000 0.000000 -0.011252 0.000000 0.044138
#
#
# Mechanical properties :
#
#
# Convention : Reuss Voigt Hill
#
# Bulk Modulus (GPa) = 35.83783 65.24464 50.54124
# Shear Modulus (GPa) = 28.41127 36.73813 32.57470
#
# Velocity S-wave (km/s) = 3.55237 4.03954 3.80376
# Velocity P-wave (km/s) = 5.72222 7.12297 6.46067
#
# Compressibility (1/GPa) = 0.02790348
#
# Stress axis : x y z
#
# Youngs Moduli (GPa) = 37.84222 92.93114 87.95795
#
# Poissons Ratio (x) = 0.39970 0.04314
# Poissons Ratio (y) = 0.16276 0.48680
# Poissons Ratio (z) = 0.01856 0.51432
#
# Static dielectric constant tensor:
#      x y z
#    x 4.374490 0.000000 0.609900 
#    y 0.000000 23.026880 0.000000 
#    z 0.609900 0.000000 4.460040 
# 
# 
# High freq. dielectric constant tensor:
#      x y z
#    x 1.886190 0.000000 0.026480 
#    y 0.000000 1.899770 0.000000 
#    z 0.026480 0.000000 1.900790 
# 
# From -- ./inp_files/96947.got.cif
#   From: 2010.06.25/outbox.cif.g09.slc.cpg/sg15_49_cif.got.tgz:96947.got - 2010.06.28 07:06:18.
