data_PCOD8149795
_publ_section_title
;
Structure prediction by ZEFSAII (Michael W. Deem and Ramdas Pophale) SiO2 
 PCOD8149795
Probable space group: C 2/C
;
_chemical_formula_sum "Si O2"
_cell_formula_units_Z 44
_cell_length_a 24.285061
_cell_length_b 17.447034
_cell_length_c 14.423959
_cell_angle_alpha 90.000000
_cell_angle_beta 159.585765
_cell_angle_gamma 90.000000
_cell_volume 2131.708737
_symmetry_space_group_name_H-M "C 2/C"
_symmetry_group_IT_number 15
_symmetry_cell_setting 'monoclinic'
loop_
_space_group_symop_operation_xyz
x,y,z
-x,y,1/2-z
-x,-y,-z
x,-y,1/2+z
1/2+x,1/2+y,z
1/2-x,1/2+y,1/2-z
1/2-x,1/2-y,-z
1/2+x,1/2-y,1/2+z
loop_
_atom_site_type_symbol
_atom_site_label
_atom_site_fract_x
_atom_site_fract_y
_atom_site_fract_z
Si Si1 0.431414 0.135141 0.545145
Si Si2 0.009483 0.089009 0.113702
Si Si3 0.765936 0.787057 0.260952
Si Si4 0.907197 0.920041 0.964463
Si Si5 0.713061 0.176710 0.877602
Si Si6 0.000000 0.199142 0.750000
O O1 0.500000 0.105951 0.750000
O O2 0.401229 0.226143 0.498962
O O3 0.566425 0.124253 0.680679
O O4 0.269416 0.088670 0.271160
O O5 0.130177 0.124210 0.378622
O O6 0.095053 0.093496 0.149049
O O7 0.973874 0.003556 0.091555
O O8 0.845489 0.135433 0.849297
O O9 0.669289 0.799774 0.203797
O O10 0.651258 0.754353 0.000115
O O11 0.017687 0.855990 0.187728
O O12 0.750000 0.250000 0.000000
#
# Coordination Sequence:
#
# PCOD8149795 Si02
#       6
#     8   8   8   8   8   4
#     4  11  19  38  63  93 125 158 210 267 313 376
#     4  11  22  41  67  96 125 163 224 265 314 387
#     4  11  23  38  64  94 124 167 217 266 310 379
#     4  10  24  42  62  91 133 177 200 259 337 382
#     4  12  20  36  68  99 120 155 219 277 310 363
#     4  10  24  44  58  88 138 174 204 256 332 384
#
# _framework density 20.640718
#
# number of rings (size 3 to 8) (size 9 to 14) (size 15 to 20)
#    0.000    1.091    5.455    1.636    2.545    0.727 
#    4.909    0.909    0.000    0.000    0.000    0.000 
#    0.000    0.000    0.000    0.000    0.000    0.000 
#
# Total GULP energy -272794.207648 kJ/mol
# GULP energy per Si atom -12399.736711 kJ/mol
# Density = 2.059374 g / cm^3
# Si number density = 20.640718 Si / 1000 Ang^3
#
#
#
# Elastic Constant Matrix: (Units=GPa)
#
#
# Indices 1 2 3 4 5 6 
#
# 1 55.9920 26.2226 46.5174 0.0000 12.8725 0.0000
# 2 26.2226 98.3848 51.7490 0.0000 6.7532 0.0000
# 3 46.5174 51.7490 120.8487 0.0000 3.7725 0.0000
# 4 0.0000 0.0000 0.0000 31.9448 0.0000 1.5299
# 5 12.8725 6.7532 3.7725 0.0000 34.9956 0.0000
# 6 0.0000 0.0000 0.0000 1.5299 0.0000 29.2288
#
#
#
# Elastic Compliance Matrix: (Units=1/GPa)
#
#
# Indices 1 2 3 4 5 6 
#
# 1 0.029357 -0.001798 -0.010238 0.000000 -0.009348 0.000000
# 2 -0.001798 0.013361 -0.004986 0.000000 -0.001380 0.000000
# 3 -0.010238 -0.004986 0.014251 0.000000 0.003192 0.000000
# 4 0.000000 0.000000 0.000000 0.031383 0.000000 -0.001643
# 5 -0.009348 -0.001380 0.003192 0.000000 0.031936 0.000000
# 6 0.000000 0.000000 0.000000 -0.001643 0.000000 0.034299
#
#
# Mechanical properties :
#
#
# Convention : Reuss Voigt Hill
#
# Bulk Modulus (GPa) = 43.62222 58.24485 50.93353
# Shear Modulus (GPa) = 25.47492 29.28293 27.37892
#
# Velocity S-wave (km/s) = 3.51694 3.77065 3.64600
# Velocity P-wave (km/s) = 6.13773 6.87290 6.51569
#
# Compressibility (1/GPa) = 0.02292410
#
# Stress axis : x y z
#
# Youngs Moduli (GPa) = 34.06393 74.84661 70.16869
#
# Poissons Ratio (x) = 0.13454 0.71842
# Poissons Ratio (y) = 0.06123 0.34988
# Poissons Ratio (z) = 0.34876 0.37320
#
# Static dielectric constant tensor:
#      x y z
#    x 3.698990 0.000000 0.058030 
#    y 0.000000 3.644200 0.000000 
#    z 0.058030 0.000000 3.655620 
# 
# 
# High freq. dielectric constant tensor:
#      x y z
#    x 1.803560 0.000000 0.003830 
#    y 0.000000 1.795710 0.000000 
#    z 0.003830 0.000000 1.802490 
# 
# From -- ./inp_files/145438.got.cif
#   From: 2010.06.25/outbox.cif.g09.slc.cpg/sg15_73_cif.got.tgz:145438.got - 2010.06.28 07:06:18.
