data_PCOD8149089
_publ_section_title
;
Structure prediction by ZEFSAII (Michael W. Deem and Ramdas Pophale) SiO2 
 PCOD8149089
Probable space group: C 2/C
;
_chemical_formula_sum "Si O2"
_cell_formula_units_Z 48
_cell_length_a 8.884469
_cell_length_b 20.974909
_cell_length_c 12.524449
_cell_angle_alpha 90.000000
_cell_angle_beta 76.922722
_cell_angle_gamma 90.000000
_cell_volume 2273.413708
_symmetry_space_group_name_H-M "C 2/C"
_symmetry_group_IT_number 15
_symmetry_cell_setting 'monoclinic'
loop_
_space_group_symop_operation_xyz
x,y,z
-x,y,1/2-z
-x,-y,-z
x,-y,1/2+z
1/2+x,1/2+y,z
1/2-x,1/2+y,1/2-z
1/2-x,1/2-y,-z
1/2+x,1/2-y,1/2+z
loop_
_atom_site_type_symbol
_atom_site_label
_atom_site_fract_x
_atom_site_fract_y
_atom_site_fract_z
Si Si1 0.362014 0.211691 0.560193
Si Si2 0.124036 0.621827 0.519852
Si Si3 0.000000 0.919993 0.750000
Si Si4 0.279521 0.996779 0.629631
Si Si5 0.960161 0.168179 0.446120
Si Si6 0.500000 0.929647 0.250000
Si Si7 0.387182 0.620301 0.864961
O O1 0.250000 0.250000 0.500000
O O2 0.479162 0.159390 0.488657
O O3 0.475328 0.262238 0.599578
O O4 0.245161 0.170714 0.653764
O O5 0.137510 0.551043 0.466866
O O6 0.274678 0.664842 0.473637
O O7 0.096829 0.614683 0.652010
O O8 0.152644 0.960888 0.718290
O O9 0.967840 0.879248 0.650256
O O10 0.394993 0.024194 0.697526
O O11 0.196290 0.055440 0.581375
O O12 0.016237 0.149343 0.554230
O O13 0.500000 0.604737 0.750000
#
# Coordination Sequence:
#
# PCOD8149089 Si02
#       7
#     8   8   4   8   8   4   8
#     4  10  23  44  66  90 132 174 224 272 327 391
#     4  11  24  41  65  99 129 177 219 279 328 395
#     4  10  24  43  64  96 129 182 212 274 334 400
#     4  11  24  40  65  98 136 167 225 265 342 392
#     4  10  24  43  68  92 136 172 223 272 326 399
#     4  12  24  37  64 100 131 170 216 282 326 396
#     4  11  22  43  68  99 129 175 219 271 332 396
#
# _framework density 21.113624000000002
#
# number of rings (size 3 to 8) (size 9 to 14) (size 15 to 20)
#    0.000    1.333    2.500    2.000    2.333    3.333 
#   12.000    0.000    0.000    0.000    0.000    0.000 
#    0.000    0.000    0.000    0.000    0.000    0.000 
#
# Total GULP energy -297399.764644 kJ/mol
# GULP energy per Si atom -12391.656860 kJ/mol
# Density = 2.106557 g / cm^3
# Si number density = 21.113624 Si / 1000 Ang^3
#
#
#
# Elastic Constant Matrix: (Units=GPa)
#
#
# Indices 1 2 3 4 5 6 
#
# 1 113.2386 60.4274 27.1291 0.0000 -14.1119 0.0000
# 2 60.4274 128.9742 31.2557 0.0000 -21.3402 0.0000
# 3 27.1291 31.2557 79.3035 0.0000 -9.3127 0.0000
# 4 0.0000 0.0000 0.0000 -399.1079 0.0000 538.4580
# 5 -14.1119 -21.3402 -9.3127 0.0000 23.5921 0.0000
# 6 0.0000 0.0000 0.0000 538.4580 0.0000 -646.2814
#
#
#
# Elastic Compliance Matrix: (Units=1/GPa)
#
#
# Indices 1 2 3 4 5 6 
#
# 1 0.012169 -0.004873 -0.001998 0.000000 0.002083 0.000000
# 2 -0.004873 0.011681 -0.002137 0.000000 0.006807 0.000000
# 3 -0.001998 -0.002137 0.014438 0.000000 0.002571 0.000000
# 4 0.000000 0.000000 0.000000 0.020196 0.000000 0.016826
# 5 0.002083 0.006807 0.002571 0.000000 0.050805 0.000000
# 6 0.000000 0.000000 0.000000 0.016826 0.000000 0.012472
#
#
# Mechanical properties :
#
#
# Convention : Reuss Voigt Hill
#
# Bulk Modulus (GPa) = 49.33038 62.12675 55.72856
# Shear Modulus (GPa) = 34.12177 -190.84582 -78.36203
#
# Velocity S-wave (km/s) = 4.02444 -9.51767 -6.09877
# Velocity P-wave (km/s) = 6.70893 9.55472 4.81056
#
# Compressibility (1/GPa) = 0.02027149
#
# Stress axis : x y z
#
# Youngs Moduli (GPa) = 82.17306 85.61011 69.26395
#
# Poissons Ratio (x) = 0.41716 0.13839
# Poissons Ratio (y) = 0.40042 0.14804
# Poissons Ratio (z) = 0.16418 0.18298
#
# Static dielectric constant tensor:
#      x y z
#    x 4.219310 0.000000 -0.285720 
#    y 0.000000 4.340520 0.000000 
#    z -0.285720 0.000000 3.741260 
# 
# 
# High freq. dielectric constant tensor:
#      x y z
#    x 1.846980 0.000000 -0.022700 
#    y 0.000000 1.848550 0.000000 
#    z -0.022700 0.000000 1.800580 
# 
# From -- ./inp_files/79815.got.cif
#   From: 2010.06.25/outbox.cif.g09.slc.cpg/sg15_40_cif.got.tgz:79815.got - 2010.06.28 07:06:18.
