data_PCOD8149885
_publ_section_title
;
Structure prediction by ZEFSAII (Michael W. Deem and Ramdas Pophale) SiO2 
 PCOD8149885
Probable space group: C 2/C
;
_chemical_formula_sum "Si O2"
_cell_formula_units_Z 36
_cell_length_a 7.214324
_cell_length_b 12.175149
_cell_length_c 18.731718
_cell_angle_alpha 90.000000
_cell_angle_beta 80.955135
_cell_angle_gamma 90.000000
_cell_volume 1624.850721
_symmetry_space_group_name_H-M "C 2/C"
_symmetry_group_IT_number 15
_symmetry_cell_setting 'monoclinic'
loop_
_space_group_symop_operation_xyz
x,y,z
-x,y,1/2-z
-x,-y,-z
x,-y,1/2+z
1/2+x,1/2+y,z
1/2-x,1/2+y,1/2-z
1/2-x,1/2-y,-z
1/2+x,1/2-y,1/2+z
loop_
_atom_site_type_symbol
_atom_site_label
_atom_site_fract_x
_atom_site_fract_y
_atom_site_fract_z
Si Si1 0.188846 0.449445 0.342457
Si Si2 0.279452 0.233307 0.764698
Si Si3 0.731499 0.339039 0.591990
Si Si4 0.561259 0.790513 0.473928
Si Si5 0.000000 0.590851 0.250000
O O1 0.284677 0.379201 0.271702
O O2 0.323027 0.544235 0.367319
O O3 0.114755 0.369739 0.406888
O O4 0.011927 0.514322 0.319225
O O5 0.500000 0.249237 0.750000
O O6 0.224457 0.242740 0.851936
O O7 0.183389 0.333486 0.727860
O O8 0.557313 0.311002 0.551293
O O9 0.925317 0.354315 0.536817
O O10 0.750000 0.750000 0.500000
#
# Coordination Sequence:
#
# PCOD8149885 Si02
#       5
#     8   8   8   8   4
#     4  11  22  44  69  97 133 177 217 277 333 389
#     4  11  22  44  68 100 133 168 224 273 325 394
#     4  10  24  43  66 100 132 173 220 272 330 389
#     4  11  24  44  69  94 137 174 222 272 323 399
#     4  10  24  42  68  96 136 170 220 284 328 382
#
# _framework density 22.155881999999998
#
# number of rings (size 3 to 8) (size 9 to 14) (size 15 to 20)
#    0.000    1.333    3.333    0.667    6.222    0.889 
#    8.000   11.111    0.000    0.000    0.000    0.000 
#    0.000    0.000    0.000    0.000    0.000    0.000 
#
# Total GULP energy -223030.941433 kJ/mol
# GULP energy per Si atom -12390.607857 kJ/mol
# Density = 2.210545 g / cm^3
# Si number density = 22.155882 Si / 1000 Ang^3
#
#
#
# Elastic Constant Matrix: (Units=GPa)
#
#
# Indices 1 2 3 4 5 6 
#
# 1 120.7631 54.2206 33.0643 0.0000 25.4847 0.0000
# 2 54.2206 119.7969 40.4171 0.0000 12.8374 0.0000
# 3 33.0643 40.4171 80.3442 0.0000 11.2214 0.0000
# 4 0.0000 0.0000 0.0000 34.4346 0.0000 14.0580
# 5 25.4847 12.8374 11.2214 0.0000 29.8970 0.0000
# 6 0.0000 0.0000 0.0000 14.0580 0.0000 28.4913
#
#
#
# Elastic Compliance Matrix: (Units=1/GPa)
#
#
# Indices 1 2 3 4 5 6 
#
# 1 0.012329 -0.004077 -0.001899 0.000000 -0.008046 0.000000
# 2 -0.004077 0.011590 -0.004161 0.000000 0.000061 0.000000
# 3 -0.001899 -0.004161 0.015667 0.000000 -0.002475 0.000000
# 4 0.000000 0.000000 0.000000 0.036366 0.000000 -0.017943
# 5 -0.008046 0.000061 -0.002475 0.000000 0.041210 0.000000
# 6 0.000000 0.000000 0.000000 -0.017943 0.000000 0.043952
#
#
# Mechanical properties :
#
#
# Convention : Reuss Voigt Hill
#
# Bulk Modulus (GPa) = 51.78236 64.03427 57.90831
# Shear Modulus (GPa) = 26.62039 31.44471 29.03255
#
# Velocity S-wave (km/s) = 3.47003 3.77138 3.62384
# Velocity P-wave (km/s) = 6.28311 6.92307 6.61083
#
# Compressibility (1/GPa) = 0.01931160
#
# Stress axis : x y z
#
# Youngs Moduli (GPa) = 81.10783 86.27964 63.82933
#
# Poissons Ratio (x) = 0.35179 0.12121
# Poissons Ratio (y) = 0.33071 0.26559
# Poissons Ratio (z) = 0.15402 0.35901
#
# Static dielectric constant tensor:
#      x y z
#    x 4.069190 0.000000 0.297880 
#    y 0.000000 4.239450 0.000000 
#    z 0.297880 0.000000 4.626410 
# 
# 
# High freq. dielectric constant tensor:
#      x y z
#    x 1.859700 0.000000 0.027450 
#    y 0.000000 1.872190 0.000000 
#    z 0.027450 0.000000 1.882190 
# 
# From -- ./inp_files/187730.got.cif
#   From: 2010.06.25/outbox.cif.g09.slc.cpg/sg15_94_cif.got.tgz:187730.got - 2010.06.28 07:06:18.
