data_PCOD8149751
_publ_section_title
;
Structure prediction by ZEFSAII (Michael W. Deem and Ramdas Pophale) SiO2 
 PCOD8149751
Probable space group: C 2/C
;
_chemical_formula_sum "Si O2"
_cell_formula_units_Z 32
_cell_length_a 8.780372
_cell_length_b 16.029269
_cell_length_c 17.096214
_cell_angle_alpha 90.000000
_cell_angle_beta 146.702432
_cell_angle_gamma 90.000000
_cell_volume 1320.957693
_symmetry_space_group_name_H-M "C 2/C"
_symmetry_group_IT_number 15
_symmetry_cell_setting 'monoclinic'
loop_
_space_group_symop_operation_xyz
x,y,z
-x,y,1/2-z
-x,-y,-z
x,-y,1/2+z
1/2+x,1/2+y,z
1/2-x,1/2+y,1/2-z
1/2-x,1/2-y,-z
1/2+x,1/2-y,1/2+z
loop_
_atom_site_type_symbol
_atom_site_label
_atom_site_fract_x
_atom_site_fract_y
_atom_site_fract_z
Si Si1 0.383198 0.548286 0.022037
Si Si2 0.869097 0.630820 0.988344
Si Si3 0.301021 0.684890 0.418281
Si Si4 0.714851 0.015500 0.681010
O O1 0.495762 0.642392 0.058026
O O2 0.506665 0.501732 0.150722
O O3 0.500000 0.500000 0.000000
O O4 0.048792 0.546833 0.881062
O O5 0.936725 0.725655 0.994601
O O6 0.700216 0.586489 0.845456
O O7 0.716089 0.631308 0.007931
O O8 0.146997 0.574484 0.112732
O O9 0.000000 0.694989 0.250000
#
# Coordination Sequence:
#
# PCOD8149751 Si02
#       4
#     8   8   8   8
#     4  12  23  45  69 101 137 178 227 278 337 402
#     4  10  24  41  68 100 133 181 223 278 339 405
#     4  11  22  43  67 101 137 179 223 282 339 406
#     4  11  25  44  70 102 133 179 228 278 338 406
#
# _framework density 24.224848000000001
#
# number of rings (size 3 to 8) (size 9 to 14) (size 15 to 20)
#    0.000    1.000    5.000    0.750    3.500    4.000 
#    0.000    0.000    5.500    0.000    0.000    0.000 
#    0.000    0.000    0.000    0.000    0.000    0.000 
#
# Total GULP energy -198232.359757 kJ/mol
# GULP energy per Si atom -12389.522485 kJ/mol
# Density = 2.416971 g / cm^3
# Si number density = 24.224848 Si / 1000 Ang^3
#
#
#
# Elastic Constant Matrix: (Units=GPa)
#
#
# Indices 1 2 3 4 5 6 
#
# 1 135.8266 59.9130 37.9383 0.0121 5.9959 0.0053
# 2 59.9130 131.1499 24.0115 0.0031 -7.7910 0.0024
# 3 37.9383 24.0115 56.7640 0.0344 2.9145 0.0216
# 4 0.0121 0.0031 0.0344 18.4289 0.0144 -16.4244
# 5 5.9959 -7.7910 2.9145 0.0144 52.3159 0.0066
# 6 0.0053 0.0024 0.0216 -16.4244 0.0066 48.8234
#
#
#
# Elastic Compliance Matrix: (Units=1/GPa)
#
#
# Indices 1 2 3 4 5 6 
#
# 1 0.010692 -0.003990 -0.005380 0.000009 -0.001520 0.000005
# 2 -0.003990 0.009862 -0.001609 0.000004 0.002015 0.000002
# 3 -0.005380 -0.001609 0.021937 -0.000063 -0.000845 -0.000030
# 4 0.000009 0.000004 -0.000063 0.077497 -0.000022 0.026070
# 5 -0.001520 0.002015 -0.000845 -0.000022 0.019636 -0.000009
# 6 0.000005 0.000002 -0.000030 0.026070 -0.000009 0.029252
#
#
# Mechanical properties :
#
#
# Convention : Reuss Voigt Hill
#
# Bulk Modulus (GPa) = 48.70156 63.05178 55.87667
# Shear Modulus (GPa) = 25.29370 37.37214 31.33292
#
# Velocity S-wave (km/s) = 3.23479 3.93201 3.60032
# Velocity P-wave (km/s) = 5.83947 6.83363 6.35602
#
# Compressibility (1/GPa) = 0.02053322
#
# Stress axis : x y z
#
# Youngs Moduli (GPa) = 93.52716 101.40251 45.58582
#
# Poissons Ratio (x) = 0.40456 0.24527
# Poissons Ratio (y) = 0.37314 0.07333
# Poissons Ratio (z) = 0.50321 0.16311
#
# Static dielectric constant tensor:
#      x y z
#    x 5.381050 0.000010 -0.822290 
#    y 0.000010 4.626140 0.000020 
#    z -0.822290 0.000020 6.077530 
# 
# 
# High freq. dielectric constant tensor:
#      x y z
#    x 1.971170 0.000000 -0.014230 
#    y 0.000000 1.973110 0.000000 
#    z -0.014230 0.000000 1.964810 
# 
# From -- ./inp_files/190108.got.cif
#   From: 2010.06.25/outbox.cif.g09.slc.cpg/sg15_96_cif.got.tgz:190108.got - 2010.06.28 07:06:18.
