data_PCOD8149169
_publ_section_title
;
Structure prediction by ZEFSAII (Michael W. Deem and Ramdas Pophale) SiO2 
 PCOD8149169
Probable space group: C 2/C
;
_chemical_formula_sum "Si O2"
_cell_formula_units_Z 52
_cell_length_a 22.961223
_cell_length_b 6.469319
_cell_length_c 18.489048
_cell_angle_alpha 90.000000
_cell_angle_beta 118.054436
_cell_angle_gamma 90.000000
_cell_volume 2423.725408
_symmetry_space_group_name_H-M "C 2/C"
_symmetry_group_IT_number 15
_symmetry_cell_setting 'monoclinic'
loop_
_space_group_symop_operation_xyz
x,y,z
-x,y,1/2-z
-x,-y,-z
x,-y,1/2+z
1/2+x,1/2+y,z
1/2-x,1/2+y,1/2-z
1/2-x,1/2-y,-z
1/2+x,1/2-y,1/2+z
loop_
_atom_site_type_symbol
_atom_site_label
_atom_site_fract_x
_atom_site_fract_y
_atom_site_fract_z
Si Si1 0.748863 0.026469 0.969649
Si Si2 0.984401 0.375075 0.661868
Si Si3 0.148203 0.272335 0.995456
Si Si4 0.339441 0.756054 0.335486
Si Si5 0.803411 0.394896 0.709052
Si Si6 0.000000 0.222362 0.250000
Si Si7 0.910035 0.070222 0.783706
O O1 0.713457 0.898894 0.012279
O O2 0.707737 0.018246 0.871398
O O3 0.750000 0.250000 0.000000
O O4 0.825397 0.961837 0.999828
O O5 0.913162 0.319318 0.590825
O O6 0.988075 0.626227 0.672418
O O7 0.000000 0.277871 0.750000
O O8 0.039330 0.240970 0.650436
O O9 0.132038 0.320328 0.069484
O O10 0.264318 0.678084 0.294356
O O11 0.386161 0.573458 0.335079
O O12 0.343394 0.955551 0.286338
O O13 0.847955 0.196146 0.715372
O O14 0.061302 0.076903 0.263740
#
# Coordination Sequence:
#
# PCOD8149169 Si02
#       7
#     8   8   8   8   8   4   8
#     4  10  24  41  70 100 138 186 236 294 347 414
#     4  10  23  44  68  99 135 179 240 288 348 420
#     4  10  24  45  61 104 144 179 236 294 346 418
#     4  11  25  41  71 102 143 187 226 291 360 419
#     4  11  24  44  70 104 139 187 234 289 356 423
#     4  10  24  44  70 104 126 194 230 296 348 418
#     4  12  23  43  72 100 140 181 243 287 348 425
#
# _framework density 21.454575999999999
#
# number of rings (size 3 to 8) (size 9 to 14) (size 15 to 20)
#    0.462    0.923    2.308    1.846    4.308    4.308 
#    0.000    3.077    0.000    0.000    0.000    0.000 
#    0.000    0.000    0.000    0.000    0.000    0.000 
#
# Total GULP energy -322158.221085 kJ/mol
# GULP energy per Si atom -12390.700811 kJ/mol
# Density = 2.140574 g / cm^3
# Si number density = 21.454576 Si / 1000 Ang^3
#
#
#
# Elastic Constant Matrix: (Units=GPa)
#
#
# Indices 1 2 3 4 5 6 
#
# 1 117.9289 65.0608 39.4275 0.0000 1.7886 0.0000
# 2 65.0608 134.0894 55.5568 0.0001 -7.1185 0.0001
# 3 39.4275 55.5568 120.2736 0.0000 -4.2218 0.0000
# 4 0.0000 0.0001 0.0000 25.9682 0.0000 -0.1683
# 5 1.7886 -7.1185 -4.2218 0.0000 31.5710 0.0000
# 6 0.0000 0.0001 0.0000 -0.1683 0.0000 43.5450
#
#
#
# Elastic Compliance Matrix: (Units=1/GPa)
#
#
# Indices 1 2 3 4 5 6 
#
# 1 0.011930 -0.005253 -0.001557 0.000000 -0.002068 0.000000
# 2 -0.005253 0.011609 -0.003555 0.000000 0.002440 0.000000
# 3 -0.001557 -0.003555 0.010491 0.000000 0.000690 0.000000
# 4 0.000000 0.000000 0.000000 0.038510 0.000000 0.000149
# 5 -0.002068 0.002440 0.000690 0.000000 0.032434 0.000000
# 6 0.000000 0.000000 0.000000 0.000149 0.000000 0.022965
#
#
# Mechanical properties :
#
#
# Convention : Reuss Voigt Hill
#
# Bulk Modulus (GPa) = 75.18668 76.93136 76.05902
# Shear Modulus (GPa) = 32.65815 34.36662 33.51238
#
# Velocity S-wave (km/s) = 3.90577 4.00663 3.95652
# Velocity P-wave (km/s) = 7.44720 7.57230 7.51001
#
# Compressibility (1/GPa) = 0.01330023
#
# Stress axis : x y z
#
# Youngs Moduli (GPa) = 83.82455 86.14103 95.32069
#
# Poissons Ratio (x) = 0.45251 0.14840
# Poissons Ratio (y) = 0.44034 0.33883
# Poissons Ratio (z) = 0.13050 0.30620
#
# Static dielectric constant tensor:
#      x y z
#    x 4.024360 0.000000 -0.177460 
#    y 0.000000 3.337700 0.000000 
#    z -0.177460 0.000000 3.206840 
# 
# 
# High freq. dielectric constant tensor:
#      x y z
#    x 1.849980 0.000000 0.000530 
#    y 0.000000 1.854450 0.000000 
#    z 0.000530 0.000000 1.814700 
# 
# From -- ./inp_files/254416.got.cif
#   From: 2010.06.25/outbox.cif.g09.slc.cpg/sg15_128_cif.got.tgz:254416.got - 2010.06.28 07:06:18.
