data_PCOD8149168
_publ_section_title
;
Structure prediction by ZEFSAII (Michael W. Deem and Ramdas Pophale) SiO2 
 PCOD8149168
Probable space group: C 2/C
;
_chemical_formula_sum "Si O2"
_cell_formula_units_Z 56
_cell_length_a 17.884200
_cell_length_b 22.351207
_cell_length_c 9.779039
_cell_angle_alpha 90.000000
_cell_angle_beta 136.119356
_cell_angle_gamma 90.000000
_cell_volume 2709.562339
_symmetry_space_group_name_H-M "C 2/C"
_symmetry_group_IT_number 15
_symmetry_cell_setting 'monoclinic'
loop_
_space_group_symop_operation_xyz
x,y,z
-x,y,1/2-z
-x,-y,-z
x,-y,1/2+z
1/2+x,1/2+y,z
1/2-x,1/2+y,1/2-z
1/2-x,1/2-y,-z
1/2+x,1/2-y,1/2+z
loop_
_atom_site_type_symbol
_atom_site_label
_atom_site_fract_x
_atom_site_fract_y
_atom_site_fract_z
Si Si1 0.715504 0.978838 0.456005
Si Si2 0.000000 0.700086 0.750000
Si Si3 0.105914 0.657798 0.458232
Si Si4 0.099804 0.763088 0.630149
Si Si5 0.408334 0.029100 0.967625
Si Si6 0.720032 0.393982 0.507661
Si Si7 0.776974 0.362315 0.883756
Si Si8 0.500000 0.329763 0.250000
O O1 0.694759 0.970738 0.267704
O O2 0.765425 0.916504 0.575086
O O3 0.611714 0.993639 0.416624
O O4 0.789404 0.038219 0.562451
O O5 0.027105 0.744911 0.662512
O O6 0.898693 0.657498 0.580291
O O7 0.150785 0.702589 0.633327
O O8 0.059267 0.597047 0.461012
O O9 0.205185 0.647067 0.488528
O O10 0.000000 0.688069 0.250000
O O11 0.197264 0.806564 0.801630
O O12 0.023027 0.792122 0.415736
O O13 0.500000 0.000000 0.000000
O O14 0.774047 0.388983 0.727697
O O15 0.599893 0.371046 0.345101
#
# Coordination Sequence:
#
# PCOD8149168 Si02
#       8
#     8   4   8   8   8   8   8   4
#     4  11  22  40  61  90 129 169 213 273 328 386
#     4  12  26  42  65  99 142 174 212 272 344 402
#     4  11  22  39  65 101 131 173 216 277 336 398
#     4  11  25  44  66  97 134 175 228 270 335 388
#     4  11  22  35  59  92 132 168 210 261 333 403
#     4  10  23  44  68  98 133 173 233 275 326 395
#     4  11  25  42  66  97 134 175 220 275 334 402
#     4  10  24  46  73  93 126 186 238 274 316 384
#
# _framework density 20.667545
#
# number of rings (size 3 to 8) (size 9 to 14) (size 15 to 20)
#    0.000    1.143    2.143    4.286    6.000    1.143 
#    2.571    3.571    0.000    0.000    0.000    0.000 
#    0.000    0.000    0.000    0.000    0.000    0.000 
#
# Total GULP energy -347109.241490 kJ/mol
# GULP energy per Si atom -12396.758625 kJ/mol
# Density = 2.062050 g / cm^3
# Si number density = 20.667545 Si / 1000 Ang^3
#
#
#
# Elastic Constant Matrix: (Units=GPa)
#
#
# Indices 1 2 3 4 5 6 
#
# 1 116.9986 55.0398 49.6986 0.0000 -1.8210 0.0000
# 2 55.0398 138.1768 47.1028 0.0000 2.5550 0.0000
# 3 49.6986 47.1028 98.8891 0.0000 3.5323 0.0000
# 4 0.0000 0.0000 0.0000 36.2385 0.0000 -7.3581
# 5 -1.8210 2.5550 3.5323 0.0000 35.2182 0.0000
# 6 0.0000 0.0000 0.0000 -7.3581 0.0000 35.8943
#
#
#
# Elastic Compliance Matrix: (Units=1/GPa)
#
#
# Indices 1 2 3 4 5 6 
#
# 1 0.012033 -0.003271 -0.004536 0.000000 0.001314 0.000000
# 2 -0.003271 0.009531 -0.002875 0.000000 -0.000572 0.000000
# 3 -0.004536 -0.002875 0.013812 0.000000 -0.001411 0.000000
# 4 0.000000 0.000000 0.000000 0.028793 0.000000 0.005902
# 5 0.001314 -0.000572 -0.001411 0.000000 0.028645 0.000000
# 6 0.000000 0.000000 0.000000 0.005902 0.000000 0.029070
#
#
# Mechanical properties :
#
#
# Convention : Reuss Voigt Hill
#
# Bulk Modulus (GPa) = 71.37444 73.08299 72.22871
# Shear Modulus (GPa) = 33.80186 34.95176 34.37681
#
# Velocity S-wave (km/s) = 4.04852 4.11681 4.08281
# Velocity P-wave (km/s) = 7.51423 7.61810 7.56634
#
# Compressibility (1/GPa) = 0.01401062
#
# Stress axis : x y z
#
# Youngs Moduli (GPa) = 83.10197 104.92273 72.39975
#
# Poissons Ratio (x) = 0.34322 0.32844
# Poissons Ratio (y) = 0.27184 0.20817
# Poissons Ratio (z) = 0.37699 0.30168
#
# Static dielectric constant tensor:
#      x y z
#    x 3.618690 0.000000 -0.426090 
#    y 0.000000 3.959110 0.000000 
#    z -0.426090 0.000000 4.108660 
# 
# 
# High freq. dielectric constant tensor:
#      x y z
#    x 1.794250 0.000000 -0.025280 
#    y 0.000000 1.827630 0.000000 
#    z -0.025280 0.000000 1.810100 
# 
# From -- ./inp_files/51615.got.cif
#   From: 2010.06.25/outbox.cif.g09.slc.cpg/sg15_26_cif.got.tgz:51615.got - 2010.06.28 07:06:18.
