data_PCOD8149690
_publ_section_title
;
Structure prediction by ZEFSAII (Michael W. Deem and Ramdas Pophale) SiO2 
 PCOD8149690
Probable space group: C 2/C
;
_chemical_formula_sum "Si O2"
_cell_formula_units_Z 40
_cell_length_a 12.670133
_cell_length_b 6.428385
_cell_length_c 24.723729
_cell_angle_alpha 90.000000
_cell_angle_beta 123.522219
_cell_angle_gamma 90.000000
_cell_volume 1678.773470
_symmetry_space_group_name_H-M "C 2/C"
_symmetry_group_IT_number 15
_symmetry_cell_setting 'monoclinic'
loop_
_space_group_symop_operation_xyz
x,y,z
-x,y,1/2-z
-x,-y,-z
x,-y,1/2+z
1/2+x,1/2+y,z
1/2-x,1/2+y,1/2-z
1/2-x,1/2-y,-z
1/2+x,1/2-y,1/2+z
loop_
_atom_site_type_symbol
_atom_site_label
_atom_site_fract_x
_atom_site_fract_y
_atom_site_fract_z
Si Si1 0.756146 0.492318 0.004869
Si Si2 0.340879 0.578832 0.334519
Si Si3 0.317125 0.035081 0.900894
Si Si4 0.353662 0.261831 0.718905
Si Si5 0.029041 0.238468 0.927462
O O1 0.772075 0.581735 0.948413
O O2 0.622754 0.585712 0.988681
O O3 0.750000 0.250000 0.000000
O O4 0.877461 0.582972 0.072795
O O5 0.325713 0.687840 0.273033
O O6 0.212793 0.457126 0.313947
O O7 0.454866 0.407641 0.363863
O O8 0.367447 0.753491 0.387320
O O9 0.199461 0.946633 0.833327
O O10 0.428586 0.861007 0.936131
O O11 0.500000 0.231510 0.750000
#
# Coordination Sequence:
#
# PCOD8149690 Si02
#       5
#     8   8   8   8   8
#     4  11  24  43  65 100 135 176 227 276 342 412
#     4  11  23  44  64  98 133 175 233 283 342 412
#     4  11  24  42  66  95 133 177 224 285 338 408
#     4  11  24  42  67  95 133 179 227 283 349 409
#     4  10  24  40  68  94 134 173 224 277 337 401
#
# _framework density 23.826919
#
# number of rings (size 3 to 8) (size 9 to 14) (size 15 to 20)
#    0.000    1.200    2.000    3.000    0.000   10.400 
#    0.000    0.000    0.000    0.000    0.000    0.000 
#    0.000    0.000    0.000    0.000    0.000    0.000 
#
# Total GULP energy -247818.787311 kJ/mol
# GULP energy per Si atom -12390.939366 kJ/mol
# Density = 2.377269 g / cm^3
# Si number density = 23.826919 Si / 1000 Ang^3
#
#
#
# Elastic Constant Matrix: (Units=GPa)
#
#
# Indices 1 2 3 4 5 6 
#
# 1 84.4710 35.7303 44.6535 0.0000 34.8740 0.0000
# 2 35.7303 181.4003 41.6551 0.0000 25.2904 0.0000
# 3 44.6535 41.6551 82.0269 0.0000 19.1401 0.0000
# 4 0.0000 0.0000 0.0000 32.7152 0.0000 8.5440
# 5 34.8740 25.2904 19.1401 0.0000 54.3551 0.0000
# 6 0.0000 0.0000 0.0000 8.5440 0.0000 30.4845
#
#
#
# Elastic Compliance Matrix: (Units=1/GPa)
#
#
# Indices 1 2 3 4 5 6 
#
# 1 0.020839 -0.000727 -0.008645 0.000000 -0.009988 0.000000
# 2 -0.000727 0.006461 -0.002498 0.000000 -0.001660 0.000000
# 3 -0.008645 -0.002498 0.018086 0.000000 0.000340 0.000000
# 4 0.000000 0.000000 0.000000 0.032981 0.000000 -0.009244
# 5 -0.009988 -0.001660 0.000340 0.000000 0.025459 0.000000
# 6 0.000000 0.000000 0.000000 -0.009244 0.000000 0.035394
#
#
# Mechanical properties :
#
#
# Convention : Reuss Voigt Hill
#
# Bulk Modulus (GPa) = 46.19499 65.77513 55.98506
# Shear Modulus (GPa) = 29.38152 38.56824 33.97488
#
# Velocity S-wave (km/s) = 3.51539 4.02765 3.78021
# Velocity P-wave (km/s) = 5.99226 7.02101 6.52694
#
# Compressibility (1/GPa) = 0.02164737
#
# Stress axis : x y z
#
# Youngs Moduli (GPa) = 47.98627 154.77701 55.29085
#
# Poissons Ratio (x) = 0.11254 0.47797
# Poissons Ratio (y) = 0.03489 0.13811
# Poissons Ratio (z) = 0.41482 0.38660
#
# Static dielectric constant tensor:
#      x y z
#    x 4.318830 0.000000 0.274710 
#    y 0.000000 4.634000 0.000000 
#    z 0.274710 0.000000 4.436430 
# 
# 
# High freq. dielectric constant tensor:
#      x y z
#    x 1.933850 0.000000 0.029120 
#    y 0.000000 1.973050 0.000000 
#    z 0.029120 0.000000 1.935370 
# 
# From -- ./inp_files/271960.got.cif
#   From: 2010.06.25/outbox.cif.g09.slc.cpg/sg15_136_cif.got.tgz:271960.got - 2010.06.28 07:06:18.
