data_PCOD8149818
_publ_section_title
;
Structure prediction by ZEFSAII (Michael W. Deem and Ramdas Pophale) SiO2 
 PCOD8149818
Probable space group: C 2/C
;
_chemical_formula_sum "Si O2"
_cell_formula_units_Z 56
_cell_length_a 28.479975
_cell_length_b 10.102060
_cell_length_c 13.521721
_cell_angle_alpha 90.000000
_cell_angle_beta 42.522600
_cell_angle_gamma 90.000000
_cell_volume 2629.370201
_symmetry_space_group_name_H-M "C 2/C"
_symmetry_group_IT_number 15
_symmetry_cell_setting 'monoclinic'
loop_
_space_group_symop_operation_xyz
x,y,z
-x,y,1/2-z
-x,-y,-z
x,-y,1/2+z
1/2+x,1/2+y,z
1/2-x,1/2+y,1/2-z
1/2-x,1/2-y,-z
1/2+x,1/2-y,1/2+z
loop_
_atom_site_type_symbol
_atom_site_label
_atom_site_fract_x
_atom_site_fract_y
_atom_site_fract_z
Si Si1 0.381118 0.386992 0.857117
Si Si2 0.971873 0.237022 0.055344
Si Si3 0.869398 0.424741 0.113218
Si Si4 0.435654 0.831819 0.415186
Si Si5 0.685620 0.793074 0.487683
Si Si6 0.449044 0.657755 0.748152
Si Si7 0.759158 0.463874 0.931858
O O1 0.408927 0.336197 0.708299
O O2 0.390162 0.277638 0.928212
O O3 0.425425 0.513640 0.821858
O O4 0.301146 0.426437 0.967019
O O5 0.940104 0.363743 0.047852
O O6 0.034228 0.275059 0.030532
O O7 0.009692 0.141997 0.918259
O O8 0.822699 0.467204 0.277970
O O9 0.886062 0.546673 0.015656
O O10 0.829430 0.321701 0.104067
O O11 0.500000 0.882049 0.250000
O O12 0.616781 0.755363 0.657514
O O13 0.737110 0.667468 0.406142
O O14 0.719473 0.919524 0.490266
O O15 0.500000 0.720306 0.750000
#
# Coordination Sequence:
#
# PCOD8149818 Si02
#       7
#     8   8   8   8   8   8   8
#     4  10  24  44  66  96 131 176 213 273 320 399
#     4  11  23  40  66 103 126 170 215 268 339 377
#     4  12  25  39  70  95 128 178 217 270 325 391
#     4  10  24  42  64  96 135 165 217 269 333 383
#     4  10  24  44  63  96 128 177 217 278 318 385
#     4  11  20  41  68  96 135 162 219 270 328 390
#     4  10  25  46  65  91 136 172 225 262 331 384
#
# _framework density 21.297875999999999
#
# number of rings (size 3 to 8) (size 9 to 14) (size 15 to 20)
#    0.000    1.429    1.429    3.000    8.000    1.714 
#    0.000    0.000    0.000    0.000    0.000    0.000 
#    0.000    0.000    0.000    0.000    0.000    0.000 
#
# Total GULP energy -347289.651759 kJ/mol
# GULP energy per Si atom -12403.201849 kJ/mol
# Density = 2.124940 g / cm^3
# Si number density = 21.297876 Si / 1000 Ang^3
#
#
#
# Elastic Constant Matrix: (Units=GPa)
#
#
# Indices 1 2 3 4 5 6 
#
# 1 89.6453 24.2127 16.4285 0.0000 4.1795 0.0000
# 2 24.2127 69.7722 21.4160 0.0000 -8.8607 0.0000
# 3 16.4285 21.4160 63.6900 0.0000 1.1704 0.0000
# 4 0.0000 0.0000 0.0000 36.9434 0.0000 0.9402
# 5 4.1795 -8.8607 1.1704 0.0000 33.8299 0.0000
# 6 0.0000 0.0000 0.0000 0.9402 0.0000 37.4881
#
#
#
# Elastic Compliance Matrix: (Units=1/GPa)
#
#
# Indices 1 2 3 4 5 6 
#
# 1 0.012744 -0.004192 -0.001830 0.000000 -0.002609 0.000000
# 2 -0.004192 0.018035 -0.005083 0.000000 0.005418 0.000000
# 3 -0.001830 -0.005083 0.017914 0.000000 -0.001725 0.000000
# 4 0.000000 0.000000 0.000000 0.027086 0.000000 -0.000679
# 5 -0.002609 0.005418 -0.001725 0.000000 0.031361 0.000000
# 6 0.000000 0.000000 0.000000 -0.000679 0.000000 0.026692
#
#
# Mechanical properties :
#
#
# Convention : Reuss Voigt Hill
#
# Bulk Modulus (GPa) = 37.75853 38.58023 38.16938
# Shear Modulus (GPa) = 30.32707 32.38898 31.35802
#
# Velocity S-wave (km/s) = 3.77762 3.90392 3.84129
# Velocity P-wave (km/s) = 6.06584 6.20280 6.13470
#
# Compressibility (1/GPa) = 0.02648408
#
# Stress axis : x y z
#
# Youngs Moduli (GPa) = 78.46607 55.44694 55.82299
#
# Poissons Ratio (x) = 0.23245 0.10214
# Poissons Ratio (y) = 0.32896 0.28373
# Poissons Ratio (z) = 0.14357 0.28181
#
# Static dielectric constant tensor:
#      x y z
#    x 3.879910 0.000000 0.007070 
#    y 0.000000 3.850410 0.000000 
#    z 0.007070 0.000000 3.809410 
# 
# 
# High freq. dielectric constant tensor:
#      x y z
#    x 1.844380 0.000000 -0.001310 
#    y 0.000000 1.834200 0.000000 
#    z -0.001310 0.000000 1.832880 
# 
# From -- ./inp_files/122618.got.cif
#   From: 2010.06.25/outbox.cif.g09.slc.cpg/sg15_62_cif.got.tgz:122618.got - 2010.06.28 07:06:18.
