data_PCOD8149140
_publ_section_title
;
Structure prediction by ZEFSAII (Michael W. Deem and Ramdas Pophale) SiO2 
 PCOD8149140
Probable space group: C 2/C
;
_chemical_formula_sum "Si O2"
_cell_formula_units_Z 48
_cell_length_a 18.106806
_cell_length_b 8.805070
_cell_length_c 13.764424
_cell_angle_alpha 90.000000
_cell_angle_beta 81.960382
_cell_angle_gamma 90.000000
_cell_volume 2172.917156
_symmetry_space_group_name_H-M "C 2/C"
_symmetry_group_IT_number 15
_symmetry_cell_setting 'monoclinic'
loop_
_space_group_symop_operation_xyz
x,y,z
-x,y,1/2-z
-x,-y,-z
x,-y,1/2+z
1/2+x,1/2+y,z
1/2-x,1/2+y,1/2-z
1/2-x,1/2-y,-z
1/2+x,1/2-y,1/2+z
loop_
_atom_site_type_symbol
_atom_site_label
_atom_site_fract_x
_atom_site_fract_y
_atom_site_fract_z
Si Si1 0.438642 0.096978 0.454675
Si Si2 0.500000 0.518553 0.250000
Si Si3 0.206867 0.635064 0.936523
Si Si4 0.066869 0.061780 0.546520
Si Si5 0.000000 0.498939 0.750000
Si Si6 0.382573 0.243881 0.725221
Si Si7 0.302629 0.641312 0.426888
O O1 0.355944 0.034957 0.492748
O O2 0.422180 0.268503 0.496793
O O3 0.461230 0.104547 0.338424
O O4 0.500000 0.000000 0.500000
O O5 0.454134 0.419886 0.335659
O O6 0.560331 0.616987 0.299880
O O7 0.177571 0.731068 0.849496
O O8 0.259371 0.500933 0.886328
O O9 0.250000 0.750000 0.000000
O O10 0.134750 0.943108 0.518142
O O11 0.000000 0.000000 0.500000
O O12 0.934085 0.595003 0.713612
O O13 0.340579 0.258115 0.836121
O O14 0.250000 0.750000 0.500000
#
# Coordination Sequence:
#
# PCOD8149140 Si02
#       7
#     8   4   8   8   4   8   8
#     4  12  25  44  71 103 138 181 238 294 354 422
#     4   9  21  42  70  94 134 170 230 282 344 412
#     4  12  25  47  69 103 146 184 235 296 362 435
#     4  11  24  43  68 100 132 178 230 287 347 421
#     4  11  23  42  74 100 136 180 240 292 346 424
#     4  10  23  44  68 101 134 182 228 289 350 421
#     4  11  26  45  68 103 141 189 233 293 363 429
#
# _framework density 22.090119999999999
#
# number of rings (size 3 to 8) (size 9 to 14) (size 15 to 20)
#    0.000    1.000    3.333    2.500    7.000    2.667 
#    3.000    0.000    0.000    0.000    0.000    0.000 
#    0.000    0.000    0.000    0.000    0.000    0.000 
#
# Total GULP energy -297397.775876 kJ/mol
# GULP energy per Si atom -12391.573995 kJ/mol
# Density = 2.203984 g / cm^3
# Si number density = 22.090120 Si / 1000 Ang^3
#
#
#
# Elastic Constant Matrix: (Units=GPa)
#
#
# Indices 1 2 3 4 5 6 
#
# 1 143.7703 43.8466 37.0502 0.0000 10.4783 0.0000
# 2 43.8466 97.3020 23.7869 0.0000 9.1880 0.0000
# 3 37.0502 23.7869 66.9114 0.0000 2.4426 0.0000
# 4 0.0000 0.0000 0.0000 33.2859 0.0000 -4.2086
# 5 10.4783 9.1880 2.4426 0.0000 53.2866 0.0000
# 6 0.0000 0.0000 0.0000 -4.2086 0.0000 38.9484
#
#
#
# Elastic Compliance Matrix: (Units=1/GPa)
#
#
# Indices 1 2 3 4 5 6 
#
# 1 0.008935 -0.002985 -0.003847 0.000000 -0.001066 0.000000
# 2 -0.002985 0.012420 -0.002710 0.000000 -0.001430 0.000000
# 3 -0.003847 -0.002710 0.018024 0.000000 0.000398 0.000000
# 4 0.000000 0.000000 0.000000 0.030459 0.000000 0.003291
# 5 -0.001066 -0.001430 0.000398 0.000000 0.019204 0.000000
# 6 0.000000 0.000000 0.000000 0.003291 0.000000 0.026031
#
#
# Mechanical properties :
#
#
# Convention : Reuss Voigt Hill
#
# Bulk Modulus (GPa) = 49.27524 57.48347 53.37935
# Shear Modulus (GPa) = 35.48016 38.65753 37.06885
#
# Velocity S-wave (km/s) = 4.01203 4.18783 4.10087
# Velocity P-wave (km/s) = 6.61942 7.03297 6.82933
#
# Compressibility (1/GPa) = 0.02029417
#
# Stress axis : x y z
#
# Youngs Moduli (GPa) = 111.91772 80.51486 55.48010
#
# Poissons Ratio (x) = 0.24035 0.21346
# Poissons Ratio (y) = 0.33409 0.15036
# Poissons Ratio (z) = 0.43060 0.21821
#
# Static dielectric constant tensor:
#      x y z
#    x 4.706030 0.000000 -0.826050 
#    y 0.000000 3.571640 0.000000 
#    z -0.826050 0.000000 4.845240 
# 
# 
# High freq. dielectric constant tensor:
#      x y z
#    x 1.886490 0.000000 -0.013340 
#    y 0.000000 1.866080 0.000000 
#    z -0.013340 0.000000 1.868760 
# 
# From -- ./inp_files/159769.got.cif
#   From: 2010.06.25/outbox.cif.g09.slc.cpg/sg15_80_cif.got.tgz:159769.got - 2010.06.28 07:06:18.
