data_PCOD8149495
_publ_section_title
;
Structure prediction by ZEFSAII (Michael W. Deem and Ramdas Pophale) SiO2 
 PCOD8149495
Probable space group: C 2/C
;
_chemical_formula_sum "Si O2"
_cell_formula_units_Z 52
_cell_length_a 14.841483
_cell_length_b 16.355028
_cell_length_c 21.531787
_cell_angle_alpha 90.000000
_cell_angle_beta 152.570225
_cell_angle_gamma 90.000000
_cell_volume 2407.632525
_symmetry_space_group_name_H-M "C 2/C"
_symmetry_group_IT_number 15
_symmetry_cell_setting 'monoclinic'
loop_
_space_group_symop_operation_xyz
x,y,z
-x,y,1/2-z
-x,-y,-z
x,-y,1/2+z
1/2+x,1/2+y,z
1/2-x,1/2+y,1/2-z
1/2-x,1/2-y,-z
1/2+x,1/2-y,1/2+z
loop_
_atom_site_type_symbol
_atom_site_label
_atom_site_fract_x
_atom_site_fract_y
_atom_site_fract_z
Si Si1 0.959830 0.354440 0.360127
Si Si2 0.792268 0.086331 0.151113
Si Si3 0.126643 0.070496 0.729473
Si Si4 0.196129 0.179711 0.216245
Si Si5 0.420157 0.536781 0.012678
Si Si6 0.500000 0.098465 0.750000
Si Si7 0.028000 0.752435 0.337825
O O1 0.777759 0.412170 0.266132
O O2 0.921849 0.263383 0.358259
O O3 0.993763 0.346406 0.307479
O O4 0.144257 0.394617 0.505756
O O5 0.742661 0.145216 0.178965
O O6 0.000000 0.109235 0.250000
O O7 0.777843 0.989417 0.159980
O O8 0.048975 0.154352 0.710635
O O9 0.950594 0.019659 0.591559
O O10 0.396603 0.192551 0.300189
O O11 0.037174 0.121100 0.088565
O O12 0.500000 0.500000 0.000000
O O13 0.188875 0.542119 0.867132
O O14 0.250000 0.750000 0.500000
O O15 0.000000 0.720399 0.250000
#
# Coordination Sequence:
#
# PCOD8149495 Si02
#       7
#     8   8   8   8   8   4   8
#     4  11  24  42  70  97 140 180 232 291 348 422
#     4  11  24  44  69 100 136 186 234 288 353 422
#     4  10  23  47  69  97 140 180 237 290 347 423
#     4  10  27  44  69 103 141 179 236 295 351 422
#     4  11  24  45  67 101 142 180 230 295 351 424
#     4  12  26  40  70 104 134 190 232 278 370 416
#     4  11  27  46  75 106 141 195 238 297 361 435
#
# _framework density 21.59798
#
# number of rings (size 3 to 8) (size 9 to 14) (size 15 to 20)
#    0.000    1.231    1.538    2.769    9.692    2.462 
#    5.538    0.000    0.000    0.000    0.000    0.000 
#    0.000    0.000    0.000    0.000    0.000    0.000 
#
# Total GULP energy -322354.227824 kJ/mol
# GULP energy per Si atom -12398.239532 kJ/mol
# Density = 2.154882 g / cm^3
# Si number density = 21.597980 Si / 1000 Ang^3
#
#
#
# Elastic Constant Matrix: (Units=GPa)
#
#
# Indices 1 2 3 4 5 6 
#
# 1 155.9448 40.5655 61.6219 -0.0025 1.9063 0.0019
# 2 40.5655 88.5472 42.9391 -0.0126 1.5784 0.0003
# 3 61.6219 42.9391 146.2629 -0.0296 5.4359 -0.0033
# 4 -0.0025 -0.0126 -0.0296 16.2587 -0.0031 -10.3001
# 5 1.9063 1.5784 5.4359 -0.0031 44.0379 0.0014
# 6 0.0019 0.0003 -0.0033 -10.3001 0.0014 13.5215
#
#
#
# Elastic Compliance Matrix: (Units=1/GPa)
#
#
# Indices 1 2 3 4 5 6 
#
# 1 0.008108 -0.002400 -0.002714 -0.000013 0.000070 -0.000011
# 2 -0.002400 0.013878 -0.003063 0.000008 -0.000015 0.000006
# 3 -0.002714 -0.003063 0.008912 0.000029 -0.000873 0.000025
# 4 -0.000013 0.000008 0.000029 0.118871 0.000002 0.090551
# 5 0.000070 -0.000015 -0.000873 0.000002 0.022813 -0.000001
# 6 -0.000011 0.000006 0.000025 0.090551 -0.000001 0.142935
#
#
# Mechanical properties :
#
#
# Convention : Reuss Voigt Hill
#
# Bulk Modulus (GPa) = 68.74996 75.66753 72.20875
# Shear Modulus (GPa) = 14.84915 31.13883 22.99399
#
# Velocity S-wave (km/s) = 2.62491 3.80115 3.26642
# Velocity P-wave (km/s) = 6.40997 7.37398 6.90881
#
# Compressibility (1/GPa) = 0.01454546
#
# Stress axis : x y z
#
# Youngs Moduli (GPa) = 123.32820 72.05527 112.20654
#
# Poissons Ratio (x) = 0.17291 0.30456
# Poissons Ratio (y) = 0.29595 0.34366
# Poissons Ratio (z) = 0.33475 0.22068
#
# Static dielectric constant tensor:
#      x y z
#    x 4.661700 -0.000010 0.487500 
#    y -0.000010 3.892830 -0.000030 
#    z 0.487500 -0.000030 4.400400 
# 
# 
# High freq. dielectric constant tensor:
#      x y z
#    x 1.866110 0.000000 -0.000980 
#    y 0.000000 1.850180 0.000000 
#    z -0.000980 0.000000 1.854560 
# 
# From -- ./inp_files/245048.got.cif
#   From: 2010.06.25/outbox.cif.g09.slc.cpg/sg15_123_cif.got.tgz:245048.got - 2010.06.28 07:06:18.
