data_PCOD8149837
_publ_section_title
;
Structure prediction by ZEFSAII (Michael W. Deem and Ramdas Pophale) SiO2 
 PCOD8149837
Probable space group: C 2/C
;
_chemical_formula_sum "Si O2"
_cell_formula_units_Z 36
_cell_length_a 10.838625
_cell_length_b 8.832925
_cell_length_c 15.994981
_cell_angle_alpha 90.000000
_cell_angle_beta 82.892300
_cell_angle_gamma 90.000000
_cell_volume 1519.540072
_symmetry_space_group_name_H-M "C 2/C"
_symmetry_group_IT_number 15
_symmetry_cell_setting 'monoclinic'
loop_
_space_group_symop_operation_xyz
x,y,z
-x,y,1/2-z
-x,-y,-z
x,-y,1/2+z
1/2+x,1/2+y,z
1/2-x,1/2+y,1/2-z
1/2-x,1/2-y,-z
1/2+x,1/2-y,1/2+z
loop_
_atom_site_type_symbol
_atom_site_label
_atom_site_fract_x
_atom_site_fract_y
_atom_site_fract_z
Si Si1 0.829905 0.470316 0.387052
Si Si2 0.386602 0.800959 0.011885
Si Si3 0.000000 0.658566 0.250000
Si Si4 0.517874 0.706993 0.153105
Si Si5 0.945613 0.109049 0.616501
O O1 0.892536 0.533880 0.467691
O O2 0.893737 0.558769 0.303837
O O3 0.681017 0.480968 0.395749
O O4 0.855519 0.290845 0.384778
O O5 0.491497 0.684912 0.968985
O O6 0.250000 0.750000 0.000000
O O7 0.407385 0.794410 0.109997
O O8 0.928423 0.766392 0.190122
O O9 0.500000 0.748385 0.250000
O O10 0.534608 0.527836 0.139453
#
# Coordination Sequence:
#
# PCOD8149837 Si02
#       5
#     8   8   4   8   8
#     4  11  25  45  71 102 140 188 234 288 355 417
#     4  11  25  49  71 101 149 185 232 293 350 417
#     4  10  24  42  66 106 144 178 236 296 348 410
#     4  12  25  46  72 105 138 185 236 288 349 417
#     4  11  25  44  71 104 140 190 231 290 354 412
#
# _framework density 23.691379000000001
#
# number of rings (size 3 to 8) (size 9 to 14) (size 15 to 20)
#    0.000    0.889    4.444    1.333    3.111    0.889 
#    8.000    0.000    0.000    0.000    0.000    0.000 
#    0.000    0.000    0.000    0.000    0.000    0.000 
#
# Total GULP energy -223098.510711 kJ/mol
# GULP energy per Si atom -12394.361706 kJ/mol
# Density = 2.363746 g / cm^3
# Si number density = 23.691379 Si / 1000 Ang^3
#
#
#
# Elastic Constant Matrix: (Units=GPa)
#
#
# Indices 1 2 3 4 5 6 
#
# 1 91.5664 47.2737 67.2565 0.0000 -3.7134 0.0000
# 2 47.2737 134.2465 32.2011 0.0000 -4.8764 0.0000
# 3 67.2565 32.2011 134.4218 0.0000 22.9755 0.0000
# 4 0.0000 0.0000 0.0000 14.9074 0.0000 -2.4364
# 5 -3.7134 -4.8764 22.9755 0.0000 34.8579 0.0000
# 6 0.0000 0.0000 0.0000 -2.4364 0.0000 38.0189
#
#
#
# Elastic Compliance Matrix: (Units=1/GPa)
#
#
# Indices 1 2 3 4 5 6 
#
# 1 0.022262 -0.004715 -0.011610 0.000000 0.009364 0.000000
# 2 -0.004715 0.009125 0.000046 0.000000 0.000744 0.000000
# 3 -0.011610 0.000046 0.015155 0.000000 -0.011219 0.000000
# 4 0.000000 0.000000 0.000000 0.067791 0.000000 0.004344
# 5 0.009364 0.000744 -0.011219 0.000000 0.037184 0.000000
# 6 0.000000 0.000000 0.000000 0.004344 0.000000 0.026581
#
#
# Mechanical properties :
#
#
# Convention : Reuss Voigt Hill
#
# Bulk Modulus (GPa) = 71.50566 72.63305 72.06935
# Shear Modulus (GPa) = 23.22144 31.79039 27.50592
#
# Velocity S-wave (km/s) = 3.13415 3.66711 3.41106
# Velocity P-wave (km/s) = 6.58368 6.97530 6.78232
#
# Compressibility (1/GPa) = 0.01398491
#
# Stress axis : x y z
#
# Youngs Moduli (GPa) = 44.91861 109.58613 65.98536
#
# Poissons Ratio (x) = 0.51665 0.76609
# Poissons Ratio (y) = 0.21177 -0.00302
# Poissons Ratio (z) = 0.52150 -0.00501
#
# Static dielectric constant tensor:
#      x y z
#    x 4.146150 0.000000 0.405820 
#    y 0.000000 4.597350 0.000000 
#    z 0.405820 0.000000 4.954490 
# 
# 
# High freq. dielectric constant tensor:
#      x y z
#    x 1.921030 0.000000 0.010560 
#    y 0.000000 1.959520 0.000000 
#    z 0.010560 0.000000 1.944430 
# 
# From -- ./inp_files/194900.got.cif
#   From: 2010.06.25/outbox.cif.g09.slc.cpg/sg15_98_cif.got.tgz:194900.got - 2010.06.28 07:06:18.
