data_PCOD8149671
_publ_section_title
;
Structure prediction by ZEFSAII (Michael W. Deem and Ramdas Pophale) SiO2 
 PCOD8149671
Probable space group: C 2/C
;
_chemical_formula_sum "Si O2"
_cell_formula_units_Z 64
_cell_length_a 18.914794
_cell_length_b 14.278054
_cell_length_c 19.009423
_cell_angle_alpha 90.000000
_cell_angle_beta 142.789483
_cell_angle_gamma 90.000000
_cell_volume 3104.645955
_symmetry_space_group_name_H-M "C 2/C"
_symmetry_group_IT_number 15
_symmetry_cell_setting 'monoclinic'
loop_
_space_group_symop_operation_xyz
x,y,z
-x,y,1/2-z
-x,-y,-z
x,-y,1/2+z
1/2+x,1/2+y,z
1/2-x,1/2+y,1/2-z
1/2-x,1/2-y,-z
1/2+x,1/2-y,1/2+z
loop_
_atom_site_type_symbol
_atom_site_label
_atom_site_fract_x
_atom_site_fract_y
_atom_site_fract_z
Si Si1 0.862650 0.868417 0.327641
Si Si2 0.200241 0.129624 0.025482
Si Si3 0.500768 0.933857 0.920027
Si Si4 0.099541 0.380523 0.136268
Si Si5 0.285669 0.836090 0.741630
Si Si6 0.418280 0.202329 0.122847
Si Si7 0.007276 0.005491 0.340804
Si Si8 0.532925 0.671910 0.092898
O O1 0.736769 0.893509 0.264755
O O2 0.835796 0.768764 0.270080
O O3 0.909553 0.942217 0.305584
O O4 0.957543 0.859959 0.465514
O O5 0.099956 0.211276 0.945767
O O6 0.137060 0.032102 0.959537
O O7 0.267165 0.120411 0.150673
O O8 0.292730 0.157561 0.039605
O O9 0.378786 0.898057 0.857935
O O10 0.510930 0.882802 0.854218
O O11 0.486469 0.044225 0.895192
O O12 0.601390 0.901845 0.053485
O O13 0.034198 0.283918 0.105477
O O14 0.168150 0.849966 0.690470
O O15 0.500000 0.241179 0.250000
O O16 0.000000 0.004800 0.250000
O O17 0.004715 0.112386 0.368125
#
# Coordination Sequence:
#
# PCOD8149671 Si02
#       8
#     8   8   8   8   8   8   8   8
#     4  11  22  40  67  96 126 162 213 267 320 373
#     4  11  24  36  59  92 129 168 198 255 323 386
#     4  11  21  40  60  94 120 161 207 262 319 373
#     4  10  24  40  66  90 121 160 215 267 312 367
#     4  11  21  38  67  95 126 155 210 266 324 369
#     4  11  22  36  57  86 132 161 198 248 318 388
#     4  12  27  41  63  94 134 172 213 255 322 386
#     4  11  23  44  63  95 125 169 212 269 310 377
#
# _framework density 20.614267000000002
#
# number of rings (size 3 to 8) (size 9 to 14) (size 15 to 20)
#    0.000    1.000    3.750    3.750    7.000    0.000 
#    0.000    0.625    0.000    3.750    0.000    0.000 
#    0.000    0.000    0.000    0.000    0.000    0.000 
#
# Total GULP energy -396427.563074 kJ/mol
# GULP energy per Si atom -12388.361346 kJ/mol
# Density = 2.056735 g / cm^3
# Si number density = 20.614267 Si / 1000 Ang^3
#
#
#
# Elastic Constant Matrix: (Units=GPa)
#
#
# Indices 1 2 3 4 5 6 
#
# 1 52.5184 51.3009 27.5770 0.0000 -6.8839 0.0000
# 2 51.3009 116.9338 29.4922 0.0000 7.5862 0.0000
# 3 27.5770 29.4922 82.2596 0.0000 8.2793 0.0000
# 4 0.0000 0.0000 0.0000 24.4810 0.0000 2.2372
# 5 -6.8839 7.5862 8.2793 0.0000 28.5635 0.0000
# 6 0.0000 0.0000 0.0000 2.2372 0.0000 27.9772
#
#
#
# Elastic Compliance Matrix: (Units=1/GPa)
#
#
# Indices 1 2 3 4 5 6 
#
# 1 0.044684 -0.018206 -0.010324 0.000000 0.018597 0.000000
# 2 -0.018206 0.016888 0.000970 0.000000 -0.009154 0.000000
# 3 -0.010324 0.000970 0.016014 0.000000 -0.007387 0.000000
# 4 0.000000 0.000000 0.000000 0.041149 0.000000 -0.003291
# 5 0.018597 -0.009154 -0.007387 0.000000 0.044064 0.000000
# 6 0.000000 0.000000 0.000000 -0.003291 0.000000 0.036007
#
#
# Mechanical properties :
#
#
# Convention : Reuss Voigt Hill
#
# Bulk Modulus (GPa) = 44.51419 52.05022 48.28220
# Shear Modulus (GPa) = 19.12673 25.76046 22.44360
#
# Velocity S-wave (km/s) = 3.04935 3.53886 3.30319
# Velocity P-wave (km/s) = 5.83428 6.48093 6.16609
#
# Compressibility (1/GPa) = 0.02246475
#
# Stress axis : x y z
#
# Youngs Moduli (GPa) = 22.37954 59.21210 62.44699
#
# Poissons Ratio (x) = 1.07802 0.64472
# Poissons Ratio (y) = 0.40744 -0.06057
# Poissons Ratio (z) = 0.23105 -0.05743
#
# Static dielectric constant tensor:
#      x y z
#    x 3.610420 0.000000 0.396010 
#    y 0.000000 3.897570 0.000000 
#    z 0.396010 0.000000 4.036060 
# 
# 
# High freq. dielectric constant tensor:
#      x y z
#    x 1.775650 0.000000 0.023830 
#    y 0.000000 1.807620 0.000000 
#    z 0.023830 0.000000 1.824120 
# 
# From -- ./inp_files/112742.got.cif
#   From: 2010.06.25/outbox.cif.g09.slc.cpg/sg15_57_cif.got.tgz:112742.got - 2010.06.28 07:06:18.
