data_PCOD8149334
_publ_section_title
;
Structure prediction by ZEFSAII (Michael W. Deem and Ramdas Pophale) SiO2 
 PCOD8149334
Probable space group: C 2/C
;
_chemical_formula_sum "Si O2"
_cell_formula_units_Z 40
_cell_length_a 10.825166
_cell_length_b 8.859485
_cell_length_c 18.626215
_cell_angle_alpha 90.000000
_cell_angle_beta 94.773225
_cell_angle_gamma 90.000000
_cell_volume 1780.159184
_symmetry_space_group_name_H-M "C 2/C"
_symmetry_group_IT_number 15
_symmetry_cell_setting 'monoclinic'
loop_
_space_group_symop_operation_xyz
x,y,z
-x,y,1/2-z
-x,-y,-z
x,-y,1/2+z
1/2+x,1/2+y,z
1/2-x,1/2+y,1/2-z
1/2-x,1/2-y,-z
1/2+x,1/2-y,1/2+z
loop_
_atom_site_type_symbol
_atom_site_label
_atom_site_fract_x
_atom_site_fract_y
_atom_site_fract_z
Si Si1 0.241491 0.850528 0.389050
Si Si2 0.459322 0.267613 0.384870
Si Si3 0.264617 0.527788 0.380344
Si Si4 0.129084 0.477419 0.727449
Si Si5 0.833312 0.394752 0.995600
O O1 0.306116 0.691500 0.413751
O O2 0.300583 0.901489 0.317158
O O3 0.096671 0.813899 0.371131
O O4 0.258068 0.976814 0.449580
O O5 0.382385 0.420114 0.392829
O O6 0.455235 0.159048 0.457024
O O7 0.396468 0.177719 0.316346
O O8 0.218870 0.556995 0.298038
O O9 0.148553 0.461008 0.422843
O O10 0.000000 0.547316 0.750000
O O11 0.750000 0.250000 0.000000
#
# Coordination Sequence:
#
# PCOD8149334 Si02
#       5
#     8   8   8   8   8
#     4  11  23  44  67  95 131 173 220 264 326 391
#     4  10  23  45  68  90 134 174 214 272 326 388
#     4  11  22  40  67  97 128 171 220 262 331 385
#     4  11  23  44  62  92 134 170 215 275 324 381
#     4   9  22  43  65 100 133 171 215 270 323 390
#
# _framework density 22.469899999999999
#
# number of rings (size 3 to 8) (size 9 to 14) (size 15 to 20)
#    0.000    1.600    2.000    1.800    0.000    4.000 
#   18.000    0.000    0.000    0.000    0.000    0.000 
#    0.000    0.000    0.000    0.000    0.000    0.000 
#
# Total GULP energy -247853.049854 kJ/mol
# GULP energy per Si atom -12392.652493 kJ/mol
# Density = 2.241876 g / cm^3
# Si number density = 22.469900 Si / 1000 Ang^3
#
#
#
# Elastic Constant Matrix: (Units=GPa)
#
#
# Indices 1 2 3 4 5 6 
#
# 1 94.7002 60.3046 24.5718 0.0000 -35.6903 0.0000
# 2 60.3046 169.4069 58.6528 0.0000 -24.9517 0.0000
# 3 24.5718 58.6528 105.9454 0.0000 -28.3862 0.0000
# 4 0.0000 0.0000 0.0000 38.3612 0.0000 -11.8713
# 5 -35.6903 -24.9517 -28.3862 0.0000 30.5419 0.0000
# 6 0.0000 0.0000 0.0000 -11.8713 0.0000 23.8806
#
#
#
# Elastic Compliance Matrix: (Units=1/GPa)
#
#
# Indices 1 2 3 4 5 6 
#
# 1 0.023321 -0.006124 0.005250 0.000000 0.027129 0.000000
# 2 -0.006124 0.009115 -0.004724 0.000000 -0.004101 0.000000
# 3 0.005250 -0.004724 0.015242 0.000000 0.016442 0.000000
# 4 0.000000 0.000000 0.000000 0.030807 0.000000 0.015315
# 5 0.027129 -0.004101 0.016442 0.000000 0.076376 0.000000
# 6 0.000000 0.000000 0.000000 0.015315 0.000000 0.049488
#
#
# Mechanical properties :
#
#
# Convention : Reuss Voigt Hill
#
# Bulk Modulus (GPa) = 27.41089 73.01233 50.21161
# Shear Modulus (GPa) = 21.95822 33.65828 27.80825
#
# Velocity S-wave (km/s) = 3.12946 3.87451 3.52174
# Velocity P-wave (km/s) = 5.02826 7.25118 6.23951
#
# Compressibility (1/GPa) = 0.03648184
#
# Stress axis : x y z
#
# Youngs Moduli (GPa) = 42.87914 109.71472 65.60879
#
# Poissons Ratio (x) = 0.67186 -0.34445
# Poissons Ratio (y) = 0.26258 0.30996
# Poissons Ratio (z) = -0.22512 0.51833
#
# Static dielectric constant tensor:
#      x y z
#    x 3.819880 0.000000 -0.568180 
#    y 0.000000 4.542710 0.000000 
#    z -0.568180 0.000000 4.535270 
# 
# 
# High freq. dielectric constant tensor:
#      x y z
#    x 1.864510 0.000000 -0.031490 
#    y 0.000000 1.907750 0.000000 
#    z -0.031490 0.000000 1.902310 
# 
# From -- ./inp_files/195053.got.cif
#   From: 2010.06.25/outbox.cif.g09.slc.cpg/sg15_98_cif.got.tgz:195053.got - 2010.06.28 07:06:18.
