data_PCOD8149249
_publ_section_title
;
Structure prediction by ZEFSAII (Michael W. Deem and Ramdas Pophale) SiO2 
 PCOD8149249
Probable space group: C 2/C
;
_chemical_formula_sum "Si O2"
_cell_formula_units_Z 36
_cell_length_a 12.515711
_cell_length_b 26.907755
_cell_length_c 5.114496
_cell_angle_alpha 90.000000
_cell_angle_beta 52.867440
_cell_angle_gamma 90.000000
_cell_volume 1373.173661
_symmetry_space_group_name_H-M "C 2/C"
_symmetry_group_IT_number 15
_symmetry_cell_setting 'monoclinic'
loop_
_space_group_symop_operation_xyz
x,y,z
-x,y,1/2-z
-x,-y,-z
x,-y,1/2+z
1/2+x,1/2+y,z
1/2-x,1/2+y,1/2-z
1/2-x,1/2-y,-z
1/2+x,1/2-y,1/2+z
loop_
_atom_site_type_symbol
_atom_site_label
_atom_site_fract_x
_atom_site_fract_y
_atom_site_fract_z
Si Si1 0.294289 0.968193 0.283310
Si Si2 0.906892 0.773479 0.140698
Si Si3 0.343912 0.370020 0.025285
Si Si4 0.500000 0.904541 0.750000
Si Si5 0.143596 0.666653 0.390262
O O1 0.188610 0.926358 0.348333
O O2 0.275858 0.987046 0.604947
O O3 0.440052 0.941475 0.058006
O O4 0.000000 0.767350 0.250000
O O5 0.818895 0.825339 0.279097
O O6 0.815158 0.723542 0.250706
O O7 0.000000 0.777556 0.750000
O O8 0.500000 0.370179 0.750000
O O9 0.260764 0.356049 0.890072
O O10 0.378702 0.870091 0.824557
O O11 0.000000 0.668114 0.750000
#
# Coordination Sequence:
#
# PCOD8149249 Si02
#       5
#     8   8   8   4   8
#     4  12  28  49  77 109 148 201 262 322 375 437
#     4  10  23  44  72 112 156 199 246 300 374 460
#     4  11  26  49  75 111 159 204 250 310 381 456
#     4  12  24  46  82 114 150 190 260 326 388 436
#     4  11  22  46  74 116 152 197 250 308 379 459
#
# _framework density 26.216639000000001
#
# number of rings (size 3 to 8) (size 9 to 14) (size 15 to 20)
#    0.000    0.889    3.333    2.667    0.000    8.000 
#    0.000    7.778    0.000    0.000    0.000    0.000 
#    0.000    0.000    0.000    0.000    0.000    0.000 
#
# Total GULP energy -223195.272231 kJ/mol
# GULP energy per Si atom -12399.737346 kJ/mol
# Density = 2.615697 g / cm^3
# Si number density = 26.216639 Si / 1000 Ang^3
#
#
#
# Elastic Constant Matrix: (Units=GPa)
#
#
# Indices 1 2 3 4 5 6 
#
# 1 149.9843 50.0914 17.9654 0.0000 -2.0300 0.0000
# 2 50.0914 198.5831 31.8260 0.0000 -8.0811 0.0000
# 3 17.9654 31.8260 33.0685 0.0000 15.5692 0.0000
# 4 0.0000 0.0000 0.0000 57.4548 0.0000 -8.1869
# 5 -2.0300 -8.0811 15.5692 0.0000 41.3077 0.0000
# 6 0.0000 0.0000 0.0000 -8.1869 0.0000 41.1818
#
#
#
# Elastic Compliance Matrix: (Units=1/GPa)
#
#
# Indices 1 2 3 4 5 6 
#
# 1 0.007538 -0.001271 -0.003561 0.000000 0.001464 0.000000
# 2 -0.001271 0.006781 -0.007818 0.000000 0.004211 0.000000
# 3 -0.003561 -0.007818 0.049239 0.000000 -0.020263 0.000000
# 4 0.000000 0.000000 0.000000 0.017912 0.000000 0.003561
# 5 0.001464 0.004211 -0.020263 0.000000 0.032741 0.000000
# 6 0.000000 0.000000 0.000000 0.003561 0.000000 0.024990
#
#
# Mechanical properties :
#
#
# Convention : Reuss Voigt Hill
#
# Bulk Modulus (GPa) = 26.13851 64.60017 45.36934
# Shear Modulus (GPa) = 28.20800 46.77240 37.49020
#
# Velocity S-wave (km/s) = 3.28374 4.22841 3.78566
# Velocity P-wave (km/s) = 4.93651 6.96661 6.03750
#
# Compressibility (1/GPa) = 0.03825772
#
# Stress axis : x y z
#
# Youngs Moduli (GPa) = 132.65595 147.48077 20.30915
#
# Poissons Ratio (x) = 0.18747 0.07233
# Poissons Ratio (y) = 0.16863 0.15877
# Poissons Ratio (z) = 0.47243 1.15294
#
# Static dielectric constant tensor:
#      x y z
#    x 4.918020 0.000000 -0.063640 
#    y 0.000000 5.806080 0.000000 
#    z -0.063640 0.000000 5.130480 
# 
# 
# High freq. dielectric constant tensor:
#      x y z
#    x 2.040680 0.000000 -0.015570 
#    y 0.000000 2.088420 0.000000 
#    z -0.015570 0.000000 2.072680 
# 
# From -- ./inp_files/4815.got.cif
#   From: 2010.06.25/outbox.cif.g09.slc.cpg/sg15_3_cif.got.tgz:4815.got - 2010.06.28 07:06:18.
