data_PCOD8149136
_publ_section_title
;
Structure prediction by ZEFSAII (Michael W. Deem and Ramdas Pophale) SiO2 
 PCOD8149136
Probable space group: C 2/C
;
_chemical_formula_sum "Si O2"
_cell_formula_units_Z 40
_cell_length_a 8.904712
_cell_length_b 12.295827
_cell_length_c 16.891839
_cell_angle_alpha 90.000000
_cell_angle_beta 69.211535
_cell_angle_gamma 90.000000
_cell_volume 1729.093152
_symmetry_space_group_name_H-M "C 2/C"
_symmetry_group_IT_number 15
_symmetry_cell_setting 'monoclinic'
loop_
_space_group_symop_operation_xyz
x,y,z
-x,y,1/2-z
-x,-y,-z
x,-y,1/2+z
1/2+x,1/2+y,z
1/2-x,1/2+y,1/2-z
1/2-x,1/2-y,-z
1/2+x,1/2-y,1/2+z
loop_
_atom_site_type_symbol
_atom_site_label
_atom_site_fract_x
_atom_site_fract_y
_atom_site_fract_z
Si Si1 0.349424 0.176954 0.226995
Si Si2 0.037697 0.606852 0.042887
Si Si3 0.153574 0.648970 0.684216
Si Si4 0.931706 0.775925 0.944597
Si Si5 0.813913 0.056554 0.105080
O O1 0.500000 0.214603 0.250000
O O2 0.397609 0.121410 0.134616
O O3 0.253102 0.287861 0.231404
O O4 0.242697 0.094152 0.297519
O O5 0.210256 0.604225 0.052527
O O6 0.045662 0.707413 0.981307
O O7 0.000000 0.500000 0.000000
O O8 0.058317 0.735554 0.647183
O O9 0.280885 0.573528 0.612079
O O10 0.000000 0.581616 0.750000
O O11 0.999943 0.901509 0.939003
O O12 0.750000 0.750000 0.000000
#
# Coordination Sequence:
#
# PCOD8149136 Si02
#       5
#     8   8   8   8   8
#     4  10  23  44  67  98 139 183 239 290 355 437
#     4  11  22  43  70 102 138 186 236 295 366 425
#     4  12  23  46  71  99 139 185 237 295 359 428
#     4  12  25  44  67 102 141 178 232 300 354 420
#     4  11  25  44  70 100 139 190 235 288 362 435
#
# _framework density 23.133514000000002
#
# number of rings (size 3 to 8) (size 9 to 14) (size 15 to 20)
#    0.000    0.800    6.000    2.400    0.000    0.800 
#    3.600    0.000    0.000    0.000    0.000    0.000 
#    0.000    0.000    0.000    0.000    0.000    0.000 
#
# Total GULP energy -247827.995685 kJ/mol
# GULP energy per Si atom -12391.399784 kJ/mol
# Density = 2.308086 g / cm^3
# Si number density = 23.133514 Si / 1000 Ang^3
#
#
#
# Elastic Constant Matrix: (Units=GPa)
#
#
# Indices 1 2 3 4 5 6 
#
# 1 114.9744 49.1744 46.7136 0.0000 -10.7401 0.0000
# 2 49.1744 84.8771 3.2959 0.0000 2.8808 0.0000
# 3 46.7136 3.2959 63.7343 0.0000 2.3802 0.0000
# 4 0.0000 0.0000 0.0000 32.8864 0.0000 3.9229
# 5 -10.7401 2.8808 2.3802 0.0000 46.7341 0.0000
# 6 0.0000 0.0000 0.0000 3.9229 0.0000 47.7432
#
#
#
# Elastic Compliance Matrix: (Units=1/GPa)
#
#
# Indices 1 2 3 4 5 6 
#
# 1 0.019720 -0.011079 -0.014102 0.000000 0.005933 0.000000
# 2 -0.011079 0.018052 0.007337 0.000000 -0.004032 0.000000
# 3 -0.014102 0.007337 0.025834 0.000000 -0.005009 0.000000
# 4 0.000000 0.000000 0.000000 0.030709 0.000000 -0.002523
# 5 0.005933 -0.004032 -0.005009 0.000000 0.023265 0.000000
# 6 0.000000 0.000000 0.000000 -0.002523 0.000000 0.021153
#
#
# Mechanical properties :
#
#
# Convention : Reuss Voigt Hill
#
# Bulk Modulus (GPa) = 35.81863 51.32816 43.57339
# Shear Modulus (GPa) = 27.21451 36.43286 31.82368
#
# Velocity S-wave (km/s) = 3.43361 3.97280 3.71300
# Velocity P-wave (km/s) = 5.58897 6.57876 6.10396
#
# Compressibility (1/GPa) = 0.02791843
#
# Stress axis : x y z
#
# Youngs Moduli (GPa) = 50.71060 55.39493 38.70894
#
# Poissons Ratio (x) = 0.61370 0.54588
# Poissons Ratio (y) = 0.56180 -0.28401
# Poissons Ratio (z) = 0.71513 -0.40644
#
# Static dielectric constant tensor:
#      x y z
#    x 2.810080 0.000000 -3.980650 
#    y 0.000000 4.113370 0.000000 
#    z -3.980650 0.000000 -7.338640 
# 
# 
# High freq. dielectric constant tensor:
#      x y z
#    x 1.917130 0.000000 0.009170 
#    y 0.000000 1.899840 0.000000 
#    z 0.009170 0.000000 1.930830 
# 
# From -- ./inp_files/187949.got.cif
#   From: 2010.06.25/outbox.cif.g09.slc.cpg/sg15_94_cif.got.tgz:187949.got - 2010.06.28 07:06:18.
