data_PCOD8149649
_publ_section_title
;
Structure prediction by ZEFSAII (Michael W. Deem and Ramdas Pophale) SiO2 
 PCOD8149649
Probable space group: C 2/C
;
_chemical_formula_sum "Si O2"
_cell_formula_units_Z 52
_cell_length_a 22.517242
_cell_length_b 10.548040
_cell_length_c 13.153941
_cell_angle_alpha 90.000000
_cell_angle_beta 54.625410
_cell_angle_gamma 90.000000
_cell_volume 2547.448238
_symmetry_space_group_name_H-M "C 2/C"
_symmetry_group_IT_number 15
_symmetry_cell_setting 'monoclinic'
loop_
_space_group_symop_operation_xyz
x,y,z
-x,y,1/2-z
-x,-y,-z
x,-y,1/2+z
1/2+x,1/2+y,z
1/2-x,1/2+y,1/2-z
1/2-x,1/2-y,-z
1/2+x,1/2-y,1/2+z
loop_
_atom_site_type_symbol
_atom_site_label
_atom_site_fract_x
_atom_site_fract_y
_atom_site_fract_z
Si Si1 0.000000 0.741863 0.750000
Si Si2 0.009469 0.639167 0.947970
Si Si3 0.795829 0.057971 0.574468
Si Si4 0.102754 0.830680 0.353255
Si Si5 0.739999 0.215155 0.126584
Si Si6 0.378625 0.430200 0.789657
Si Si7 0.173820 0.715324 0.779539
O O1 0.976392 0.650908 0.866697
O O2 0.935879 0.831073 0.776031
O O3 0.095472 0.653012 0.860344
O O4 0.970576 0.750848 0.051823
O O5 0.000000 0.500000 0.000000
O O6 0.861264 0.110470 0.580521
O O7 0.823910 0.033311 0.433133
O O8 0.726937 0.152412 0.642984
O O9 0.763774 0.923349 0.638766
O O10 0.156675 0.735022 0.242049
O O11 0.082687 0.945357 0.295905
O O12 0.790713 0.306991 0.144563
O O13 0.750000 0.250000 0.000000
O O14 0.333092 0.363028 0.744851
#
# Coordination Sequence:
#
# PCOD8149649 Si02
#       7
#     4   8   8   8   8   8   8
#     4  10  24  42  68  96 130 172 218 272 332 404
#     4  11  24  48  64  94 134 177 223 272 336 401
#     4  11  21  41  64  96 130 169 219 272 332 393
#     4  11  23  40  70  95 133 177 217 278 334 393
#     4  11  22  40  61  97 131 161 215 275 328 389
#     4  11  21  41  65  97 127 172 223 269 335 401
#     4  10  24  40  63  91 126 173 215 269 329 395
#
# _framework density 20.412583999999999
#
# number of rings (size 3 to 8) (size 9 to 14) (size 15 to 20)
#    0.000    1.231    4.615    1.385    0.000    3.692 
#    8.308    0.000    0.000    0.000    0.000    0.000 
#    0.000    0.000    0.000    0.000    0.000    0.000 
#
# Total GULP energy -322276.495577 kJ/mol
# GULP energy per Si atom -12395.249830 kJ/mol
# Density = 2.036612 g / cm^3
# Si number density = 20.412584 Si / 1000 Ang^3
#
#
#
# Elastic Constant Matrix: (Units=GPa)
#
#
# Indices 1 2 3 4 5 6 
#
# 1 82.3882 29.3221 38.1430 0.0000 5.0469 0.0000
# 2 29.3221 126.5981 46.9579 0.0000 5.0250 0.0000
# 3 38.1430 46.9579 119.7524 0.0000 17.3915 0.0000
# 4 0.0000 0.0000 0.0000 42.3643 0.0000 1.5337
# 5 5.0469 5.0250 17.3915 0.0000 28.4555 0.0000
# 6 0.0000 0.0000 0.0000 1.5337 0.0000 30.8925
#
#
#
# Elastic Compliance Matrix: (Units=1/GPa)
#
#
# Indices 1 2 3 4 5 6 
#
# 1 0.014635 -0.001941 -0.003921 0.000000 0.000144 0.000000
# 2 -0.001941 0.009511 -0.003202 0.000000 0.000621 0.000000
# 3 -0.003921 -0.003202 0.011711 0.000000 -0.005897 0.000000
# 4 0.000000 0.000000 0.000000 0.023647 0.000000 -0.001174
# 5 0.000144 0.000621 -0.005897 0.000000 0.038611 0.000000
# 6 0.000000 0.000000 0.000000 -0.001174 0.000000 0.032429
#
#
# Mechanical properties :
#
#
# Convention : Reuss Voigt Hill
#
# Bulk Modulus (GPa) = 56.40118 61.95385 59.17751
# Shear Modulus (GPa) = 32.34506 34.63019 33.48763
#
# Velocity S-wave (km/s) = 3.98498 4.12334 4.05475
# Velocity P-wave (km/s) = 6.99028 7.28601 7.13968
#
# Compressibility (1/GPa) = 0.01773013
#
# Stress axis : x y z
#
# Youngs Moduli (GPa) = 68.32906 105.13612 85.38678
#
# Poissons Ratio (x) = 0.20406 0.33482
# Poissons Ratio (y) = 0.13262 0.27338
# Poissons Ratio (z) = 0.26794 0.33662
#
# Static dielectric constant tensor:
#      x y z
#    x 3.780840 0.000000 0.171410 
#    y 0.000000 3.802320 0.000000 
#    z 0.171410 0.000000 3.925020 
# 
# 
# High freq. dielectric constant tensor:
#      x y z
#    x 1.791920 0.000000 0.002850 
#    y 0.000000 1.800960 0.000000 
#    z 0.002850 0.000000 1.809940 
# 
# From -- ./inp_files/111732.got.cif
#   From: 2010.06.25/outbox.cif.g09.slc.cpg/sg15_56_cif.got.tgz:111732.got - 2010.06.28 07:06:18.
