data_PCOD8149345
_publ_section_title
;
Structure prediction by ZEFSAII (Michael W. Deem and Ramdas Pophale) SiO2 
 PCOD8149345
Probable space group: C 2/C
;
_chemical_formula_sum "Si O2"
_cell_formula_units_Z 44
_cell_length_a 11.195828
_cell_length_b 13.358466
_cell_length_c 14.799139
_cell_angle_alpha 90.000000
_cell_angle_beta 66.981455
_cell_angle_gamma 90.000000
_cell_volume 2037.115459
_symmetry_space_group_name_H-M "C 2/C"
_symmetry_group_IT_number 15
_symmetry_cell_setting 'monoclinic'
loop_
_space_group_symop_operation_xyz
x,y,z
-x,y,1/2-z
-x,-y,-z
x,-y,1/2+z
1/2+x,1/2+y,z
1/2-x,1/2+y,1/2-z
1/2-x,1/2-y,-z
1/2+x,1/2-y,1/2+z
loop_
_atom_site_type_symbol
_atom_site_label
_atom_site_fract_x
_atom_site_fract_y
_atom_site_fract_z
Si Si1 0.128187 0.713678 0.979897
Si Si2 0.501389 0.060421 0.351017
Si Si3 0.565238 0.672333 0.074568
Si Si4 0.184909 0.626458 0.607808
Si Si5 0.500000 0.474288 0.750000
Si Si6 0.733717 0.074625 0.795813
O O1 0.180245 0.658336 0.877306
O O2 0.040607 0.806350 0.972270
O O3 0.250000 0.750000 0.000000
O O4 0.034991 0.645420 0.067982
O O5 0.500000 0.104635 0.250000
O O6 0.404998 0.967033 0.390078
O O7 0.647111 0.025395 0.329830
O O8 0.602425 0.773305 0.116668
O O9 0.501545 0.593711 0.160821
O O10 0.691153 0.621711 0.993426
O O11 0.229557 0.622384 0.697805
O O12 0.377966 0.547098 0.781346
#
# Coordination Sequence:
#
# PCOD8149345 Si02
#       6
#     8   8   8   8   4   8
#     4  12  27  42  68 101 136 171 223 276 328 391
#     4  10  23  45  69  93 129 179 219 266 331 396
#     4  11  25  43  69 100 133 171 223 273 327 395
#     4  10  23  45  73  94 129 176 223 273 328 396
#     4  12  28  42  68 100 136 174 218 276 330 390
#     4  11  25  45  68  94 135 177 222 267 333 397
#
# _framework density 21.599169
#
# number of rings (size 3 to 8) (size 9 to 14) (size 15 to 20)
#    0.000    1.091    1.818    2.727   14.000    2.182 
#    0.000    0.000    0.000    0.000    0.000    0.000 
#    0.000    0.000    0.000    0.000    0.000    0.000 
#
# Total GULP energy -272958.207714 kJ/mol
# GULP energy per Si atom -12407.191260 kJ/mol
# Density = 2.155001 g / cm^3
# Si number density = 21.599169 Si / 1000 Ang^3
#
#
#
# Elastic Constant Matrix: (Units=GPa)
#
#
# Indices 1 2 3 4 5 6 
#
# 1 133.7248 11.6952 23.7379 0.0000 -1.2893 0.0000
# 2 11.6952 29.4873 31.2688 0.0000 3.3278 0.0000
# 3 23.7379 31.2688 110.0551 0.0000 0.9877 0.0000
# 4 0.0000 0.0000 0.0000 -49.7335 0.0000 38.9459
# 5 -1.2893 3.3278 0.9877 0.0000 34.3898 0.0000
# 6 0.0000 0.0000 0.0000 38.9459 0.0000 5.0661
#
#
#
# Elastic Compliance Matrix: (Units=1/GPa)
#
#
# Indices 1 2 3 4 5 6 
#
# 1 0.007857 -0.001965 -0.001141 0.000000 0.000517 0.000000
# 2 -0.001965 0.049672 -0.013649 0.000000 -0.004488 0.000000
# 3 -0.001141 -0.013649 0.013202 0.000000 0.000899 0.000000
# 4 0.000000 0.000000 0.000000 -0.002864 0.000000 0.022019
# 5 0.000517 -0.004488 0.000899 0.000000 0.029506 0.000000
# 6 0.000000 0.000000 0.000000 0.022019 0.000000 0.028118
#
#
# Mechanical properties :
#
#
# Convention : Reuss Voigt Hill
#
# Bulk Modulus (GPa) = 26.86542 45.18566 36.02554
# Shear Modulus (GPa) = 29.17005 11.71549 20.44277
#
# Velocity S-wave (km/s) = 3.67893 2.33148 3.07980
# Velocity P-wave (km/s) = 5.52369 5.31162 5.41869
#
# Compressibility (1/GPa) = 0.03722257
#
# Stress axis : x y z
#
# Youngs Moduli (GPa) = 127.26794 20.13207 75.74426
#
# Poissons Ratio (x) = 0.03955 0.08644
# Poissons Ratio (y) = 0.25003 1.03381
# Poissons Ratio (z) = 0.14524 0.27478
#
# Static dielectric constant tensor:
#      x y z
#    x 4.324240 0.000000 -0.001070 
#    y 0.000000 3.843080 0.000000 
#    z -0.001070 0.000000 4.203010 
# 
# 
# High freq. dielectric constant tensor:
#      x y z
#    x 1.864160 0.000000 -0.000840 
#    y 0.000000 1.835250 0.000000 
#    z -0.000840 0.000000 1.870360 
# 
# From -- ./inp_files/143386.got.cif
#   From: 2010.06.25/outbox.cif.g09.slc.cpg/sg15_72_cif.got.tgz:143386.got - 2010.06.28 07:06:18.
