data_PCOD8149911
_publ_section_title
;
Structure prediction by ZEFSAII (Michael W. Deem and Ramdas Pophale) SiO2 
 PCOD8149911
Probable space group: C 2/C
;
_chemical_formula_sum "Si O2"
_cell_formula_units_Z 44
_cell_length_a 31.044211
_cell_length_b 10.761196
_cell_length_c 19.060369
_cell_angle_alpha 90.000000
_cell_angle_beta 18.997366
_cell_angle_gamma 90.000000
_cell_volume 2072.795236
_symmetry_space_group_name_H-M "C 2/C"
_symmetry_group_IT_number 15
_symmetry_cell_setting 'monoclinic'
loop_
_space_group_symop_operation_xyz
x,y,z
-x,y,1/2-z
-x,-y,-z
x,-y,1/2+z
1/2+x,1/2+y,z
1/2-x,1/2+y,1/2-z
1/2-x,1/2-y,-z
1/2+x,1/2-y,1/2+z
loop_
_atom_site_type_symbol
_atom_site_label
_atom_site_fract_x
_atom_site_fract_y
_atom_site_fract_z
Si Si1 0.070945 0.624391 0.870231
Si Si2 0.195448 0.019528 0.532855
Si Si3 0.301135 0.784393 0.756212
Si Si4 0.654769 0.473282 0.253365
Si Si5 0.500000 0.635149 0.250000
Si Si6 0.248138 0.212910 0.183214
O O1 0.194795 0.590228 0.630341
O O2 0.126699 0.694809 0.852969
O O3 0.000000 0.500000 0.000000
O O4 0.960637 0.706046 0.001594
O O5 0.240896 0.129971 0.410609
O O6 0.176836 0.069718 0.639372
O O7 0.059910 0.955926 0.716626
O O8 0.281486 0.638631 0.800253
O O9 0.232309 0.824142 0.789304
O O10 0.500000 0.500000 0.500000
O O11 0.738212 0.593457 0.148160
O O12 0.388476 0.720609 0.456541
#
# Coordination Sequence:
#
# PCOD8149911 Si02
#       6
#     8   8   8   8   4   8
#     4   9  21  42  67  93 135 172 217 272 330 390
#     4  10  24  43  69  98 132 178 218 276 335 395
#     4  11  24  43  69  97 139 171 223 273 337 393
#     4  12  25  43  69  96 138 177 225 275 337 395
#     4  10  24  42  70  96 136 172 230 274 328 396
#     4  11  25  41  68 103 128 180 227 274 327 401
#
# _framework density 21.227374000000001
#
# number of rings (size 3 to 8) (size 9 to 14) (size 15 to 20)
#    0.000    1.455    1.818    1.636   12.727    1.455 
#    0.000    0.909    0.000    0.000    0.000    0.000 
#    0.000    0.000    0.000    0.000    0.000    0.000 
#
# Total GULP energy -272724.389631 kJ/mol
# GULP energy per Si atom -12396.563165 kJ/mol
# Density = 2.117906 g / cm^3
# Si number density = 21.227374 Si / 1000 Ang^3
#
#
#
# Elastic Constant Matrix: (Units=GPa)
#
#
# Indices 1 2 3 4 5 6 
#
# 1 128.4000 49.0292 38.6658 0.0000 7.3013 0.0000
# 2 49.0292 127.2615 40.4676 0.0000 -8.4023 0.0000
# 3 38.6658 40.4676 67.8342 0.0000 -10.8488 0.0000
# 4 0.0000 0.0000 0.0000 31.1727 0.0000 -4.6438
# 5 7.3013 -8.4023 -10.8488 0.0000 37.6836 0.0000
# 6 0.0000 0.0000 0.0000 -4.6438 0.0000 40.3396
#
#
#
# Elastic Compliance Matrix: (Units=1/GPa)
#
#
# Indices 1 2 3 4 5 6 
#
# 1 0.010595 -0.002745 -0.005061 0.000000 -0.004122 0.000000
# 2 -0.002745 0.010418 -0.004397 0.000000 0.001589 0.000000
# 3 -0.005061 -0.004397 0.021227 0.000000 0.006111 0.000000
# 4 0.000000 0.000000 0.000000 0.032639 0.000000 0.003757
# 5 -0.004122 0.001589 0.006111 0.000000 0.029449 0.000000
# 6 0.000000 0.000000 0.000000 0.003757 0.000000 0.025222
#
#
# Mechanical properties :
#
#
# Convention : Reuss Voigt Hill
#
# Bulk Modulus (GPa) = 56.06778 64.42453 60.24616
# Shear Modulus (GPa) = 31.26979 34.86138 33.06559
#
# Velocity S-wave (km/s) = 3.84225 4.05691 3.95103
# Velocity P-wave (km/s) = 6.79368 7.23604 7.01835
#
# Compressibility (1/GPa) = 0.01783555
#
# Stress axis : x y z
#
# Youngs Moduli (GPa) = 94.38850 95.98599 47.11034
#
# Poissons Ratio (x) = 0.26344 0.23842
# Poissons Ratio (y) = 0.25905 0.20713
# Poissons Ratio (z) = 0.47768 0.42201
#
# Static dielectric constant tensor:
#      x y z
#    x 4.034580 0.000000 -0.469670 
#    y 0.000000 4.476700 0.000000 
#    z -0.469670 0.000000 4.316840 
# 
# 
# High freq. dielectric constant tensor:
#      x y z
#    x 1.832570 0.000000 -0.013410 
#    y 0.000000 1.845390 0.000000 
#    z -0.013410 0.000000 1.828300 
# 
# From -- ./inp_files/225103.got.cif
#   From: 2010.06.25/outbox.cif.g09.slc.cpg/sg15_113_cif.got.tgz:225103.got - 2010.06.28 07:06:18.
