data_PCOD8149409
_publ_section_title
;
Structure prediction by ZEFSAII (Michael W. Deem and Ramdas Pophale) SiO2 
 PCOD8149409
Probable space group: C 2/C
;
_chemical_formula_sum "Si O2"
_cell_formula_units_Z 36
_cell_length_a 15.946215
_cell_length_b 6.499040
_cell_length_c 20.219532
_cell_angle_alpha 90.000000
_cell_angle_beta 47.834680
_cell_angle_gamma 90.000000
_cell_volume 1553.172898
_symmetry_space_group_name_H-M "C 2/C"
_symmetry_group_IT_number 15
_symmetry_cell_setting 'monoclinic'
loop_
_space_group_symop_operation_xyz
x,y,z
-x,y,1/2-z
-x,-y,-z
x,-y,1/2+z
1/2+x,1/2+y,z
1/2-x,1/2+y,1/2-z
1/2-x,1/2-y,-z
1/2+x,1/2-y,1/2+z
loop_
_atom_site_type_symbol
_atom_site_label
_atom_site_fract_x
_atom_site_fract_y
_atom_site_fract_z
Si Si1 0.500000 0.541057 0.750000
Si Si2 0.139327 0.641408 0.254962
Si Si3 0.870946 0.634733 0.615683
Si Si4 0.886960 0.647096 0.989275
Si Si5 0.154728 0.324360 0.132403
O O1 0.446959 0.676352 0.718491
O O2 0.398825 0.403058 0.832871
O O3 0.120604 0.560704 0.338855
O O4 0.269462 0.713606 0.185475
O O5 0.119032 0.456863 0.214148
O O6 0.858710 0.552368 0.547957
O O7 0.991942 0.750225 0.557166
O O8 0.890871 0.571924 0.910758
O O9 0.790377 0.815699 0.053781
#
# Coordination Sequence:
#
# PCOD8149409 Si02
#       5
#     4   8   8   8   8
#     4  12  24  46  70 100 136 194 230 280 328 428
#     4  12  26  45  73 101 138 185 233 280 339 418
#     4  11  24  44  68 103 137 179 227 288 346 399
#     4  10  23  46  65 101 142 172 231 285 346 403
#     4  11  24  46  70 100 136 186 231 279 340 413
#
# _framework density 23.178362
#
# number of rings (size 3 to 8) (size 9 to 14) (size 15 to 20)
#    0.000    0.889    2.222    4.667    3.111    1.778 
#   16.000    0.000    0.000    0.000    0.000    0.000 
#    0.000    0.000    0.000    0.000    0.000    0.000 
#
# Total GULP energy -223227.447134 kJ/mol
# GULP energy per Si atom -12401.524841 kJ/mol
# Density = 2.312561 g / cm^3
# Si number density = 23.178362 Si / 1000 Ang^3
#
#
#
# Elastic Constant Matrix: (Units=GPa)
#
#
# Indices 1 2 3 4 5 6 
#
# 1 112.9629 39.5685 29.9971 0.0005 0.5312 0.0034
# 2 39.5685 86.5825 27.7314 0.0037 5.1470 0.0051
# 3 29.9971 27.7314 88.5071 -0.0002 8.5628 0.0007
# 4 0.0005 0.0037 -0.0002 17.1656 0.0001 -1.0539
# 5 0.5312 5.1470 8.5628 0.0001 51.7528 0.0013
# 6 0.0034 0.0051 0.0007 -1.0539 0.0013 33.6247
#
#
#
# Elastic Compliance Matrix: (Units=1/GPa)
#
#
# Indices 1 2 3 4 5 6 
#
# 1 0.011002 -0.004284 -0.002456 0.000001 0.000720 0.000000
# 2 -0.004284 0.014526 -0.003012 -0.000003 -0.000902 -0.000002
# 3 -0.002456 -0.003012 0.013255 0.000001 -0.001868 0.000001
# 4 0.000001 -0.000003 0.000001 0.058368 0.000000 0.001829
# 5 0.000720 -0.000902 -0.001868 0.000000 0.019714 -0.000001
# 6 0.000000 -0.000002 0.000001 0.001829 -0.000001 0.029797
#
#
# Mechanical properties :
#
#
# Convention : Reuss Voigt Hill
#
# Bulk Modulus (GPa) = 51.87030 53.62739 52.74884
# Shear Modulus (GPa) = 28.96976 33.22565 31.09771
#
# Velocity S-wave (km/s) = 3.53917 3.79024 3.66685
# Velocity P-wave (km/s) = 6.25527 6.50704 6.38240
#
# Compressibility (1/GPa) = 0.01927886
#
# Stress axis : x y z
#
# Youngs Moduli (GPa) = 90.89344 68.84285 75.44051
#
# Poissons Ratio (x) = 0.29492 0.18529
# Poissons Ratio (y) = 0.38939 0.22723
# Poissons Ratio (z) = 0.22325 0.20736
#
# Static dielectric constant tensor:
#      x y z
#    x 4.662980 0.000000 -0.129800 
#    y 0.000000 3.725400 0.000000 
#    z -0.129800 0.000000 4.278810 
# 
# 
# High freq. dielectric constant tensor:
#      x y z
#    x 1.947760 0.000000 -0.011530 
#    y 0.000000 1.875380 0.000000 
#    z -0.011530 0.000000 1.933590 
# 
# From -- ./inp_files/275559.got.cif
#   From: 2010.06.25/outbox.cif.g09.slc.cpg/sg15_138_cif.got.tgz:275559.got - 2010.06.28 07:06:18.
