data_PCOD8149112
_publ_section_title
;
Structure prediction by ZEFSAII (Michael W. Deem and Ramdas Pophale) SiO2 
 PCOD8149112
Probable space group: C 2/C
;
_chemical_formula_sum "Si O2"
_cell_formula_units_Z 60
_cell_length_a 21.206510
_cell_length_b 8.385750
_cell_length_c 16.588152
_cell_angle_alpha 90.000000
_cell_angle_beta 118.102815
_cell_angle_gamma 90.000000
_cell_volume 2602.128708
_symmetry_space_group_name_H-M "C 2/C"
_symmetry_group_IT_number 15
_symmetry_cell_setting 'monoclinic'
loop_
_space_group_symop_operation_xyz
x,y,z
-x,y,1/2-z
-x,-y,-z
x,-y,1/2+z
1/2+x,1/2+y,z
1/2-x,1/2+y,1/2-z
1/2-x,1/2-y,-z
1/2+x,1/2-y,1/2+z
loop_
_atom_site_type_symbol
_atom_site_label
_atom_site_fract_x
_atom_site_fract_y
_atom_site_fract_z
Si Si1 0.794459 0.707605 0.277143
Si Si2 0.878568 0.529558 0.728045
Si Si3 0.285285 0.493332 0.160563
Si Si4 0.595328 0.670715 0.533775
Si Si5 0.016132 0.101426 0.914436
Si Si6 0.568489 0.625959 0.234608
Si Si7 0.000000 0.298350 0.750000
Si Si8 0.687278 0.126104 0.977035
O O1 0.830846 0.542501 0.270544
O O2 0.726229 0.642540 0.284590
O O3 0.840525 0.820563 0.363719
O O4 0.775296 0.816971 0.190011
O O5 0.910941 0.695379 0.777375
O O6 0.834532 0.546406 0.619288
O O7 0.939856 0.402029 0.753567
O O8 0.366619 0.530625 0.180868
O O9 0.223865 0.493211 0.055570
O O10 0.520638 0.710467 0.537057
O O11 0.586257 0.493733 0.488653
O O12 0.615807 0.796576 0.474940
O O13 0.034282 0.194090 0.843023
O O14 0.953777 0.969618 0.858936
O O15 0.500000 0.629924 0.250000
O O16 0.750000 0.250000 0.000000
#
# Coordination Sequence:
#
# PCOD8149112 Si02
#       8
#     8   8   8   8   8   8   4   8
#     4  11  24  47  69  98 141 182 239 287 350 418
#     4  12  25  43  66 106 139 181 234 292 343 422
#     4  11  24  45  69  98 137 186 231 288 351 416
#     4  10  23  44  67 101 134 173 235 285 341 415
#     4  11  23  43  71  99 138 186 229 286 347 425
#     4  12  22  39  70 102 134 186 230 280 358 413
#     4  12  24  42  68 106 144 182 228 290 354 414
#     4  11  25  42  67  99 137 182 233 290 343 415
#
# _framework density 23.058043000000001
#
# number of rings (size 3 to 8) (size 9 to 14) (size 15 to 20)
#    0.000    0.800    5.333    1.600    1.867    0.533 
#    2.400    5.333    0.000    0.000    0.000    0.000 
#    0.000    0.000    0.000    0.000    0.000    0.000 
#
# Total GULP energy -371802.903083 kJ/mol
# GULP energy per Si atom -12393.430103 kJ/mol
# Density = 2.300556 g / cm^3
# Si number density = 23.058043 Si / 1000 Ang^3
#
#
#
# Elastic Constant Matrix: (Units=GPa)
#
#
# Indices 1 2 3 4 5 6 
#
# 1 84.6669 16.3168 21.9456 0.0000 2.3337 0.0000
# 2 16.3168 87.8934 28.1878 0.0000 7.4094 0.0000
# 3 21.9456 28.1878 74.4767 0.0000 1.2239 0.0000
# 4 0.0000 0.0000 0.0000 37.0274 0.0000 -5.8688
# 5 2.3337 7.4094 1.2239 0.0000 27.2026 0.0000
# 6 0.0000 0.0000 0.0000 -5.8688 0.0000 52.4798
#
#
#
# Elastic Compliance Matrix: (Units=1/GPa)
#
#
# Indices 1 2 3 4 5 6 
#
# 1 0.012935 -0.001287 -0.003314 0.000000 -0.000610 0.000000
# 2 -0.001287 0.013382 -0.004631 0.000000 -0.003326 0.000000
# 3 -0.003314 -0.004631 0.016143 0.000000 0.000819 0.000000
# 4 0.000000 0.000000 0.000000 0.027494 0.000000 0.003075
# 5 -0.000610 -0.003326 0.000819 0.000000 0.037683 0.000000
# 6 0.000000 0.000000 0.000000 0.003075 0.000000 0.019399
#
#
# Mechanical properties :
#
#
# Convention : Reuss Voigt Hill
#
# Bulk Modulus (GPa) = 41.67478 42.21527 41.94502
# Shear Modulus (GPa) = 32.57368 35.38108 33.97738
#
# Velocity S-wave (km/s) = 3.76264 3.92144 3.84286
# Velocity P-wave (km/s) = 6.08192 6.23310 6.15797
#
# Compressibility (1/GPa) = 0.02399533
#
# Stress axis : x y z
#
# Youngs Moduli (GPa) = 77.31024 74.72797 61.94694
#
# Poissons Ratio (x) = 0.09617 0.20531
# Poissons Ratio (y) = 0.09949 0.28687
# Poissons Ratio (z) = 0.25623 0.34606
#
# Static dielectric constant tensor:
#      x y z
#    x 4.241170 0.000000 -0.362420 
#    y 0.000000 4.379310 0.000000 
#    z -0.362420 0.000000 4.478280 
# 
# 
# High freq. dielectric constant tensor:
#      x y z
#    x 1.922780 0.000000 -0.010330 
#    y 0.000000 1.899520 0.000000 
#    z -0.010330 0.000000 1.907110 
# 
# From -- ./inp_files/214307.got.cif
#   From: 2010.06.25/outbox.cif.g09.slc.cpg/sg15_108_cif.got.tgz:214307.got - 2010.06.28 07:06:18.
