data_PCOD8149182
_publ_section_title
;
Structure prediction by ZEFSAII (Michael W. Deem and Ramdas Pophale) SiO2 
 PCOD8149182
Probable space group: C 2/C
;
_chemical_formula_sum "Si O2"
_cell_formula_units_Z 36
_cell_length_a 5.003336
_cell_length_b 27.427163
_cell_length_c 12.276861
_cell_angle_alpha 90.000000
_cell_angle_beta 82.013983
_cell_angle_gamma 90.000000
_cell_volume 1668.382222
_symmetry_space_group_name_H-M "C 2/C"
_symmetry_group_IT_number 15
_symmetry_cell_setting 'monoclinic'
loop_
_space_group_symop_operation_xyz
x,y,z
-x,y,1/2-z
-x,-y,-z
x,-y,1/2+z
1/2+x,1/2+y,z
1/2-x,1/2+y,1/2-z
1/2-x,1/2-y,-z
1/2+x,1/2-y,1/2+z
loop_
_atom_site_type_symbol
_atom_site_label
_atom_site_fract_x
_atom_site_fract_y
_atom_site_fract_z
Si Si1 0.000000 0.509688 0.250000
Si Si2 0.000000 0.165570 0.250000
Si Si3 0.010365 0.782611 0.974094
Si Si4 0.141975 0.405474 0.894279
Si Si5 0.000000 0.055395 0.750000
Si Si6 0.411996 0.385618 0.466166
O O1 0.057724 0.542129 0.352727
O O2 0.261084 0.476796 0.212995
O O3 0.931585 0.199929 0.152314
O O4 0.254378 0.130491 0.207529
O O5 0.750000 0.750000 0.000000
O O6 0.250000 0.750000 0.000000
O O7 0.978264 0.830340 0.052302
O O8 0.383940 0.414816 0.966348
O O9 0.884988 0.381403 0.965821
O O10 0.883914 0.089256 0.851513
#
# Coordination Sequence:
#
# PCOD8149182 Si02
#       6
#     4   4   8   8   4   8
#     4  12  24  40  67  99 124 173 221 260 316 388
#     4  10  23  44  69  96 130 168 213 274 321 366
#     4  11  24  41  66  96 124 164 215 259 314 382
#     4  11  23  43  70  92 125 170 226 269 306 370
#     4  12  27  42  62  95 140 171 204 260 337 392
#     4  11  25  44  64  94 133 173 209 269 329 374
#
# _framework density 21.577788999999999
#
# number of rings (size 3 to 8) (size 9 to 14) (size 15 to 20)
#    0.000    0.889    0.000    8.667    0.000   11.556 
#    0.000    0.000    0.000    0.000    0.000    0.000 
#    0.000    0.000    0.000    0.000    0.000    0.000 
#
# Total GULP energy -223269.412757 kJ/mol
# GULP energy per Si atom -12403.856264 kJ/mol
# Density = 2.152868 g / cm^3
# Si number density = 21.577789 Si / 1000 Ang^3
#
#
#
# Elastic Constant Matrix: (Units=GPa)
#
#
# Indices 1 2 3 4 5 6 
#
# 1 164.1071 63.5462 61.4931 0.0000 -14.1457 0.0000
# 2 63.5462 148.1170 78.6383 0.0000 -0.4678 0.0000
# 3 61.4931 78.6383 132.9353 0.0000 -7.3648 0.0000
# 4 0.0000 0.0000 0.0000 19.8813 0.0000 -2.2731
# 5 -14.1457 -0.4678 -7.3648 0.0000 41.1342 0.0000
# 6 0.0000 0.0000 0.0000 -2.2731 0.0000 32.0769
#
#
#
# Elastic Compliance Matrix: (Units=1/GPa)
#
#
# Indices 1 2 3 4 5 6 
#
# 1 0.008001 -0.002229 -0.002254 0.000000 0.002323 0.000000
# 2 -0.002229 0.010500 -0.005268 0.000000 -0.001590 0.000000
# 3 -0.002254 -0.005268 0.011752 0.000000 0.001269 0.000000
# 4 0.000000 0.000000 0.000000 0.050709 0.000000 0.003593
# 5 0.002323 -0.001590 0.001269 0.000000 0.025319 0.000000
# 6 0.000000 0.000000 0.000000 0.003593 0.000000 0.031430
#
#
# Mechanical properties :
#
#
# Convention : Reuss Voigt Hill
#
# Bulk Modulus (GPa) = 93.01714 94.72383 93.87048
# Shear Modulus (GPa) = 31.09522 34.71729 32.90625
#
# Velocity S-wave (km/s) = 3.80027 4.01551 3.90937
# Velocity P-wave (km/s) = 7.90300 8.09278 7.99846
#
# Compressibility (1/GPa) = 0.01075071
#
# Stress axis : x y z
#
# Youngs Moduli (GPa) = 124.97662 95.24206 85.09224
#
# Poissons Ratio (x) = 0.21227 0.19182
# Poissons Ratio (y) = 0.27853 0.44828
# Poissons Ratio (z) = 0.28173 0.50175
#
# Static dielectric constant tensor:
#      x y z
#    x 4.080650 0.000000 0.088170 
#    y 0.000000 4.064990 0.000000 
#    z 0.088170 0.000000 3.807490 
# 
# 
# High freq. dielectric constant tensor:
#      x y z
#    x 1.871590 0.000000 0.002640 
#    y 0.000000 1.853510 0.000000 
#    z 0.002640 0.000000 1.837300 
# 
# From -- ./inp_files/72646.got.cif
#   From: 2010.06.25/outbox.cif.g09.slc.cpg/sg15_37_cif.got.tgz:72646.got - 2010.06.28 07:06:18.
