data_PCOD8149202
_publ_section_title
;
Structure prediction by ZEFSAII (Michael W. Deem and Ramdas Pophale) SiO2 
 PCOD8149202
Probable space group: C 2/C
;
_chemical_formula_sum "Si O2"
_cell_formula_units_Z 48
_cell_length_a 28.256354
_cell_length_b 10.795750
_cell_length_c 22.761451
_cell_angle_alpha 90.000000
_cell_angle_beta 161.622898
_cell_angle_gamma 90.000000
_cell_volume 2189.027684
_symmetry_space_group_name_H-M "C 2/C"
_symmetry_group_IT_number 15
_symmetry_cell_setting 'monoclinic'
loop_
_space_group_symop_operation_xyz
x,y,z
-x,y,1/2-z
-x,-y,-z
x,-y,1/2+z
1/2+x,1/2+y,z
1/2-x,1/2+y,1/2-z
1/2-x,1/2-y,-z
1/2+x,1/2-y,1/2+z
loop_
_atom_site_type_symbol
_atom_site_label
_atom_site_fract_x
_atom_site_fract_y
_atom_site_fract_z
Si Si1 0.586571 0.928076 0.953984
Si Si2 0.374029 0.643540 0.485741
Si Si3 0.752698 0.505831 0.563088
Si Si4 0.843539 0.017507 0.179103
Si Si5 0.830733 0.269760 0.231255
Si Si6 0.155079 0.632946 0.122084
O O1 0.424317 0.982433 0.747187
O O2 0.574661 0.784802 0.955322
O O3 0.692082 0.950792 0.022231
O O4 0.655669 0.999502 0.091339
O O5 0.315294 0.609923 0.481461
O O6 0.515613 0.562088 0.632660
O O7 0.238998 0.616985 0.282159
O O8 0.655051 0.524191 0.389688
O O9 0.737515 0.628048 0.585296
O O10 0.859207 0.154978 0.222077
O O11 0.734848 0.234132 0.175044
O O12 0.987445 0.323477 0.439029
#
# Coordination Sequence:
#
# PCOD8149202 Si02
#       6
#     8   8   8   8   8   8
#     4  10  25  42  63  96 130 175 208 269 322 376
#     4  12  26  39  65  97 129 178 211 262 318 386
#     4  11  24  43  67  97 130 170 217 262 321 381
#     4  11  24  43  67  97 130 170 217 262 321 381
#     4  10  23  44  70  96 125 172 214 276 314 366
#     4  10  25  41  66  95 133 165 221 265 322 378
#
# _framework density 21.927544000000001
#
# number of rings (size 3 to 8) (size 9 to 14) (size 15 to 20)
#    0.000    1.333    0.000    3.500    9.333    6.667 
#    0.000    5.000    0.000    0.000    0.000    0.000 
#    0.000    0.000    0.000    0.000    0.000    0.000 
#
# Total GULP energy -297812.927364 kJ/mol
# GULP energy per Si atom -12408.871974 kJ/mol
# Density = 2.187764 g / cm^3
# Si number density = 21.927544 Si / 1000 Ang^3
#
#
#
# Elastic Constant Matrix: (Units=GPa)
#
#
# Indices 1 2 3 4 5 6 
#
# 1 44.1737 -4.3471 -2.8904 -0.0017 1.9143 0.0021
# 2 -4.3471 105.0161 12.9478 0.0001 -0.9583 0.0014
# 3 -2.8904 12.9478 57.2203 0.0011 -8.6876 0.0019
# 4 -0.0017 0.0001 0.0011 29.3733 0.0020 7.2295
# 5 1.9143 -0.9583 -8.6876 0.0020 39.9800 0.0006
# 6 0.0021 0.0014 0.0019 7.2295 0.0006 21.8732
#
#
#
# Elastic Compliance Matrix: (Units=1/GPa)
#
#
# Indices 1 2 3 4 5 6 
#
# 1 0.022813 0.000834 0.000828 0.000002 -0.000892 -0.000003
# 2 0.000834 0.009829 -0.002226 0.000000 -0.000288 -0.000001
# 3 0.000828 -0.002226 0.018622 -0.000001 0.003954 -0.000001
# 4 0.000002 0.000000 -0.000001 0.037059 -0.000002 -0.012249
# 5 -0.000892 -0.000288 0.003954 -0.000002 0.025907 0.000000
# 6 -0.000003 -0.000001 -0.000001 -0.012249 0.000000 0.049767
#
#
# Mechanical properties :
#
#
# Convention : Reuss Voigt Hill
#
# Bulk Modulus (GPa) = 19.94545 24.20340 22.07442
# Shear Modulus (GPa) = 27.49734 31.62528 29.56131
#
# Velocity S-wave (km/s) = 3.54504 3.80183 3.67568
# Velocity P-wave (km/s) = 5.08648 5.50761 5.30123
#
# Compressibility (1/GPa) = 0.05013676
#
# Stress axis : x y z
#
# Youngs Moduli (GPa) = 43.83492 101.74331 53.69988
#
# Poissons Ratio (x) = -0.08486 -0.04447
# Poissons Ratio (y) = -0.03656 0.11952
# Poissons Ratio (z) = -0.03630 0.22644
#
# Static dielectric constant tensor:
#      x y z
#    x 3.877260 0.000000 0.101340 
#    y 0.000000 4.024390 0.000000 
#    z 0.101340 0.000000 3.938050 
# 
# 
# High freq. dielectric constant tensor:
#      x y z
#    x 1.867520 0.000000 0.008600 
#    y 0.000000 1.871910 0.000000 
#    z 0.008600 0.000000 1.869900 
# 
# From -- ./inp_files/257648.got.cif
#   From: 2010.06.25/outbox.cif.g09.slc.cpg/sg15_129_cif.got.tgz:257648.got - 2010.06.28 07:06:18.
