data_PCOD8149293
_publ_section_title
;
Structure prediction by ZEFSAII (Michael W. Deem and Ramdas Pophale) SiO2 
 PCOD8149293
Probable space group: C 2/C
;
_chemical_formula_sum "Si O2"
_cell_formula_units_Z 48
_cell_length_a 9.124865
_cell_length_b 22.153182
_cell_length_c 11.332825
_cell_angle_alpha 90.000000
_cell_angle_beta 82.620533
_cell_angle_gamma 90.000000
_cell_volume 2271.896882
_symmetry_space_group_name_H-M "C 2/C"
_symmetry_group_IT_number 15
_symmetry_cell_setting 'monoclinic'
loop_
_space_group_symop_operation_xyz
x,y,z
-x,y,1/2-z
-x,-y,-z
x,-y,1/2+z
1/2+x,1/2+y,z
1/2-x,1/2+y,1/2-z
1/2-x,1/2-y,-z
1/2+x,1/2-y,1/2+z
loop_
_atom_site_type_symbol
_atom_site_label
_atom_site_fract_x
_atom_site_fract_y
_atom_site_fract_z
Si Si1 0.361304 0.116793 0.021959
Si Si2 0.695346 0.098034 0.037690
Si Si3 0.155098 0.893940 0.217519
Si Si4 0.343845 0.201993 0.814663
Si Si5 0.834309 0.315883 0.751877
Si Si6 0.843669 0.018101 0.575980
O O1 0.531145 0.093893 0.999166
O O2 0.323035 0.129132 0.161653
O O3 0.346269 0.180181 0.950575
O O4 0.243675 0.067424 0.992966
O O5 0.721341 0.157916 0.115856
O O6 0.733806 0.038328 0.108012
O O7 0.818022 0.094737 0.922604
O O8 0.292832 0.855716 0.246616
O O9 0.133574 0.955311 0.295238
O O10 0.000000 0.857780 0.250000
O O11 0.500000 0.221688 0.750000
O O12 0.247892 0.259847 0.796155
O O13 0.000000 0.293161 0.750000
O O14 0.000000 0.000000 0.500000
#
# Coordination Sequence:
#
# PCOD8149293 Si02
#       6
#     8   8   8   8   8   8
#     4  10  23  45  65  92 136 171 220 265 331 396
#     4  11  23  43  65  97 128 175 216 267 331 390
#     4  11  23  42  65  92 134 172 217 270 330 386
#     4  11  22  42  67  95 125 174 219 270 329 393
#     4  10  24  43  65  96 130 171 218 273 326 388
#     4  11  24  39  66  95 130 172 214 272 324 387
#
# _framework density 21.127718000000002
#
# number of rings (size 3 to 8) (size 9 to 14) (size 15 to 20)
#    0.000    1.333    3.333    1.500    2.333    2.000 
#    6.000    0.000    0.000    0.000    0.000    0.000 
#    0.000    0.000    0.000    0.000    0.000    0.000 
#
# Total GULP energy -297444.665341 kJ/mol
# GULP energy per Si atom -12393.527723 kJ/mol
# Density = 2.107963 g / cm^3
# Si number density = 21.127718 Si / 1000 Ang^3
#
#
#
# Elastic Constant Matrix: (Units=GPa)
#
#
# Indices 1 2 3 4 5 6 
#
# 1 128.2552 65.7717 55.3578 0.0000 1.7891 0.0000
# 2 65.7717 98.3940 33.8551 0.0000 -8.9796 0.0000
# 3 55.3578 33.8551 115.3047 0.0000 -17.4155 0.0000
# 4 0.0000 0.0000 0.0000 0.7030 0.0000 7.9049
# 5 1.7891 -8.9796 -17.4155 0.0000 29.0761 0.0000
# 6 0.0000 0.0000 0.0000 7.9049 0.0000 35.0545
#
#
#
# Elastic Compliance Matrix: (Units=1/GPa)
#
#
# Indices 1 2 3 4 5 6 
#
# 1 0.014666 -0.008511 -0.005580 0.000000 -0.006873 0.000000
# 2 -0.008511 0.016317 0.000149 0.000000 0.005652 0.000000
# 3 -0.005580 0.000149 0.012498 0.000000 0.007875 0.000000
# 4 0.000000 0.000000 0.000000 -0.926272 0.000000 0.208876
# 5 -0.006873 0.005652 0.007875 0.000000 0.041278 0.000000
# 6 0.000000 0.000000 0.000000 0.208876 0.000000 -0.018575
#
#
# Mechanical properties :
#
#
# Convention : Reuss Voigt Hill
#
# Bulk Modulus (GPa) = 64.11999 72.43590 68.27795
# Shear Modulus (GPa) = -6.04591 25.43134 9.69272
#
# Velocity S-wave (km/s) = -1.69346 3.47320 2.14421
# Velocity P-wave (km/s) = 5.15664 7.10235 6.20621
#
# Compressibility (1/GPa) = 0.01559576
#
# Stress axis : x y z
#
# Youngs Moduli (GPa) = 68.18570 61.28667 80.01575
#
# Poissons Ratio (x) = 0.52159 0.44652
# Poissons Ratio (y) = 0.58030 -0.01190
# Poissons Ratio (z) = 0.38050 -0.00912
#
# Static dielectric constant tensor:
#      x y z
#    x 3.960530 0.000000 0.178770 
#    y 0.000000 3.657590 0.000000 
#    z 0.178770 0.000000 3.886380 
# 
# 
# High freq. dielectric constant tensor:
#      x y z
#    x 1.844910 0.000000 0.011040 
#    y 0.000000 1.819320 0.000000 
#    z 0.011040 0.000000 1.832830 
# 
# From -- ./inp_files/79153.got.cif
#   From: 2010.06.25/outbox.cif.g09.slc.cpg/sg15_40_cif.got.tgz:79153.got - 2010.06.28 07:06:18.
