data_PCOD8149246
_publ_section_title
;
Structure prediction by ZEFSAII (Michael W. Deem and Ramdas Pophale) SiO2 
 PCOD8149246
Probable space group: C 2/C
;
_chemical_formula_sum "Si O2"
_cell_formula_units_Z 32
_cell_length_a 24.278585
_cell_length_b 12.998373
_cell_length_c 9.770603
_cell_angle_alpha 90.000000
_cell_angle_beta 25.995653
_cell_angle_gamma 90.000000
_cell_volume 1351.475361
_symmetry_space_group_name_H-M "C 2/C"
_symmetry_group_IT_number 15
_symmetry_cell_setting 'monoclinic'
loop_
_space_group_symop_operation_xyz
x,y,z
-x,y,1/2-z
-x,-y,-z
x,-y,1/2+z
1/2+x,1/2+y,z
1/2-x,1/2+y,1/2-z
1/2-x,1/2-y,-z
1/2+x,1/2-y,1/2+z
loop_
_atom_site_type_symbol
_atom_site_label
_atom_site_fract_x
_atom_site_fract_y
_atom_site_fract_z
Si Si1 0.628719 0.564901 0.025607
Si Si2 0.500000 0.240997 0.750000
Si Si3 0.481939 0.120457 0.530445
Si Si4 0.000000 0.756154 0.250000
Si Si5 0.700777 0.592682 0.169087
O O1 0.500000 0.514275 0.250000
O O2 0.621793 0.687705 0.013172
O O3 0.644251 0.547048 0.153234
O O4 0.731105 0.502988 0.706367
O O5 0.539674 0.169237 0.537325
O O6 0.553391 0.178086 0.246853
O O7 0.500000 0.000000 0.500000
O O8 0.333939 0.146264 0.842981
O O9 0.889058 0.824724 0.558992
#
# Coordination Sequence:
#
# PCOD8149246 Si02
#       5
#     8   4   8   4   8
#     4  10  23  44  72 108 138 179 244 293 346 425
#     4  10  24  46  68 100 144 182 242 284 348 432
#     4  12  29  47  68 105 149 190 237 292 360 417
#     4  12  24  48  74  98 142 190 240 292 350 426
#     4  12  26  45  77 106 142 187 237 297 358 420
#
# _framework density 23.677826
#
# number of rings (size 3 to 8) (size 9 to 14) (size 15 to 20)
#    0.750    0.000    3.750    2.250   10.500    0.000 
#    0.000    2.500    0.000    0.000    0.000    0.000 
#    0.000    0.000    0.000    0.000    0.000    0.000 
#
# Total GULP energy -198289.118793 kJ/mol
# GULP energy per Si atom -12393.069925 kJ/mol
# Density = 2.362393 g / cm^3
# Si number density = 23.677826 Si / 1000 Ang^3
#
#
#
# Elastic Constant Matrix: (Units=GPa)
#
#
# Indices 1 2 3 4 5 6 
#
# 1 144.0689 62.4706 59.6862 0.0000 57.7730 0.0000
# 2 62.4706 161.3272 34.7940 0.0000 42.4965 0.0000
# 3 59.6862 34.7940 71.2148 0.0000 24.2365 0.0000
# 4 0.0000 0.0000 0.0000 22.1453 0.0000 9.4670
# 5 57.7730 42.4965 24.2365 0.0000 55.6563 0.0000
# 6 0.0000 0.0000 0.0000 9.4670 0.0000 45.1376
#
#
#
# Elastic Compliance Matrix: (Units=1/GPa)
#
#
# Indices 1 2 3 4 5 6 
#
# 1 0.015678 -0.001144 -0.008617 0.000000 -0.011649 0.000000
# 2 -0.001144 0.008115 -0.001528 0.000000 -0.004343 0.000000
# 3 -0.008617 -0.001528 0.021800 0.000000 0.000618 0.000000
# 4 0.000000 0.000000 0.000000 0.049604 0.000000 -0.010404
# 5 -0.011649 -0.004343 0.000618 0.000000 0.033106 0.000000
# 6 0.000000 0.000000 0.000000 -0.010404 0.000000 0.024337
#
#
# Mechanical properties :
#
#
# Convention : Reuss Voigt Hill
#
# Bulk Modulus (GPa) = 43.44796 76.72361 60.08578
# Shear Modulus (GPa) = 27.33880 39.23183 33.28532
#
# Velocity S-wave (km/s) = 3.40165 4.07492 3.75341
# Velocity P-wave (km/s) = 5.81531 7.39009 6.64948
#
# Compressibility (1/GPa) = 0.02301604
#
# Stress axis : x y z
#
# Youngs Moduli (GPa) = 63.78233 123.22404 45.87140
#
# Poissons Ratio (x) = 0.14100 0.39527
# Poissons Ratio (y) = 0.07298 0.07008
# Poissons Ratio (z) = 0.54960 0.18826
#
# Static dielectric constant tensor:
#      x y z
#    x 3.993930 0.000000 0.277630 
#    y 0.000000 4.304900 0.000000 
#    z 0.277630 0.000000 4.187550 
# 
# 
# High freq. dielectric constant tensor:
#      x y z
#    x 1.938970 0.000000 0.021610 
#    y 0.000000 1.957750 0.000000 
#    z 0.021610 0.000000 1.920240 
# 
# From -- ./inp_files/61357.got.cif
#   From: 2010.06.25/outbox.cif.g09.slc.cpg/sg15_31_cif.got.tgz:61357.got - 2010.06.28 07:06:18.
