data_PCOD8149697
_publ_section_title
;
Structure prediction by ZEFSAII (Michael W. Deem and Ramdas Pophale) SiO2 
 PCOD8149697
Probable space group: C 2/C
;
_chemical_formula_sum "Si O2"
_cell_formula_units_Z 36
_cell_length_a 11.039780
_cell_length_b 16.701117
_cell_length_c 13.772495
_cell_angle_alpha 90.000000
_cell_angle_beta 141.499136
_cell_angle_gamma 90.000000
_cell_volume 1580.797939
_symmetry_space_group_name_H-M "C 2/C"
_symmetry_group_IT_number 15
_symmetry_cell_setting 'monoclinic'
loop_
_space_group_symop_operation_xyz
x,y,z
-x,y,1/2-z
-x,-y,-z
x,-y,1/2+z
1/2+x,1/2+y,z
1/2-x,1/2+y,1/2-z
1/2-x,1/2-y,-z
1/2+x,1/2-y,1/2+z
loop_
_atom_site_type_symbol
_atom_site_label
_atom_site_fract_x
_atom_site_fract_y
_atom_site_fract_z
Si Si1 0.410020 0.892051 0.425705
Si Si2 0.000000 0.735299 0.250000
Si Si3 0.726458 0.473242 0.916392
Si Si4 0.654858 0.430370 0.081261
Si Si5 0.586188 0.710365 0.008188
O O1 0.637057 0.918304 0.566927
O O2 0.311518 0.922528 0.264530
O O3 0.407586 0.797770 0.440078
O O4 0.293345 0.934730 0.440906
O O5 0.191042 0.679572 0.363978
O O6 0.997612 0.791243 0.344292
O O7 0.500000 0.460388 0.750000
O O8 0.767198 0.446946 0.052210
O O9 0.535039 0.347316 0.998475
O O10 0.500000 0.500000 0.000000
#
# Coordination Sequence:
#
# PCOD8149697 Si02
#       5
#     8   4   8   8   8
#     4  11  26  50  71 110 146 192 249 298 374 446
#     4  10  24  40  70 106 142 190 248 308 350 438
#     4  11  26  45  75 105 146 193 240 305 368 438
#     4  12  26  46  73 106 149 192 238 305 372 434
#     4  11  25  44  73 107 145 195 247 305 367 434
#
# _framework density 22.773309000000001
#
# number of rings (size 3 to 8) (size 9 to 14) (size 15 to 20)
#    0.000    0.889    4.444    0.667   10.889    0.889 
#    0.000    0.000    0.000    0.000    0.000    0.000 
#    0.000    0.000    0.000    0.000    0.000    0.000 
#
# Total GULP energy -223157.030364 kJ/mol
# GULP energy per Si atom -12397.612798 kJ/mol
# Density = 2.272148 g / cm^3
# Si number density = 22.773309 Si / 1000 Ang^3
#
#
#
# Elastic Constant Matrix: (Units=GPa)
#
#
# Indices 1 2 3 4 5 6 
#
# 1 136.3455 57.1956 60.6794 0.0005 -3.8950 0.0000
# 2 57.1956 138.7410 52.4371 0.0006 0.6971 0.0001
# 3 60.6794 52.4371 123.6098 0.0014 4.3534 0.0004
# 4 0.0005 0.0006 0.0014 23.2568 0.0009 2.4699
# 5 -3.8950 0.6971 4.3534 0.0009 50.9193 0.0002
# 6 0.0000 0.0001 0.0004 2.4699 0.0002 23.8314
#
#
#
# Elastic Compliance Matrix: (Units=1/GPa)
#
#
# Indices 1 2 3 4 5 6 
#
# 1 0.010265 -0.002760 -0.003909 0.000000 0.001157 0.000000
# 2 -0.002760 0.009328 -0.002598 0.000000 -0.000117 0.000000
# 3 -0.003909 -0.002598 0.011154 0.000000 -0.001217 0.000000
# 4 0.000000 0.000000 0.000000 0.043477 -0.000001 -0.004506
# 5 0.001157 -0.000117 -0.001217 -0.000001 0.019833 0.000000
# 6 0.000000 0.000000 0.000000 -0.004506 0.000000 0.042428
#
#
# Mechanical properties :
#
#
# Convention : Reuss Voigt Hill
#
# Bulk Modulus (GPa) = 81.88223 82.14673 82.01448
# Shear Modulus (GPa) = 31.42884 34.82713 33.12798
#
# Velocity S-wave (km/s) = 3.71896 3.91486 3.81817
# Velocity P-wave (km/s) = 7.38067 7.52228 7.45181
#
# Compressibility (1/GPa) = 0.01221266
#
# Stress axis : x y z
#
# Youngs Moduli (GPa) = 97.42047 107.20365 89.65578
#
# Poissons Ratio (x) = 0.29589 0.35045
# Poissons Ratio (y) = 0.26889 0.23293
# Poissons Ratio (z) = 0.38080 0.27852
#
# Static dielectric constant tensor:
#      x y z
#    x 4.432730 0.000000 0.065470 
#    y 0.000000 3.858660 0.000000 
#    z 0.065470 0.000000 4.386830 
# 
# 
# High freq. dielectric constant tensor:
#      x y z
#    x 1.905980 0.000000 0.012470 
#    y 0.000000 1.882980 0.000000 
#    z 0.012470 0.000000 1.916980 
# 
# From -- ./inp_files/145294.got.cif
#   From: 2010.06.25/outbox.cif.g09.slc.cpg/sg15_73_cif.got.tgz:145294.got - 2010.06.28 07:06:18.
