data_PCOD8149129
_publ_section_title
;
Structure prediction by ZEFSAII (Michael W. Deem and Ramdas Pophale) SiO2 
 PCOD8149129
Probable space group: C 2/C
;
_chemical_formula_sum "Si O2"
_cell_formula_units_Z 64
_cell_length_a 9.065481
_cell_length_b 28.749912
_cell_length_c 14.619189
_cell_angle_alpha 90.000000
_cell_angle_beta 49.011449
_cell_angle_gamma 90.000000
_cell_volume 2876.112957
_symmetry_space_group_name_H-M "C 2/C"
_symmetry_group_IT_number 15
_symmetry_cell_setting 'monoclinic'
loop_
_space_group_symop_operation_xyz
x,y,z
-x,y,1/2-z
-x,-y,-z
x,-y,1/2+z
1/2+x,1/2+y,z
1/2-x,1/2+y,1/2-z
1/2-x,1/2-y,-z
1/2+x,1/2-y,1/2+z
loop_
_atom_site_type_symbol
_atom_site_label
_atom_site_fract_x
_atom_site_fract_y
_atom_site_fract_z
Si Si1 0.402965 0.184134 0.610054
Si Si2 0.012529 0.933835 0.637209
Si Si3 0.026555 0.959575 0.129552
Si Si4 0.685472 0.919006 0.628223
Si Si5 0.209130 0.612027 0.702888
Si Si6 0.898061 0.681684 0.408078
Si Si7 0.199391 0.215178 0.318852
Si Si8 0.680411 0.655746 0.016786
O O1 0.312431 0.138100 0.692193
O O2 0.316306 0.184088 0.543454
O O3 0.346328 0.231231 0.685984
O O4 0.637543 0.182114 0.513132
O O5 0.836330 0.912142 0.650006
O O6 0.000000 0.933308 0.750000
O O7 0.190451 0.898683 0.544687
O O8 0.032479 0.986814 0.596729
O O9 0.000000 0.953046 0.250000
O O10 0.845876 0.933244 0.155344
O O11 0.226550 0.941250 0.001131
O O12 0.500000 0.946557 0.750000
O O13 0.603503 0.869702 0.631210
O O14 0.302883 0.651866 0.599881
O O15 0.000000 0.595024 0.750000
O O16 0.757640 0.713143 0.402355
O O17 0.121663 0.699149 0.316839
O O18 0.012303 0.183057 0.373244
#
# Coordination Sequence:
#
# PCOD8149129 Si02
#       8
#     8   8   8   8   8   8   8   8
#     4  11  26  41  67  97 132 177 228 277 335 406
#     4  11  25  44  70 101 135 180 229 284 346 412
#     4  11  24  47  71 104 139 182 230 283 352 416
#     4  12  23  45  71 103 140 181 230 287 346 409
#     4  10  23  44  67  96 136 178 223 278 341 405
#     4  11  23  43  66  97 135 171 225 282 337 402
#     4  11  23  43  63  96 130 178 221 277 341 402
#     4  11  23  43  67  92 135 175 222 280 334 400
#
# _framework density 22.252255999999999
#
# number of rings (size 3 to 8) (size 9 to 14) (size 15 to 20)
#    0.000    1.000    3.750    1.875    5.250    0.500 
#   11.250    1.250    0.000    0.000    0.000    0.000 
#    0.000    0.000    0.000    0.000    0.000    0.000 
#
# Total GULP energy -396606.565327 kJ/mol
# GULP energy per Si atom -12393.955166 kJ/mol
# Density = 2.220161 g / cm^3
# Si number density = 22.252256 Si / 1000 Ang^3
#
#
#
# Elastic Constant Matrix: (Units=GPa)
#
#
# Indices 1 2 3 4 5 6 
#
# 1 51.2963 39.9577 25.9443 0.0000 -0.5682 0.0000
# 2 39.9577 134.4701 47.7448 0.0000 -15.5165 0.0000
# 3 25.9443 47.7448 108.9849 0.0000 -3.6982 0.0000
# 4 0.0000 0.0000 0.0000 27.8658 0.0000 14.2542
# 5 -0.5682 -15.5165 -3.6982 0.0000 42.6171 0.0000
# 6 0.0000 0.0000 0.0000 14.2542 0.0000 -28.9025
#
#
#
# Elastic Compliance Matrix: (Units=1/GPa)
#
#
# Indices 1 2 3 4 5 6 
#
# 1 0.026621 -0.007007 -0.003352 0.000000 -0.002487 0.000000
# 2 -0.007007 0.011018 -0.003035 0.000000 0.003655 0.000000
# 3 -0.003352 -0.003035 0.011297 0.000000 -0.000169 0.000000
# 4 0.000000 0.000000 0.000000 0.028657 0.000000 0.014133
# 5 -0.002487 0.003655 -0.000169 0.000000 0.024748 0.000000
# 6 0.000000 0.000000 0.000000 0.014133 0.000000 -0.027629
#
#
# Mechanical properties :
#
#
# Convention : Reuss Voigt Hill
#
# Bulk Modulus (GPa) = 45.14999 58.00500 51.57749
# Shear Modulus (GPa) = 45.92141 20.38969 33.15555
#
# Velocity S-wave (km/s) = 4.54770 3.03033 3.86422
# Velocity P-wave (km/s) = 6.92167 6.19415 6.56799
#
# Compressibility (1/GPa) = 0.02214840
#
# Stress axis : x y z
#
# Youngs Moduli (GPa) = 37.56485 90.76036 88.51732
#
# Poissons Ratio (x) = 0.63598 0.29669
# Poissons Ratio (y) = 0.26323 0.26863
# Poissons Ratio (z) = 0.12591 0.27543
#
# Static dielectric constant tensor:
#      x y z
#    x 3.923150 0.000000 0.031930 
#    y 0.000000 4.113100 0.000000 
#    z 0.031930 0.000000 4.300560 
# 
# 
# High freq. dielectric constant tensor:
#      x y z
#    x 1.869350 0.000000 0.006780 
#    y 0.000000 1.877820 0.000000 
#    z 0.006780 0.000000 1.887410 
# 
# From -- ./inp_files/139819.got.cif
#   From: 2010.06.25/outbox.cif.g09.slc.cpg/sg15_70_cif.got.tgz:139819.got - 2010.06.28 07:06:18.
