data_PCOD8149323
_publ_section_title
;
Structure prediction by ZEFSAII (Michael W. Deem and Ramdas Pophale) SiO2 
 PCOD8149323
Probable space group: C 2/C
;
_chemical_formula_sum "Si O2"
_cell_formula_units_Z 56
_cell_length_a 8.474892
_cell_length_b 12.383920
_cell_length_c 26.444363
_cell_angle_alpha 90.000000
_cell_angle_beta 109.965280
_cell_angle_gamma 90.000000
_cell_volume 2608.596659
_symmetry_space_group_name_H-M "C 2/C"
_symmetry_group_IT_number 15
_symmetry_cell_setting 'monoclinic'
loop_
_space_group_symop_operation_xyz
x,y,z
-x,y,1/2-z
-x,-y,-z
x,-y,1/2+z
1/2+x,1/2+y,z
1/2-x,1/2+y,1/2-z
1/2-x,1/2-y,-z
1/2+x,1/2-y,1/2+z
loop_
_atom_site_type_symbol
_atom_site_label
_atom_site_fract_x
_atom_site_fract_y
_atom_site_fract_z
Si Si1 0.125398 0.259610 0.585942
Si Si2 0.914216 0.949676 0.084482
Si Si3 0.638551 0.565091 0.805744
Si Si4 0.375388 0.182869 0.980318
Si Si5 0.604591 0.887794 0.686886
Si Si6 0.986209 0.816176 0.595142
Si Si7 0.780416 0.312556 0.698633
O O1 0.101693 0.316281 0.636592
O O2 0.319922 0.251616 0.592975
O O3 0.045545 0.139695 0.578494
O O4 0.040666 0.333829 0.532629
O O5 0.928262 0.964009 0.146191
O O6 0.721978 0.925565 0.046615
O O7 0.953945 0.067294 0.065709
O O8 0.500000 0.526840 0.750000
O O9 0.816835 0.505586 0.815159
O O10 0.662175 0.692085 0.806517
O O11 0.411890 0.245092 0.932811
O O12 0.250000 0.250000 0.000000
O O13 0.413591 0.895341 0.686752
O O14 0.721383 0.829301 0.741386
O O15 0.096135 0.834265 0.657427
#
# Coordination Sequence:
#
# PCOD8149323 Si02
#       7
#     8   8   8   8   8   8   8
#     4  11  23  41  66 101 135 173 229 281 325 401
#     4  11  23  44  68  96 133 180 221 275 341 392
#     4  12  21  42  71  95 132 178 217 276 340 394
#     4  10  23  45  67  94 140 178 222 280 335 393
#     4  11  23  41  68 100 128 181 219 267 342 398
#     4  12  24  42  69 101 131 176 227 279 333 401
#     4  11  23  44  68  96 143 170 221 282 331 405
#
# _framework density 21.467482
#
# number of rings (size 3 to 8) (size 9 to 14) (size 15 to 20)
#    0.000    0.857    5.714    2.143    0.000    4.000 
#    0.000    1.429    0.000    0.000    0.000    0.000 
#    0.000    0.000    0.000    0.000    0.000    0.000 
#
# Total GULP energy -347184.245559 kJ/mol
# GULP energy per Si atom -12399.437341 kJ/mol
# Density = 2.141862 g / cm^3
# Si number density = 21.467482 Si / 1000 Ang^3
#
#
#
# Elastic Constant Matrix: (Units=GPa)
#
#
# Indices 1 2 3 4 5 6 
#
# 1 88.5385 32.2086 35.7514 0.0000 24.0276 0.0000
# 2 32.2086 76.5410 2.3257 0.0000 10.8240 0.0000
# 3 35.7514 2.3257 117.3474 0.0000 8.4710 0.0000
# 4 0.0000 0.0000 0.0000 10.0885 0.0000 10.7953
# 5 24.0276 10.8240 8.4710 0.0000 32.5126 0.0000
# 6 0.0000 0.0000 0.0000 10.7953 0.0000 37.7366
#
#
#
# Elastic Compliance Matrix: (Units=1/GPa)
#
#
# Indices 1 2 3 4 5 6 
#
# 1 0.018146 -0.006055 -0.004674 0.000000 -0.010177 0.000000
# 2 -0.006055 0.015731 0.001618 0.000000 -0.001184 0.000000
# 3 -0.004674 0.001618 0.009889 0.000000 0.000339 0.000000
# 4 0.000000 0.000000 0.000000 0.142851 0.000000 -0.040865
# 5 -0.010177 -0.001184 0.000339 0.000000 0.038584 0.000000
# 6 0.000000 0.000000 0.000000 -0.040865 0.000000 0.038190
#
#
# Mechanical properties :
#
#
# Convention : Reuss Voigt Hill
#
# Bulk Modulus (GPa) = 39.14513 46.99979 43.07246
# Shear Modulus (GPa) = 17.23383 30.21031 23.72207
#
# Velocity S-wave (km/s) = 2.83642 3.75541 3.32780
# Velocity P-wave (km/s) = 5.38528 6.38320 5.90536
#
# Compressibility (1/GPa) = 0.02554596
#
# Stress axis : x y z
#
# Youngs Moduli (GPa) = 55.10785 63.56855 101.12118
#
# Poissons Ratio (x) = 0.38489 0.47262
# Poissons Ratio (y) = 0.33367 -0.16365
# Poissons Ratio (z) = 0.25756 -0.10288
#
# Static dielectric constant tensor:
#      x y z
#    x 3.827990 0.000000 0.425060 
#    y 0.000000 3.805690 0.000000 
#    z 0.425060 0.000000 4.419730 
# 
# 
# High freq. dielectric constant tensor:
#      x y z
#    x 1.840990 0.000000 0.003300 
#    y 0.000000 1.830280 0.000000 
#    z 0.003300 0.000000 1.864560 
# 
# From -- ./inp_files/307403.got.cif
#   From: 2010.06.25/outbox.cif.g09.slc.cpg/sg15_154_cif.got.tgz:307403.got - 2010.06.28 07:06:18.
