data_PCOD8149115
_publ_section_title
;
Structure prediction by ZEFSAII (Michael W. Deem and Ramdas Pophale) SiO2 
 PCOD8149115
Probable space group: C 2/C
;
_chemical_formula_sum "Si O2"
_cell_formula_units_Z 52
_cell_length_a 10.968097
_cell_length_b 8.783894
_cell_length_c 26.056660
_cell_angle_alpha 90.000000
_cell_angle_beta 85.181574
_cell_angle_gamma 90.000000
_cell_volume 2501.494517
_symmetry_space_group_name_H-M "C 2/C"
_symmetry_group_IT_number 15
_symmetry_cell_setting 'monoclinic'
loop_
_space_group_symop_operation_xyz
x,y,z
-x,y,1/2-z
-x,-y,-z
x,-y,1/2+z
1/2+x,1/2+y,z
1/2-x,1/2+y,1/2-z
1/2-x,1/2-y,-z
1/2+x,1/2-y,1/2+z
loop_
_atom_site_type_symbol
_atom_site_label
_atom_site_fract_x
_atom_site_fract_y
_atom_site_fract_z
Si Si1 0.165920 0.115866 0.021778
Si Si2 0.757452 0.115930 0.900619
Si Si3 0.488917 0.556020 0.657480
Si Si4 0.400363 0.612686 0.065317
Si Si5 0.195516 0.611238 0.792986
Si Si6 0.500000 0.668267 0.250000
Si Si7 0.877806 0.293780 0.732098
O O1 0.036540 0.178499 0.048497
O O2 0.245225 0.030679 0.062726
O O3 0.250000 0.250000 0.000000
O O4 0.138123 0.007868 0.975477
O O5 0.705614 0.259937 0.933500
O O6 0.666320 0.103246 0.854637
O O7 0.897295 0.132985 0.876463
O O8 0.402605 0.464496 0.621181
O O9 0.534294 0.439133 0.700380
O O10 0.402559 0.691341 0.681202
O O11 0.107913 0.716830 0.762071
O O12 0.208738 0.437120 0.774526
O O13 0.328669 0.684210 0.778987
O O14 0.000000 0.368236 0.750000
#
# Coordination Sequence:
#
# PCOD8149115 Si02
#       7
#     8   8   8   8   8   4   8
#     4  10  24  45  66  96 124 162 215 273 330 383
#     4  11  22  42  67  93 128 169 212 265 322 387
#     4  11  22  41  65  93 134 169 214 265 320 381
#     4  10  23  44  67  92 126 167 208 266 329 385
#     4  12  25  41  66  96 134 176 222 264 323 386
#     4  12  22  44  66  94 140 176 216 274 316 386
#     4  12  24  42  62  94 134 177 214 266 319 382
#
# _framework density 20.787572999999998
#
# number of rings (size 3 to 8) (size 9 to 14) (size 15 to 20)
#    0.000    0.923    4.615    2.308    2.154    0.615 
#    2.769    0.000    0.000    0.000    0.000    0.000 
#    0.000    0.000    0.000    0.000    0.000    0.000 
#
# Total GULP energy -322293.288148 kJ/mol
# GULP energy per Si atom -12395.895698 kJ/mol
# Density = 2.074026 g / cm^3
# Si number density = 20.787573 Si / 1000 Ang^3
#
#
#
# Elastic Constant Matrix: (Units=GPa)
#
#
# Indices 1 2 3 4 5 6 
#
# 1 74.4986 54.9409 30.8781 0.0000 -4.6580 0.0000
# 2 54.9409 134.2727 49.0181 0.0000 -14.0253 0.0000
# 3 30.8781 49.0181 111.6111 0.0000 2.5539 0.0000
# 4 0.0000 0.0000 0.0000 32.3718 0.0000 -4.7906
# 5 -4.6580 -14.0253 2.5539 0.0000 28.1972 0.0000
# 6 0.0000 0.0000 0.0000 -4.7906 0.0000 36.7313
#
#
#
# Elastic Compliance Matrix: (Units=1/GPa)
#
#
# Indices 1 2 3 4 5 6 
#
# 1 0.019698 -0.007249 -0.002262 0.000000 -0.000147 0.000000
# 2 -0.007249 0.012229 -0.003484 0.000000 0.005201 0.000000
# 3 -0.002262 -0.003484 0.011187 0.000000 -0.003120 0.000000
# 4 0.000000 0.000000 0.000000 0.031499 0.000000 0.004108
# 5 -0.000147 0.005201 -0.003120 0.000000 0.038310 0.000000
# 6 0.000000 0.000000 0.000000 0.004108 0.000000 0.027761
#
#
# Mechanical properties :
#
#
# Convention : Reuss Voigt Hill
#
# Bulk Modulus (GPa) = 58.40387 65.56184 61.98286
# Shear Modulus (GPa) = 29.00529 31.82974 30.41752
#
# Velocity S-wave (km/s) = 3.73945 3.91729 3.82940
# Velocity P-wave (km/s) = 6.84114 7.21579 7.03096
#
# Compressibility (1/GPa) = 0.01712215
#
# Stress axis : x y z
#
# Youngs Moduli (GPa) = 50.76724 81.77335 89.38774
#
# Poissons Ratio (x) = 0.59279 0.20223
# Poissons Ratio (y) = 0.36802 0.31145
# Poissons Ratio (z) = 0.11486 0.28492
#
# Static dielectric constant tensor:
#      x y z
#    x 3.840050 0.000000 0.009490 
#    y 0.000000 3.654820 0.000000 
#    z 0.009490 0.000000 4.010730 
# 
# 
# High freq. dielectric constant tensor:
#      x y z
#    x 1.813080 0.000000 0.005340 
#    y 0.000000 1.813040 0.000000 
#    z 0.005340 0.000000 1.825500 
# 
# From -- ./inp_files/291108.got.cif
#   From: 2010.06.25/outbox.cif.g09.slc.cpg/sg15_146_cif.got.tgz:291108.got - 2010.06.28 07:06:18.
