data_PCOD8149869
_publ_section_title
;
Structure prediction by ZEFSAII (Michael W. Deem and Ramdas Pophale) SiO2 
 PCOD8149869
Probable space group: C 2/C
;
_chemical_formula_sum "Si O2"
_cell_formula_units_Z 56
_cell_length_a 14.149148
_cell_length_b 13.555157
_cell_length_c 21.055937
_cell_angle_alpha 90.000000
_cell_angle_beta 34.282679
_cell_angle_gamma 90.000000
_cell_volume 2274.735379
_symmetry_space_group_name_H-M "C 2/C"
_symmetry_group_IT_number 15
_symmetry_cell_setting 'monoclinic'
loop_
_space_group_symop_operation_xyz
x,y,z
-x,y,1/2-z
-x,-y,-z
x,-y,1/2+z
1/2+x,1/2+y,z
1/2-x,1/2+y,1/2-z
1/2-x,1/2-y,-z
1/2+x,1/2-y,1/2+z
loop_
_atom_site_type_symbol
_atom_site_label
_atom_site_fract_x
_atom_site_fract_y
_atom_site_fract_z
Si Si1 0.119936 0.679185 0.040977
Si Si2 0.095875 0.780476 0.443588
Si Si3 0.569378 0.440327 0.880352
Si Si4 0.116213 0.981772 0.124224
Si Si5 0.624062 0.138134 0.539110
Si Si6 0.443059 0.284448 0.716450
Si Si7 0.069025 0.523703 0.281520
O O1 0.023526 0.751135 0.047393
O O2 0.230512 0.591799 0.947964
O O3 0.250000 0.750000 0.000000
O O4 0.993787 0.632962 0.163192
O O5 0.047166 0.885408 0.502835
O O6 0.067215 0.686565 0.505146
O O7 0.289005 0.791560 0.314262
O O8 0.480857 0.531580 0.890246
O O9 0.628449 0.364631 0.792687
O O10 0.729431 0.480413 0.829588
O O11 0.000000 0.973524 0.250000
O O12 0.188134 0.094073 0.072413
O O13 0.607841 0.223096 0.602004
O O14 0.497406 0.051071 0.628318
O O15 0.500000 0.336794 0.750000
O O16 0.000000 0.497079 0.250000
#
# Coordination Sequence:
#
# PCOD8149869 Si02
#       7
#     8   8   8   8   8   8   8
#     4  11  26  46  68  99 141 190 240 286 353 423
#     4  11  23  42  70 101 140 186 232 291 351 427
#     4  11  23  40  67 103 136 182 238 288 353 417
#     4  11  25  43  72 105 143 185 235 295 346 423
#     4  10  24  42  68 101 138 178 227 286 360 408
#     4  11  21  40  68 100 141 178 225 288 354 422
#     4  11  24  44  67  94 137 181 232 292 348 418
#
# _framework density 24.618248000000001
#
# number of rings (size 3 to 8) (size 9 to 14) (size 15 to 20)
#    0.000    1.143    1.429    4.286    2.000    7.429 
#    0.000    4.286    0.000    0.000    0.000    0.000 
#    0.000    0.000    0.000    0.000    0.000    0.000 
#
# Total GULP energy -347099.549505 kJ/mol
# GULP energy per Si atom -12396.412482 kJ/mol
# Density = 2.456222 g / cm^3
# Si number density = 24.618248 Si / 1000 Ang^3
#
#
#
# Elastic Constant Matrix: (Units=GPa)
#
#
# Indices 1 2 3 4 5 6 
#
# 1 123.7001 -4.8930 33.2875 -0.0007 -8.8843 -0.0001
# 2 -4.8930 42.7374 6.8073 -0.0009 8.0290 0.0001
# 3 33.2875 6.8073 127.5697 -0.0035 3.3978 0.0005
# 4 -0.0007 -0.0009 -0.0035 33.5778 0.0006 -8.5932
# 5 -8.8843 8.0290 3.3978 0.0006 34.6521 -0.0001
# 6 -0.0001 0.0001 0.0005 -8.5932 -0.0001 24.2779
#
#
#
# Elastic Compliance Matrix: (Units=1/GPa)
#
#
# Indices 1 2 3 4 5 6 
#
# 1 0.008947 0.000981 -0.002448 0.000000 0.002307 0.000000
# 2 0.000981 0.024743 -0.001434 0.000001 -0.005341 0.000000
# 3 -0.002448 -0.001434 0.008585 0.000001 -0.001137 0.000000
# 4 0.000000 0.000001 0.000001 0.032748 -0.000001 0.011591
# 5 0.002307 -0.005341 -0.001137 -0.000001 0.030799 0.000000
# 6 0.000000 0.000000 0.000000 0.011591 0.000000 0.045292
#
#
# Mechanical properties :
#
#
# Convention : Reuss Voigt Hill
#
# Bulk Modulus (GPa) = 27.41843 40.49007 33.95425
# Shear Modulus (GPa) = 29.57282 35.75525 32.66404
#
# Velocity S-wave (km/s) = 3.46967 3.81516 3.64651
# Velocity P-wave (km/s) = 5.21662 5.99083 5.61708
#
# Compressibility (1/GPa) = 0.03647182
#
# Stress axis : x y z
#
# Youngs Moduli (GPa) = 111.76389 40.41573 116.48808
#
# Poissons Ratio (x) = -0.03965 0.28522
# Poissons Ratio (y) = -0.10964 0.16705
# Poissons Ratio (z) = 0.27365 0.05796
#
# Static dielectric constant tensor:
#      x y z
#    x 0.000000 0.000000 0.000000 
#    y 0.000000 0.000000 0.000000 
#    z 0.000000 0.000000 0.000000 
# 
# 
# High freq. dielectric constant tensor:
#      x y z
#    x 1.974870 0.000000 0.001900 
#    y 0.000000 1.983630 0.000000 
#    z 0.001900 0.000000 2.001770 
# 
# From -- ./inp_files/274479.got.cif
#   From: 2010.06.25/outbox.cif.g09.slc.cpg/sg15_138_cif.got.tgz:274479.got - 2010.06.28 07:06:18.
