data_PCOD8149032
_publ_section_title
;
Structure prediction by ZEFSAII (Michael W. Deem and Ramdas Pophale) SiO2 
 PCOD8149032
Probable space group: C 2/C
;
_chemical_formula_sum "Si O2"
_cell_formula_units_Z 36
_cell_length_a 17.057827
_cell_length_b 8.176546
_cell_length_c 9.625555
_cell_angle_alpha 90.000000
_cell_angle_beta 64.715948
_cell_angle_gamma 90.000000
_cell_volume 1213.904656
_symmetry_space_group_name_H-M "C 2/C"
_symmetry_group_IT_number 15
_symmetry_cell_setting 'monoclinic'
loop_
_space_group_symop_operation_xyz
x,y,z
-x,y,1/2-z
-x,-y,-z
x,-y,1/2+z
1/2+x,1/2+y,z
1/2-x,1/2+y,1/2-z
1/2-x,1/2-y,-z
1/2+x,1/2-y,1/2+z
loop_
_atom_site_type_symbol
_atom_site_label
_atom_site_fract_x
_atom_site_fract_y
_atom_site_fract_z
Si Si1 0.856563 0.668377 0.278583
Si Si2 0.062181 0.456826 0.074894
Si Si3 0.286731 0.844817 0.257035
Si Si4 0.857782 0.866907 0.930303
Si Si5 0.000000 0.116139 0.750000
O O1 0.870741 0.602807 0.426759
O O2 0.772590 0.786859 0.327856
O O3 0.848689 0.504842 0.179817
O O4 0.945908 0.770639 0.182082
O O5 0.114813 0.290618 0.998419
O O6 0.000000 0.410671 0.250000
O O7 0.000000 0.500000 0.000000
O O8 0.228584 0.926591 0.425328
O O9 0.338960 0.690998 0.284422
O O10 0.929904 0.006671 0.884236
#
# Coordination Sequence:
#
# PCOD8149032 Si02
#       5
#     8   8   8   8   4
#     4  11  24  44  72 106 147 201 254 318 377 465
#     4  11  22  44  74 114 153 195 249 323 380 452
#     4  10  23  46  70 101 149 197 249 314 393 455
#     4  10  23  43  73 103 148 198 251 319 380 460
#     4  12  24  42  70 112 142 194 264 312 378 454
#
# _framework density 29.656364
#
# number of rings (size 3 to 8) (size 9 to 14) (size 15 to 20)
#    0.000    1.333    2.222    2.667    0.000    1.778 
#    0.000    2.222    0.000    0.000    0.000    0.000 
#    0.000    0.000    0.000    0.000    0.000    0.000 
#
# Total GULP energy -223105.138486 kJ/mol
# GULP energy per Si atom -12394.729916 kJ/mol
# Density = 2.958886 g / cm^3
# Si number density = 29.656364 Si / 1000 Ang^3
#
#
#
# Elastic Constant Matrix: (Units=GPa)
#
#
# Indices 1 2 3 4 5 6 
#
# 1 250.6235 113.1919 47.1841 0.0000 47.4053 0.0000
# 2 113.1919 181.7527 44.1831 0.0000 10.7755 0.0000
# 3 47.1841 44.1831 62.1850 0.0000 17.9007 0.0000
# 4 0.0000 0.0000 0.0000 29.7819 0.0000 -9.0659
# 5 47.4053 10.7755 17.9007 0.0000 64.8350 0.0000
# 6 0.0000 0.0000 0.0000 -9.0659 0.0000 79.8051
#
#
#
# Elastic Compliance Matrix: (Units=1/GPa)
#
#
# Indices 1 2 3 4 5 6 
#
# 1 0.006568 -0.003530 -0.001371 0.000000 -0.003837 0.000000
# 2 -0.003530 0.008550 -0.004053 0.000000 0.002279 0.000000
# 3 -0.001371 -0.004053 0.021204 0.000000 -0.004178 0.000000
# 4 0.000000 0.000000 0.000000 0.034780 0.000000 0.003951
# 5 -0.003837 0.002279 -0.004178 0.000000 0.019004 0.000000
# 6 0.000000 0.000000 0.000000 0.003951 0.000000 0.012979
#
#
# Mechanical properties :
#
#
# Convention : Reuss Voigt Hill
#
# Bulk Modulus (GPa) = 54.30428 100.40882 77.35655
# Shear Modulus (GPa) = 39.32924 54.21788 46.77356
#
# Velocity S-wave (km/s) = 3.64561 4.28039 3.97569
# Velocity P-wave (km/s) = 6.00596 7.63937 6.87137
#
# Compressibility (1/GPa) = 0.01841476
#
# Stress axis : x y z
#
# Youngs Moduli (GPa) = 152.24951 116.95473 47.16128
#
# Poissons Ratio (x) = 0.41281 0.06467
# Poissons Ratio (y) = 0.53739 0.19114
# Poissons Ratio (z) = 0.20877 0.47400
#
# Static dielectric constant tensor:
#      x y z
#    x 6.130930 0.000000 0.111450 
#    y 0.000000 5.794640 0.000000 
#    z 0.111450 0.000000 3.882880 
# 
# 
# High freq. dielectric constant tensor:
#      x y z
#    x 2.249920 0.000000 0.002220 
#    y 0.000000 2.214910 0.000000 
#    z 0.002220 0.000000 2.208630 
# 
# From -- ./inp_files/102426.got.cif
#   From: 2010.06.25/outbox.cif.g09.slc.cpg/sg15_52_cif.got.tgz:102426.got - 2010.06.28 07:06:18.
