data_PCOD8149847
_publ_section_title
;
Structure prediction by ZEFSAII (Michael W. Deem and Ramdas Pophale) SiO2 
 PCOD8149847
Probable space group: C 2/C
;
_chemical_formula_sum "Si O2"
_cell_formula_units_Z 52
_cell_length_a 8.420656
_cell_length_b 17.543374
_cell_length_c 23.326628
_cell_angle_alpha 90.000000
_cell_angle_beta 47.812587
_cell_angle_gamma 90.000000
_cell_volume 2553.296037
_symmetry_space_group_name_H-M "C 2/C"
_symmetry_group_IT_number 15
_symmetry_cell_setting 'monoclinic'
loop_
_space_group_symop_operation_xyz
x,y,z
-x,y,1/2-z
-x,-y,-z
x,-y,1/2+z
1/2+x,1/2+y,z
1/2-x,1/2+y,1/2-z
1/2-x,1/2-y,-z
1/2+x,1/2-y,1/2+z
loop_
_atom_site_type_symbol
_atom_site_label
_atom_site_fract_x
_atom_site_fract_y
_atom_site_fract_z
Si Si1 0.032014 0.905231 0.642580
Si Si2 0.906472 0.618094 0.619506
Si Si3 0.998209 0.413432 0.975529
Si Si4 0.877986 0.073674 0.510424
Si Si5 0.283462 0.321321 0.533906
Si Si6 0.500000 0.482609 0.250000
Si Si7 0.738564 0.223300 0.173633
O O1 0.272853 0.884169 0.604823
O O2 0.075783 0.932367 0.567921
O O3 0.940167 0.968604 0.708137
O O4 0.857086 0.838545 0.684580
O O5 0.916784 0.636046 0.549017
O O6 0.707600 0.566686 0.685579
O O7 0.880353 0.701819 0.651794
O O8 0.124749 0.575437 0.586196
O O9 0.839806 0.396239 0.961075
O O10 0.000000 0.500000 0.000000
O O11 0.971020 0.150287 0.518179
O O12 0.000000 0.000000 0.500000
O O13 0.250000 0.250000 0.500000
O O14 0.206236 0.301035 0.615879
O O15 0.500000 0.240202 0.250000
#
# Coordination Sequence:
#
# PCOD8149847 Si02
#       7
#     8   8   8   8   8   4   8
#     4  10  25  39  67  93 129 170 218 268 326 390
#     4  11  23  42  68  93 131 174 219 271 330 392
#     4  11  21  40  69  96 123 168 231 267 311 387
#     4  10  24  42  66  96 130 167 221 277 323 378
#     4  11  23  39  68  94 125 169 221 266 318 391
#     4  12  24  42  70  96 128 180 222 260 340 404
#     4  11  25  43  61  98 141 170 213 277 345 387
#
# _framework density 20.365834
#
# number of rings (size 3 to 8) (size 9 to 14) (size 15 to 20)
#    0.000    1.231    3.846    1.846    4.308    3.077 
#    0.000    0.000    0.000    0.000    0.000    0.000 
#    0.000    0.000    0.000    0.000    0.000    0.000 
#
# Total GULP energy -322102.332518 kJ/mol
# GULP energy per Si atom -12388.551251 kJ/mol
# Density = 2.031948 g / cm^3
# Si number density = 20.365834 Si / 1000 Ang^3
#
#
#
# Elastic Constant Matrix: (Units=GPa)
#
#
# Indices 1 2 3 4 5 6 
#
# 1 110.1872 48.1783 36.7250 0.0027 -14.1118 0.0009
# 2 48.1783 112.2688 38.4533 0.0015 -6.8344 0.0010
# 3 36.7250 38.4533 96.9213 0.0022 -24.9400 0.0016
# 4 0.0027 0.0015 0.0022 22.1025 -0.0036 -11.4096
# 5 -14.1118 -6.8344 -24.9400 -0.0036 29.1620 -0.0005
# 6 0.0009 0.0010 0.0016 -11.4096 -0.0005 40.8340
#
#
#
# Elastic Compliance Matrix: (Units=1/GPa)
#
#
# Indices 1 2 3 4 5 6 
#
# 1 0.012022 -0.004260 -0.002083 -0.000001 0.003037 0.000000
# 2 -0.004260 0.011862 -0.003727 0.000000 -0.002469 0.000000
# 3 -0.002083 -0.003727 0.015516 0.000001 0.011388 0.000000
# 4 -0.000001 0.000000 0.000001 0.052870 0.000007 0.014773
# 5 0.003037 -0.002469 0.011388 0.000007 0.044922 0.000002
# 6 0.000000 0.000000 0.000000 0.014773 0.000002 0.028617
#
#
# Mechanical properties :
#
#
# Convention : Reuss Voigt Hill
#
# Bulk Modulus (GPa) = 51.92711 62.89892 57.41301
# Shear Modulus (GPa) = 25.99167 31.48773 28.73970
#
# Velocity S-wave (km/s) = 3.57632 3.93632 3.76063
# Velocity P-wave (km/s) = 6.52733 7.18408 6.86357
#
# Compressibility (1/GPa) = 0.01925776
#
# Stress axis : x y z
#
# Youngs Moduli (GPa) = 83.18327 84.30443 64.44855
#
# Poissons Ratio (x) = 0.35917 0.13427
# Poissons Ratio (y) = 0.35440 0.24021
# Poissons Ratio (z) = 0.17330 0.31422
#
# Static dielectric constant tensor:
#      x y z
#    x 2.906950 0.000740 0.145800 
#    y 0.000740 3.280040 -0.000040 
#    z 0.145800 -0.000040 3.771710 
# 
# 
# High freq. dielectric constant tensor:
#      x y z
#    x 1.803450 0.000000 -0.009150 
#    y 0.000000 1.803100 0.000000 
#    z -0.009150 0.000000 1.791840 
# 
# From -- ./inp_files/289520.got.cif
#   From: 2010.06.25/outbox.cif.g09.slc.cpg/sg15_145_cif.got.tgz:289520.got - 2010.06.28 07:06:18.
