data_PCOD8149612
_publ_section_title
;
Structure prediction by ZEFSAII (Michael W. Deem and Ramdas Pophale) SiO2 
 PCOD8149612
Probable space group: C 2/C
;
_chemical_formula_sum "Si O2"
_cell_formula_units_Z 56
_cell_length_a 16.544491
_cell_length_b 22.077814
_cell_length_c 14.020919
_cell_angle_alpha 90.000000
_cell_angle_beta 147.654558
_cell_angle_gamma 90.000000
_cell_volume 2740.047322
_symmetry_space_group_name_H-M "C 2/C"
_symmetry_group_IT_number 15
_symmetry_cell_setting 'monoclinic'
loop_
_space_group_symop_operation_xyz
x,y,z
-x,y,1/2-z
-x,-y,-z
x,-y,1/2+z
1/2+x,1/2+y,z
1/2-x,1/2+y,1/2-z
1/2-x,1/2-y,-z
1/2+x,1/2-y,1/2+z
loop_
_atom_site_type_symbol
_atom_site_label
_atom_site_fract_x
_atom_site_fract_y
_atom_site_fract_z
Si Si1 0.329339 0.433351 0.368794
Si Si2 0.176251 0.048674 0.262763
Si Si3 0.296268 0.333147 0.180099
Si Si4 0.664839 0.110930 0.374672
Si Si5 0.288511 0.165853 0.282617
Si Si6 0.959444 0.748417 0.009160
Si Si7 0.668587 0.028109 0.887718
O O1 0.280168 0.490689 0.256499
O O2 0.500873 0.436867 0.575274
O O3 0.305252 0.372969 0.284616
O O4 0.220485 0.429689 0.352030
O O5 0.281042 0.105129 0.336606
O O6 0.213001 0.035301 0.408672
O O7 0.144780 0.293569 0.029494
O O8 0.439142 0.288737 0.318427
O O9 0.290982 0.374742 0.080878
O O10 0.500000 0.126644 0.250000
O O11 0.704201 0.150661 0.322371
O O12 0.674993 0.040691 0.356920
O O13 0.141344 0.207084 0.156888
O O14 0.436377 0.205968 0.455361
O O15 0.500000 0.046961 0.750000
#
# Coordination Sequence:
#
# PCOD8149612 Si02
#       7
#     8   8   8   8   8   8   8
#     4  11  23  42  66  94 126 166 206 262 321 372
#     4  11  23  42  66  94 126 166 206 262 321 372
#     4  11  22  41  62  92 127 170 210 260 307 377
#     4  11  22  37  60  96 134 168 207 255 311 385
#     4  11  22  41  62  92 127 170 210 260 307 377
#     4  10  24  39  62  89 126 172 218 251 304 373
#     4  11  25  39  64 100 130 164 205 259 325 376
#
# _framework density 20.437602999999999
#
# number of rings (size 3 to 8) (size 9 to 14) (size 15 to 20)
#    0.000    1.143    5.714    0.429    2.000    4.571 
#    2.571    0.000    0.000    5.143    0.000    0.000 
#    0.000    0.000    0.000    0.000    0.000    0.000 
#
# Total GULP energy -347254.916057 kJ/mol
# GULP energy per Si atom -12401.961288 kJ/mol
# Density = 2.039109 g / cm^3
# Si number density = 20.437603 Si / 1000 Ang^3
#
#
#
# Elastic Constant Matrix: (Units=GPa)
#
#
# Indices 1 2 3 4 5 6 
#
# 1 95.9257 40.5421 38.0593 0.0000 -3.3598 0.0000
# 2 40.5421 92.0406 37.5215 0.0000 3.8357 0.0000
# 3 38.0593 37.5215 86.9978 0.0000 1.6494 0.0000
# 4 0.0000 0.0000 0.0000 22.8277 0.0000 2.9325
# 5 -3.3598 3.8357 1.6494 0.0000 31.0737 0.0000
# 6 0.0000 0.0000 0.0000 2.9325 0.0000 22.1559
#
#
#
# Elastic Compliance Matrix: (Units=1/GPa)
#
#
# Indices 1 2 3 4 5 6 
#
# 1 0.014131 -0.004590 -0.004246 0.000000 0.002320 0.000000
# 2 -0.004590 0.014728 -0.004305 0.000000 -0.002086 0.000000
# 3 -0.004246 -0.004305 0.015223 0.000000 -0.000736 0.000000
# 4 0.000000 0.000000 0.000000 0.044564 0.000000 -0.005898
# 5 0.002320 -0.002086 -0.000736 0.000000 0.032729 0.000000
# 6 0.000000 0.000000 0.000000 -0.005898 0.000000 0.045915
#
#
# Mechanical properties :
#
#
# Convention : Reuss Voigt Hill
#
# Bulk Modulus (GPa) = 56.17970 56.35666 56.26818
# Shear Modulus (GPa) = 25.06204 25.80086 25.43145
#
# Velocity S-wave (km/s) = 3.50561 3.55691 3.53136
# Velocity P-wave (km/s) = 6.62826 6.67111 6.64972
#
# Compressibility (1/GPa) = 0.01780002
#
# Stress axis : x y z
#
# Youngs Moduli (GPa) = 70.76858 67.89640 65.69158
#
# Poissons Ratio (x) = 0.31164 0.27894
# Poissons Ratio (y) = 0.32482 0.28278
# Poissons Ratio (z) = 0.30049 0.29227
#
# Static dielectric constant tensor:
#      x y z
#    x 3.471750 0.000000 0.225550 
#    y 0.000000 3.853720 0.000000 
#    z 0.225550 0.000000 3.729450 
# 
# 
# High freq. dielectric constant tensor:
#      x y z
#    x 1.775840 0.000000 0.020090 
#    y 0.000000 1.809580 0.000000 
#    z 0.020090 0.000000 1.800420 
# 
# From -- ./inp_files/42513.got.cif
#   From: 2010.06.25/outbox.cif.g09.slc.cpg/sg15_22_cif.got.tgz:42513.got - 2010.06.28 07:06:18.
