data_PCOD8149909
_publ_section_title
;
Structure prediction by ZEFSAII (Michael W. Deem and Ramdas Pophale) SiO2 
 PCOD8149909
Probable space group: C 2/C
;
_chemical_formula_sum "Si O2"
_cell_formula_units_Z 36
_cell_length_a 11.865615
_cell_length_b 15.936934
_cell_length_c 13.669780
_cell_angle_alpha 90.000000
_cell_angle_beta 40.583038
_cell_angle_gamma 90.000000
_cell_volume 1681.654759
_symmetry_space_group_name_H-M "C 2/C"
_symmetry_group_IT_number 15
_symmetry_cell_setting 'monoclinic'
loop_
_space_group_symop_operation_xyz
x,y,z
-x,y,1/2-z
-x,-y,-z
x,-y,1/2+z
1/2+x,1/2+y,z
1/2-x,1/2+y,1/2-z
1/2-x,1/2-y,-z
1/2+x,1/2-y,1/2+z
loop_
_atom_site_type_symbol
_atom_site_label
_atom_site_fract_x
_atom_site_fract_y
_atom_site_fract_z
Si Si1 0.000000 0.518389 0.250000
Si Si2 0.217285 0.696776 0.813246
Si Si3 0.934487 0.213242 0.394974
Si Si4 0.504921 0.179856 0.137876
Si Si5 0.152800 0.933388 0.410546
O O1 0.003014 0.578616 0.344731
O O2 0.176801 0.465106 0.142432
O O3 0.337446 0.775649 0.701131
O O4 0.297049 0.606441 0.728631
O O5 0.047432 0.708513 0.859399
O O6 0.171697 0.698335 0.959574
O O7 0.750000 0.250000 0.500000
O O8 0.938739 0.139494 0.469574
O O9 0.000000 0.175756 0.250000
O O10 0.500000 0.222014 0.250000
O O11 0.000000 0.000000 0.500000
#
# Coordination Sequence:
#
# PCOD8149909 Si02
#       5
#     4   8   8   8   8
#     4  10  26  44  62 104 146 166 226 288 348 390
#     4  12  22  43  72  99 132 182 237 277 330 421
#     4  12  23  42  70  98 133 181 230 277 335 414
#     4  10  24  42  70  95 137 179 232 276 339 405
#     4  12  26  42  70 105 140 174 229 287 351 397
#
# _framework density 21.407485999999999
#
# number of rings (size 3 to 8) (size 9 to 14) (size 15 to 20)
#    0.667    0.000    4.444    3.333    0.000    2.667 
#    0.000    0.000    0.000    0.000    0.000    0.000 
#    0.000    0.000    0.000    0.000    0.000    0.000 
#
# Total GULP energy -223005.637077 kJ/mol
# GULP energy per Si atom -12389.202060 kJ/mol
# Density = 2.135876 g / cm^3
# Si number density = 21.407486 Si / 1000 Ang^3
#
#
#
# Elastic Constant Matrix: (Units=GPa)
#
#
# Indices 1 2 3 4 5 6 
#
# 1 85.4928 39.9306 52.0335 -0.0012 -11.1947 0.0009
# 2 39.9306 102.9888 59.7878 -0.0012 -3.8293 0.0014
# 3 52.0335 59.7878 166.1850 -0.0041 13.0815 0.0046
# 4 -0.0012 -0.0012 -0.0041 43.4602 0.0021 -2.7342
# 5 -11.1947 -3.8293 13.0815 0.0021 46.7602 -0.0022
# 6 0.0009 0.0014 0.0046 -2.7342 -0.0022 44.9574
#
#
#
# Elastic Compliance Matrix: (Units=1/GPa)
#
#
# Indices 1 2 3 4 5 6 
#
# 1 0.016703 -0.003838 -0.004232 0.000000 0.004868 0.000000
# 2 -0.003838 0.013400 -0.003715 0.000000 0.001218 0.000000
# 3 -0.004232 -0.003715 0.008980 0.000001 -0.003830 -0.000001
# 4 0.000000 0.000000 0.000001 0.023098 -0.000001 0.001405
# 5 0.004868 0.001218 -0.003830 -0.000001 0.023722 0.000001
# 6 0.000000 0.000000 -0.000001 0.001405 0.000001 0.022329
#
#
# Mechanical properties :
#
#
# Convention : Reuss Voigt Hill
#
# Bulk Modulus (GPa) = 64.46311 73.13004 68.79657
# Shear Modulus (GPa) = 36.50344 40.56321 38.53333
#
# Velocity S-wave (km/s) = 4.13385 4.35767 4.24724
# Velocity P-wave (km/s) = 7.27755 7.71713 7.50056
#
# Compressibility (1/GPa) = 0.01551275
#
# Stress axis : x y z
#
# Youngs Moduli (GPa) = 59.87003 74.62810 111.35261
#
# Poissons Ratio (x) = 0.28643 0.47126
# Poissons Ratio (y) = 0.22979 0.41367
# Poissons Ratio (z) = 0.25338 0.27724
#
# Static dielectric constant tensor:
#      x y z
#    x 3.718750 0.000000 0.006240 
#    y 0.000000 3.300170 0.000010 
#    z 0.006240 0.000010 4.071330 
# 
# 
# High freq. dielectric constant tensor:
#      x y z
#    x 1.834620 0.000000 -0.004510 
#    y 0.000000 1.829370 0.000000 
#    z -0.004510 0.000000 1.857990 
# 
# From -- ./inp_files/144024.got.cif
#   From: 2010.06.25/outbox.cif.g09.slc.cpg/sg15_73_cif.got.tgz:144024.got - 2010.06.28 07:06:18.
