data_PCOD8149459
_publ_section_title
;
Structure prediction by ZEFSAII (Michael W. Deem and Ramdas Pophale) SiO2 
 PCOD8149459
Probable space group: C 2/C
;
_chemical_formula_sum "Si O2"
_cell_formula_units_Z 56
_cell_length_a 5.324496
_cell_length_b 31.128216
_cell_length_c 15.693117
_cell_angle_alpha 90.000000
_cell_angle_beta 63.419980
_cell_angle_gamma 90.000000
_cell_volume 2326.109705
_symmetry_space_group_name_H-M "C 2/C"
_symmetry_group_IT_number 15
_symmetry_cell_setting 'monoclinic'
loop_
_space_group_symop_operation_xyz
x,y,z
-x,y,1/2-z
-x,-y,-z
x,-y,1/2+z
1/2+x,1/2+y,z
1/2-x,1/2+y,1/2-z
1/2-x,1/2-y,-z
1/2+x,1/2-y,1/2+z
loop_
_atom_site_type_symbol
_atom_site_label
_atom_site_fract_x
_atom_site_fract_y
_atom_site_fract_z
Si Si1 0.220974 0.134212 0.836234
Si Si2 0.350399 0.273477 0.109459
Si Si3 0.348577 0.721891 0.112826
Si Si4 0.000000 0.349718 0.750000
Si Si5 0.998514 0.512032 0.900238
Si Si6 0.969560 0.417895 0.884774
Si Si7 0.500000 0.431981 0.250000
Si Si8 0.177279 0.913210 0.499847
O O1 0.500000 0.118675 0.750000
O O2 0.163211 0.184385 0.829102
O O3 0.000062 0.100612 0.830901
O O4 0.252308 0.128265 0.932579
O O5 0.550968 0.242303 0.132014
O O6 0.042176 0.251877 0.144330
O O7 0.476850 0.287382 0.999092
O O8 0.262913 0.678512 0.175622
O O9 0.876929 0.382346 0.696963
O O10 0.248210 0.537162 0.815760
O O11 0.991842 0.467245 0.849326
O O12 0.724610 0.543153 0.935286
O O13 0.000000 0.500000 0.000000
O O14 0.641888 0.407841 0.926138
O O15 0.102313 0.412416 0.957126
#
# Coordination Sequence:
#
# PCOD8149459 Si02
#       8
#     8   8   8   4   8   8   4   8
#     4  12  26  41  73 107 143 182 238 305 358 437
#     4  10  25  47  72 102 143 193 233 297 378 442
#     4  10  25  47  72 103 143 189 242 298 367 441
#     4  12  28  47  76 114 148 192 256 313 358 436
#     4  10  23  46  72 100 147 198 243 304 368 434
#     4  11  27  45  74 102 144 198 243 297 363 437
#     4  12  26  47  68 118 148 192 254 311 364 440
#     4  11  24  48  70 104 146 190 240 299 372 427
#
# _framework density 24.074531
#
# number of rings (size 3 to 8) (size 9 to 14) (size 15 to 20)
#    0.000    1.143    1.429    3.000    4.000   10.857 
#    0.000    0.000    0.000    0.000    0.000    0.000 
#    0.000    0.000    0.000    0.000    0.000    0.000 
#
# Total GULP energy -346876.663458 kJ/mol
# GULP energy per Si atom -12388.452266 kJ/mol
# Density = 2.401974 g / cm^3
# Si number density = 24.074531 Si / 1000 Ang^3
#
#
#
# Elastic Constant Matrix: (Units=GPa)
#
#
# Indices 1 2 3 4 5 6 
#
# 1 95.8626 39.7086 33.1762 0.0000 -9.4063 0.0000
# 2 39.7086 172.2847 68.4921 0.0000 1.5361 0.0000
# 3 33.1762 68.4921 80.0226 0.0000 -0.1525 0.0000
# 4 0.0000 0.0000 0.0000 54.1246 0.0000 7.2313
# 5 -9.4063 1.5361 -0.1525 0.0000 23.6631 0.0000
# 6 0.0000 0.0000 0.0000 7.2313 0.0000 22.1987
#
#
#
# Elastic Compliance Matrix: (Units=1/GPa)
#
#
# Indices 1 2 3 4 5 6 
#
# 1 0.012961 -0.001366 -0.004194 0.000000 0.005214 0.000000
# 2 -0.001366 0.008951 -0.007097 0.000000 -0.001170 0.000000
# 3 -0.004194 -0.007097 0.020308 0.000000 -0.001075 0.000000
# 4 0.000000 0.000000 0.000000 0.019317 0.000000 -0.006292
# 5 0.005214 -0.001170 -0.001075 0.000000 0.044401 0.000000
# 6 0.000000 0.000000 0.000000 -0.006292 0.000000 0.047097
#
#
# Mechanical properties :
#
#
# Convention : Reuss Voigt Hill
#
# Bulk Modulus (GPa) = 59.15525 70.10262 64.62893
# Shear Modulus (GPa) = 27.17624 33.78350 30.47987
#
# Velocity S-wave (km/s) = 3.36346 3.75011 3.56204
# Velocity P-wave (km/s) = 6.30150 6.92339 6.61975
#
# Compressibility (1/GPa) = 0.01690467
#
# Stress axis : x y z
#
# Youngs Moduli (GPa) = 77.15712 111.71691 49.24258
#
# Poissons Ratio (x) = 0.15265 0.20651
# Poissons Ratio (y) = 0.10543 0.34948
# Poissons Ratio (z) = 0.32358 0.79287
#
# Static dielectric constant tensor:
#      x y z
#    x 4.318350 0.000000 0.347380 
#    y 0.000000 4.725490 0.000000 
#    z 0.347380 0.000000 4.893860 
# 
# 
# High freq. dielectric constant tensor:
#      x y z
#    x 1.934990 0.000000 -0.003930 
#    y 0.000000 1.977420 0.000000 
#    z -0.003930 0.000000 1.966660 
# 
# From -- ./inp_files/186685.got.cif
#   From: 2010.06.25/outbox.cif.g09.slc.cpg/sg15_94_cif.got.tgz:186685.got - 2010.06.28 07:06:18.
