data_PCOD8149511
_publ_section_title
;
Structure prediction by ZEFSAII (Michael W. Deem and Ramdas Pophale) SiO2 
 PCOD8149511
Probable space group: C 2/C
;
_chemical_formula_sum "Si O2"
_cell_formula_units_Z 40
_cell_length_a 16.629947
_cell_length_b 21.278839
_cell_length_c 9.666020
_cell_angle_alpha 90.000000
_cell_angle_beta 30.877289
_cell_angle_gamma 90.000000
_cell_volume 1755.391753
_symmetry_space_group_name_H-M "C 2/C"
_symmetry_group_IT_number 15
_symmetry_cell_setting 'monoclinic'
loop_
_space_group_symop_operation_xyz
x,y,z
-x,y,1/2-z
-x,-y,-z
x,-y,1/2+z
1/2+x,1/2+y,z
1/2-x,1/2+y,1/2-z
1/2-x,1/2-y,-z
1/2+x,1/2-y,1/2+z
loop_
_atom_site_type_symbol
_atom_site_label
_atom_site_fract_x
_atom_site_fract_y
_atom_site_fract_z
Si Si1 0.226741 0.928540 0.006172
Si Si2 0.500000 0.328710 0.250000
Si Si3 0.722929 0.244299 0.203765
Si Si4 0.000000 0.033832 0.250000
Si Si5 0.252644 0.383093 0.244055
Si Si6 0.473658 0.125902 0.949309
O O1 0.340916 0.921213 0.705525
O O2 0.322499 0.916471 0.007743
O O3 0.102612 0.871614 0.199157
O O4 0.130784 0.993166 0.138468
O O5 0.386870 0.286485 0.515502
O O6 0.699350 0.310493 0.311035
O O7 0.577896 0.198375 0.453497
O O8 0.750000 0.250000 0.000000
O O9 0.912155 0.078438 0.486833
O O10 0.134263 0.388832 0.291346
O O11 0.500000 0.110034 0.750000
#
# Coordination Sequence:
#
# PCOD8149511 Si02
#       6
#     8   4   8   4   8   8
#     4  10  23  47  74  97 139 194 239 284 350 429
#     4   9  18  36  68 102 130 173 236 274 338 415
#     4  11  21  40  71 107 141 186 228 284 356 438
#     4  11  28  46  70 108 140 183 248 300 346 417
#     4  12  25  44  74 105 142 191 239 285 367 423
#     4  11  26  44  70 112 145 183 237 304 356 416
#
# _framework density 22.786937000000002
#
# number of rings (size 3 to 8) (size 9 to 14) (size 15 to 20)
#    0.000    1.200    4.000    2.400    1.400    8.000 
#    0.000    0.000    0.000    0.000    0.000    0.000 
#    0.000    0.000    0.000    0.000    0.000    0.000 
#
# Total GULP energy -247895.780110 kJ/mol
# GULP energy per Si atom -12394.789005 kJ/mol
# Density = 2.273507 g / cm^3
# Si number density = 22.786937 Si / 1000 Ang^3
#
#
#
# Elastic Constant Matrix: (Units=GPa)
#
#
# Indices 1 2 3 4 5 6 
#
# 1 128.9998 42.7470 65.2944 0.0176 16.4344 -0.0268
# 2 42.7470 143.6392 67.5332 -0.0110 -9.6239 0.0103
# 3 65.2944 67.5332 139.9976 -0.0107 11.5108 0.0041
# 4 0.0176 -0.0110 -0.0107 51.4036 -0.0030 -4.6956
# 5 16.4344 -9.6239 11.5108 -0.0030 35.4666 0.0118
# 6 -0.0268 0.0103 0.0041 -4.6956 0.0118 20.6913
#
#
#
# Elastic Compliance Matrix: (Units=1/GPa)
#
#
# Indices 1 2 3 4 5 6 
#
# 1 0.010809 -0.001669 -0.003891 -0.000004 -0.004199 0.000017
# 2 -0.001669 0.009837 -0.004367 0.000001 0.004860 -0.000009
# 3 -0.003891 -0.004367 0.011315 0.000002 -0.003054 -0.000003
# 4 -0.000004 0.000001 0.000002 0.019866 0.000001 0.004508
# 5 -0.004199 0.004860 -0.003054 0.000001 0.032451 -0.000025
# 6 0.000017 -0.000009 -0.000003 0.004508 -0.000025 0.049353
#
#
# Mechanical properties :
#
#
# Convention : Reuss Voigt Hill
#
# Bulk Modulus (GPa) = 82.58500 84.86510 83.72505
# Shear Modulus (GPa) = 31.74184 37.31643 34.52913
#
# Velocity S-wave (km/s) = 3.73632 4.05115 3.89691
# Velocity P-wave (km/s) = 7.41177 7.69455 7.55449
#
# Compressibility (1/GPa) = 0.01210874
#
# Stress axis : x y z
#
# Youngs Moduli (GPa) = 92.51173 101.65609 88.37519
#
# Poissons Ratio (x) = 0.16963 0.34390
# Poissons Ratio (y) = 0.15437 0.38590
# Poissons Ratio (z) = 0.35999 0.44389
#
# Static dielectric constant tensor:
#      x y z
#    x 4.517350 0.000010 -0.350760 
#    y 0.000010 4.379370 0.000010 
#    z -0.350760 0.000010 4.129410 
# 
# 
# High freq. dielectric constant tensor:
#      x y z
#    x 1.897370 0.000000 -0.011500 
#    y 0.000000 1.909690 0.000000 
#    z -0.011500 0.000000 1.886670 
# 
# From -- ./inp_files/51684.got.cif
#   From: 2010.06.25/outbox.cif.g09.slc.cpg/sg15_26_cif.got.tgz:51684.got - 2010.06.28 07:06:18.
