data_PCOD8149844
_publ_section_title
;
Structure prediction by ZEFSAII (Michael W. Deem and Ramdas Pophale) SiO2 
 PCOD8149844
Probable space group: C 2/C
;
_chemical_formula_sum "Si O2"
_cell_formula_units_Z 52
_cell_length_a 4.991969
_cell_length_b 25.087697
_cell_length_c 18.788335
_cell_angle_alpha 90.000000
_cell_angle_beta 113.737846
_cell_angle_gamma 90.000000
_cell_volume 2153.924143
_symmetry_space_group_name_H-M "C 2/C"
_symmetry_group_IT_number 15
_symmetry_cell_setting 'monoclinic'
loop_
_space_group_symop_operation_xyz
x,y,z
-x,y,1/2-z
-x,-y,-z
x,-y,1/2+z
1/2+x,1/2+y,z
1/2-x,1/2+y,1/2-z
1/2-x,1/2-y,-z
1/2+x,1/2-y,1/2+z
loop_
_atom_site_type_symbol
_atom_site_label
_atom_site_fract_x
_atom_site_fract_y
_atom_site_fract_z
Si Si1 0.731257 0.468362 0.324280
Si Si2 0.749045 0.716398 0.106533
Si Si3 0.274862 0.328757 0.053464
Si Si4 0.767892 0.398183 0.057597
Si Si5 0.000000 0.449743 0.750000
Si Si6 0.681799 0.339717 0.836990
Si Si7 0.541902 0.561042 0.393269
O O1 0.500000 0.434346 0.250000
O O2 0.796329 0.516095 0.278267
O O3 0.606497 0.498657 0.381709
O O4 0.016586 0.434750 0.373055
O O5 0.794982 0.780116 0.111124
O O6 0.474574 0.701706 0.126179
O O7 0.040567 0.689550 0.167265
O O8 0.695720 0.693389 0.022521
O O9 0.545625 0.370452 0.090617
O O10 0.963357 0.356197 0.034546
O O11 0.569799 0.433176 0.981868
O O12 0.223677 0.418746 0.827912
O O13 0.500000 0.357333 0.750000
O O14 0.768192 0.395433 0.884857
#
# Coordination Sequence:
#
# PCOD8149844 Si02
#       7
#     8   8   8   8   4   8   8
#     4  10  25  45  65  98 139 185 225 284 346 407
#     4  11  23  45  66  97 138 177 225 285 350 409
#     4  11  24  44  71  99 132 175 235 289 342 403
#     4  12  25  43  73 104 131 184 234 287 335 416
#     4  10  24  42  66  92 144 184 216 280 346 400
#     4  12  24  39  68  99 141 179 224 280 352 414
#     4  11  24  41  65 104 137 178 229 279 347 411
#
# _framework density 24.141981000000001
#
# number of rings (size 3 to 8) (size 9 to 14) (size 15 to 20)
#    0.000    0.923    3.077    3.231   10.769    3.077 
#    0.000    3.077    1.692    0.000    0.000    0.000 
#    0.000    0.000    0.000    0.000    0.000    0.000 
#
# Total GULP energy -322192.676526 kJ/mol
# GULP energy per Si atom -12392.026020 kJ/mol
# Density = 2.408703 g / cm^3
# Si number density = 24.141981 Si / 1000 Ang^3
#
#
#
# Elastic Constant Matrix: (Units=GPa)
#
#
# Indices 1 2 3 4 5 6 
#
# 1 76.3746 4.5090 4.9781 0.0000 14.3383 0.0000
# 2 4.5090 77.0652 27.7896 0.0000 12.8025 0.0000
# 3 4.9781 27.7896 108.1958 0.0000 28.1012 0.0000
# 4 0.0000 0.0000 0.0000 13.5389 0.0000 7.3298
# 5 14.3383 12.8025 28.1012 0.0000 41.4779 0.0000
# 6 0.0000 0.0000 0.0000 7.3298 0.0000 36.7740
#
#
#
# Elastic Compliance Matrix: (Units=1/GPa)
#
#
# Indices 1 2 3 4 5 6 
#
# 1 0.014055 -0.000224 0.000795 0.000000 -0.005328 0.000000
# 2 -0.000224 0.014493 -0.003119 0.000000 -0.002283 0.000000
# 3 0.000795 -0.003119 0.011927 0.000000 -0.007392 0.000000
# 4 0.000000 0.000000 0.000000 0.082795 0.000000 -0.016503
# 5 -0.005328 -0.002283 -0.007392 0.000000 0.031664 0.000000
# 6 0.000000 0.000000 0.000000 -0.016503 0.000000 0.030482
#
#
# Mechanical properties :
#
#
# Convention : Reuss Voigt Hill
#
# Bulk Modulus (GPa) = 28.26588 37.35434 32.81011
# Shear Modulus (GPa) = 24.71492 33.31542 29.01517
#
# Velocity S-wave (km/s) = 3.20305 3.71884 3.47054
# Velocity P-wave (km/s) = 5.04113 5.82632 5.44789
#
# Compressibility (1/GPa) = 0.03537834
#
# Stress axis : x y z
#
# Youngs Moduli (GPa) = 71.14894 68.99803 83.84234
#
# Poissons Ratio (x) = 0.01544 -0.06662
# Poissons Ratio (y) = 0.01592 0.26153
# Poissons Ratio (z) = -0.05653 0.21523
#
# Static dielectric constant tensor:
#      x y z
#    x 4.520910 0.000000 0.148500 
#    y 0.000000 4.336560 0.000000 
#    z 0.148500 0.000000 4.632900 
# 
# 
# High freq. dielectric constant tensor:
#      x y z
#    x 1.967080 0.000000 0.007600 
#    y 0.000000 1.945570 0.000000 
#    z 0.007600 0.000000 1.952680 
# 
# From -- ./inp_files/228208.got.cif
#   From: 2010.06.25/outbox.cif.g09.slc.cpg/sg15_115_cif.got.tgz:228208.got - 2010.06.28 07:06:18.
