data_PCOD8149376
_publ_section_title
;
Structure prediction by ZEFSAII (Michael W. Deem and Ramdas Pophale) SiO2 
 PCOD8149376
Probable space group: C 2/C
;
_chemical_formula_sum "Si O2"
_cell_formula_units_Z 44
_cell_length_a 11.461553
_cell_length_b 21.893492
_cell_length_c 9.332747
_cell_angle_alpha 90.000000
_cell_angle_beta 52.283646
_cell_angle_gamma 90.000000
_cell_volume 1852.556047
_symmetry_space_group_name_H-M "C 2/C"
_symmetry_group_IT_number 15
_symmetry_cell_setting 'monoclinic'
loop_
_space_group_symop_operation_xyz
x,y,z
-x,y,1/2-z
-x,-y,-z
x,-y,1/2+z
1/2+x,1/2+y,z
1/2-x,1/2+y,1/2-z
1/2-x,1/2-y,-z
1/2+x,1/2-y,1/2+z
loop_
_atom_site_type_symbol
_atom_site_label
_atom_site_fract_x
_atom_site_fract_y
_atom_site_fract_z
Si Si1 0.171512 0.109987 0.134001
Si Si2 0.687817 0.126542 0.982850
Si Si3 0.500000 0.334727 0.250000
Si Si4 0.197803 0.800807 0.866831
Si Si5 0.644943 0.817715 0.233264
Si Si6 0.602561 0.006193 0.556225
O O1 0.195862 0.141007 0.267165
O O2 0.000000 0.096781 0.250000
O O3 0.231796 0.152382 0.960050
O O4 0.251386 0.044882 0.078817
O O5 0.671492 0.181577 0.114958
O O6 0.644104 0.061517 0.081272
O O7 0.861261 0.123219 0.808382
O O8 0.596895 0.139254 0.903477
O O9 0.452895 0.294495 0.425579
O O10 0.222017 0.740886 0.752245
O O11 0.500000 0.799701 0.250000
O O12 0.500000 0.040181 0.750000
O O13 0.500000 0.000000 0.500000
#
# Coordination Sequence:
#
# PCOD8149376 Si02
#       6
#     8   8   4   8   8   8
#     4  12  26  44  74 108 145 193 243 305 370 431
#     4  10  23  46  72 102 146 190 247 293 352 436
#     4   8  22  42  72 102 138 180 260 284 352 426
#     4  10  23  45  72 105 146 193 242 297 360 437
#     4  12  25  46  73 110 151 187 238 308 372 433
#     4  12  26  48  72 106 149 191 242 303 371 442
#
# _framework density 23.750968
#
# number of rings (size 3 to 8) (size 9 to 14) (size 15 to 20)
#    1.091    0.000    0.000    6.545    1.273    1.455 
#    1.636    4.545    0.000    0.000    0.000    0.000 
#    0.000    0.000    0.000    0.000    0.000    0.000 
#
# Total GULP energy -272549.335662 kJ/mol
# GULP energy per Si atom -12388.606166 kJ/mol
# Density = 2.369691 g / cm^3
# Si number density = 23.750968 Si / 1000 Ang^3
#
#
#
# Elastic Constant Matrix: (Units=GPa)
#
#
# Indices 1 2 3 4 5 6 
#
# 1 125.2581 49.2555 70.4989 0.0000 12.2406 0.0000
# 2 49.2555 127.2424 59.8873 0.0000 -4.4635 0.0000
# 3 70.4989 59.8873 135.0706 0.0000 17.1574 0.0000
# 4 0.0000 0.0000 0.0000 31.9051 0.0000 4.7782
# 5 12.2406 -4.4635 17.1574 0.0000 41.1816 0.0000
# 6 0.0000 0.0000 0.0000 4.7782 0.0000 37.4131
#
#
#
# Elastic Compliance Matrix: (Units=1/GPa)
#
#
# Indices 1 2 3 4 5 6 
#
# 1 0.011840 -0.002322 -0.004932 0.000000 -0.001716 0.000000
# 2 -0.002322 0.010770 -0.004011 0.000000 0.003529 0.000000
# 3 -0.004932 -0.004011 0.012275 0.000000 -0.004083 0.000000
# 4 0.000000 0.000000 0.000000 0.031954 0.000000 -0.004081
# 5 -0.001716 0.003529 -0.004083 0.000000 0.026876 0.000000
# 6 0.000000 0.000000 0.000000 -0.004081 0.000000 0.027250
#
#
# Mechanical properties :
#
#
# Convention : Reuss Voigt Hill
#
# Bulk Modulus (GPa) = 80.94848 82.98384 81.96616
# Shear Modulus (GPa) = 33.87195 35.96193 34.91694
#
# Velocity S-wave (km/s) = 3.78051 3.89540 3.83838
# Velocity P-wave (km/s) = 7.29469 7.43284 7.36409
#
# Compressibility (1/GPa) = 0.01235354
#
# Stress axis : x y z
#
# Youngs Moduli (GPa) = 84.45592 92.85403 81.46587
#
# Poissons Ratio (x) = 0.21562 0.40183
# Poissons Ratio (y) = 0.19612 0.32678
# Poissons Ratio (z) = 0.41658 0.37246
#
# Static dielectric constant tensor:
#      x y z
#    x 4.218580 0.000000 0.170200 
#    y 0.000000 4.283350 0.000000 
#    z 0.170200 0.000000 4.544550 
# 
# 
# High freq. dielectric constant tensor:
#      x y z
#    x 1.943800 0.000000 0.015510 
#    y 0.000000 1.930290 0.000000 
#    z 0.015510 0.000000 1.955430 
# 
# From -- ./inp_files/32440.got.cif
#   From: 2010.06.25/outbox.cif.g09.slc.cpg/sg15_17_cif.got.tgz:32440.got - 2010.06.28 07:06:18.
