data_PCOD8149134
_publ_section_title
;
Structure prediction by ZEFSAII (Michael W. Deem and Ramdas Pophale) SiO2 
 PCOD8149134
Probable space group: C 2/C
;
_chemical_formula_sum "Si O2"
_cell_formula_units_Z 40
_cell_length_a 12.437753
_cell_length_b 14.566915
_cell_length_c 11.387240
_cell_angle_alpha 90.000000
_cell_angle_beta 47.728589
_cell_angle_gamma 90.000000
_cell_volume 1526.652640
_symmetry_space_group_name_H-M "C 2/C"
_symmetry_group_IT_number 15
_symmetry_cell_setting 'monoclinic'
loop_
_space_group_symop_operation_xyz
x,y,z
-x,y,1/2-z
-x,-y,-z
x,-y,1/2+z
1/2+x,1/2+y,z
1/2-x,1/2+y,1/2-z
1/2-x,1/2-y,-z
1/2+x,1/2-y,1/2+z
loop_
_atom_site_type_symbol
_atom_site_label
_atom_site_fract_x
_atom_site_fract_y
_atom_site_fract_z
Si Si1 0.388650 0.477876 0.934567
Si Si2 0.691098 0.342785 0.092748
Si Si3 0.890647 0.175995 0.603542
Si Si4 0.447346 0.166133 0.654598
Si Si5 0.908924 0.489294 0.928202
O O1 0.500000 0.450937 0.750000
O O2 0.378013 0.590011 0.957204
O O3 0.433671 0.424288 0.019545
O O4 0.225834 0.445767 0.018124
O O5 0.573805 0.324402 0.282700
O O6 0.750000 0.250000 0.000000
O O7 0.831408 0.399586 0.046571
O O8 0.719636 0.193182 0.722679
O O9 0.972433 0.257704 0.481064
O O10 0.500000 0.167975 0.750000
O O11 0.490970 0.062338 0.571056
O O12 0.000000 0.451268 0.750000
#
# Coordination Sequence:
#
# PCOD8149134 Si02
#       5
#     8   8   8   8   8
#     4  10  23  44  67  97 136 172 225 281 326 395
#     4  10  26  46  65 100 135 176 226 279 329 401
#     4  12  25  41  71  99 132 183 216 273 353 384
#     4  11  22  41  68 104 131 168 229 280 328 401
#     4   9  20  44  67  90 130 171 220 278 321 384
#
# _framework density 26.201114
#
# number of rings (size 3 to 8) (size 9 to 14) (size 15 to 20)
#    1.200    0.400    4.000    1.200    2.800    7.200 
#    0.000    0.000    0.000    0.000    0.000    0.000 
#    0.000    0.000    0.000    0.000    0.000    0.000 
#
# Total GULP energy -247783.966332 kJ/mol
# GULP energy per Si atom -12389.198317 kJ/mol
# Density = 2.614148 g / cm^3
# Si number density = 26.201114 Si / 1000 Ang^3
#
#
#
# Elastic Constant Matrix: (Units=GPa)
#
#
# Indices 1 2 3 4 5 6 
#
# 1 57.8700 28.6909 12.3369 0.0000 -7.0032 0.0000
# 2 28.6909 223.0348 98.8923 0.0000 20.5072 0.0000
# 3 12.3369 98.8923 171.5871 0.0000 -7.5036 0.0000
# 4 0.0000 0.0000 0.0000 -305.9158 0.0000 -328.9325
# 5 -7.0032 20.5072 -7.5036 0.0000 40.0930 0.0000
# 6 0.0000 0.0000 0.0000 -328.9325 0.0000 -288.4083
#
#
#
# Elastic Compliance Matrix: (Units=1/GPa)
#
#
# Indices 1 2 3 4 5 6 
#
# 1 0.019390 -0.003300 0.000736 0.000000 0.005212 0.000000
# 2 -0.003300 0.007205 -0.004135 0.000000 -0.005035 0.000000
# 3 0.000736 -0.004135 0.008325 0.000000 0.003802 0.000000
# 4 0.000000 0.000000 0.000000 0.014444 0.000000 -0.016473
# 5 0.005212 -0.005035 0.003802 0.000000 0.029140 0.000000
# 6 0.000000 0.000000 0.000000 -0.016473 0.000000 0.015320
#
#
# Mechanical properties :
#
#
# Convention : Reuss Voigt Hill
#
# Bulk Modulus (GPa) = 46.46737 81.37022 63.91880
# Shear Modulus (GPa) = 43.70824 -90.00809 -23.14992
#
# Velocity S-wave (km/s) = 4.08877 -5.86748 -2.97568
# Velocity P-wave (km/s) = 6.32962 3.84444 3.55559
#
# Compressibility (1/GPa) = 0.02152048
#
# Stress axis : x y z
#
# Youngs Moduli (GPa) = 51.57288 138.80005 120.12574
#
# Poissons Ratio (x) = 0.45800 -0.08836
# Poissons Ratio (y) = 0.17018 0.49675
# Poissons Ratio (z) = -0.03794 0.57397
#
# Static dielectric constant tensor:
#      x y z
#    x 5.352500 0.000000 -0.256030 
#    y 0.000000 4.651820 0.000000 
#    z -0.256030 0.000000 5.028100 
# 
# 
# High freq. dielectric constant tensor:
#      x y z
#    x 2.087190 0.000000 -0.020270 
#    y 0.000000 2.048670 0.000000 
#    z -0.020270 0.000000 2.061080 
# 
# From -- ./inp_files/105134.got.cif
#   From: 2010.06.25/outbox.cif.g09.slc.cpg/sg15_53_cif.got.tgz:105134.got - 2010.06.28 07:06:18.
