data_PCOD8149317
_publ_section_title
;
Structure prediction by ZEFSAII (Michael W. Deem and Ramdas Pophale) SiO2 
 PCOD8149317
Probable space group: C 2/C
;
_chemical_formula_sum "Si O2"
_cell_formula_units_Z 44
_cell_length_a 28.767382
_cell_length_b 5.568977
_cell_length_c 13.704134
_cell_angle_alpha 90.000000
_cell_angle_beta 123.470188
_cell_angle_gamma 90.000000
_cell_volume 1831.400943
_symmetry_space_group_name_H-M "C 2/C"
_symmetry_group_IT_number 15
_symmetry_cell_setting 'monoclinic'
loop_
_space_group_symop_operation_xyz
x,y,z
-x,y,1/2-z
-x,-y,-z
x,-y,1/2+z
1/2+x,1/2+y,z
1/2-x,1/2+y,1/2-z
1/2-x,1/2-y,-z
1/2+x,1/2-y,1/2+z
loop_
_atom_site_type_symbol
_atom_site_label
_atom_site_fract_x
_atom_site_fract_y
_atom_site_fract_z
Si Si1 0.106835 0.760773 0.886602
Si Si2 0.196326 0.404536 0.022882
Si Si3 0.178261 0.929124 0.329892
Si Si4 0.500000 0.940642 0.750000
Si Si5 0.977573 0.252193 0.518835
Si Si6 0.134200 0.073268 0.084272
O O1 0.152564 0.606701 0.997535
O O2 0.053042 0.612116 0.793625
O O3 0.136043 0.878000 0.826571
O O4 0.093670 0.950221 0.956515
O O5 0.180226 0.315782 0.894318
O O6 0.257684 0.519875 0.097942
O O7 0.187796 0.192819 0.092875
O O8 0.157295 0.893711 0.194644
O O9 0.494169 0.762938 0.652075
O O10 0.910532 0.263115 0.424281
O O11 0.000000 0.500000 0.500000
O O12 0.000000 0.000000 0.500000
#
# Coordination Sequence:
#
# PCOD8149317 Si02
#       6
#     8   8   8   4   8   8
#     4  11  24  46  71 103 144 196 242 310 383 451
#     4  10  23  45  67 106 136 190 248 296 391 441
#     4  10  24  43  72 101 144 187 243 316 371 458
#     4  12  26  50  76 106 158 194 246 322 376 450
#     4  12  28  47  75 112 150 203 258 304 383 455
#     4  11  25  43  70 108 144 186 255 307 376 451
#
# _framework density 24.025324999999999
#
# number of rings (size 3 to 8) (size 9 to 14) (size 15 to 20)
#    0.000    1.091    1.818    2.727    5.091    4.364 
#    0.000    0.000    0.000    0.000    0.000    0.000 
#    0.000    0.000    0.000    0.000    0.000    0.000 
#
# Total GULP energy -272624.574194 kJ/mol
# GULP energy per Si atom -12392.026100 kJ/mol
# Density = 2.397064 g / cm^3
# Si number density = 24.025325 Si / 1000 Ang^3
#
#
#
# Elastic Constant Matrix: (Units=GPa)
#
#
# Indices 1 2 3 4 5 6 
#
# 1 131.1958 33.6951 48.0283 -0.0001 10.1986 -0.0002
# 2 33.6951 82.5646 25.3401 0.0009 -4.4846 0.0004
# 3 48.0283 25.3401 130.8985 0.0000 -15.1864 -0.0001
# 4 -0.0001 0.0009 0.0000 24.2119 0.0000 -1.0257
# 5 10.1986 -4.4846 -15.1864 0.0000 43.6328 0.0000
# 6 -0.0002 0.0004 -0.0001 -1.0257 0.0000 24.9373
#
#
#
# Elastic Compliance Matrix: (Units=1/GPa)
#
#
# Indices 1 2 3 4 5 6 
#
# 1 0.010041 -0.003232 -0.003511 0.000000 -0.003901 0.000000
# 2 -0.003232 0.013927 -0.001309 -0.000001 0.001731 0.000000
# 3 -0.003511 -0.001309 0.009650 0.000000 0.004045 0.000000
# 4 0.000000 -0.000001 0.000000 0.041374 0.000000 0.001702
# 5 -0.003901 0.001731 0.004045 0.000000 0.025416 0.000000
# 6 0.000000 0.000000 0.000000 0.001702 0.000000 0.040171
#
#
# Mechanical properties :
#
#
# Convention : Reuss Voigt Hill
#
# Bulk Modulus (GPa) = 57.09965 62.08732 59.59348
# Shear Modulus (GPa) = 30.76519 34.39608 32.58064
#
# Velocity S-wave (km/s) = 3.58233 3.78783 3.68652
# Velocity P-wave (km/s) = 6.39757 6.71035 6.55582
#
# Compressibility (1/GPa) = 0.01751324
#
# Stress axis : x y z
#
# Youngs Moduli (GPa) = 99.59300 71.80498 103.62168
#
# Poissons Ratio (x) = 0.23208 0.36382
# Poissons Ratio (y) = 0.32189 0.13567
# Poissons Ratio (z) = 0.34967 0.09401
#
# Static dielectric constant tensor:
#      x y z
#    x 4.710020 0.000000 0.001520 
#    y 0.000000 4.130200 0.000000 
#    z 0.001520 0.000000 4.257290 
# 
# 
# High freq. dielectric constant tensor:
#      x y z
#    x 1.977300 0.000000 -0.003760 
#    y 0.000000 1.939530 0.000000 
#    z -0.003760 0.000000 1.952040 
# 
# From -- ./inp_files/175777.got.cif
#   From: 2010.06.25/outbox.cif.g09.slc.cpg/sg15_88_cif.got.tgz:175777.got - 2010.06.28 07:06:18.
