data_PCOD8149815
_publ_section_title
;
Structure prediction by ZEFSAII (Michael W. Deem and Ramdas Pophale) SiO2 
 PCOD8149815
Probable space group: C 2/C
;
_chemical_formula_sum "Si O2"
_cell_formula_units_Z 56
_cell_length_a 23.122074
_cell_length_b 9.723575
_cell_length_c 12.415004
_cell_angle_alpha 90.000000
_cell_angle_beta 105.818201
_cell_angle_gamma 90.000000
_cell_volume 2685.554870
_symmetry_space_group_name_H-M "C 2/C"
_symmetry_group_IT_number 15
_symmetry_cell_setting 'monoclinic'
loop_
_space_group_symop_operation_xyz
x,y,z
-x,y,1/2-z
-x,-y,-z
x,-y,1/2+z
1/2+x,1/2+y,z
1/2-x,1/2+y,1/2-z
1/2-x,1/2-y,-z
1/2+x,1/2-y,1/2+z
loop_
_atom_site_type_symbol
_atom_site_label
_atom_site_fract_x
_atom_site_fract_y
_atom_site_fract_z
Si Si1 0.133580 0.651335 0.315881
Si Si2 0.913403 0.264288 0.489100
Si Si3 0.031829 0.807353 0.156626
Si Si4 0.870737 0.029983 0.914187
Si Si5 0.305916 0.661415 0.067902
Si Si6 0.158439 0.637972 0.733629
Si Si7 0.282209 0.404209 0.189137
O O1 0.114832 0.644421 0.430495
O O2 0.076329 0.684153 0.211653
O O3 0.158554 0.503886 0.297318
O O4 0.184382 0.765060 0.325805
O O5 0.901169 0.340383 0.369537
O O6 0.984532 0.248999 0.545324
O O7 0.881726 0.115731 0.475370
O O8 0.069221 0.929687 0.120663
O O9 0.000000 0.864500 0.250000
O O10 0.813995 0.021261 0.805957
O O11 0.854640 0.141992 0.997670
O O12 0.339726 0.736862 0.181964
O O13 0.281307 0.511876 0.090466
O O14 0.250000 0.750000 0.000000
O O15 0.215138 0.640547 0.683283
#
# Coordination Sequence:
#
# PCOD8149815 Si02
#       7
#     8   8   8   8   8   8   8
#     4  10  24  42  64  93 130 175 211 271 336 388
#     4  11  23  43  65  94 128 171 224 273 324 393
#     4   9  22  44  69  94 129 174 219 271 329 389
#     4  11  22  42  70  97 130 173 219 272 326 383
#     4  12  25  42  65 102 138 170 219 273 323 395
#     4  12  26  38  65 100 132 173 221 267 330 395
#     4  11  23  42  64  95 135 172 220 263 327 398
#
# _framework density 20.852302000000002
#
# number of rings (size 3 to 8) (size 9 to 14) (size 15 to 20)
#    0.000    1.143    4.286    1.286    4.000    1.143 
#    0.000    3.571    0.000    0.000    0.000    0.000 
#    0.000    0.000    0.000    0.000    0.000    0.000 
#
# Total GULP energy -347320.144877 kJ/mol
# GULP energy per Si atom -12404.290888 kJ/mol
# Density = 2.080484 g / cm^3
# Si number density = 20.852302 Si / 1000 Ang^3
#
#
#
# Elastic Constant Matrix: (Units=GPa)
#
#
# Indices 1 2 3 4 5 6 
#
# 1 88.1349 27.2603 28.1564 0.0000 -7.1591 0.0000
# 2 27.2603 105.8910 27.3206 0.0000 -9.3653 0.0000
# 3 28.1564 27.3206 102.7237 0.0000 6.0104 0.0000
# 4 0.0000 0.0000 0.0000 34.7949 0.0000 -4.3220
# 5 -7.1591 -9.3653 6.0104 0.0000 33.4363 0.0000
# 6 0.0000 0.0000 0.0000 -4.3220 0.0000 17.9265
#
#
#
# Elastic Compliance Matrix: (Units=1/GPa)
#
#
# Indices 1 2 3 4 5 6 
#
# 1 0.013319 -0.002363 -0.003184 0.000000 0.002762 0.000000
# 2 -0.002363 0.010947 -0.002439 0.000000 0.002999 0.000000
# 3 -0.003184 -0.002439 0.011457 0.000000 -0.003424 0.000000
# 4 0.000000 0.000000 0.000000 0.029627 0.000000 0.007143
# 5 0.002762 0.002999 -0.003424 0.000000 0.031954 0.000000
# 6 0.000000 0.000000 0.000000 0.007143 0.000000 0.057505
#
#
# Mechanical properties :
#
#
# Convention : Reuss Voigt Hill
#
# Bulk Modulus (GPa) = 50.63297 51.35825 50.99561
# Shear Modulus (GPa) = 28.19067 31.49902 29.84485
#
# Velocity S-wave (km/s) = 3.68084 3.89083 3.78729
# Velocity P-wave (km/s) = 6.51147 6.69834 6.60556
#
# Compressibility (1/GPa) = 0.01974998
#
# Stress axis : x y z
#
# Youngs Moduli (GPa) = 75.08299 91.35339 87.28605
#
# Poissons Ratio (x) = 0.21587 0.27790
# Poissons Ratio (y) = 0.17742 0.21290
# Poissons Ratio (z) = 0.23905 0.22282
#
# Static dielectric constant tensor:
#      x y z
#    x 3.800400 0.000000 0.030860 
#    y 0.000000 3.624610 0.000000 
#    z 0.030860 0.000000 3.982080 
# 
# 
# High freq. dielectric constant tensor:
#      x y z
#    x 1.812200 0.000000 0.001300 
#    y 0.000000 1.808820 0.000000 
#    z 0.001300 0.000000 1.831520 
# 
# From -- ./inp_files/171990.got.cif
#   From: 2010.06.25/outbox.cif.g09.slc.cpg/sg15_86_cif.got.tgz:171990.got - 2010.06.28 07:06:18.
