data_PCOD8149896
_publ_section_title
;
Structure prediction by ZEFSAII (Michael W. Deem and Ramdas Pophale) SiO2 
 PCOD8149896
Probable space group: C 2/C
;
_chemical_formula_sum "Si O2"
_cell_formula_units_Z 56
_cell_length_a 14.232003
_cell_length_b 11.572214
_cell_length_c 18.067147
_cell_angle_alpha 90.000000
_cell_angle_beta 119.384252
_cell_angle_gamma 90.000000
_cell_volume 2592.770348
_symmetry_space_group_name_H-M "C 2/C"
_symmetry_group_IT_number 15
_symmetry_cell_setting 'monoclinic'
loop_
_space_group_symop_operation_xyz
x,y,z
-x,y,1/2-z
-x,-y,-z
x,-y,1/2+z
1/2+x,1/2+y,z
1/2-x,1/2+y,1/2-z
1/2-x,1/2-y,-z
1/2+x,1/2-y,1/2+z
loop_
_atom_site_type_symbol
_atom_site_label
_atom_site_fract_x
_atom_site_fract_y
_atom_site_fract_z
Si Si1 0.208018 0.944515 0.448648
Si Si2 0.556903 0.279145 0.611941
Si Si3 0.760044 0.929080 0.873218
Si Si4 0.881214 0.631758 0.732813
Si Si5 0.923125 0.734307 0.151841
Si Si6 0.329115 0.693037 0.089993
Si Si7 0.052332 0.385106 0.984158
O O1 0.206962 0.982205 0.534647
O O2 0.108417 0.857951 0.395942
O O3 0.318673 0.885647 0.466794
O O4 0.205027 0.063529 0.401390
O O5 0.634865 0.388526 0.631062
O O6 0.613838 0.177887 0.681737
O O7 0.450855 0.323559 0.610307
O O8 0.518421 0.223627 0.520108
O O9 0.686567 0.818355 0.859466
O O10 0.696113 0.021260 0.798934
O O11 0.827410 0.731206 0.662796
O O12 0.000000 0.595330 0.750000
O O13 0.980752 0.647295 0.113760
O O14 0.000000 0.757557 0.250000
O O15 0.250000 0.750000 0.000000
O O16 0.000000 0.500000 0.000000
#
# Coordination Sequence:
#
# PCOD8149896 Si02
#       7
#     8   8   8   8   8   8   8
#     4  11  22  45  68  92 139 173 215 274 339 396
#     4  11  24  43  64 100 133 166 230 274 323 397
#     4  11  21  45  67  96 131 174 222 280 331 389
#     4  10  24  42  69  94 131 179 223 275 332 398
#     4  11  24  43  67  98 137 179 217 272 345 391
#     4  11  23  44  66  97 132 182 216 268 346 399
#     4  11  23  42  69  98 127 174 229 275 316 397
#
# _framework density 21.598520000000001
#
# number of rings (size 3 to 8) (size 9 to 14) (size 15 to 20)
#    0.000    1.143    4.286    2.143    8.000    3.429 
#    5.143    0.000    0.000    0.000    0.000    0.000 
#    0.000    0.000    0.000    0.000    0.000    0.000 
#
# Total GULP energy -347188.107544 kJ/mol
# GULP energy per Si atom -12399.575269 kJ/mol
# Density = 2.154936 g / cm^3
# Si number density = 21.598520 Si / 1000 Ang^3
#
#
#
# Elastic Constant Matrix: (Units=GPa)
#
#
# Indices 1 2 3 4 5 6 
#
# 1 54.5741 12.6658 19.4471 0.0000 -3.5168 0.0000
# 2 12.6658 99.1745 22.9656 0.0000 11.6977 0.0000
# 3 19.4471 22.9656 104.9266 0.0000 9.4249 0.0000
# 4 0.0000 0.0000 0.0000 36.3236 0.0000 9.0724
# 5 -3.5168 11.6977 9.4249 0.0000 23.4010 0.0000
# 6 0.0000 0.0000 0.0000 9.0724 0.0000 40.3931
#
#
#
# Elastic Compliance Matrix: (Units=1/GPa)
#
#
# Indices 1 2 3 4 5 6 
#
# 1 0.020627 -0.002442 -0.003815 0.000000 0.005857 0.000000
# 2 -0.002442 0.011396 -0.001553 0.000000 -0.005438 0.000000
# 3 -0.003815 -0.001553 0.010956 0.000000 -0.004209 0.000000
# 4 0.000000 0.000000 0.000000 0.029166 0.000000 -0.006551
# 5 0.005857 -0.005438 -0.004209 0.000000 0.048027 0.000000
# 6 0.000000 0.000000 0.000000 -0.006551 0.000000 0.026228
#
#
# Mechanical properties :
#
#
# Convention : Reuss Voigt Hill
#
# Bulk Modulus (GPa) = 36.55056 40.98136 38.76596
# Shear Modulus (GPa) = 29.21585 33.59666 31.40625
#
# Velocity S-wave (km/s) = 3.68187 3.94827 3.81739
# Velocity P-wave (km/s) = 5.91898 6.30876 6.11698
#
# Compressibility (1/GPa) = 0.02735936
#
# Stress axis : x y z
#
# Youngs Moduli (GPa) = 48.47968 87.74840 91.27798
#
# Poissons Ratio (x) = 0.21427 0.34820
# Poissons Ratio (y) = 0.11838 0.14178
# Poissons Ratio (z) = 0.18493 0.13630
#
# Static dielectric constant tensor:
#      x y z
#    x 3.790430 0.000000 -0.004660 
#    y 0.000000 3.852130 0.000000 
#    z -0.004660 0.000000 4.155540 
# 
# 
# High freq. dielectric constant tensor:
#      x y z
#    x 1.837280 0.000000 0.001200 
#    y 0.000000 1.852900 0.000000 
#    z 0.001200 0.000000 1.849130 
# 
# From -- ./inp_files/204366.got.cif
#   From: 2010.06.25/outbox.cif.g09.slc.cpg/sg15_103_cif.got.tgz:204366.got - 2010.06.28 07:06:18.
