data_PCOD8149232
_publ_section_title
;
Structure prediction by ZEFSAII (Michael W. Deem and Ramdas Pophale) SiO2 
 PCOD8149232
Probable space group: C 2/C
;
_chemical_formula_sum "Si O2"
_cell_formula_units_Z 48
_cell_length_a 8.368080
_cell_length_b 28.280266
_cell_length_c 14.910428
_cell_angle_alpha 90.000000
_cell_angle_beta 142.981128
_cell_angle_gamma 90.000000
_cell_volume 2124.477879
_symmetry_space_group_name_H-M "C 2/C"
_symmetry_group_IT_number 15
_symmetry_cell_setting 'monoclinic'
loop_
_space_group_symop_operation_xyz
x,y,z
-x,y,1/2-z
-x,-y,-z
x,-y,1/2+z
1/2+x,1/2+y,z
1/2-x,1/2+y,1/2-z
1/2-x,1/2-y,-z
1/2+x,1/2-y,1/2+z
loop_
_atom_site_type_symbol
_atom_site_label
_atom_site_fract_x
_atom_site_fract_y
_atom_site_fract_z
Si Si1 0.732239 0.121195 0.404771
Si Si2 0.650308 0.525820 0.144857
Si Si3 0.922219 0.470484 0.049030
Si Si4 0.709728 0.114193 0.602542
Si Si5 0.104121 0.795515 0.042722
Si Si6 0.100964 0.710809 0.646982
O O1 0.500000 0.150521 0.250000
O O2 0.758654 0.075689 0.353028
O O3 0.649494 0.108824 0.469636
O O4 0.992987 0.152998 0.517778
O O5 0.910623 0.495866 0.294918
O O6 0.500000 0.500000 0.000000
O O7 0.399050 0.530996 0.098900
O O8 0.010660 0.416185 0.074587
O O9 0.000000 0.500000 0.000000
O O10 0.703978 0.168234 0.631926
O O11 0.000000 0.092904 0.750000
O O12 0.220455 0.776177 0.187798
O O13 0.311494 0.802623 0.054952
O O14 0.894175 0.756680 0.914979
#
# Coordination Sequence:
#
# PCOD8149232 Si02
#       6
#     8   8   8   8   8   8
#     4  12  26  43  65 100 140 178 222 280 337 403
#     4  12  25  44  68  98 133 177 226 278 342 398
#     4  12  25  44  70  97 134 178 228 284 337 403
#     4  12  24  43  67  99 136 178 229 276 338 405
#     4  10  23  45  69  99 134 176 224 275 341 398
#     4  10  23  44  71  99 132 176 226 279 334 407
#
# _framework density 22.593788
#
# number of rings (size 3 to 8) (size 9 to 14) (size 15 to 20)
#    0.000    0.667    1.667    7.000    2.333    1.333 
#    0.000    1.667    0.000    0.000    0.000    0.000 
#    0.000    0.000    0.000    0.000    0.000    0.000 
#
# Total GULP energy -297386.682572 kJ/mol
# GULP energy per Si atom -12391.111774 kJ/mol
# Density = 2.254236 g / cm^3
# Si number density = 22.593788 Si / 1000 Ang^3
#
#
#
# Elastic Constant Matrix: (Units=GPa)
#
#
# Indices 1 2 3 4 5 6 
#
# 1 86.1521 31.4094 17.1356 0.0000 -8.9370 0.0000
# 2 31.4094 107.5349 24.6050 0.0000 -10.7630 0.0000
# 3 17.1356 24.6050 115.9762 0.0000 -14.4092 0.0000
# 4 0.0000 0.0000 0.0000 35.2467 0.0000 -7.1211
# 5 -8.9370 -10.7630 -14.4092 0.0000 41.1882 0.0000
# 6 0.0000 0.0000 0.0000 -7.1211 0.0000 42.7993
#
#
#
# Elastic Compliance Matrix: (Units=1/GPa)
#
#
# Indices 1 2 3 4 5 6 
#
# 1 0.013244 -0.003474 -0.001020 0.000000 0.001609 0.000000
# 2 -0.003474 0.010831 -0.001596 0.000000 0.001518 0.000000
# 3 -0.001020 -0.001596 0.009443 0.000000 0.002665 0.000000
# 4 0.000000 0.000000 0.000000 0.029358 0.000000 0.004885
# 5 0.001609 0.001518 0.002665 0.000000 0.025957 0.000000
# 6 0.000000 0.000000 0.000000 0.004885 0.000000 0.024178
#
#
# Mechanical properties :
#
#
# Convention : Reuss Voigt Hill
#
# Bulk Modulus (GPa) = 46.86430 50.66255 48.76343
# Shear Modulus (GPa) = 37.79212 39.61439 38.70326
#
# Velocity S-wave (km/s) = 4.09428 4.19182 4.14334
# Velocity P-wave (km/s) = 6.56795 6.77498 6.67227
#
# Compressibility (1/GPa) = 0.02133821
#
# Stress axis : x y z
#
# Youngs Moduli (GPa) = 75.50787 92.32661 105.90008
#
# Poissons Ratio (x) = 0.32073 0.10800
# Poissons Ratio (y) = 0.26231 0.16902
# Poissons Ratio (z) = 0.07701 0.14735
#
# Static dielectric constant tensor:
#      x y z
#    x 5.451350 0.000000 0.998730 
#    y 0.000000 4.620490 0.000000 
#    z 0.998730 0.000000 5.150330 
# 
# 
# High freq. dielectric constant tensor:
#      x y z
#    x 1.903030 0.000000 -0.001860 
#    y 0.000000 1.888830 0.000000 
#    z -0.001860 0.000000 1.905860 
# 
# From -- ./inp_files/139053.got.cif
#   From: 2010.06.25/outbox.cif.g09.slc.cpg/sg15_70_cif.got.tgz:139053.got - 2010.06.28 07:06:18.
