data_PCOD8149910
_publ_section_title
;
Structure prediction by ZEFSAII (Michael W. Deem and Ramdas Pophale) SiO2 
 PCOD8149910
Probable space group: C 2/C
;
_chemical_formula_sum "Si O2"
_cell_formula_units_Z 44
_cell_length_a 10.109033
_cell_length_b 19.140933
_cell_length_c 11.147553
_cell_angle_alpha 90.000000
_cell_angle_beta 112.278419
_cell_angle_gamma 90.000000
_cell_volume 1995.995246
_symmetry_space_group_name_H-M "C 2/C"
_symmetry_group_IT_number 15
_symmetry_cell_setting 'monoclinic'
loop_
_space_group_symop_operation_xyz
x,y,z
-x,y,1/2-z
-x,-y,-z
x,-y,1/2+z
1/2+x,1/2+y,z
1/2-x,1/2+y,1/2-z
1/2-x,1/2-y,-z
1/2+x,1/2-y,1/2+z
loop_
_atom_site_type_symbol
_atom_site_label
_atom_site_fract_x
_atom_site_fract_y
_atom_site_fract_z
Si Si1 0.360938 0.730483 0.866369
Si Si2 0.662669 0.127535 0.261405
Si Si3 0.642976 0.537953 0.002052
Si Si4 0.000000 0.882829 0.250000
Si Si5 0.883944 0.444526 0.996570
Si Si6 0.422721 0.196346 0.608635
O O1 0.315219 0.788985 0.752282
O O2 0.422097 0.663975 0.821205
O O3 0.242691 0.701877 0.916251
O O4 0.470233 0.764917 0.001134
O O5 0.500000 0.112874 0.250000
O O6 0.788079 0.099515 0.392091
O O7 0.688833 0.089273 0.144868
O O8 0.613480 0.569719 0.860081
O O9 0.761059 0.478325 0.034338
O O10 0.500000 0.500000 0.000000
O O11 0.961161 0.385084 0.102547
O O12 0.000000 0.500000 0.000000
O O13 0.500000 0.229081 0.750000
#
# Coordination Sequence:
#
# PCOD8149910 Si02
#       6
#     8   8   8   4   8   8
#     4  10  24  45  64 105 136 177 237 282 355 428
#     4  11  23  44  69 100 139 183 234 297 347 420
#     4  12  27  45  69 102 145 188 235 293 357 425
#     4  12  26  42  74 100 144 182 234 290 356 418
#     4  11  24  42  69 100 136 181 238 285 345 423
#     4  10  24  42  70  95 137 182 228 289 352 417
#
# _framework density 22.044141
#
# number of rings (size 3 to 8) (size 9 to 14) (size 15 to 20)
#    0.000    1.091    2.727    2.182    7.636    0.727 
#    0.000    0.000    0.000    0.000    0.000    0.000 
#    0.000    0.000    0.000    0.000    0.000    0.000 
#
# Total GULP energy -272674.815422 kJ/mol
# GULP energy per Si atom -12394.309792 kJ/mol
# Density = 2.199397 g / cm^3
# Si number density = 22.044141 Si / 1000 Ang^3
#
#
#
# Elastic Constant Matrix: (Units=GPa)
#
#
# Indices 1 2 3 4 5 6 
#
# 1 90.9559 19.1456 3.6800 0.0000 -7.6943 0.0000
# 2 19.1456 83.1178 23.5934 0.0000 -2.3341 0.0000
# 3 3.6800 23.5934 128.5345 0.0000 -0.0323 0.0000
# 4 0.0000 0.0000 0.0000 28.4291 0.0000 -11.7594
# 5 -7.6943 -2.3341 -0.0323 0.0000 32.3898 0.0000
# 6 0.0000 0.0000 0.0000 -11.7594 0.0000 36.7273
#
#
#
# Elastic Compliance Matrix: (Units=1/GPa)
#
#
# Indices 1 2 3 4 5 6 
#
# 1 0.011773 -0.002683 0.000156 0.000000 0.002604 0.000000
# 2 -0.002683 0.013331 -0.002370 0.000000 0.000321 0.000000
# 3 0.000156 -0.002370 0.008211 0.000000 -0.000126 0.000000
# 4 0.000000 0.000000 0.000000 0.040545 0.000000 0.012982
# 5 0.002604 0.000321 -0.000126 0.000000 0.031515 0.000000
# 6 0.000000 0.000000 0.000000 0.012982 0.000000 0.031384
#
#
# Mechanical properties :
#
#
# Convention : Reuss Voigt Hill
#
# Bulk Modulus (GPa) = 42.51625 43.93847 43.22736
# Shear Modulus (GPa) = 32.38483 36.58853 34.48668
#
# Velocity S-wave (km/s) = 3.83703 4.07847 3.95959
# Velocity P-wave (km/s) = 6.24173 6.49260 6.36840
#
# Compressibility (1/GPa) = 0.02352042
#
# Stress axis : x y z
#
# Youngs Moduli (GPa) = 84.93996 75.01363 121.79435
#
# Poissons Ratio (x) = 0.20126 -0.01901
# Poissons Ratio (y) = 0.22790 0.28866
# Poissons Ratio (z) = -0.01326 0.17779
#
# Static dielectric constant tensor:
#      x y z
#    x 3.619840 0.000000 -0.394560 
#    y 0.000000 3.943540 0.000000 
#    z -0.394560 0.000000 3.937480 
# 
# 
# High freq. dielectric constant tensor:
#      x y z
#    x 1.856550 0.000000 -0.018640 
#    y 0.000000 1.882060 0.000000 
#    z -0.018640 0.000000 1.873700 
# 
# From -- ./inp_files/87939.got.cif
#   From: 2010.06.25/outbox.cif.g09.slc.cpg/sg15_44_cif.got.tgz:87939.got - 2010.06.28 07:06:18.
