data_PCOD8149473
_publ_section_title
;
Structure prediction by ZEFSAII (Michael W. Deem and Ramdas Pophale) SiO2 
 PCOD8149473
Probable space group: C 2/C
;
_chemical_formula_sum "Si O2"
_cell_formula_units_Z 32
_cell_length_a 20.168778
_cell_length_b 5.324605
_cell_length_c 12.503313
_cell_angle_alpha 90.000000
_cell_angle_beta 117.356339
_cell_angle_gamma 90.000000
_cell_volume 1192.576196
_symmetry_space_group_name_H-M "C 2/C"
_symmetry_group_IT_number 15
_symmetry_cell_setting 'monoclinic'
loop_
_space_group_symop_operation_xyz
x,y,z
-x,y,1/2-z
-x,-y,-z
x,-y,1/2+z
1/2+x,1/2+y,z
1/2-x,1/2+y,1/2-z
1/2-x,1/2-y,-z
1/2+x,1/2-y,1/2+z
loop_
_atom_site_type_symbol
_atom_site_label
_atom_site_fract_x
_atom_site_fract_y
_atom_site_fract_z
Si Si1 0.126093 0.236413 0.460726
Si Si2 0.392745 0.061919 0.332871
Si Si3 0.973497 0.951838 0.860539
Si Si4 0.736762 0.956894 0.901900
O O1 0.097044 0.430429 0.530185
O O2 0.178037 0.343570 0.407175
O O3 0.052324 0.100978 0.352969
O O4 0.180237 0.048537 0.567114
O O5 0.435259 0.284650 0.299293
O O6 0.305081 0.115124 0.238880
O O7 0.420329 0.790972 0.313630
O O8 0.000000 0.000000 0.000000
O O9 0.750000 0.750000 0.000000
#
# Coordination Sequence:
#
# PCOD8149473 Si02
#       4
#     8   8   8   8
#     4  10  25  46  70 102 145 177 233 292 348 419
#     4  11  26  46  77 101 142 189 233 287 362 411
#     4  10  23  46  74 107 136 187 235 286 351 420
#     4  11  28  44  69 107 140 188 238 287 352 424
#
# _framework density 26.832667000000001
#
# number of rings (size 3 to 8) (size 9 to 14) (size 15 to 20)
#    0.000    1.500    0.000    3.000   21.000    1.000 
#    0.000    0.000    0.000    0.000    0.000    0.000 
#    0.000    0.000    0.000    0.000    0.000    0.000 
#
# Total GULP energy -198257.020140 kJ/mol
# GULP energy per Si atom -12391.063759 kJ/mol
# Density = 2.677159 g / cm^3
# Si number density = 26.832667 Si / 1000 Ang^3
#
#
#
# Elastic Constant Matrix: (Units=GPa)
#
#
# Indices 1 2 3 4 5 6 
#
# 1 110.0270 23.1207 9.7263 0.0000 31.8136 0.0000
# 2 23.1207 139.5110 18.1641 0.0000 22.6605 0.0000
# 3 9.7263 18.1641 79.1167 0.0000 48.0604 0.0000
# 4 0.0000 0.0000 0.0000 33.8181 0.0000 6.9620
# 5 31.8136 22.6605 48.0604 0.0000 61.7736 0.0000
# 6 0.0000 0.0000 0.0000 6.9620 0.0000 47.8487
#
#
#
# Elastic Compliance Matrix: (Units=1/GPa)
#
#
# Indices 1 2 3 4 5 6 
#
# 1 0.011468 -0.001018 0.004143 0.000000 -0.008756 0.000000
# 2 -0.001018 0.007713 -0.000465 0.000000 -0.001943 0.000000
# 3 0.004143 -0.000465 0.025464 0.000000 -0.021774 0.000000
# 4 0.000000 0.000000 0.000000 0.030483 0.000000 -0.004435
# 5 -0.008756 -0.001943 -0.021774 0.000000 0.038350 0.000000
# 6 0.000000 0.000000 0.000000 -0.004435 0.000000 0.021545
#
#
# Mechanical properties :
#
#
# Convention : Reuss Voigt Hill
#
# Bulk Modulus (GPa) = 20.01447 47.85299 33.93373
# Shear Modulus (GPa) = 34.16279 47.19765 40.68022
#
# Velocity S-wave (km/s) = 3.57203 4.19855 3.89790
# Velocity P-wave (km/s) = 4.94851 6.43244 5.73864
#
# Compressibility (1/GPa) = 0.04996385
#
# Stress axis : x y z
#
# Youngs Moduli (GPa) = 87.19938 129.65525 39.27128
#
# Poissons Ratio (x) = 0.13195 -0.16268
# Poissons Ratio (y) = 0.08875 0.01827
# Poissons Ratio (z) = -0.36123 0.06031
#
# Static dielectric constant tensor:
#      x y z
#    x 6.252440 0.000000 0.860860 
#    y 0.000000 5.244120 0.000000 
#    z 0.860860 0.000000 6.083070 
# 
# 
# High freq. dielectric constant tensor:
#      x y z
#    x 2.081930 0.000000 0.017150 
#    y 0.000000 2.065340 0.000000 
#    z 0.017150 0.000000 2.115370 
# 
# From -- ./inp_files/165157.got.cif
#   From: 2010.06.25/outbox.cif.g09.slc.cpg/sg15_83_cif.got.tgz:165157.got - 2010.06.28 07:06:18.
