data_PCOD8149980
_publ_section_title
;
Structure prediction by ZEFSAII (Michael W. Deem and Ramdas Pophale) SiO2 
 PCOD8149980
Probable space group: C 2/C
;
_chemical_formula_sum "Si O2"
_cell_formula_units_Z 32
_cell_length_a 10.771657
_cell_length_b 8.622306
_cell_length_c 17.107245
_cell_angle_alpha 90.000000
_cell_angle_beta 71.649542
_cell_angle_gamma 90.000000
_cell_volume 1508.065585
_symmetry_space_group_name_H-M "C 2/C"
_symmetry_group_IT_number 15
_symmetry_cell_setting 'monoclinic'
loop_
_space_group_symop_operation_xyz
x,y,z
-x,y,1/2-z
-x,-y,-z
x,-y,1/2+z
1/2+x,1/2+y,z
1/2-x,1/2+y,1/2-z
1/2-x,1/2-y,-z
1/2+x,1/2-y,1/2+z
loop_
_atom_site_type_symbol
_atom_site_label
_atom_site_fract_x
_atom_site_fract_y
_atom_site_fract_z
Si Si1 0.697304 0.779320 0.096450
Si Si2 0.956248 0.529316 0.596450
Si Si3 0.921233 0.811135 0.158056
Si Si4 0.829289 0.061131 0.841943
O O1 0.563730 0.875002 0.122541
O O2 0.814774 0.872584 0.116330
O O3 0.668401 0.624794 0.151524
O O4 0.750000 0.750000 0.000000
O O5 0.930078 0.374789 0.651523
O O6 0.818897 0.622581 0.616332
O O7 0.000000 0.500000 0.500000
O O8 0.875798 0.875002 0.250000
O O9 0.068629 0.875002 0.112745
#
# Coordination Sequence:
#
# PCOD8149980 Si02
#       4
#     8   8   8   8
#     4  11  23  45  70 100 138 175 230 286 337 404
#     4  11  23  45  70 100 138 175 230 286 337 404
#     4  10  24  43  67 103 139 180 231 276 348 407
#     4  10  24  43  67 103 139 180 231 276 348 407
#
# _framework density 21.219235999999999
#
# number of rings (size 3 to 8) (size 9 to 14) (size 15 to 20)
#    0.000    1.500    5.000    0.000    0.000   21.000 
#    0.000    0.000    0.000    0.000    0.000    0.000 
#    0.000    0.000    0.000    0.000    0.000    0.000 
#
# Total GULP energy -198259.019811 kJ/mol
# GULP energy per Si atom -12391.188738 kJ/mol
# Density = 2.117094 g / cm^3
# Si number density = 21.219236 Si / 1000 Ang^3
#
#
#
# Elastic Constant Matrix: (Units=GPa)
#
#
# Indices 1 2 3 4 5 6 
#
# 1 304.2336 68.0839 53.9345 0.0000 4.7669 0.0000
# 2 68.0839 89.7536 50.5686 0.0000 0.4740 0.0000
# 3 53.9345 50.5686 113.9005 0.0000 0.3810 0.0000
# 4 0.0000 0.0000 0.0000 39.1969 0.0000 0.2431
# 5 4.7669 0.4740 0.3810 0.0000 37.1417 0.0000
# 6 0.0000 0.0000 0.0000 0.2431 0.0000 48.1765
#
#
#
# Elastic Compliance Matrix: (Units=1/GPa)
#
#
# Indices 1 2 3 4 5 6 
#
# 1 0.004012 -0.002629 -0.000731 0.000000 -0.000474 0.000000
# 2 -0.002629 0.016582 -0.006117 0.000000 0.000189 0.000000
# 3 -0.000731 -0.006117 0.011842 0.000000 0.000050 0.000000
# 4 0.000000 0.000000 0.000000 0.025513 0.000000 -0.000129
# 5 -0.000474 0.000189 0.000050 0.000000 0.026982 0.000000
# 6 0.000000 0.000000 0.000000 -0.000129 0.000000 0.020758
#
#
# Mechanical properties :
#
#
# Convention : Reuss Voigt Hill
#
# Bulk Modulus (GPa) = 74.18298 94.78461 84.48379
# Shear Modulus (GPa) = 38.71856 47.25641 42.98749
#
# Velocity S-wave (km/s) = 4.27627 4.72429 4.50585
# Velocity P-wave (km/s) = 7.70832 8.63277 8.18361
#
# Compressibility (1/GPa) = 0.01348018
#
# Stress axis : x y z
#
# Youngs Moduli (GPa) = 249.22931 60.30732 84.44825
#
# Poissons Ratio (x) = 0.15856 0.06174
# Poissons Ratio (y) = 0.65529 0.51661
# Poissons Ratio (z) = 0.18220 0.36893
#
# Static dielectric constant tensor:
#      x y z
#    x 7.316870 0.000000 0.100930 
#    y 0.000000 2.084660 0.000000 
#    z 0.100930 0.000000 3.585180 
# 
# 
# High freq. dielectric constant tensor:
#      x y z
#    x 1.881220 0.000000 0.001750 
#    y 0.000000 1.808120 0.000000 
#    z 0.001750 0.000000 1.816440 
# 
# From -- ./inp_files/131774.got.cif
#   From: 2010.06.25/outbox.cif.g09.slc.cpg/sg15_66_cif.got.tgz:131774.got - 2010.06.28 07:06:18.
