data_PCOD8149291
_publ_section_title
;
Structure prediction by ZEFSAII (Michael W. Deem and Ramdas Pophale) SiO2 
 PCOD8149291
Probable space group: C 2/C
;
_chemical_formula_sum "Si O2"
_cell_formula_units_Z 44
_cell_length_a 5.495327
_cell_length_b 24.237836
_cell_length_c 16.358634
_cell_angle_alpha 90.000000
_cell_angle_beta 121.745374
_cell_angle_gamma 90.000000
_cell_volume 1852.912741
_symmetry_space_group_name_H-M "C 2/C"
_symmetry_group_IT_number 15
_symmetry_cell_setting 'monoclinic'
loop_
_space_group_symop_operation_xyz
x,y,z
-x,y,1/2-z
-x,-y,-z
x,-y,1/2+z
1/2+x,1/2+y,z
1/2-x,1/2+y,1/2-z
1/2-x,1/2-y,-z
1/2+x,1/2-y,1/2+z
loop_
_atom_site_type_symbol
_atom_site_label
_atom_site_fract_x
_atom_site_fract_y
_atom_site_fract_z
Si Si1 0.540632 0.483313 0.385169
Si Si2 0.601167 0.334215 0.987527
Si Si3 0.000000 0.931791 0.750000
Si Si4 0.003729 0.355621 0.845951
Si Si5 0.283471 0.255573 0.640372
Si Si6 0.116634 0.441641 0.433118
O O1 0.385323 0.530594 0.303858
O O2 0.283613 0.444789 0.374685
O O3 0.733720 0.510005 0.489686
O O4 0.772473 0.451000 0.367999
O O5 0.308358 0.370427 0.940390
O O6 0.574274 0.293998 0.904497
O O7 0.645765 0.298857 0.077490
O O8 0.850677 0.379662 0.024401
O O9 0.749683 0.894479 0.665004
O O10 0.000000 0.365424 0.750000
O O11 0.961364 0.291397 0.859946
O O12 0.500000 0.237740 0.750000
#
# Coordination Sequence:
#
# PCOD8149291 Si02
#       6
#     8   8   4   8   8   8
#     4  10  24  42  68  98 141 173 239 288 348 414
#     4  11  25  42  74  95 146 190 226 301 359 426
#     4  12  26  40  70 102 136 182 238 306 338 422
#     4  12  22  40  69 104 135 178 243 295 352 413
#     4  11  23  46  65 108 137 179 246 289 357 430
#     4  10  23  45  65 100 135 188 227 284 360 427
#
# _framework density 23.746397000000002
#
# number of rings (size 3 to 8) (size 9 to 14) (size 15 to 20)
#    0.000    1.091    2.727    2.727   12.727    0.000 
#    3.273    0.000    0.000    0.000    0.000    0.000 
#    0.000    0.000    0.000    0.000    0.000    0.000 
#
# Total GULP energy -272709.384415 kJ/mol
# GULP energy per Si atom -12395.881110 kJ/mol
# Density = 2.369235 g / cm^3
# Si number density = 23.746397 Si / 1000 Ang^3
#
#
#
# Elastic Constant Matrix: (Units=GPa)
#
#
# Indices 1 2 3 4 5 6 
#
# 1 128.5579 42.2713 35.3454 0.0000 6.7347 0.0000
# 2 42.2713 97.9617 46.6955 0.0000 15.4760 0.0000
# 3 35.3454 46.6955 96.8649 0.0000 3.1014 0.0000
# 4 0.0000 0.0000 0.0000 21.3546 0.0000 -6.3647
# 5 6.7347 15.4760 3.1014 0.0000 30.1177 0.0000
# 6 0.0000 0.0000 0.0000 -6.3647 0.0000 21.6224
#
#
#
# Elastic Compliance Matrix: (Units=1/GPa)
#
#
# Indices 1 2 3 4 5 6 
#
# 1 0.009329 -0.003061 -0.001918 0.000000 -0.000315 0.000000
# 2 -0.003061 0.015510 -0.006147 0.000000 -0.006652 0.000000
# 3 -0.001918 -0.006147 0.013918 0.000000 0.002154 0.000000
# 4 0.000000 0.000000 0.000000 0.051332 0.000000 0.015110
# 5 -0.000315 -0.006652 0.002154 0.000000 0.036470 0.000000
# 6 0.000000 0.000000 0.000000 0.015110 0.000000 0.050696
#
#
# Mechanical properties :
#
#
# Convention : Reuss Voigt Hill
#
# Bulk Modulus (GPa) = 60.59104 63.55652 62.07378
# Shear Modulus (GPa) = 24.38917 27.89042 26.13979
#
# Velocity S-wave (km/s) = 3.20827 3.43083 3.32141
# Velocity P-wave (km/s) = 6.26859 6.52050 6.39579
#
# Compressibility (1/GPa) = 0.01650409
#
# Stress axis : x y z
#
# Youngs Moduli (GPa) = 107.19093 64.47441 71.85036
#
# Poissons Ratio (x) = 0.19738 0.13783
# Poissons Ratio (y) = 0.32815 0.44165
# Poissons Ratio (z) = 0.20562 0.39631
#
# Static dielectric constant tensor:
#      x y z
#    x 4.553800 0.000000 -0.065330 
#    y 0.000000 4.062560 0.000000 
#    z -0.065330 0.000000 4.130420 
# 
# 
# High freq. dielectric constant tensor:
#      x y z
#    x 1.941320 0.000000 -0.006540 
#    y 0.000000 1.926440 0.000000 
#    z -0.006540 0.000000 1.930290 
# 
# From -- ./inp_files/129481.got.cif
#   From: 2010.06.25/outbox.cif.g09.slc.cpg/sg15_65_cif.got.tgz:129481.got - 2010.06.28 07:06:18.
