data_PCOD8149879
_publ_section_title
;
Structure prediction by ZEFSAII (Michael W. Deem and Ramdas Pophale) SiO2 
 PCOD8149879
Probable space group: C 2/C
;
_chemical_formula_sum "Si O2"
_cell_formula_units_Z 52
_cell_length_a 10.408236
_cell_length_b 16.977747
_cell_length_c 14.644539
_cell_angle_alpha 90.000000
_cell_angle_beta 108.394644
_cell_angle_gamma 90.000000
_cell_volume 2455.590044
_symmetry_space_group_name_H-M "C 2/C"
_symmetry_group_IT_number 15
_symmetry_cell_setting 'monoclinic'
loop_
_space_group_symop_operation_xyz
x,y,z
-x,y,1/2-z
-x,-y,-z
x,-y,1/2+z
1/2+x,1/2+y,z
1/2-x,1/2+y,1/2-z
1/2-x,1/2-y,-z
1/2+x,1/2-y,1/2+z
loop_
_atom_site_type_symbol
_atom_site_label
_atom_site_fract_x
_atom_site_fract_y
_atom_site_fract_z
Si Si1 0.142712 0.231163 0.556275
Si Si2 0.651758 0.510564 0.292535
Si Si3 0.500000 0.185175 0.750000
Si Si4 0.289045 0.312756 0.747774
Si Si5 0.157830 0.199865 0.042100
Si Si6 0.355664 0.473546 0.006449
Si Si7 0.232969 0.580228 0.845594
O O1 0.250000 0.250000 0.500000
O O2 0.171197 0.289456 0.649474
O O3 0.152479 0.141991 0.596060
O O4 0.991542 0.240512 0.481266
O O5 0.500000 0.478228 0.250000
O O6 0.654351 0.601357 0.262559
O O7 0.689597 0.508901 0.406870
O O8 0.745576 0.451695 0.253413
O O9 0.401152 0.243768 0.780586
O O10 0.591121 0.125344 0.830042
O O11 0.252873 0.314612 0.846357
O O12 0.250000 0.250000 0.000000
O O13 0.141819 0.119035 0.985057
O O14 0.500000 0.500000 0.000000
O O15 0.239708 0.504007 0.911510
#
# Coordination Sequence:
#
# PCOD8149879 Si02
#       7
#     8   8   4   8   8   8   8
#     4  11  24  43  72  99 133 187 239 279 339 429
#     4  12  22  39  68 100 130 174 228 280 339 403
#     4  10  24  42  68  94 136 178 230 272 344 406
#     4  11  23  43  70  96 136 187 229 280 340 428
#     4  12  26  44  66 105 145 177 230 296 356 407
#     4  12  23  43  68  97 136 178 233 283 339 416
#     4  11  23  43  67  99 132 173 230 286 332 407
#
# _framework density 21.176174
#
# number of rings (size 3 to 8) (size 9 to 14) (size 15 to 20)
#    0.000    0.615    5.385    2.769    4.308    0.615 
#    2.769    0.769    0.000    0.000    0.000    0.000 
#    0.000    0.000    0.000    0.000    0.000    0.000 
#
# Total GULP energy -322113.950480 kJ/mol
# GULP energy per Si atom -12388.998095 kJ/mol
# Density = 2.112798 g / cm^3
# Si number density = 21.176174 Si / 1000 Ang^3
#
#
#
# Elastic Constant Matrix: (Units=GPa)
#
#
# Indices 1 2 3 4 5 6 
#
# 1 67.4469 52.6300 36.8495 0.0000 -8.2423 0.0000
# 2 52.6300 125.6538 36.3848 0.0000 -9.3985 0.0000
# 3 36.8495 36.3848 147.2712 0.0000 -23.2504 0.0000
# 4 0.0000 0.0000 0.0000 40.4916 0.0000 -0.6150
# 5 -8.2423 -9.3985 -23.2504 0.0000 34.2484 0.0000
# 6 0.0000 0.0000 0.0000 -0.6150 0.0000 34.4010
#
#
#
# Elastic Compliance Matrix: (Units=1/GPa)
#
#
# Indices 1 2 3 4 5 6 
#
# 1 0.023838 -0.008867 -0.003643 0.000000 0.000830 0.000000
# 2 -0.008867 0.011902 -0.000608 0.000000 0.000719 0.000000
# 3 -0.003643 -0.000608 0.008610 0.000000 0.004802 0.000000
# 4 0.000000 0.000000 0.000000 0.024703 0.000000 0.000442
# 5 0.000830 0.000719 0.004802 0.000000 0.032855 0.000000
# 6 0.000000 0.000000 0.000000 0.000442 0.000000 0.029077
#
#
# Mechanical properties :
#
#
# Convention : Reuss Voigt Hill
#
# Bulk Modulus (GPa) = 55.20828 65.78894 60.49861
# Shear Modulus (GPa) = 30.62606 36.12871 33.37738
#
# Velocity S-wave (km/s) = 3.80709 4.13498 3.97442
# Velocity P-wave (km/s) = 6.74187 7.34386 7.04929
#
# Compressibility (1/GPa) = 0.01811322
#
# Stress axis : x y z
#
# Youngs Moduli (GPa) = 41.95067 84.01637 116.14467
#
# Poissons Ratio (x) = 0.74501 0.42307
# Poissons Ratio (y) = 0.37200 0.07065
# Poissons Ratio (z) = 0.15281 0.05111
#
# Static dielectric constant tensor:
#      x y z
#    x 2.696750 0.000000 -1.406870 
#    y 0.000000 4.086800 0.000000 
#    z -1.406870 0.000000 1.613390 
# 
# 
# High freq. dielectric constant tensor:
#      x y z
#    x 1.793340 0.000000 -0.000040 
#    y 0.000000 1.845930 0.000000 
#    z -0.000040 0.000000 1.844990 
# 
# From -- ./inp_files/144349.got.cif
#   From: 2010.06.25/outbox.cif.g09.slc.cpg/sg15_73_cif.got.tgz:144349.got - 2010.06.28 07:06:18.
