data_PCOD8149718
_publ_section_title
;
Structure prediction by ZEFSAII (Michael W. Deem and Ramdas Pophale) SiO2 
 PCOD8149718
Probable space group: C 2/C
;
_chemical_formula_sum "Si O2"
_cell_formula_units_Z 56
_cell_length_a 16.294359
_cell_length_b 21.606931
_cell_length_c 8.889039
_cell_angle_alpha 90.000000
_cell_angle_beta 59.662748
_cell_angle_gamma 90.000000
_cell_volume 2701.032808
_symmetry_space_group_name_H-M "C 2/C"
_symmetry_group_IT_number 15
_symmetry_cell_setting 'monoclinic'
loop_
_space_group_symop_operation_xyz
x,y,z
-x,y,1/2-z
-x,-y,-z
x,-y,1/2+z
1/2+x,1/2+y,z
1/2-x,1/2+y,1/2-z
1/2-x,1/2-y,-z
1/2+x,1/2-y,1/2+z
loop_
_atom_site_type_symbol
_atom_site_label
_atom_site_fract_x
_atom_site_fract_y
_atom_site_fract_z
Si Si1 0.741574 0.294787 0.366369
Si Si2 0.290489 0.493551 0.390463
Si Si3 0.582066 0.224501 0.981655
Si Si4 0.253012 0.082826 0.313487
Si Si5 0.953530 0.866111 0.458680
Si Si6 0.871322 0.916994 0.046738
Si Si7 0.872825 0.703141 0.221646
O O1 0.750000 0.250000 0.500000
O O2 0.848190 0.304830 0.205944
O O3 0.697451 0.361380 0.445728
O O4 0.674179 0.264467 0.302797
O O5 0.229732 0.542667 0.351496
O O6 0.216136 0.456867 0.567953
O O7 0.340265 0.444356 0.235946
O O8 0.368171 0.530358 0.421220
O O9 0.573270 0.297433 0.966140
O O10 0.478848 0.193286 0.059467
O O11 0.627462 0.211404 0.100798
O O12 0.141128 0.093419 0.448103
O O13 0.311447 0.144357 0.233768
O O14 0.000000 0.865750 0.250000
O O15 0.022141 0.892763 0.525287
#
# Coordination Sequence:
#
# PCOD8149718 Si02
#       7
#     8   8   8   8   8   8   8
#     4  12  24  40  65  97 132 165 199 269 338 370
#     4  10  24  41  61  87 123 178 210 254 304 372
#     4  11  23  39  65  98 126 164 209 256 326 385
#     4  11  23  40  64  89 128 165 215 259 313 378
#     4  12  21  36  63  97 126 167 207 258 314 387
#     4  11  23  41  60  89 130 164 212 252 307 378
#     4  11  22  41  67  93 124 167 213 260 316 379
#
# _framework density 20.732810000000001
#
# number of rings (size 3 to 8) (size 9 to 14) (size 15 to 20)
#    0.000    0.857    5.714    2.143    0.000    4.571 
#    0.000    0.000    0.000   15.429    0.000    0.000 
#    0.000    0.000    0.000    0.000    0.000    0.000 
#
# Total GULP energy -347242.576381 kJ/mol
# GULP energy per Si atom -12401.520585 kJ/mol
# Density = 2.068562 g / cm^3
# Si number density = 20.732810 Si / 1000 Ang^3
#
#
#
# Elastic Constant Matrix: (Units=GPa)
#
#
# Indices 1 2 3 4 5 6 
#
# 1 72.7342 28.6838 35.3332 0.0000 -5.5816 0.0000
# 2 28.6838 99.6137 13.0257 0.0000 3.4820 0.0000
# 3 35.3332 13.0257 76.4365 0.0000 -3.1128 0.0000
# 4 0.0000 0.0000 0.0000 30.7782 0.0000 12.3549
# 5 -5.5816 3.4820 -3.1128 0.0000 26.3508 0.0000
# 6 0.0000 0.0000 0.0000 12.3549 0.0000 31.1814
#
#
#
# Elastic Compliance Matrix: (Units=1/GPa)
#
#
# Indices 1 2 3 4 5 6 
#
# 1 0.019945 -0.004801 -0.008243 0.000000 0.003885 0.000000
# 2 -0.004801 0.011488 0.000159 0.000000 -0.002516 0.000000
# 3 -0.008243 0.000159 0.016875 0.000000 0.000226 0.000000
# 4 0.000000 0.000000 0.000000 0.038636 0.000000 -0.015309
# 5 0.003885 -0.002516 0.000226 0.000000 0.039132 0.000000
# 6 0.000000 0.000000 0.000000 -0.015309 0.000000 0.038136
#
#
# Mechanical properties :
#
#
# Convention : Reuss Voigt Hill
#
# Bulk Modulus (GPa) = 44.36919 44.76332 44.56626
# Shear Modulus (GPa) = 25.31714 29.11151 27.21432
#
# Velocity S-wave (km/s) = 3.49824 3.75123 3.62694
# Velocity P-wave (km/s) = 6.14523 6.35608 6.25154
#
# Compressibility (1/GPa) = 0.02253816
#
# Stress axis : x y z
#
# Youngs Moduli (GPa) = 50.13889 87.04449 59.25818
#
# Poissons Ratio (x) = 0.41790 0.48847
# Poissons Ratio (y) = 0.24072 -0.00943
# Poissons Ratio (z) = 0.41330 -0.01385
#
# Static dielectric constant tensor:
#      x y z
#    x 3.779980 0.000000 0.107100 
#    y 0.000000 3.909690 0.000000 
#    z 0.107100 0.000000 3.768800 
# 
# 
# High freq. dielectric constant tensor:
#      x y z
#    x 1.798700 0.000000 0.017750 
#    y 0.000000 1.822510 0.000000 
#    z 0.017750 0.000000 1.808870 
# 
# From -- ./inp_files/50109.got.cif
#   From: 2010.06.25/outbox.cif.g09.slc.cpg/sg15_26_cif.got.tgz:50109.got - 2010.06.28 07:06:18.
