data_PCOD8149608
_publ_section_title
;
Structure prediction by ZEFSAII (Michael W. Deem and Ramdas Pophale) SiO2 
 PCOD8149608
Probable space group: C 2/C
;
_chemical_formula_sum "Si O2"
_cell_formula_units_Z 60
_cell_length_a 11.500457
_cell_length_b 18.494971
_cell_length_c 15.093264
_cell_angle_alpha 90.000000
_cell_angle_beta 119.362688
_cell_angle_gamma 90.000000
_cell_volume 2797.923995
_symmetry_space_group_name_H-M "C 2/C"
_symmetry_group_IT_number 15
_symmetry_cell_setting 'monoclinic'
loop_
_space_group_symop_operation_xyz
x,y,z
-x,y,1/2-z
-x,-y,-z
x,-y,1/2+z
1/2+x,1/2+y,z
1/2-x,1/2+y,1/2-z
1/2-x,1/2-y,-z
1/2+x,1/2-y,1/2+z
loop_
_atom_site_type_symbol
_atom_site_label
_atom_site_fract_x
_atom_site_fract_y
_atom_site_fract_z
Si Si1 0.246620 0.733067 0.242243
Si Si2 0.352753 0.094489 0.386514
Si Si3 0.086499 0.557589 0.364603
Si Si4 0.500000 0.209519 0.750000
Si Si5 0.159655 0.398551 0.411986
Si Si6 0.395830 0.368865 0.371740
Si Si7 0.604720 0.474812 0.712033
Si Si8 0.349883 0.634518 0.423702
O O1 0.157966 0.673361 0.160401
O O2 0.379788 0.740021 0.234100
O O3 0.161639 0.807188 0.215937
O O4 0.293018 0.707232 0.356740
O O5 0.503302 0.066886 0.424588
O O6 0.317706 0.096899 0.475663
O O7 0.254113 0.037579 0.302846
O O8 0.116352 0.474549 0.355408
O O9 0.226436 0.597895 0.428086
O O10 0.000000 0.589075 0.250000
O O11 0.456111 0.159270 0.651217
O O12 0.297413 0.375228 0.418188
O O13 0.410980 0.442655 0.323356
O O14 0.539831 0.344671 0.462390
O O15 0.500000 0.456168 0.750000
O O16 0.581966 0.420701 0.621063
#
# Coordination Sequence:
#
# PCOD8149608 Si02
#       8
#     8   8   8   4   8   8   8   8
#     4  10  25  42  63 101 131 174 222 272 332 398
#     4  11  25  41  68  96 134 173 224 279 328 401
#     4  12  21  45  67  94 133 176 222 268 337 394
#     4  10  24  38  68  94 134 174 214 284 340 384
#     4  11  23  41  70  98 131 167 227 283 334 400
#     4  11  24  45  68  99 133 176 220 279 340 391
#     4  11  23  41  68 100 133 167 225 280 328 392
#     4  11  24  43  74  91 137 180 217 273 339 402
#
# _framework density 21.444471
#
# number of rings (size 3 to 8) (size 9 to 14) (size 15 to 20)
#    0.000    1.067    4.667    1.600   11.200    1.067 
#    2.400    0.667    0.000    0.000    0.000    0.000 
#    0.000    0.000    0.000    0.000    0.000    0.000 
#
# Total GULP energy -372118.277339 kJ/mol
# GULP energy per Si atom -12403.942578 kJ/mol
# Density = 2.139566 g / cm^3
# Si number density = 21.444471 Si / 1000 Ang^3
#
#
#
# Elastic Constant Matrix: (Units=GPa)
#
#
# Indices 1 2 3 4 5 6 
#
# 1 117.1156 30.7503 20.0458 0.0000 12.7076 0.0000
# 2 30.7503 99.0110 34.8564 0.0000 10.8796 0.0000
# 3 20.0458 34.8564 80.3610 0.0000 9.3707 0.0000
# 4 0.0000 0.0000 0.0000 18.6928 0.0000 -2.1082
# 5 12.7076 10.8796 9.3707 0.0000 29.6367 0.0000
# 6 0.0000 0.0000 0.0000 -2.1082 0.0000 10.2567
#
#
#
# Elastic Compliance Matrix: (Units=1/GPa)
#
#
# Indices 1 2 3 4 5 6 
#
# 1 0.009644 -0.002295 -0.001065 0.000000 -0.002956 0.000000
# 2 -0.002295 0.012702 -0.004681 0.000000 -0.002199 0.000000
# 3 -0.001065 -0.004681 0.015041 0.000000 -0.002581 0.000000
# 4 0.000000 0.000000 0.000000 0.054766 0.000000 0.011257
# 5 -0.002956 -0.002199 -0.002581 0.000000 0.036632 0.000000
# 6 0.000000 0.000000 0.000000 0.011257 0.000000 0.099811
#
#
# Mechanical properties :
#
#
# Convention : Reuss Voigt Hill
#
# Bulk Modulus (GPa) = 46.93870 51.97695 49.45783
# Shear Modulus (GPa) = 19.85851 25.77292 22.81571
#
# Velocity S-wave (km/s) = 3.04640 3.47052 3.26535
# Velocity P-wave (km/s) = 5.85748 6.35216 6.10983
#
# Compressibility (1/GPa) = 0.02130438
#
# Stress axis : x y z
#
# Youngs Moduli (GPa) = 103.68773 78.72674 66.48620
#
# Poissons Ratio (x) = 0.18071 0.07084
# Poissons Ratio (y) = 0.23801 0.31119
# Poissons Ratio (z) = 0.11047 0.36848
#
# Static dielectric constant tensor:
#      x y z
#    x 3.901430 0.000000 0.124850 
#    y 0.000000 3.930210 0.000000 
#    z 0.124850 0.000000 3.745840 
# 
# 
# High freq. dielectric constant tensor:
#      x y z
#    x 1.847670 0.000000 0.011270 
#    y 0.000000 1.842130 0.000000 
#    z 0.011270 0.000000 1.831670 
# 
# From -- ./inp_files/147202.got.cif
#   From: 2010.06.25/outbox.cif.g09.slc.cpg/sg15_74_cif.got.tgz:147202.got - 2010.06.28 07:06:18.
