data_PCOD8149621
_publ_section_title
;
Structure prediction by ZEFSAII (Michael W. Deem and Ramdas Pophale) SiO2 
 PCOD8149621
Probable space group: C 2/C
;
_chemical_formula_sum "Si O2"
_cell_formula_units_Z 32
_cell_length_a 9.218021
_cell_length_b 21.732119
_cell_length_c 13.403161
_cell_angle_alpha 90.000000
_cell_angle_beta 32.795281
_cell_angle_gamma 90.000000
_cell_volume 1454.309737
_symmetry_space_group_name_H-M "C 2/C"
_symmetry_group_IT_number 15
_symmetry_cell_setting 'monoclinic'
loop_
_space_group_symop_operation_xyz
x,y,z
-x,y,1/2-z
-x,-y,-z
x,-y,1/2+z
1/2+x,1/2+y,z
1/2-x,1/2+y,1/2-z
1/2-x,1/2-y,-z
1/2+x,1/2-y,1/2+z
loop_
_atom_site_type_symbol
_atom_site_label
_atom_site_fract_x
_atom_site_fract_y
_atom_site_fract_z
Si Si1 0.656467 0.819458 0.058370
Si Si2 0.055962 0.926891 0.853158
Si Si3 0.090147 0.058222 0.557290
Si Si4 0.913249 0.401640 0.051088
O O1 0.500000 0.832863 0.250000
O O2 0.750000 0.750000 0.000000
O O3 0.474557 0.834744 0.065661
O O4 0.912020 0.863879 0.908056
O O5 0.304870 0.935893 0.633083
O O6 0.168156 0.921811 0.901075
O O7 0.853478 0.985097 0.960011
O O8 0.252103 0.102157 0.539577
O O9 0.769412 0.063398 0.761846
#
# Coordination Sequence:
#
# PCOD8149621 Si02
#       4
#     8   8   8   8
#     4  12  26  46  68  95 130 178 232 277 332 407
#     4  11  23  41  67  99 135 177 214 275 328 402
#     4  10  24  39  67 101 140 169 216 274 339 398
#     4  11  23  41  65  97 136 174 222 269 339 389
#
# _framework density 22.003564999999998
#
# number of rings (size 3 to 8) (size 9 to 14) (size 15 to 20)
#    0.000    1.000    2.500    3.750   10.500    0.000 
#    0.000    1.250    5.500    0.000    0.000    0.000 
#    0.000    0.000    0.000    0.000    0.000    0.000 
#
# Total GULP energy -198297.524260 kJ/mol
# GULP energy per Si atom -12393.595266 kJ/mol
# Density = 2.195348 g / cm^3
# Si number density = 22.003565 Si / 1000 Ang^3
#
#
#
# Elastic Constant Matrix: (Units=GPa)
#
#
# Indices 1 2 3 4 5 6 
#
# 1 157.2173 71.9338 16.2591 -0.0052 13.2742 0.0003
# 2 71.9338 143.8936 23.6353 -0.0019 -15.6493 -0.0011
# 3 16.2591 23.6353 98.6397 -0.0274 8.0064 -0.0033
# 4 -0.0052 -0.0019 -0.0274 24.9665 0.0088 -3.1034
# 5 13.2742 -15.6493 8.0064 0.0088 35.1138 0.0004
# 6 0.0003 -0.0011 -0.0033 -3.1034 0.0004 36.7859
#
#
#
# Elastic Compliance Matrix: (Units=1/GPa)
#
#
# Indices 1 2 3 4 5 6 
#
# 1 0.009270 -0.005316 0.000227 0.000004 -0.005925 0.000000
# 2 -0.005316 0.010784 -0.002304 -0.000005 0.007341 0.000000
# 3 0.000227 -0.002304 0.010945 0.000013 -0.003608 0.000002
# 4 0.000004 -0.000005 0.000013 0.040478 -0.000017 0.003415
# 5 -0.005925 0.007341 -0.003608 -0.000017 0.034813 -0.000002
# 6 0.000000 0.000000 0.000002 0.003415 -0.000002 0.027472
#
#
# Mechanical properties :
#
#
# Convention : Reuss Voigt Hill
#
# Bulk Modulus (GPa) = 61.67641 69.26743 65.47192
# Shear Modulus (GPa) = 32.47780 38.56805 35.52292
#
# Velocity S-wave (km/s) = 3.84607 4.19120 4.02234
# Velocity P-wave (km/s) = 6.91477 7.41417 7.16882
#
# Compressibility (1/GPa) = 0.01621365
#
# Stress axis : x y z
#
# Youngs Moduli (GPa) = 107.88054 92.73375 91.36289
#
# Poissons Ratio (x) = 0.49293 -0.02071
# Poissons Ratio (y) = 0.57344 0.21046
# Poissons Ratio (z) = -0.02445 0.21362
#
# Static dielectric constant tensor:
#      x y z
#    x 4.231170 0.000000 0.237400 
#    y 0.000000 3.680170 0.000030 
#    z 0.237400 0.000030 4.302560 
# 
# 
# High freq. dielectric constant tensor:
#      x y z
#    x 1.879210 0.000000 0.021110 
#    y 0.000000 1.827130 0.000000 
#    z 0.021110 0.000000 1.884050 
# 
# From -- ./inp_files/137074.got.cif
#   From: 2010.06.25/outbox.cif.g09.slc.cpg/sg15_69_cif.got.tgz:137074.got - 2010.06.28 07:06:18.
