data_PCOD8149933
_publ_section_title
;
Structure prediction by ZEFSAII (Michael W. Deem and Ramdas Pophale) SiO2 
 PCOD8149933
Probable space group: C 2/C
;
_chemical_formula_sum "Si O2"
_cell_formula_units_Z 52
_cell_length_a 11.408156
_cell_length_b 27.185837
_cell_length_c 10.244179
_cell_angle_alpha 90.000000
_cell_angle_beta 127.454732
_cell_angle_gamma 90.000000
_cell_volume 2522.115941
_symmetry_space_group_name_H-M "C 2/C"
_symmetry_group_IT_number 15
_symmetry_cell_setting 'monoclinic'
loop_
_space_group_symop_operation_xyz
x,y,z
-x,y,1/2-z
-x,-y,-z
x,-y,1/2+z
1/2+x,1/2+y,z
1/2-x,1/2+y,1/2-z
1/2-x,1/2-y,-z
1/2+x,1/2-y,1/2+z
loop_
_atom_site_type_symbol
_atom_site_label
_atom_site_fract_x
_atom_site_fract_y
_atom_site_fract_z
Si Si1 0.358307 0.122276 0.245069
Si Si2 0.179748 0.002663 0.479633
Si Si3 0.000000 0.249891 0.250000
Si Si4 0.295419 0.188430 0.433572
Si Si5 0.346759 0.016932 0.341450
Si Si6 0.940564 0.899168 0.072591
Si Si7 0.107677 0.886175 0.935612
O O1 0.500000 0.119887 0.250000
O O2 0.354571 0.169868 0.334023
O O3 0.343285 0.076060 0.333741
O O4 0.223183 0.121972 0.053073
O O5 0.230788 0.994134 0.365382
O O6 0.106464 0.055357 0.431226
O O7 0.315157 0.003663 0.674912
O O8 0.064852 0.959278 0.439604
O O9 0.144723 0.219048 0.303604
O O10 0.065110 0.282044 0.413627
O O11 0.259430 0.143389 0.511144
O O12 0.500000 0.000000 0.500000
O O13 0.000000 0.880619 0.250000
O O14 0.044396 0.873644 0.035055
O O15 0.000000 0.866446 0.750000
#
# Coordination Sequence:
#
# PCOD8149933 Si02
#       7
#     8   8   4   8   8   8   8
#     4  11  23  42  63  89 131 172 213 262 323 379
#     4  11  21  34  52  87 123 169 224 261 299 353
#     4  10  24  42  74  96 126 144 214 278 334 406
#     4  11  22  45  67  99 121 167 206 272 334 390
#     4  11  21  36  53  83 132 180 217 258 302 362
#     4  11  22  36  57  91 131 173 218 262 301 355
#     4  12  20  38  63  88 126 164 217 260 316 381
#
# _framework density 20.617608000000001
#
# number of rings (size 3 to 8) (size 9 to 14) (size 15 to 20)
#    0.000    0.923    3.846    5.077    0.000    2.462 
#    0.000    0.769    0.000    3.692    0.000    0.000 
#    0.000    0.000    0.000    0.000    0.000    0.000 
#
# Total GULP energy -322232.913861 kJ/mol
# GULP energy per Si atom -12393.573610 kJ/mol
# Density = 2.057068 g / cm^3
# Si number density = 20.617608 Si / 1000 Ang^3
#
#
#
# Elastic Constant Matrix: (Units=GPa)
#
#
# Indices 1 2 3 4 5 6 
#
# 1 84.7218 16.4961 44.1019 0.0000 -16.2086 0.0000
# 2 16.4961 67.1225 38.0698 0.0000 -5.0438 0.0000
# 3 44.1019 38.0698 159.3439 0.0000 -3.5329 0.0000
# 4 0.0000 0.0000 0.0000 5.0227 0.0000 -3.6811
# 5 -16.2086 -5.0438 -3.5329 0.0000 40.2644 0.0000
# 6 0.0000 0.0000 0.0000 -3.6811 0.0000 19.0315
#
#
#
# Elastic Compliance Matrix: (Units=1/GPa)
#
#
# Indices 1 2 3 4 5 6 
#
# 1 0.015058 -0.001142 -0.003771 0.000000 0.005588 0.000000
# 2 -0.001142 0.017451 -0.003822 0.000000 0.001391 0.000000
# 3 -0.003771 -0.003822 0.008204 0.000000 -0.001277 0.000000
# 4 0.000000 0.000000 0.000000 0.231979 0.000000 0.044870
# 5 0.005588 0.001391 -0.001277 0.000000 0.027147 0.000000
# 6 0.000000 0.000000 0.000000 0.044870 0.000000 0.061223
#
#
# Mechanical properties :
#
#
# Convention : Reuss Voigt Hill
#
# Bulk Modulus (GPa) = 43.02440 56.50265 49.76352
# Shear Modulus (GPa) = 12.94395 27.03176 19.98786
#
# Velocity S-wave (km/s) = 2.50833 3.62484 3.11699
# Velocity P-wave (km/s) = 5.41314 6.70700 6.09450
#
# Compressibility (1/GPa) = 0.02324263
#
# Stress axis : x y z
#
# Youngs Moduli (GPa) = 66.41183 57.30231 121.88703
#
# Poissons Ratio (x) = 0.06544 0.45961
# Poissons Ratio (y) = 0.07584 0.46591
# Poissons Ratio (z) = 0.25042 0.21904
#
# Static dielectric constant tensor:
#      x y z
#    x 4.176250 0.000000 -0.678280 
#    y 0.000000 3.587870 0.000000 
#    z -0.678280 0.000000 5.051260 
# 
# 
# High freq. dielectric constant tensor:
#      x y z
#    x 1.804850 0.000000 -0.000150 
#    y 0.000000 1.785850 0.000000 
#    z -0.000150 0.000000 1.815430 
# 
# From -- ./inp_files/35098.got.cif
#   From: 2010.06.25/outbox.cif.g09.slc.cpg/sg15_18_cif.got.tgz:35098.got - 2010.06.28 07:06:18.
