data_PCOD8149597
_publ_section_title
;
Structure prediction by ZEFSAII (Michael W. Deem and Ramdas Pophale) SiO2 
 PCOD8149597
Probable space group: C 2/C
;
_chemical_formula_sum "Si O2"
_cell_formula_units_Z 36
_cell_length_a 9.114257
_cell_length_b 21.284641
_cell_length_c 9.056535
_cell_angle_alpha 90.000000
_cell_angle_beta 89.828612
_cell_angle_gamma 90.000000
_cell_volume 1756.902767
_symmetry_space_group_name_H-M "C 2/C"
_symmetry_group_IT_number 15
_symmetry_cell_setting 'monoclinic'
loop_
_space_group_symop_operation_xyz
x,y,z
-x,y,1/2-z
-x,-y,-z
x,-y,1/2+z
1/2+x,1/2+y,z
1/2-x,1/2+y,1/2-z
1/2-x,1/2-y,-z
1/2+x,1/2-y,1/2+z
loop_
_atom_site_type_symbol
_atom_site_label
_atom_site_fract_x
_atom_site_fract_y
_atom_site_fract_z
Si Si1 0.130665 0.921352 0.522922
Si Si2 0.000000 0.982633 0.250000
Si Si3 0.536849 0.064309 0.420312
Si Si4 0.063440 0.199305 0.398704
Si Si5 0.099204 0.314932 0.605000
O O1 0.300901 0.909276 0.549338
O O2 0.106491 0.940290 0.351637
O O3 0.031146 0.860834 0.554425
O O4 0.094815 0.976381 0.637795
O O5 0.500000 0.052812 0.250000
O O6 0.435871 0.120995 0.484910
O O7 0.500000 0.000000 0.500000
O O8 0.054716 0.251616 0.523261
O O9 0.229383 0.180500 0.361548
O O10 0.000000 0.229252 0.250000
O O11 0.000000 0.316626 0.750000
#
# Coordination Sequence:
#
# PCOD8149597 Si02
#       5
#     8   4   8   8   8
#     4  11  23  41  65  94 127 171 210 261 315 385
#     4  10  24  38  64  94 128 164 214 254 310 382
#     4  11  24  41  64  95 129 164 204 263 319 376
#     4  11  23  43  66  91 126 170 215 263 315 385
#     4  10  25  43  62  93 127 165 216 265 318 376
#
# _framework density 20.490604999999999
#
# number of rings (size 3 to 8) (size 9 to 14) (size 15 to 20)
#    0.000    1.333    1.111    4.000    7.778    4.444 
#    4.000    0.000    0.000    0.000    0.000    0.000 
#    0.000    0.000    0.000    0.000    0.000    0.000 
#
# Total GULP energy -223132.030998 kJ/mol
# GULP energy per Si atom -12396.223944 kJ/mol
# Density = 2.044397 g / cm^3
# Si number density = 20.490605 Si / 1000 Ang^3
#
#
#
# Elastic Constant Matrix: (Units=GPa)
#
#
# Indices 1 2 3 4 5 6 
#
# 1 162.8608 83.5484 61.5845 0.0000 18.7434 0.0000
# 2 83.5484 133.8747 47.4069 0.0000 1.8136 0.0000
# 3 61.5845 47.4069 106.1502 0.0000 19.5357 0.0000
# 4 0.0000 0.0000 0.0000 18.0402 0.0000 2.8487
# 5 18.7434 1.8136 19.5357 0.0000 35.1995 0.0000
# 6 0.0000 0.0000 0.0000 2.8487 0.0000 33.9125
#
#
#
# Elastic Compliance Matrix: (Units=1/GPa)
#
#
# Indices 1 2 3 4 5 6 
#
# 1 0.010472 -0.005431 -0.002980 0.000000 -0.003643 0.000000
# 2 -0.005431 0.011810 -0.002833 0.000000 0.003856 0.000000
# 3 -0.002980 -0.002833 0.013472 0.000000 -0.005744 0.000000
# 4 0.000000 0.000000 0.000000 0.056177 0.000000 -0.004719
# 5 -0.003643 0.003856 -0.005744 0.000000 0.033339 0.000000
# 6 0.000000 0.000000 0.000000 -0.004719 0.000000 0.029884
#
#
# Mechanical properties :
#
#
# Convention : Reuss Voigt Hill
#
# Bulk Modulus (GPa) = 75.37860 87.55171 81.46515
# Shear Modulus (GPa) = 27.46290 31.45351 29.45820
#
# Velocity S-wave (km/s) = 3.66494 3.92218 3.79574
# Velocity P-wave (km/s) = 7.40107 7.95813 7.68465
#
# Compressibility (1/GPa) = 0.01326637
#
# Stress axis : x y z
#
# Youngs Moduli (GPa) = 95.48900 84.67318 74.22926
#
# Poissons Ratio (x) = 0.45987 0.22119
# Poissons Ratio (y) = 0.51861 0.21030
# Poissons Ratio (z) = 0.28453 0.23989
#
# Static dielectric constant tensor:
#      x y z
#    x 3.948330 0.000000 0.278810 
#    y 0.000000 4.076780 0.000000 
#    z 0.278810 0.000000 4.021610 
# 
# 
# High freq. dielectric constant tensor:
#      x y z
#    x 1.816230 0.000000 0.014220 
#    y 0.000000 1.815500 0.000000 
#    z 0.014220 0.000000 1.800900 
# 
# From -- ./inp_files/22509.got.cif
#   From: 2010.06.25/outbox.cif.g09.slc.cpg/sg15_12_cif.got.tgz:22509.got - 2010.06.28 07:06:18.
