data_PCOD8149402
_publ_section_title
;
Structure prediction by ZEFSAII (Michael W. Deem and Ramdas Pophale) SiO2 
 PCOD8149402
Probable space group: C 2/C
;
_chemical_formula_sum "Si O2"
_cell_formula_units_Z 32
_cell_length_a 21.795020
_cell_length_b 6.786071
_cell_length_c 13.690513
_cell_angle_alpha 90.000000
_cell_angle_beta 50.079083
_cell_angle_gamma 90.000000
_cell_volume 1552.929157
_symmetry_space_group_name_H-M "C 2/C"
_symmetry_group_IT_number 15
_symmetry_cell_setting 'monoclinic'
loop_
_space_group_symop_operation_xyz
x,y,z
-x,y,1/2-z
-x,-y,-z
x,-y,1/2+z
1/2+x,1/2+y,z
1/2-x,1/2+y,1/2-z
1/2-x,1/2-y,-z
1/2+x,1/2-y,1/2+z
loop_
_atom_site_type_symbol
_atom_site_label
_atom_site_fract_x
_atom_site_fract_y
_atom_site_fract_z
Si Si1 0.180650 0.972802 0.480377
Si Si2 0.909064 0.008490 0.125687
Si Si3 0.413911 0.752666 0.802041
Si Si4 0.141165 0.661971 0.681380
O O1 0.141804 0.804983 0.587806
O O2 0.275269 0.946005 0.382174
O O3 0.149434 0.956323 0.402750
O O4 0.153887 0.185441 0.550709
O O5 0.888722 0.222815 0.191934
O O6 0.891677 0.839451 0.221151
O O7 0.000000 0.000000 0.000000
O O8 0.500000 0.673680 0.750000
O O9 0.419205 0.987646 0.785176
#
# Coordination Sequence:
#
# PCOD8149402 Si02
#       4
#     8   8   8   8
#     4  10  23  46  61  91 128 163 212 265 307 373
#     4  11  24  41  63  95 129 159 207 268 309 368
#     4  11  23  40  66  92 126 167 209 258 316 376
#     4  10  25  41  67  89 124 173 205 256 319 376
#
# _framework density 20.606218999999999
#
# number of rings (size 3 to 8) (size 9 to 14) (size 15 to 20)
#    0.000    1.500    2.500    0.750    7.000    3.000 
#    0.000    0.000    0.000    0.000    0.000    0.000 
#    0.000    0.000    0.000    0.000    0.000    0.000 
#
# Total GULP energy -198451.787203 kJ/mol
# GULP energy per Si atom -12403.236700 kJ/mol
# Density = 2.055932 g / cm^3
# Si number density = 20.606219 Si / 1000 Ang^3
#
#
#
# Elastic Constant Matrix: (Units=GPa)
#
#
# Indices 1 2 3 4 5 6 
#
# 1 117.5500 40.6933 48.5660 -0.0002 26.0718 -0.0009
# 2 40.6933 113.4588 38.6559 -0.0028 2.6450 -0.0034
# 3 48.5660 38.6559 109.3253 -0.0007 2.7463 -0.0004
# 4 -0.0002 -0.0028 -0.0007 27.4349 0.0002 -0.7526
# 5 26.0718 2.6450 2.7463 0.0002 40.6341 0.0008
# 6 -0.0009 -0.0034 -0.0004 -0.7526 0.0008 28.8920
#
#
#
# Elastic Compliance Matrix: (Units=1/GPa)
#
#
# Indices 1 2 3 4 5 6 
#
# 1 0.013214 -0.002981 -0.004616 0.000000 -0.007973 0.000000
# 2 -0.002981 0.010700 -0.002494 0.000001 0.001385 0.000001
# 3 -0.004616 -0.002494 0.012021 0.000000 0.002312 0.000000
# 4 0.000000 0.000001 0.000000 0.036476 0.000000 0.000950
# 5 -0.007973 0.001385 0.002312 0.000000 0.029479 -0.000001
# 6 0.000000 0.000001 0.000000 0.000950 -0.000001 0.034636
#
#
# Mechanical properties :
#
#
# Convention : Reuss Voigt Hill
#
# Bulk Modulus (GPa) = 63.47522 66.24050 64.85786
# Shear Modulus (GPa) = 30.87172 33.55347 32.21259
#
# Velocity S-wave (km/s) = 3.87483 4.03962 3.95808
# Velocity P-wave (km/s) = 7.13371 7.34668 7.24098
#
# Compressibility (1/GPa) = 0.01575418
#
# Stress axis : x y z
#
# Youngs Moduli (GPa) = 75.67566 93.45472 83.18519
#
# Poissons Ratio (x) = 0.27858 0.38398
# Poissons Ratio (y) = 0.22558 0.20747
# Poissons Ratio (z) = 0.34931 0.23308
#
# Static dielectric constant tensor:
#      x y z
#    x 3.816610 0.000000 0.136040 
#    y 0.000000 3.727630 0.000000 
#    z 0.136040 0.000000 3.905250 
# 
# 
# High freq. dielectric constant tensor:
#      x y z
#    x 1.815750 0.000000 0.001910 
#    y 0.000000 1.807230 0.000000 
#    z 0.001910 0.000000 1.810520 
# 
# From -- ./inp_files/164951.got.cif
#   From: 2010.06.25/outbox.cif.g09.slc.cpg/sg15_83_cif.got.tgz:164951.got - 2010.06.28 07:06:18.
