data_PCOD8149962
_publ_section_title
;
Structure prediction by ZEFSAII (Michael W. Deem and Ramdas Pophale) SiO2 
 PCOD8149962
Probable space group: C 2/C
;
_chemical_formula_sum "Si O2"
_cell_formula_units_Z 64
_cell_length_a 16.344904
_cell_length_b 7.993570
_cell_length_c 30.394757
_cell_angle_alpha 90.000000
_cell_angle_beta 131.269316
_cell_angle_gamma 90.000000
_cell_volume 2984.823838
_symmetry_space_group_name_H-M "C 2/C"
_symmetry_group_IT_number 15
_symmetry_cell_setting 'monoclinic'
loop_
_space_group_symop_operation_xyz
x,y,z
-x,y,1/2-z
-x,-y,-z
x,-y,1/2+z
1/2+x,1/2+y,z
1/2-x,1/2+y,1/2-z
1/2-x,1/2-y,-z
1/2+x,1/2-y,1/2+z
loop_
_atom_site_type_symbol
_atom_site_label
_atom_site_fract_x
_atom_site_fract_y
_atom_site_fract_z
Si Si1 0.769065 0.913645 0.088632
Si Si2 0.570070 0.359454 0.079688
Si Si3 0.037246 0.465500 0.151482
Si Si4 0.928294 0.171150 0.267842
Si Si5 0.662022 0.412271 0.543483
Si Si6 0.309353 0.074006 0.523562
Si Si7 0.786643 0.573394 0.344761
Si Si8 0.511200 0.359222 0.154027
O O1 0.713801 0.745261 0.085388
O O2 0.882634 0.883507 0.105037
O O3 0.785589 0.007242 0.140498
O O4 0.689504 0.002380 0.025402
O O5 0.658317 0.453664 0.081181
O O6 0.611890 0.171647 0.098322
O O7 0.560829 0.430128 0.125985
O O8 0.455421 0.363061 0.015460
O O9 0.036361 0.326191 0.189143
O O10 0.150519 0.440745 0.164467
O O11 0.034946 0.659017 0.169308
O O12 0.933436 0.421280 0.084209
O O13 0.798814 0.187484 0.212603
O O14 0.000000 0.189215 0.250000
O O15 0.942747 0.982263 0.292181
O O16 0.739599 0.460588 0.531190
O O17 0.250000 0.250000 0.500000
#
# Coordination Sequence:
#
# PCOD8149962 Si02
#       8
#     8   8   8   8   8   8   8   8
#     4  12  22  42  72 100 139 177 231 285 349 425
#     4  10  24  43  66 100 144 177 225 282 350 420
#     4  11  28  47  72 107 139 188 237 288 354 417
#     4  12  28  49  72 100 138 186 243 298 347 409
#     4  11  23  39  69 105 138 184 222 278 353 425
#     4  12  24  41  73 103 146 184 229 286 355 427
#     4  11  27  47  68 103 141 183 236 298 349 412
#     4  11  23  48  71  99 138 186 236 286 349 418
#
# _framework density 21.441801000000002
#
# number of rings (size 3 to 8) (size 9 to 14) (size 15 to 20)
#    0.000    0.750    3.750    3.375    7.000    3.500 
#    2.250    0.000    0.000    0.000    0.000    0.000 
#    0.000    0.000    0.000    0.000    0.000    0.000 
#
# Total GULP energy -396602.878595 kJ/mol
# GULP energy per Si atom -12393.839956 kJ/mol
# Density = 2.139300 g / cm^3
# Si number density = 21.441801 Si / 1000 Ang^3
#
#
#
# Elastic Constant Matrix: (Units=GPa)
#
#
# Indices 1 2 3 4 5 6 
#
# 1 108.7642 26.9560 40.8555 0.0000 -4.1260 0.0000
# 2 26.9560 96.9939 42.3602 0.0000 -10.2697 0.0000
# 3 40.8555 42.3602 98.4154 0.0000 2.3563 0.0000
# 4 0.0000 0.0000 0.0000 37.5121 0.0000 -0.1265
# 5 -4.1260 -10.2697 2.3563 0.0000 35.7245 0.0000
# 6 0.0000 0.0000 0.0000 -0.1265 0.0000 32.3877
#
#
#
# Elastic Compliance Matrix: (Units=1/GPa)
#
#
# Indices 1 2 3 4 5 6 
#
# 1 0.011077 -0.001143 -0.004136 0.000000 0.001224 0.000000
# 2 -0.001143 0.013417 -0.005398 0.000000 0.004081 0.000000
# 3 -0.004136 -0.005398 0.014273 0.000000 -0.002971 0.000000
# 4 0.000000 0.000000 0.000000 0.026658 0.000000 0.000104
# 5 0.001224 0.004081 -0.002971 0.000000 0.029502 0.000000
# 6 0.000000 0.000000 0.000000 0.000104 0.000000 0.030876
#
#
# Mechanical properties :
#
#
# Convention : Reuss Voigt Hill
#
# Bulk Modulus (GPa) = 57.42799 58.27966 57.85382
# Shear Modulus (GPa) = 32.68753 34.05832 33.37292
#
# Velocity S-wave (km/s) = 3.90869 3.98981 3.94946
# Velocity P-wave (km/s) = 6.87109 6.96162 6.91650
#
# Compressibility (1/GPa) = 0.01741311
#
# Stress axis : x y z
#
# Youngs Moduli (GPa) = 90.27326 74.53083 70.06340
#
# Poissons Ratio (x) = 0.08516 0.28979
# Poissons Ratio (y) = 0.10315 0.37823
# Poissons Ratio (z) = 0.37338 0.40235
#
# Static dielectric constant tensor:
#      x y z
#    x 4.274720 0.000000 -0.085710 
#    y 0.000000 3.888540 0.000000 
#    z -0.085710 0.000000 3.902700 
# 
# 
# High freq. dielectric constant tensor:
#      x y z
#    x 1.861650 0.000000 0.002090 
#    y 0.000000 1.837990 0.000000 
#    z 0.002090 0.000000 1.841110 
# 
# From -- ./inp_files/313167.got.cif
#   From: 2010.06.25/outbox.cif.g09.slc.cpg/sg15_157_cif.got.tgz:313167.got - 2010.06.28 07:06:18.
