data_PCOD8149214
_publ_section_title
;
Structure prediction by ZEFSAII (Michael W. Deem and Ramdas Pophale) SiO2 
 PCOD8149214
Probable space group: C 2/C
;
_chemical_formula_sum "Si O2"
_cell_formula_units_Z 48
_cell_length_a 26.675550
_cell_length_b 8.621451
_cell_length_c 14.162736
_cell_angle_alpha 90.000000
_cell_angle_beta 141.487522
_cell_angle_gamma 90.000000
_cell_volume 2028.193341
_symmetry_space_group_name_H-M "C 2/C"
_symmetry_group_IT_number 15
_symmetry_cell_setting 'monoclinic'
loop_
_space_group_symop_operation_xyz
x,y,z
-x,y,1/2-z
-x,-y,-z
x,-y,1/2+z
1/2+x,1/2+y,z
1/2-x,1/2+y,1/2-z
1/2-x,1/2-y,-z
1/2+x,1/2-y,1/2+z
loop_
_atom_site_type_symbol
_atom_site_label
_atom_site_fract_x
_atom_site_fract_y
_atom_site_fract_z
Si Si1 0.135440 0.363846 0.305916
Si Si2 0.356446 0.771231 0.687392
Si Si3 0.486069 0.321794 0.999714
Si Si4 0.082242 0.288615 0.910594
Si Si5 0.248308 0.897817 0.326183
Si Si6 0.273405 0.236968 0.390583
O O1 0.135578 0.546952 0.324187
O O2 0.058172 0.281443 0.145529
O O3 0.212539 0.348882 0.353533
O O4 0.148485 0.286648 0.428329
O O5 0.380902 0.687463 0.623470
O O6 0.273657 0.697597 0.609090
O O7 0.424286 0.745429 0.865983
O O8 0.500000 0.500000 0.000000
O O9 0.439369 0.314152 0.030782
O O10 0.000000 0.372861 0.750000
O O11 0.154978 0.401880 0.049457
O O12 0.201424 0.816280 0.170810
O O13 0.223364 0.076835 0.298386
#
# Coordination Sequence:
#
# PCOD8149214 Si02
#       6
#     8   8   8   8   8   8
#     4  11  23  46  68 105 141 188 244 296 355 428
#     4  11  24  42  76 103 140 193 237 296 362 426
#     4  11  24  48  71 104 148 190 237 300 358 425
#     4  10  23  44  71 100 140 186 236 293 357 425
#     4  12  23  46  69 107 141 190 236 298 364 424
#     4  11  25  42  70 101 145 185 237 297 352 425
#
# _framework density 23.666384000000001
#
# number of rings (size 3 to 8) (size 9 to 14) (size 15 to 20)
#    0.000    1.000    3.333    3.000    0.000    0.000 
#    9.000    0.833    0.000    0.000    0.000    0.000 
#    0.000    0.000    0.000    0.000    0.000    0.000 
#
# Total GULP energy -297341.692991 kJ/mol
# GULP energy per Si atom -12389.237208 kJ/mol
# Density = 2.361252 g / cm^3
# Si number density = 23.666384 Si / 1000 Ang^3
#
#
#
# Elastic Constant Matrix: (Units=GPa)
#
#
# Indices 1 2 3 4 5 6 
#
# 1 121.2239 30.4471 26.5586 0.0000 -14.6414 0.0000
# 2 30.4471 77.7375 18.6452 0.0000 -7.7809 0.0000
# 3 26.5586 18.6452 86.4910 0.0000 -12.1040 0.0000
# 4 0.0000 0.0000 0.0000 29.1426 0.0000 -1.0306
# 5 -14.6414 -7.7809 -12.1040 0.0000 50.3390 0.0000
# 6 0.0000 0.0000 0.0000 -1.0306 0.0000 28.8729
#
#
#
# Elastic Compliance Matrix: (Units=1/GPa)
#
#
# Indices 1 2 3 4 5 6 
#
# 1 0.009706 -0.003125 -0.002048 0.000000 0.001847 0.000000
# 2 -0.003125 0.014673 -0.002083 0.000000 0.000858 0.000000
# 3 -0.002048 -0.002083 0.012947 0.000000 0.002195 0.000000
# 4 0.000000 0.000000 0.000000 0.034357 0.000000 0.001226
# 5 0.001847 0.000858 0.002195 0.000000 0.021063 0.000000
# 6 0.000000 0.000000 0.000000 0.001226 0.000000 0.034678
#
#
# Mechanical properties :
#
#
# Convention : Reuss Voigt Hill
#
# Bulk Modulus (GPa) = 43.83491 48.52825 46.18158
# Shear Modulus (GPa) = 33.43505 35.65768 34.54637
#
# Velocity S-wave (km/s) = 3.76276 3.88581 3.82478
# Velocity P-wave (km/s) = 6.11882 6.37827 6.24989
#
# Compressibility (1/GPa) = 0.02281287
#
# Stress axis : x y z
#
# Youngs Moduli (GPa) = 103.02873 68.15008 77.23694
#
# Poissons Ratio (x) = 0.21299 0.15819
# Poissons Ratio (y) = 0.32200 0.16092
# Poissons Ratio (z) = 0.21101 0.14199
#
# Static dielectric constant tensor:
#      x y z
#    x 4.345130 0.000000 -0.066610 
#    y 0.000000 3.852650 0.000000 
#    z -0.066610 0.000000 4.435290 
# 
# 
# High freq. dielectric constant tensor:
#      x y z
#    x 1.942590 0.000000 -0.013550 
#    y 0.000000 1.907070 0.000000 
#    z -0.013550 0.000000 1.966340 
# 
# From -- ./inp_files/176958.got.cif
#   From: 2010.06.25/outbox.cif.g09.slc.cpg/sg15_89_cif.got.tgz:176958.got - 2010.06.28 07:06:18.
