data_PCOD8149785
_publ_section_title
;
Structure prediction by ZEFSAII (Michael W. Deem and Ramdas Pophale) SiO2 
 PCOD8149785
Probable space group: C 2/C
;
_chemical_formula_sum "Si O2"
_cell_formula_units_Z 40
_cell_length_a 16.179199
_cell_length_b 11.828579
_cell_length_c 10.821947
_cell_angle_alpha 90.000000
_cell_angle_beta 79.563107
_cell_angle_gamma 90.000000
_cell_volume 2036.805223
_symmetry_space_group_name_H-M "C 2/C"
_symmetry_group_IT_number 15
_symmetry_cell_setting 'monoclinic'
loop_
_space_group_symop_operation_xyz
x,y,z
-x,y,1/2-z
-x,-y,-z
x,-y,1/2+z
1/2+x,1/2+y,z
1/2-x,1/2+y,1/2-z
1/2-x,1/2-y,-z
1/2+x,1/2-y,1/2+z
loop_
_atom_site_type_symbol
_atom_site_label
_atom_site_fract_x
_atom_site_fract_y
_atom_site_fract_z
Si Si1 0.306291 0.159459 0.916072
Si Si2 0.336313 0.216179 0.626907
Si Si3 0.953322 0.025466 0.384910
Si Si4 0.479156 0.785408 0.387489
Si Si5 0.279710 0.432051 0.503870
O O1 0.325868 0.206639 0.775279
O O2 0.397204 0.148126 0.963386
O O3 0.260779 0.039525 0.917724
O O4 0.250000 0.250000 0.000000
O O5 0.434830 0.208982 0.556053
O O6 0.300614 0.339025 0.601304
O O7 0.286669 0.115953 0.575346
O O8 0.862459 0.967729 0.407271
O O9 0.000000 0.976729 0.250000
O O10 0.945089 0.158970 0.375856
O O11 0.000000 0.000000 0.500000
O O12 0.500000 0.841318 0.250000
#
# Coordination Sequence:
#
# PCOD8149785 Si02
#       5
#     8   8   8   8   8
#     4  11  23  36  66  92 118 163 210 247 310 378
#     4  10  24  42  61  88 130 156 207 259 312 359
#     4  11  22  36  65  92 125 162 210 260 310 363
#     4   9  19  38  57  87 120 161 201 252 306 369
#     4  11  24  40  64  92 124 165 200 265 308 364
#
# _framework density 19.638597000000001
#
# number of rings (size 3 to 8) (size 9 to 14) (size 15 to 20)
#    0.000    1.600    4.000    0.000    5.600    0.800 
#    0.000    0.000    0.000    0.000    0.000    0.000 
#    0.000    0.000    0.000    0.000    0.000    0.000 
#
# Total GULP energy -247876.474230 kJ/mol
# GULP energy per Si atom -12393.823712 kJ/mol
# Density = 1.959390 g / cm^3
# Si number density = 19.638597 Si / 1000 Ang^3
#
#
#
# Elastic Constant Matrix: (Units=GPa)
#
#
# Indices 1 2 3 4 5 6 
#
# 1 181.5345 59.5739 54.9902 0.0000 -17.7248 0.0000
# 2 59.5739 91.1664 32.0123 0.0000 -12.6978 0.0000
# 3 54.9902 32.0123 95.6970 0.0000 -10.5415 0.0000
# 4 0.0000 0.0000 0.0000 17.4427 0.0000 -5.5067
# 5 -17.7248 -12.6978 -10.5415 0.0000 32.5817 0.0000
# 6 0.0000 0.0000 0.0000 -5.5067 0.0000 39.0487
#
#
#
# Elastic Compliance Matrix: (Units=1/GPa)
#
#
# Indices 1 2 3 4 5 6 
#
# 1 0.007858 -0.003816 -0.003040 0.000000 0.001804 0.000000
# 2 -0.003816 0.014710 -0.002411 0.000000 0.002877 0.000000
# 3 -0.003040 -0.002411 0.013187 0.000000 0.001673 0.000000
# 4 0.000000 0.000000 0.000000 0.060002 0.000000 0.008461
# 5 0.001804 0.002877 0.001673 0.000000 0.033336 0.000000
# 6 0.000000 0.000000 0.000000 0.008461 0.000000 0.026802
#
#
# Mechanical properties :
#
#
# Convention : Reuss Voigt Hill
#
# Bulk Modulus (GPa) = 58.06920 73.50563 65.78742
# Shear Modulus (GPa) = 27.75156 32.60272 30.17714
#
# Velocity S-wave (km/s) = 3.76322 4.07890 3.92423
# Velocity P-wave (km/s) = 6.96531 7.72616 7.35558
#
# Compressibility (1/GPa) = 0.01722083
#
# Stress axis : x y z
#
# Youngs Moduli (GPa) = 127.25924 67.98133 75.82979
#
# Poissons Ratio (x) = 0.25942 0.23053
# Poissons Ratio (y) = 0.48564 0.18283
# Poissons Ratio (z) = 0.38689 0.16390
#
# Static dielectric constant tensor:
#      x y z
#    x 4.221750 0.000000 -0.178530 
#    y 0.000000 3.590360 0.000000 
#    z -0.178530 0.000000 3.624340 
# 
# 
# High freq. dielectric constant tensor:
#      x y z
#    x 1.794450 0.000000 -0.011600 
#    y 0.000000 1.756130 0.000000 
#    z -0.011600 0.000000 1.744250 
# 
# From -- ./inp_files/94484.got.cif
#   From: 2010.06.25/outbox.cif.g09.slc.cpg/sg15_48_cif.got.tgz:94484.got - 2010.06.28 07:06:18.
