data_PCOD8149963
_publ_section_title
;
Structure prediction by ZEFSAII (Michael W. Deem and Ramdas Pophale) SiO2 
 PCOD8149963
Probable space group: C 2/C
;
_chemical_formula_sum "Si O2"
_cell_formula_units_Z 60
_cell_length_a 26.614079
_cell_length_b 17.995256
_cell_length_c 11.105566
_cell_angle_alpha 90.000000
_cell_angle_beta 149.832516
_cell_angle_gamma 90.000000
_cell_volume 2672.831777
_symmetry_space_group_name_H-M "C 2/C"
_symmetry_group_IT_number 15
_symmetry_cell_setting 'monoclinic'
loop_
_space_group_symop_operation_xyz
x,y,z
-x,y,1/2-z
-x,-y,-z
x,-y,1/2+z
1/2+x,1/2+y,z
1/2-x,1/2+y,1/2-z
1/2-x,1/2-y,-z
1/2+x,1/2-y,1/2+z
loop_
_atom_site_type_symbol
_atom_site_label
_atom_site_fract_x
_atom_site_fract_y
_atom_site_fract_z
Si Si1 0.593816 0.235237 0.136659
Si Si2 0.000000 0.029633 0.250000
Si Si3 0.214738 0.785155 0.613893
Si Si4 0.346676 0.043883 0.699147
Si Si5 0.341124 0.420849 0.841700
Si Si6 0.274218 0.811605 0.151117
Si Si7 0.936897 0.859028 0.810086
Si Si8 0.535615 0.078618 0.954808
O O1 0.670777 0.232522 0.184159
O O2 0.643827 0.276978 0.352852
O O3 0.494970 0.282398 0.906624
O O4 0.561599 0.150039 0.091717
O O5 0.997498 0.076695 0.367641
O O6 0.099941 0.981005 0.459146
O O7 0.209268 0.865775 0.665556
O O8 0.176176 0.725497 0.630596
O O9 0.242111 0.036531 0.410920
O O10 0.351336 0.125836 0.767481
O O11 0.438670 0.034828 0.799662
O O12 0.367141 0.977339 0.838994
O O13 0.419560 0.378044 0.915717
O O14 0.250000 0.750000 0.000000
O O15 0.170959 0.850863 0.975635
O O16 0.500000 0.105692 0.750000
#
# Coordination Sequence:
#
# PCOD8149963 Si02
#       8
#     8   4   8   8   8   8   8   8
#     4  11  26  42  67 100 139 178 237 291 347 418
#     4  12  26  42  70 102 140 182 236 296 356 428
#     4  11  24  43  67 101 134 181 230 289 353 413
#     4  10  24  43  66 101 134 180 236 275 355 420
#     4  11  24  45  71 100 145 185 232 297 365 427
#     4  11  21  42  71  98 130 180 230 282 341 419
#     4  11  24  42  68 100 133 182 232 285 350 421
#     4  11  25  42  67  98 143 186 228 293 351 413
#
# _framework density 22.448103
#
# number of rings (size 3 to 8) (size 9 to 14) (size 15 to 20)
#    0.000    1.067    2.667    3.600    2.800    9.600 
#    0.000    0.000    0.000    0.000    0.000    0.000 
#    0.000    0.000    0.000    0.000    0.000    0.000 
#
# Total GULP energy -371902.554476 kJ/mol
# GULP energy per Si atom -12396.751816 kJ/mol
# Density = 2.239701 g / cm^3
# Si number density = 22.448103 Si / 1000 Ang^3
#
#
#
# Elastic Constant Matrix: (Units=GPa)
#
#
# Indices 1 2 3 4 5 6 
#
# 1 92.8944 32.2128 25.8094 0.0000 -2.1952 0.0000
# 2 32.2128 132.7246 47.1460 0.0000 -3.2298 0.0000
# 3 25.8094 47.1460 88.4078 0.0000 2.0463 0.0000
# 4 0.0000 0.0000 0.0000 48.3692 0.0000 5.8850
# 5 -2.1952 -3.2298 2.0463 0.0000 30.3960 0.0000
# 6 0.0000 0.0000 0.0000 5.8850 0.0000 33.1865
#
#
#
# Elastic Compliance Matrix: (Units=1/GPa)
#
#
# Indices 1 2 3 4 5 6 
#
# 1 0.012187 -0.002057 -0.002480 0.000000 0.000829 0.000000
# 2 -0.002057 0.009696 -0.004598 0.000000 0.001191 0.000000
# 3 -0.002480 -0.004598 0.014525 0.000000 -0.001646 0.000000
# 4 0.000000 0.000000 0.000000 0.021130 0.000000 -0.003747
# 5 0.000829 0.001191 -0.001646 0.000000 0.033196 0.000000
# 6 0.000000 0.000000 0.000000 -0.003747 0.000000 0.030797
#
#
# Mechanical properties :
#
#
# Convention : Reuss Voigt Hill
#
# Bulk Modulus (GPa) = 55.13072 58.26258 56.69665
# Shear Modulus (GPa) = 34.28262 36.31425 35.29844
#
# Velocity S-wave (km/s) = 3.91217 4.02643 3.96971
# Velocity P-wave (km/s) = 6.70964 6.90122 6.80610
#
# Compressibility (1/GPa) = 0.01813871
#
# Stress axis : x y z
#
# Youngs Moduli (GPa) = 82.05635 103.13841 68.84582
#
# Poissons Ratio (x) = 0.21212 0.17075
# Poissons Ratio (y) = 0.16876 0.31653
# Poissons Ratio (z) = 0.20351 0.47420
#
# Static dielectric constant tensor:
#      x y z
#    x 4.072540 0.000000 0.106780 
#    y 0.000000 4.138330 0.000000 
#    z 0.106780 0.000000 4.006230 
# 
# 
# High freq. dielectric constant tensor:
#      x y z
#    x 1.884560 0.000000 0.008270 
#    y 0.000000 1.889290 0.000000 
#    z 0.008270 0.000000 1.880670 
# 
# From -- ./inp_files/124011.got.cif
#   From: 2010.06.25/outbox.cif.g09.slc.cpg/sg15_63_cif.got.tgz:124011.got - 2010.06.28 07:06:18.
