data_PCOD8149778
_publ_section_title
;
Structure prediction by ZEFSAII (Michael W. Deem and Ramdas Pophale) SiO2 
 PCOD8149778
Probable space group: C 2/C
;
_chemical_formula_sum "Si O2"
_cell_formula_units_Z 60
_cell_length_a 26.148688
_cell_length_b 13.677410
_cell_length_c 9.409350
_cell_angle_alpha 90.000000
_cell_angle_beta 56.811404
_cell_angle_gamma 90.000000
_cell_volume 2816.262259
_symmetry_space_group_name_H-M "C 2/C"
_symmetry_group_IT_number 15
_symmetry_cell_setting 'monoclinic'
loop_
_space_group_symop_operation_xyz
x,y,z
-x,y,1/2-z
-x,-y,-z
x,-y,1/2+z
1/2+x,1/2+y,z
1/2-x,1/2+y,1/2-z
1/2-x,1/2-y,-z
1/2+x,1/2-y,1/2+z
loop_
_atom_site_type_symbol
_atom_site_label
_atom_site_fract_x
_atom_site_fract_y
_atom_site_fract_z
Si Si1 0.515971 0.366348 0.977891
Si Si2 0.189153 0.416084 0.121088
Si Si3 0.172340 0.080677 0.037631
Si Si4 0.133253 0.223205 0.319577
Si Si5 0.812051 0.138783 0.001624
Si Si6 0.178332 0.402684 0.808173
Si Si7 0.500000 0.495696 0.750000
Si Si8 0.379106 0.297077 0.134519
O O1 0.534706 0.434837 0.084274
O O2 0.446139 0.329685 0.087220
O O3 0.559463 0.272377 0.925896
O O4 0.537125 0.423378 0.800344
O O5 0.155526 0.314767 0.197088
O O6 0.153950 0.504494 0.254710
O O7 0.255232 0.407039 0.093069
O O8 0.192523 0.435926 0.947753
O O9 0.156990 0.120217 0.218099
O O10 0.133489 0.146321 0.990386
O O11 0.155385 0.967583 0.038409
O O12 0.157208 0.220079 0.443817
O O13 0.740000 0.135621 0.139333
O O14 0.824984 0.175232 0.823831
O O15 0.125793 0.319542 0.884876
#
# Coordination Sequence:
#
# PCOD8149778 Si02
#       8
#     8   8   8   8   8   8   4   8
#     4  11  26  40  64  94 129 174 210 250 312 380
#     4  11  25  45  67  92 125 166 218 271 321 371
#     4  11  23  40  64  96 130 168 208 261 317 390
#     4  12  23  42  67  91 132 171 214 257 318 375
#     4  11  25  37  67 100 129 170 206 262 321 387
#     4  11  25  46  65  94 124 167 218 272 319 370
#     4  10  24  42  60  88 138 166 212 248 300 372
#     4  12  25  41  65  95 136 167 216 259 313 378
#
# _framework density 21.304832999999999
#
# number of rings (size 3 to 8) (size 9 to 14) (size 15 to 20)
#    0.000    0.800    2.667    4.000   18.667    0.000 
#    0.000    0.667    0.000    0.000    0.000    0.000 
#    0.000    0.000    0.000    0.000    0.000    0.000 
#
# Total GULP energy -371881.998108 kJ/mol
# GULP energy per Si atom -12396.066604 kJ/mol
# Density = 2.125634 g / cm^3
# Si number density = 21.304833 Si / 1000 Ang^3
#
#
#
# Elastic Constant Matrix: (Units=GPa)
#
#
# Indices 1 2 3 4 5 6 
#
# 1 70.2623 27.8616 22.6200 0.0000 -0.5207 0.0000
# 2 27.8616 82.9577 26.2670 0.0000 0.1018 0.0000
# 3 22.6200 26.2670 92.8575 0.0000 18.5323 0.0000
# 4 0.0000 0.0000 0.0000 35.9649 0.0000 4.7454
# 5 -0.5207 0.1018 18.5323 0.0000 19.5289 0.0000
# 6 0.0000 0.0000 0.0000 4.7454 0.0000 17.9739
#
#
#
# Elastic Compliance Matrix: (Units=1/GPa)
#
#
# Indices 1 2 3 4 5 6 
#
# 1 0.017293 -0.004642 -0.003696 0.000000 0.003993 0.000000
# 2 -0.004642 0.014786 -0.003715 0.000000 0.003325 0.000000
# 3 -0.003696 -0.003715 0.015712 0.000000 -0.014989 0.000000
# 4 0.000000 0.000000 0.000000 0.028808 0.000000 -0.007606
# 5 0.003993 0.003325 -0.014989 0.000000 0.065520 0.000000
# 6 0.000000 0.000000 0.000000 -0.007606 0.000000 0.057644
#
#
# Mechanical properties :
#
#
# Convention : Reuss Voigt Hill
#
# Bulk Modulus (GPa) = 42.22417 44.39718 43.31068
# Shear Modulus (GPa) = 21.57357 25.98213 23.77785
#
# Velocity S-wave (km/s) = 3.18561 3.49598 3.34440
# Velocity P-wave (km/s) = 5.77866 6.09755 5.94025
#
# Compressibility (1/GPa) = 0.02368312
#
# Stress axis : x y z
#
# Youngs Moduli (GPa) = 57.82759 67.63264 63.64548
#
# Poissons Ratio (x) = 0.31398 0.23524
# Poissons Ratio (y) = 0.26846 0.23645
# Poissons Ratio (z) = 0.21374 0.25127
#
# Static dielectric constant tensor:
#      x y z
#    x 3.620250 0.000000 0.150730 
#    y 0.000000 3.894420 0.000000 
#    z 0.150730 0.000000 3.925310 
# 
# 
# High freq. dielectric constant tensor:
#      x y z
#    x 1.820650 0.000000 0.016240 
#    y 0.000000 1.824230 0.000000 
#    z 0.016240 0.000000 1.849330 
# 
# From -- ./inp_files/61876.got.cif
#   From: 2010.06.25/outbox.cif.g09.slc.cpg/sg15_31_cif.got.tgz:61876.got - 2010.06.28 07:06:18.
