data_PCOD8149900
_publ_section_title
;
Structure prediction by ZEFSAII (Michael W. Deem and Ramdas Pophale) SiO2 
 PCOD8149900
Probable space group: C 2/C
;
_chemical_formula_sum "Si O2"
_cell_formula_units_Z 40
_cell_length_a 22.009849
_cell_length_b 8.861694
_cell_length_c 27.780618
_cell_angle_alpha 90.000000
_cell_angle_beta 19.933160
_cell_angle_gamma 90.000000
_cell_volume 1847.280690
_symmetry_space_group_name_H-M "C 2/C"
_symmetry_group_IT_number 15
_symmetry_cell_setting 'monoclinic'
loop_
_space_group_symop_operation_xyz
x,y,z
-x,y,1/2-z
-x,-y,-z
x,-y,1/2+z
1/2+x,1/2+y,z
1/2-x,1/2+y,1/2-z
1/2-x,1/2-y,-z
1/2+x,1/2-y,1/2+z
loop_
_atom_site_type_symbol
_atom_site_label
_atom_site_fract_x
_atom_site_fract_y
_atom_site_fract_z
Si Si1 0.329560 0.880596 0.407636
Si Si2 0.643173 0.371333 0.884427
Si Si3 0.463986 0.637754 0.141915
Si Si4 0.011082 0.527832 0.623194
Si Si5 0.341501 0.055179 0.585496
O O1 0.500000 0.826918 0.250000
O O2 0.250000 0.750000 0.500000
O O3 0.390279 0.015025 0.399594
O O4 0.167237 0.928973 0.492756
O O5 0.599139 0.314184 0.864086
O O6 0.842368 0.429100 0.737359
O O7 0.642137 0.236874 0.924204
O O8 0.500000 0.500000 0.000000
O O9 0.450732 0.798898 0.178096
O O10 0.341912 0.509125 0.256402
O O11 0.147080 0.505502 0.477544
O O12 0.500000 0.000000 0.500000
#
# Coordination Sequence:
#
# PCOD8149900 Si02
#       5
#     8   8   8   8   8
#     4  10  24  42  70 104 141 187 239 287 351 424
#     4  12  24  40  69  97 139 183 234 292 357 413
#     4  11  23  41  71  98 141 179 234 289 348 420
#     4  11  25  43  68  99 141 180 236 294 349 423
#     4  12  24  41  67 106 138 182 238 288 361 425
#
# _framework density 21.653448999999998
#
# number of rings (size 3 to 8) (size 9 to 14) (size 15 to 20)
#    0.000    0.800    4.000    2.400   14.000    0.000 
#    0.000    1.000    4.400    0.000    0.000    0.000 
#    0.000    0.000    0.000    0.000    0.000    0.000 
#
# Total GULP energy -247834.363705 kJ/mol
# GULP energy per Si atom -12391.718185 kJ/mol
# Density = 2.160416 g / cm^3
# Si number density = 21.653449 Si / 1000 Ang^3
#
#
#
# Elastic Constant Matrix: (Units=GPa)
#
#
# Indices 1 2 3 4 5 6 
#
# 1 132.7715 17.9182 48.4637 0.0518 -15.8026 0.0181
# 2 17.9182 99.4885 36.0374 0.0455 0.0096 0.0447
# 3 48.4637 36.0374 150.6969 0.2738 -10.6593 0.0796
# 4 0.0518 0.0455 0.2738 33.7401 0.0762 6.2466
# 5 -15.8026 0.0096 -10.6593 0.0762 48.4451 -0.0254
# 6 0.0181 0.0447 0.0796 6.2466 -0.0254 18.7777
#
#
#
# Elastic Compliance Matrix: (Units=1/GPa)
#
#
# Indices 1 2 3 4 5 6 
#
# 1 0.008816 -0.000679 -0.002508 0.000001 0.002324 0.000006
# 2 -0.000679 0.011074 -0.002484 0.000012 -0.000770 -0.000020
# 3 -0.002508 -0.002484 0.008105 -0.000060 0.000966 -0.000005
# 4 0.000001 0.000012 -0.000060 0.031584 -0.000068 -0.010507
# 5 0.002324 -0.000770 0.000966 -0.000068 0.021613 0.000047
# 6 0.000006 -0.000020 -0.000005 -0.010507 0.000047 0.056750
#
#
# Mechanical properties :
#
#
# Convention : Reuss Voigt Hill
#
# Bulk Modulus (GPa) = 60.05772 65.31061 62.68416
# Shear Modulus (GPa) = 32.29247 38.89507 35.59377
#
# Velocity S-wave (km/s) = 3.86597 4.24282 4.05877
# Velocity P-wave (km/s) = 6.90823 7.36405 7.13978
#
# Compressibility (1/GPa) = 0.01665065
#
# Stress axis : x y z
#
# Youngs Moduli (GPa) = 113.43593 90.30419 123.38135
#
# Poissons Ratio (x) = 0.06135 0.30947
# Poissons Ratio (y) = 0.07707 0.30650
# Poissons Ratio (z) = 0.28452 0.22433
#
# Static dielectric constant tensor:
#      x y z
#    x 5.553450 -0.002070 -0.872950 
#    y -0.002070 -1.063400 0.007960 
#    z -0.872950 0.007960 4.834990 
# 
# 
# High freq. dielectric constant tensor:
#      x y z
#    x 1.871070 0.000000 -0.009550 
#    y 0.000000 1.819810 0.000010 
#    z -0.009550 0.000010 1.860200 
# 
# From -- ./inp_files/318448.got.cif
#   From: 2010.06.25/outbox.cif.g09.slc.cpg/sg15_160_cif.got.tgz:318448.got - 2010.06.28 07:06:18.
