data_PCOD8149132
_publ_section_title
;
Structure prediction by ZEFSAII (Michael W. Deem and Ramdas Pophale) SiO2 
 PCOD8149132
Probable space group: C 2/C
;
_chemical_formula_sum "Si O2"
_cell_formula_units_Z 40
_cell_length_a 18.575413
_cell_length_b 12.618004
_cell_length_c 9.500673
_cell_angle_alpha 90.000000
_cell_angle_beta 67.600410
_cell_angle_gamma 90.000000
_cell_volume 2058.796070
_symmetry_space_group_name_H-M "C 2/C"
_symmetry_group_IT_number 15
_symmetry_cell_setting 'monoclinic'
loop_
_space_group_symop_operation_xyz
x,y,z
-x,y,1/2-z
-x,-y,-z
x,-y,1/2+z
1/2+x,1/2+y,z
1/2-x,1/2+y,1/2-z
1/2-x,1/2-y,-z
1/2+x,1/2-y,1/2+z
loop_
_atom_site_type_symbol
_atom_site_label
_atom_site_fract_x
_atom_site_fract_y
_atom_site_fract_z
Si Si1 0.813397 0.574202 0.907415
Si Si2 0.048660 0.057681 0.348124
Si Si3 0.718794 0.431526 0.760448
Si Si4 0.049657 0.559923 0.082337
Si Si5 0.872201 0.738947 0.653999
O O1 0.769808 0.500709 0.826735
O O2 0.894747 0.525075 0.889846
O O3 0.836180 0.684771 0.819267
O O4 0.762351 0.592782 0.082694
O O5 0.137057 0.010063 0.280414
O O6 0.053756 0.186136 0.362241
O O7 0.000000 0.027094 0.250000
O O8 0.000000 0.000000 0.500000
O O9 0.696541 0.318273 0.850821
O O10 0.000000 0.606348 0.250000
O O11 0.101459 0.654629 0.981300
O O12 0.000000 0.500000 0.000000
#
# Coordination Sequence:
#
# PCOD8149132 Si02
#       5
#     8   8   8   8   8
#     4  12  21  46  63  98 132 171 219 275 323 393
#     4  10  23  44  67  97 131 170 218 268 324 398
#     4  10  24  40  69  92 132 170 216 270 325 392
#     4  12  24  42  67  94 135 171 220 276 324 396
#     4  10  25  40  70  96 128 176 222 261 347 373
#
# _framework density 19.428830000000001
#
# number of rings (size 3 to 8) (size 9 to 14) (size 15 to 20)
#    1.200    0.000    4.000    1.800    2.800    1.600 
#    0.000    0.000    0.000    0.000    0.000    0.000 
#    0.000    0.000    0.000    0.000    0.000    0.000 
#
# Total GULP energy -247769.331628 kJ/mol
# GULP energy per Si atom -12388.466581 kJ/mol
# Density = 1.938461 g / cm^3
# Si number density = 19.428830 Si / 1000 Ang^3
#
#
#
# Elastic Constant Matrix: (Units=GPa)
#
#
# Indices 1 2 3 4 5 6 
#
# 1 98.8203 35.7979 8.8585 0.0000 13.5128 0.0000
# 2 35.7979 101.8775 37.3518 0.0000 1.1601 0.0000
# 3 8.8585 37.3518 87.1714 0.0000 -8.2504 0.0000
# 4 0.0000 0.0000 0.0000 36.0713 0.0000 -14.6871
# 5 13.5128 1.1601 -8.2504 0.0000 43.4535 0.0000
# 6 0.0000 0.0000 0.0000 -14.6871 0.0000 39.4772
#
#
#
# Elastic Compliance Matrix: (Units=1/GPa)
#
#
# Indices 1 2 3 4 5 6 
#
# 1 0.012158 -0.004333 0.000279 0.000000 -0.003612 0.000000
# 2 -0.004333 0.013260 -0.005242 0.000000 -0.000002 0.000000
# 3 0.000279 -0.005242 0.013945 0.000000 0.002701 0.000000
# 4 0.000000 0.000000 0.000000 0.032672 0.000000 0.012155
# 5 -0.003612 -0.000002 0.002701 0.000000 0.024649 0.000000
# 6 0.000000 0.000000 0.000000 0.012155 0.000000 0.029853
#
#
# Mechanical properties :
#
#
# Convention : Reuss Voigt Hill
#
# Bulk Modulus (GPa) = 48.14207 50.20949 49.17578
# Shear Modulus (GPa) = 32.88330 37.52448 35.20389
#
# Velocity S-wave (km/s) = 4.11846 4.39952 4.26131
# Velocity P-wave (km/s) = 6.88826 7.19073 7.04112
#
# Compressibility (1/GPa) = 0.02077185
#
# Stress axis : x y z
#
# Youngs Moduli (GPa) = 82.25006 75.41381 71.71125
#
# Poissons Ratio (x) = 0.32680 -0.02004
# Poissons Ratio (y) = 0.35643 0.37588
# Poissons Ratio (z) = -0.02298 0.39529
#
# Static dielectric constant tensor:
#      x y z
#    x 3.628140 0.000000 -0.132310 
#    y 0.000000 3.451040 0.000000 
#    z -0.132310 0.000000 3.586640 
# 
# 
# High freq. dielectric constant tensor:
#      x y z
#    x 1.763410 0.000000 -0.013500 
#    y 0.000000 1.748220 0.000000 
#    z -0.013500 0.000000 1.767810 
# 
# From -- ./inp_files/46661.got.cif
#   From: 2010.06.25/outbox.cif.g09.slc.cpg/sg15_24_cif.got.tgz:46661.got - 2010.06.28 07:06:18.
