data_PCOD8149242
_publ_section_title
;
Structure prediction by ZEFSAII (Michael W. Deem and Ramdas Pophale) SiO2 
 PCOD8149242
Probable space group: C 2/C
;
_chemical_formula_sum "Si O2"
_cell_formula_units_Z 56
_cell_length_a 5.499769
_cell_length_b 22.560563
_cell_length_c 20.263309
_cell_angle_alpha 90.000000
_cell_angle_beta 114.648146
_cell_angle_gamma 90.000000
_cell_volume 2285.147068
_symmetry_space_group_name_H-M "C 2/C"
_symmetry_group_IT_number 15
_symmetry_cell_setting 'monoclinic'
loop_
_space_group_symop_operation_xyz
x,y,z
-x,y,1/2-z
-x,-y,-z
x,-y,1/2+z
1/2+x,1/2+y,z
1/2-x,1/2+y,1/2-z
1/2-x,1/2-y,-z
1/2+x,1/2-y,1/2+z
loop_
_atom_site_type_symbol
_atom_site_label
_atom_site_fract_x
_atom_site_fract_y
_atom_site_fract_z
Si Si1 0.635916 0.462571 0.440675
Si Si2 0.504665 0.788095 0.042859
Si Si3 0.205951 0.462804 0.184677
Si Si4 0.796897 0.628953 0.630208
Si Si5 0.400213 0.815045 0.592412
Si Si6 0.185516 0.231415 0.705721
Si Si7 0.199557 0.446951 0.900951
O O1 0.779940 0.444746 0.390190
O O2 0.406069 0.414294 0.431071
O O3 0.842234 0.462892 0.525640
O O4 0.487703 0.526265 0.412966
O O5 0.459311 0.834069 0.095111
O O6 0.719496 0.741002 0.092415
O O7 0.250000 0.750000 0.000000
O O8 0.586412 0.822357 0.984991
O O9 0.500000 0.467620 0.250000
O O10 0.019397 0.411074 0.195033
O O11 0.043650 0.525155 0.169944
O O12 0.616739 0.671164 0.656873
O O13 0.666391 0.792422 0.660163
O O14 0.297830 0.876590 0.611492
O O15 0.500000 0.223946 0.750000
O O16 0.000000 0.233175 0.750000
#
# Coordination Sequence:
#
# PCOD8149242 Si02
#       7
#     8   8   8   8   8   8   8
#     4  10  23  44  72 104 137 183 246 311 370 444
#     4  11  22  41  70 108 141 184 249 307 377 438
#     4  11  26  44  71 103 140 190 245 304 375 442
#     4  11  25  42  72 105 140 183 241 315 372 437
#     4  11  25  43  69 103 147 195 243 309 371 453
#     4  12  29  48  70 109 156 202 248 296 377 456
#     4  10  23  45  69 103 139 189 244 307 373 437
#
# _framework density 24.506083
#
# number of rings (size 3 to 8) (size 9 to 14) (size 15 to 20)
#    0.000    1.143    1.429    3.000    8.000    5.714 
#    2.571    0.000    0.000    0.000    0.000    0.000 
#    0.000    0.000    0.000    0.000    0.000    0.000 
#
# Total GULP energy -347039.279471 kJ/mol
# GULP energy per Si atom -12394.259981 kJ/mol
# Density = 2.445031 g / cm^3
# Si number density = 24.506083 Si / 1000 Ang^3
#
#
#
# Elastic Constant Matrix: (Units=GPa)
#
#
# Indices 1 2 3 4 5 6 
#
# 1 65.9387 37.8809 16.1258 0.0000 -8.7618 0.0000
# 2 37.8809 179.1105 37.3662 0.0000 1.9086 0.0000
# 3 16.1258 37.3662 88.2205 0.0000 -0.3811 0.0000
# 4 0.0000 0.0000 0.0000 17.5839 0.0000 -1.4889
# 5 -8.7618 1.9086 -0.3811 0.0000 43.5384 0.0000
# 6 0.0000 0.0000 0.0000 -1.4889 0.0000 35.9980
#
#
#
# Elastic Compliance Matrix: (Units=1/GPa)
#
#
# Indices 1 2 3 4 5 6 
#
# 1 0.018120 -0.003494 -0.001816 0.000000 0.003784 0.000000
# 2 -0.003494 0.006802 -0.002247 0.000000 -0.001021 0.000000
# 3 -0.001816 -0.002247 0.012618 0.000000 -0.000157 0.000000
# 4 0.000000 0.000000 0.000000 0.057070 0.000000 0.002360
# 5 0.003784 -0.001021 -0.000157 0.000000 0.023773 0.000000
# 6 0.000000 0.000000 0.000000 0.002360 0.000000 0.027877
#
#
# Mechanical properties :
#
#
# Convention : Reuss Voigt Hill
#
# Bulk Modulus (GPa) = 44.58975 57.33505 50.96240
# Shear Modulus (GPa) = 29.61254 35.55050 32.58152
#
# Velocity S-wave (km/s) = 3.47994 3.81291 3.65022
# Velocity P-wave (km/s) = 5.86358 6.54457 6.21341
#
# Compressibility (1/GPa) = 0.02242668
#
# Stress axis : x y z
#
# Youngs Moduli (GPa) = 55.18901 147.02381 79.25132
#
# Poissons Ratio (x) = 0.51365 0.14392
# Poissons Ratio (y) = 0.19281 0.17805
# Poissons Ratio (z) = 0.10022 0.33031
#
# Static dielectric constant tensor:
#      x y z
#    x 4.343480 0.000000 0.073530 
#    y 0.000000 4.478790 0.000000 
#    z 0.073530 0.000000 4.157260 
# 
# 
# High freq. dielectric constant tensor:
#      x y z
#    x 1.974290 0.000000 0.009070 
#    y 0.000000 1.979800 0.000000 
#    z 0.009070 0.000000 1.972750 
# 
# From -- ./inp_files/228172.got.cif
#   From: 2010.06.25/outbox.cif.g09.slc.cpg/sg15_115_cif.got.tgz:228172.got - 2010.06.28 07:06:18.
