data_PCOD8149532
_publ_section_title
;
Structure prediction by ZEFSAII (Michael W. Deem and Ramdas Pophale) SiO2 
 PCOD8149532
Probable space group: C 2/C
;
_chemical_formula_sum "Si O2"
_cell_formula_units_Z 40
_cell_length_a 9.274590
_cell_length_b 11.926711
_cell_length_c 16.266118
_cell_angle_alpha 90.000000
_cell_angle_beta 66.810162
_cell_angle_gamma 90.000000
_cell_volume 1653.909738
_symmetry_space_group_name_H-M "C 2/C"
_symmetry_group_IT_number 15
_symmetry_cell_setting 'monoclinic'
loop_
_space_group_symop_operation_xyz
x,y,z
-x,y,1/2-z
-x,-y,-z
x,-y,1/2+z
1/2+x,1/2+y,z
1/2-x,1/2+y,1/2-z
1/2-x,1/2-y,-z
1/2+x,1/2-y,1/2+z
loop_
_atom_site_type_symbol
_atom_site_label
_atom_site_fract_x
_atom_site_fract_y
_atom_site_fract_z
Si Si1 0.738953 0.409925 0.613910
Si Si2 0.821931 0.039281 0.549878
Si Si3 0.828420 0.309864 0.286264
Si Si4 0.220147 0.161165 0.630714
Si Si5 0.584811 0.148251 0.069609
O O1 0.731674 0.389946 0.517767
O O2 0.644623 0.312701 0.680341
O O3 0.664418 0.531891 0.650419
O O4 0.916876 0.410167 0.607249
O O5 0.798469 0.118470 0.634020
O O6 0.713008 0.930477 0.584350
O O7 0.000000 0.000000 0.500000
O O8 0.768348 0.292628 0.207933
O O9 0.000000 0.368847 0.250000
O O10 0.367666 0.172595 0.535500
O O11 0.079166 0.236597 0.624216
#
# Coordination Sequence:
#
# PCOD8149532 Si02
#       5
#     8   8   8   8   8
#     4  11  25  46  72 104 146 196 251 305 384 463
#     4  11  26  47  79 105 150 203 251 309 392 463
#     4  12  27  43  72 110 155 191 255 326 384 449
#     4  10  24  44  72 104 143 192 253 302 378 449
#     4  10  23  48  74  99 145 200 246 307 386 458
#
# _framework density 24.185117000000002
#
# number of rings (size 3 to 8) (size 9 to 14) (size 15 to 20)
#    0.000    1.200    0.000    5.400   14.000    0.800 
#    0.000    0.000    0.000    0.000    0.000    0.000 
#    0.000    0.000    0.000    0.000    0.000    0.000 
#
# Total GULP energy -248047.083641 kJ/mol
# GULP energy per Si atom -12402.354182 kJ/mol
# Density = 2.413007 g / cm^3
# Si number density = 24.185117 Si / 1000 Ang^3
#
#
#
# Elastic Constant Matrix: (Units=GPa)
#
#
# Indices 1 2 3 4 5 6 
#
# 1 120.5141 39.5858 35.9313 0.0000 -3.1187 0.0000
# 2 39.5858 150.8682 67.5933 0.0000 11.3188 0.0000
# 3 35.9313 67.5933 127.0106 0.0000 24.6372 0.0000
# 4 0.0000 0.0000 0.0000 31.2782 0.0000 6.8743
# 5 -3.1187 11.3188 24.6372 0.0000 32.0501 0.0000
# 6 0.0000 0.0000 0.0000 6.8743 0.0000 33.4338
#
#
#
# Elastic Compliance Matrix: (Units=1/GPa)
#
#
# Indices 1 2 3 4 5 6 
#
# 1 0.009690 -0.001672 -0.002526 0.000000 0.003475 0.000000
# 2 -0.001672 0.009001 -0.004312 0.000000 -0.000027 0.000000
# 3 -0.002526 -0.004312 0.012499 0.000000 -0.008331 0.000000
# 4 0.000000 0.000000 0.000000 0.033484 0.000000 -0.006885
# 5 0.003475 -0.000027 -0.008331 0.000000 0.037953 0.000000
# 6 0.000000 0.000000 0.000000 -0.006885 0.000000 0.031325
#
#
# Mechanical properties :
#
#
# Convention : Reuss Voigt Hill
#
# Bulk Modulus (GPa) = 70.56821 76.06818 73.31820
# Shear Modulus (GPa) = 32.11430 36.37124 34.24277
#
# Velocity S-wave (km/s) = 3.64793 3.88218 3.76688
# Velocity P-wave (km/s) = 6.85455 7.18442 7.02142
#
# Compressibility (1/GPa) = 0.01417069
#
# Stress axis : x y z
#
# Youngs Moduli (GPa) = 103.20118 111.10086 80.00844
#
# Poissons Ratio (x) = 0.18572 0.20207
# Poissons Ratio (y) = 0.17251 0.34500
# Poissons Ratio (z) = 0.26065 0.47907
#
# Static dielectric constant tensor:
#      x y z
#    x 4.211180 0.000000 0.117640 
#    y 0.000000 4.456910 0.000000 
#    z 0.117640 0.000000 4.365480 
# 
# 
# High freq. dielectric constant tensor:
#      x y z
#    x 1.957500 0.000000 0.009070 
#    y 0.000000 1.965880 0.000000 
#    z 0.009070 0.000000 1.959100 
# 
# From -- ./inp_files/187833.got.cif
#   From: 2010.06.25/outbox.cif.g09.slc.cpg/sg15_94_cif.got.tgz:187833.got - 2010.06.28 07:06:18.
