data_PCOD8149117
_publ_section_title
;
Structure prediction by ZEFSAII (Michael W. Deem and Ramdas Pophale) SiO2 
 PCOD8149117
Probable space group: C 2/C
;
_chemical_formula_sum "Si O2"
_cell_formula_units_Z 64
_cell_length_a 9.115403
_cell_length_b 20.282739
_cell_length_c 16.930319
_cell_angle_alpha 90.000000
_cell_angle_beta 94.074791
_cell_angle_gamma 90.000000
_cell_volume 3122.255169
_symmetry_space_group_name_H-M "C 2/C"
_symmetry_group_IT_number 15
_symmetry_cell_setting 'monoclinic'
loop_
_space_group_symop_operation_xyz
x,y,z
-x,y,1/2-z
-x,-y,-z
x,-y,1/2+z
1/2+x,1/2+y,z
1/2-x,1/2+y,1/2-z
1/2-x,1/2-y,-z
1/2+x,1/2-y,1/2+z
loop_
_atom_site_type_symbol
_atom_site_label
_atom_site_fract_x
_atom_site_fract_y
_atom_site_fract_z
Si Si1 0.322457 0.314999 0.034785
Si Si2 0.627671 0.955763 0.466568
Si Si3 0.135260 0.770268 0.060903
Si Si4 0.169765 0.851178 0.736556
Si Si5 0.124992 0.654620 0.845562
Si Si6 0.170777 0.295619 0.184972
Si Si7 0.616098 0.873192 0.613577
Si Si8 0.209897 0.416154 0.908623
O O1 0.496068 0.311473 0.023693
O O2 0.292265 0.320067 0.127508
O O3 0.250000 0.250000 0.000000
O O4 0.246627 0.375561 0.988546
O O5 0.579218 0.912393 0.388829
O O6 0.688445 0.906642 0.537396
O O7 0.500000 0.000000 0.500000
O O8 0.744123 0.008115 0.435170
O O9 0.217404 0.818695 0.122860
O O10 0.080002 0.703766 0.100630
O O11 0.250000 0.750000 0.000000
O O12 0.215674 0.775510 0.721498
O O13 0.270186 0.881261 0.810045
O O14 0.187877 0.895310 0.659508
O O15 0.000000 0.855633 0.750000
O O16 0.150342 0.648117 0.751854
O O17 0.993746 0.707522 0.860190
O O18 0.459859 0.907359 0.625366
#
# Coordination Sequence:
#
# PCOD8149117 Si02
#       8
#     8   8   8   8   8   8   8   8
#     4  12  23  38  65  95 132 170 211 279 327 396
#     4  10  23  44  67  92 128 177 230 262 314 399
#     4  12  22  35  66  97 125 163 216 269 341 385
#     4  12  23  39  65  99 132 163 206 277 338 392
#     4  11  22  40  65  95 132 165 212 277 324 394
#     4  11  21  39  64  99 130 161 215 269 344 378
#     4  11  21  41  67  94 128 168 218 271 324 394
#     4  11  25  44  64  93 130 173 227 261 329 390
#
# _framework density 20.498004999999999
#
# number of rings (size 3 to 8) (size 9 to 14) (size 15 to 20)
#    0.000    0.750    6.250    2.625    1.750    0.500 
#   11.250    2.500    0.000    0.000    0.000    0.000 
#    0.000    0.000    0.000    0.000    0.000    0.000 
#
# Total GULP energy -396622.363718 kJ/mol
# GULP energy per Si atom -12394.448866 kJ/mol
# Density = 2.045135 g / cm^3
# Si number density = 20.498005 Si / 1000 Ang^3
#
#
#
# Elastic Constant Matrix: (Units=GPa)
#
#
# Indices 1 2 3 4 5 6 
#
# 1 106.5747 18.9578 47.1346 0.0000 6.3507 0.0000
# 2 18.9578 106.0141 51.5065 0.0000 2.2816 0.0000
# 3 47.1346 51.5065 138.6559 0.0000 -17.0388 0.0000
# 4 0.0000 0.0000 0.0000 33.9707 0.0000 -6.6320
# 5 6.3507 2.2816 -17.0388 0.0000 36.1775 0.0000
# 6 0.0000 0.0000 0.0000 -6.6320 0.0000 22.1807
#
#
#
# Elastic Compliance Matrix: (Units=1/GPa)
#
#
# Indices 1 2 3 4 5 6 
#
# 1 0.011602 0.000222 -0.004541 0.000000 -0.004189 0.000000
# 2 0.000222 0.011810 -0.004839 0.000000 -0.003063 0.000000
# 3 -0.004541 -0.004839 0.011345 0.000000 0.006446 0.000000
# 4 0.000000 0.000000 0.000000 0.031262 0.000000 0.009347
# 5 -0.004189 -0.003063 0.006446 0.000000 0.031606 0.000000
# 6 0.000000 0.000000 0.000000 0.009347 0.000000 0.047879
#
#
# Mechanical properties :
#
#
# Convention : Reuss Voigt Hill
#
# Bulk Modulus (GPa) = 60.82449 65.16027 62.99238
# Shear Modulus (GPa) = 29.53341 34.04219 31.78780
#
# Velocity S-wave (km/s) = 3.79990 4.07966 3.94226
# Velocity P-wave (km/s) = 6.99929 7.35181 7.17771
#
# Compressibility (1/GPa) = 0.01644075
#
# Stress axis : x y z
#
# Youngs Moduli (GPa) = 86.19480 84.67514 88.14226
#
# Poissons Ratio (x) = -0.01878 0.40026
# Poissons Ratio (y) = -0.01911 0.42650
# Poissons Ratio (z) = 0.39141 0.40972
#
# Static dielectric constant tensor:
#      x y z
#    x 4.875600 0.000000 -0.018460 
#    y 0.000000 3.869410 0.000000 
#    z -0.018460 0.000000 3.781560 
# 
# 
# High freq. dielectric constant tensor:
#      x y z
#    x 1.790900 0.000000 -0.003910 
#    y 0.000000 1.783140 0.000000 
#    z -0.003910 0.000000 1.814650 
# 
# From -- ./inp_files/192171.got.cif
#   From: 2010.06.25/outbox.cif.g09.slc.cpg/sg15_97_cif.got.tgz:192171.got - 2010.06.28 07:06:18.
