data_PCOD8149075
_publ_section_title
;
Structure prediction by ZEFSAII (Michael W. Deem and Ramdas Pophale) SiO2 
 PCOD8149075
Probable space group: C 2/C
;
_chemical_formula_sum "Si O2"
_cell_formula_units_Z 44
_cell_length_a 8.865631
_cell_length_b 26.663591
_cell_length_c 11.201035
_cell_angle_alpha 90.000000
_cell_angle_beta 51.460985
_cell_angle_gamma 90.000000
_cell_volume 2071.073049
_symmetry_space_group_name_H-M "C 2/C"
_symmetry_group_IT_number 15
_symmetry_cell_setting 'monoclinic'
loop_
_space_group_symop_operation_xyz
x,y,z
-x,y,1/2-z
-x,-y,-z
x,-y,1/2+z
1/2+x,1/2+y,z
1/2-x,1/2+y,1/2-z
1/2-x,1/2-y,-z
1/2+x,1/2-y,1/2+z
loop_
_atom_site_type_symbol
_atom_site_label
_atom_site_fract_x
_atom_site_fract_y
_atom_site_fract_z
Si Si1 0.889237 0.495897 0.928904
Si Si2 0.941731 0.386490 0.909214
Si Si3 0.360349 0.315111 0.029370
Si Si4 0.000000 0.254815 0.250000
Si Si5 0.656559 0.302855 0.074677
Si Si6 0.293886 0.407807 0.909939
O O1 0.817304 0.438144 0.956502
O O2 0.000000 0.508203 0.750000
O O3 0.720549 0.537292 0.021359
O O4 0.000000 0.500000 0.000000
O O5 0.000000 0.366163 0.750000
O O6 0.132320 0.397967 0.890444
O O7 0.817062 0.343474 0.035684
O O8 0.187613 0.288512 0.188428
O O9 0.543496 0.327587 0.020165
O O10 0.446680 0.279009 0.887235
O O11 0.271152 0.366056 0.022446
O O12 0.500000 0.291986 0.250000
O O13 0.750000 0.250000 0.000000
O O14 0.500000 0.402495 0.750000
#
# Coordination Sequence:
#
# PCOD8149075 Si02
#       6
#     8   8   8   4   8   8
#     4   9  21  42  66  94 129 174 218 275 335 391
#     4  10  23  44  65  92 135 172 214 271 328 391
#     4  11  24  41  64  93 126 170 219 264 324 384
#     4  10  24  40  64  86 130 164 218 264 316 376
#     4  12  27  42  65  95 132 173 216 262 331 389
#     4  11  23  40  68  98 130 171 224 275 331 390
#
# _framework density 21.245025999999999
#
# number of rings (size 3 to 8) (size 9 to 14) (size 15 to 20)
#    0.000    1.455    0.909    2.727    8.909    2.182 
#    0.000   12.727    0.000    0.000    0.000    0.000 
#    0.000    0.000    0.000    0.000    0.000    0.000 
#
# Total GULP energy -272690.085986 kJ/mol
# GULP energy per Si atom -12395.003908 kJ/mol
# Density = 2.119667 g / cm^3
# Si number density = 21.245026 Si / 1000 Ang^3
#
#
#
# Elastic Constant Matrix: (Units=GPa)
#
#
# Indices 1 2 3 4 5 6 
#
# 1 94.5104 37.7635 31.5716 0.0000 -4.2170 0.0000
# 2 37.7635 160.7398 58.2927 0.0000 -19.5471 0.0000
# 3 31.5716 58.2927 111.8683 0.0000 -9.3856 0.0000
# 4 0.0000 0.0000 0.0000 47.8931 0.0000 -25.7850
# 5 -4.2170 -19.5471 -9.3856 0.0000 35.6057 0.0000
# 6 0.0000 0.0000 0.0000 -25.7850 0.0000 65.9990
#
#
#
# Elastic Compliance Matrix: (Units=1/GPa)
#
#
# Indices 1 2 3 4 5 6 
#
# 1 0.012181 -0.002026 -0.002408 0.000000 -0.000304 0.000000
# 2 -0.002026 0.008389 -0.003511 0.000000 0.003440 0.000000
# 3 -0.002408 -0.003511 0.011517 0.000000 0.000823 0.000000
# 4 0.000000 0.000000 0.000000 0.026442 0.000000 0.010330
# 5 -0.000304 0.003440 0.000823 0.000000 0.030155 0.000000
# 6 0.000000 0.000000 0.000000 0.010330 0.000000 0.019188
#
#
# Mechanical properties :
#
#
# Convention : Reuss Voigt Hill
#
# Bulk Modulus (GPa) = 61.73479 69.15269 65.44374
# Shear Modulus (GPa) = 38.71201 45.86559 42.28880
#
# Velocity S-wave (km/s) = 4.27332 4.65142 4.46637
# Velocity P-wave (km/s) = 7.31231 7.84018 7.58084
#
# Compressibility (1/GPa) = 0.01619832
#
# Stress axis : x y z
#
# Youngs Moduli (GPa) = 82.09544 119.20836 86.82692
#
# Poissons Ratio (x) = 0.24146 0.20906
# Poissons Ratio (y) = 0.16629 0.30484
# Poissons Ratio (z) = 0.19767 0.41853
#
# Static dielectric constant tensor:
#      x y z
#    x 3.868370 0.000000 -0.002460 
#    y 0.000000 4.255560 0.000000 
#    z -0.002460 0.000000 3.933730 
# 
# 
# High freq. dielectric constant tensor:
#      x y z
#    x 1.826440 0.000000 0.008650 
#    y 0.000000 1.851040 0.000000 
#    z 0.008650 0.000000 1.836070 
# 
# From -- ./inp_files/81083.got.cif
#   From: 2010.06.25/outbox.cif.g09.slc.cpg/sg15_41_cif.got.tgz:81083.got - 2010.06.28 07:06:18.
