data_PCOD8149977
_publ_section_title
;
Structure prediction by ZEFSAII (Michael W. Deem and Ramdas Pophale) SiO2 
 PCOD8149977
Probable space group: C 2/C
;
_chemical_formula_sum "Si O2"
_cell_formula_units_Z 48
_cell_length_a 11.718482
_cell_length_b 18.789966
_cell_length_c 13.938833
_cell_angle_alpha 90.000000
_cell_angle_beta 43.266283
_cell_angle_gamma 90.000000
_cell_volume 2103.591971
_symmetry_space_group_name_H-M "C 2/C"
_symmetry_group_IT_number 15
_symmetry_cell_setting 'monoclinic'
loop_
_space_group_symop_operation_xyz
x,y,z
-x,y,1/2-z
-x,-y,-z
x,-y,1/2+z
1/2+x,1/2+y,z
1/2-x,1/2+y,1/2-z
1/2-x,1/2-y,-z
1/2+x,1/2-y,1/2+z
loop_
_atom_site_type_symbol
_atom_site_label
_atom_site_fract_x
_atom_site_fract_y
_atom_site_fract_z
Si Si1 0.698994 0.797926 0.619722
Si Si2 0.755566 0.952560 0.585108
Si Si3 0.968656 0.551932 0.105676
Si Si4 0.899076 0.781272 0.674858
Si Si5 0.355302 0.834500 0.533173
Si Si6 0.906782 0.081807 0.404088
O O1 0.500000 0.813154 0.750000
O O2 0.750000 0.750000 0.500000
O O3 0.809190 0.870171 0.546663
O O4 0.763397 0.761330 0.677074
O O5 0.692705 0.968743 0.732031
O O6 0.620557 0.953786 0.583739
O O7 0.897657 0.010958 0.475628
O O8 0.941474 0.630336 0.075052
O O9 0.000000 0.500000 0.000000
O O10 0.802868 0.786892 0.835149
O O11 0.023009 0.714769 0.602292
O O12 0.996361 0.856108 0.597802
O O13 0.282195 0.893919 0.505769
O O14 0.000000 0.059938 0.250000
#
# Coordination Sequence:
#
# PCOD8149977 Si02
#       6
#     8   8   8   8   8   8
#     4  12  24  43  67  94 132 174 225 275 334 405
#     4  11  22  42  67  98 132 178 224 275 335 395
#     4  11  21  40  68  94 129 175 228 274 324 400
#     4  11  23  42  66  96 135 174 214 280 337 394
#     4  11  22  44  66  99 135 177 222 276 335 403
#     4  10  24  43  66  99 138 174 224 278 337 403
#
# _framework density 22.818113
#
# number of rings (size 3 to 8) (size 9 to 14) (size 15 to 20)
#    0.000    1.000    5.000    2.500    0.000    2.667 
#    0.000    3.333    0.000    0.000    0.000    0.000 
#    0.000    0.000    0.000    0.000    0.000    0.000 
#
# Total GULP energy -297438.705414 kJ/mol
# GULP energy per Si atom -12393.279392 kJ/mol
# Density = 2.276618 g / cm^3
# Si number density = 22.818113 Si / 1000 Ang^3
#
#
#
# Elastic Constant Matrix: (Units=GPa)
#
#
# Indices 1 2 3 4 5 6 
#
# 1 67.1917 21.4788 19.6223 0.0002 11.4468 0.0004
# 2 21.4788 93.3380 60.9706 0.0002 1.3630 0.0002
# 3 19.6223 60.9706 87.8288 0.0009 11.7504 -0.0004
# 4 0.0002 0.0002 0.0009 50.4677 -0.0006 7.0850
# 5 11.4468 1.3630 11.7504 -0.0006 32.1586 0.0001
# 6 0.0004 0.0002 -0.0004 7.0850 0.0001 35.5473
#
#
#
# Elastic Compliance Matrix: (Units=1/GPa)
#
#
# Indices 1 2 3 4 5 6 
#
# 1 0.017148 -0.003400 -0.000708 0.000000 -0.005701 0.000000
# 2 -0.003400 0.020875 -0.014483 0.000000 0.005618 0.000000
# 3 -0.000708 -0.014483 0.022586 0.000000 -0.007387 0.000000
# 4 0.000000 0.000000 0.000000 0.020385 0.000001 -0.004063
# 5 -0.005701 0.005618 -0.007387 0.000001 0.035586 0.000000
# 6 0.000000 0.000000 0.000000 -0.004063 0.000000 0.028941
#
#
# Mechanical properties :
#
#
# Convention : Reuss Voigt Hill
#
# Bulk Modulus (GPa) = 42.68715 50.27800 46.48258
# Shear Modulus (GPa) = 26.24486 33.38716 29.81601
#
# Velocity S-wave (km/s) = 3.39510 3.82931 3.61873
# Velocity P-wave (km/s) = 5.84099 6.45241 6.15430
#
# Compressibility (1/GPa) = 0.02342625
#
# Stress axis : x y z
#
# Youngs Moduli (GPa) = 58.31689 47.90410 44.27429
#
# Poissons Ratio (x) = 0.16289 0.03134
# Poissons Ratio (y) = 0.19830 0.64124
# Poissons Ratio (z) = 0.04127 0.69381
#
# Static dielectric constant tensor:
#      x y z
#    x 4.728700 0.000080 0.244130 
#    y 0.000080 3.228970 0.000040 
#    z 0.244130 0.000040 4.284240 
# 
# 
# High freq. dielectric constant tensor:
#      x y z
#    x 1.922250 0.000000 0.008150 
#    y 0.000000 1.894270 0.000000 
#    z 0.008150 0.000000 1.879770 
# 
# From -- ./inp_files/147345.got.cif
#   From: 2010.06.25/outbox.cif.g09.slc.cpg/sg15_74_cif.got.tgz:147345.got - 2010.06.28 07:06:18.
