data_PCOD8149029
_publ_section_title
;
Structure prediction by ZEFSAII (Michael W. Deem and Ramdas Pophale) SiO2 
 PCOD8149029
Probable space group: C 2/C
;
_chemical_formula_sum "Si O2"
_cell_formula_units_Z 36
_cell_length_a 7.559541
_cell_length_b 16.508749
_cell_length_c 13.972010
_cell_angle_alpha 90.000000
_cell_angle_beta 88.746715
_cell_angle_gamma 90.000000
_cell_volume 1743.269663
_symmetry_space_group_name_H-M "C 2/C"
_symmetry_group_IT_number 15
_symmetry_cell_setting 'monoclinic'
loop_
_space_group_symop_operation_xyz
x,y,z
-x,y,1/2-z
-x,-y,-z
x,-y,1/2+z
1/2+x,1/2+y,z
1/2-x,1/2+y,1/2-z
1/2-x,1/2-y,-z
1/2+x,1/2-y,1/2+z
loop_
_atom_site_type_symbol
_atom_site_label
_atom_site_fract_x
_atom_site_fract_y
_atom_site_fract_z
Si Si1 0.200275 0.167519 0.949947
Si Si2 0.879437 0.893105 0.345990
Si Si3 0.130879 0.464453 0.921841
Si Si4 0.000000 0.367689 0.750000
Si Si5 0.695115 0.236387 0.743670
O O1 0.295142 0.175424 0.846650
O O2 0.996213 0.143878 0.931321
O O3 0.250000 0.250000 0.000000
O O4 0.259820 0.100682 0.022450
O O5 0.736015 0.822187 0.331886
O O6 0.000000 0.910027 0.250000
O O7 0.772909 0.973220 0.376340
O O8 0.005466 0.425497 0.842060
O O9 0.000000 0.500000 0.000000
O O10 0.172227 0.311622 0.755484
O O11 0.500000 0.274236 0.750000
#
# Coordination Sequence:
#
# PCOD8149029 Si02
#       5
#     8   8   8   4   8
#     4  11  21  44  67  99 139 177 234 287 341 422
#     4  10  23  43  72  99 140 184 230 292 352 413
#     4  12  27  43  69 103 143 183 235 289 355 419
#     4  12  26  48  66 104 142 180 238 294 340 432
#     4  11  22  44  73  97 134 189 232 285 352 413
#
# _framework density 20.650850999999999
#
# number of rings (size 3 to 8) (size 9 to 14) (size 15 to 20)
#    0.000    0.889    5.556    2.000    7.778    2.667 
#    0.000    4.444    0.000    0.000    0.000    0.000 
#    0.000    0.000    0.000    0.000    0.000    0.000 
#
# Total GULP energy -223006.686607 kJ/mol
# GULP energy per Si atom -12389.260367 kJ/mol
# Density = 2.060385 g / cm^3
# Si number density = 20.650851 Si / 1000 Ang^3
#
#
#
# Elastic Constant Matrix: (Units=GPa)
#
#
# Indices 1 2 3 4 5 6 
#
# 1 152.5684 67.8880 59.7442 0.0000 9.7879 0.0000
# 2 67.8880 139.3569 67.6980 0.0000 5.9203 0.0000
# 3 59.7442 67.6980 134.7634 0.0000 27.9767 0.0000
# 4 0.0000 0.0000 0.0000 54.7990 0.0000 6.7267
# 5 9.7879 5.9203 27.9767 0.0000 30.8582 0.0000
# 6 0.0000 0.0000 0.0000 6.7267 0.0000 -14.3403
#
#
#
# Elastic Compliance Matrix: (Units=1/GPa)
#
#
# Indices 1 2 3 4 5 6 
#
# 1 0.008892 -0.003206 -0.002308 0.000000 -0.000113 0.000000
# 2 -0.003206 0.010892 -0.004715 0.000000 0.003202 0.000000
# 3 -0.002308 -0.004715 0.012901 0.000000 -0.010059 0.000000
# 4 0.000000 0.000000 0.000000 0.017255 0.000000 0.008094
# 5 -0.000113 0.003202 -0.010059 0.000000 0.040948 0.000000
# 6 0.000000 0.000000 0.000000 0.008094 0.000000 -0.065937
#
#
# Mechanical properties :
#
#
# Convention : Reuss Voigt Hill
#
# Bulk Modulus (GPa) = 81.78983 90.81658 86.30321
# Shear Modulus (GPa) = 101.04317 29.68729 65.36523
#
# Velocity S-wave (km/s) = 7.00254 3.79566 5.63216
# Velocity P-wave (km/s) = 10.25050 7.95500 9.17482
#
# Compressibility (1/GPa) = 0.01222646
#
# Stress axis : x y z
#
# Youngs Moduli (GPa) = 112.46107 91.81087 77.51530
#
# Poissons Ratio (x) = 0.29431 0.17893
# Poissons Ratio (y) = 0.36050 0.36550
# Poissons Ratio (z) = 0.25960 0.43290
#
# Static dielectric constant tensor:
#      x y z
#    x 3.947210 0.000000 0.410090 
#    y 0.000000 3.801980 0.000000 
#    z 0.410090 0.000000 4.144270 
# 
# 
# High freq. dielectric constant tensor:
#      x y z
#    x 1.806230 0.000000 0.025920 
#    y 0.000000 1.818060 0.000000 
#    z 0.025920 0.000000 1.824020 
# 
# From -- ./inp_files/132870.got.cif
#   From: 2010.06.25/outbox.cif.g09.slc.cpg/sg15_67_cif.got.tgz:132870.got - 2010.06.28 07:06:18.
