data_PCOD8149007
_publ_section_title
;
Structure prediction by ZEFSAII (Michael W. Deem and Ramdas Pophale) SiO2 
 PCOD8149007
Probable space group: C 2/C
;
_chemical_formula_sum "Si O2"
_cell_formula_units_Z 44
_cell_length_a 5.485525
_cell_length_b 20.978216
_cell_length_c 17.674269
_cell_angle_alpha 90.000000
_cell_angle_beta 72.120512
_cell_angle_gamma 90.000000
_cell_volume 1935.665363
_symmetry_space_group_name_H-M "C 2/C"
_symmetry_group_IT_number 15
_symmetry_cell_setting 'monoclinic'
loop_
_space_group_symop_operation_xyz
x,y,z
-x,y,1/2-z
-x,-y,-z
x,-y,1/2+z
1/2+x,1/2+y,z
1/2-x,1/2+y,1/2-z
1/2-x,1/2-y,-z
1/2+x,1/2-y,1/2+z
loop_
_atom_site_type_symbol
_atom_site_label
_atom_site_fract_x
_atom_site_fract_y
_atom_site_fract_z
Si Si1 0.785049 0.803531 0.596084
Si Si2 0.000000 0.027780 0.250000
Si Si3 0.863881 0.166875 0.918860
Si Si4 0.560432 0.065662 0.532001
Si Si5 0.260061 0.922250 0.323548
Si Si6 0.762091 0.130626 0.372497
O O1 0.915469 0.817308 0.502142
O O2 0.762137 0.727683 0.609899
O O3 0.495853 0.832027 0.627494
O O4 0.974132 0.827498 0.645857
O O5 0.208584 0.073286 0.189970
O O6 0.119690 0.982165 0.300630
O O7 0.692616 0.104771 0.926412
O O8 0.114467 0.145271 0.848322
O O9 0.690091 0.049757 0.598576
O O10 0.742179 0.105301 0.459563
O O11 0.500000 0.000000 0.500000
O O12 0.500000 0.903145 0.250000
#
# Coordination Sequence:
#
# PCOD8149007 Si02
#       6
#     8   4   8   8   8   8
#     4  10  24  45  78 104 144 185 246 296 365 433
#     4  12  30  46  66 104 148 192 244 304 374 434
#     4  10  23  43  71 111 138 187 240 305 358 437
#     4  11  24  42  73 106 140 191 242 297 362 429
#     4  12  25  44  69 102 148 187 240 304 368 435
#     4  11  25  47  72 105 140 193 240 302 360 437
#
# _framework density 22.731200000000001
#
# number of rings (size 3 to 8) (size 9 to 14) (size 15 to 20)
#    0.000    1.091    1.818    3.273   10.182    3.636 
#    1.636    1.818    0.000    0.000    0.000    0.000 
#    0.000    0.000    0.000    0.000    0.000    0.000 
#
# Total GULP energy -272703.793178 kJ/mol
# GULP energy per Si atom -12395.626963 kJ/mol
# Density = 2.267946 g / cm^3
# Si number density = 22.731200 Si / 1000 Ang^3
#
#
#
# Elastic Constant Matrix: (Units=GPa)
#
#
# Indices 1 2 3 4 5 6 
#
# 1 114.3335 70.1827 36.8171 0.0000 -5.3833 0.0000
# 2 70.1827 161.2313 40.0076 0.0000 -7.6670 0.0000
# 3 36.8171 40.0076 86.9016 0.0000 -10.2561 0.0000
# 4 0.0000 0.0000 0.0000 43.4635 0.0000 -2.3012
# 5 -5.3833 -7.6670 -10.2561 0.0000 42.8292 0.0000
# 6 0.0000 0.0000 0.0000 -2.3012 0.0000 27.9193
#
#
#
# Elastic Compliance Matrix: (Units=1/GPa)
#
#
# Indices 1 2 3 4 5 6 
#
# 1 0.012675 -0.004725 -0.003197 0.000000 -0.000018 0.000000
# 2 -0.004725 0.008774 -0.001978 0.000000 0.000503 0.000000
# 3 -0.003197 -0.001978 0.014081 0.000000 0.002616 0.000000
# 4 0.000000 0.000000 0.000000 0.023109 0.000000 0.001905
# 5 -0.000018 0.000503 0.002616 0.000000 0.024063 0.000000
# 6 0.000000 0.000000 0.000000 0.001905 0.000000 0.035975
#
#
# Mechanical properties :
#
#
# Convention : Reuss Voigt Hill
#
# Bulk Modulus (GPa) = 63.57216 72.94235 68.25725
# Shear Modulus (GPa) = 34.78990 37.20632 35.99811
#
# Velocity S-wave (km/s) = 3.91639 4.05012 3.98382
# Velocity P-wave (km/s) = 6.96265 7.35051 7.15921
#
# Compressibility (1/GPa) = 0.01573016
#
# Stress axis : x y z
#
# Youngs Moduli (GPa) = 78.89287 113.97545 71.01723
#
# Poissons Ratio (x) = 0.53855 0.22704
# Poissons Ratio (y) = 0.37278 0.14048
# Poissons Ratio (z) = 0.25222 0.22545
#
# Static dielectric constant tensor:
#      x y z
#    x 5.073660 0.000000 0.164220 
#    y 0.000000 4.149450 0.000000 
#    z 0.164220 0.000000 4.278310 
# 
# 
# High freq. dielectric constant tensor:
#      x y z
#    x 1.894880 0.000000 -0.005220 
#    y 0.000000 1.907080 0.000000 
#    z -0.005220 0.000000 1.898650 
# 
# From -- ./inp_files/184799.got.cif
#   From: 2010.06.25/outbox.cif.g09.slc.cpg/sg15_93_cif.got.tgz:184799.got - 2010.06.28 07:06:18.
