data_PCOD8149925
_publ_section_title
;
Structure prediction by ZEFSAII (Michael W. Deem and Ramdas Pophale) SiO2 
 PCOD8149925
Probable space group: C 2/C
;
_chemical_formula_sum "Si O2"
_cell_formula_units_Z 40
_cell_length_a 13.820955
_cell_length_b 14.345802
_cell_length_c 8.982064
_cell_angle_alpha 90.000000
_cell_angle_beta 111.335606
_cell_angle_gamma 90.000000
_cell_volume 1658.844645
_symmetry_space_group_name_H-M "C 2/C"
_symmetry_group_IT_number 15
_symmetry_cell_setting 'monoclinic'
loop_
_space_group_symop_operation_xyz
x,y,z
-x,y,1/2-z
-x,-y,-z
x,-y,1/2+z
1/2+x,1/2+y,z
1/2-x,1/2+y,1/2-z
1/2-x,1/2-y,-z
1/2+x,1/2-y,1/2+z
loop_
_atom_site_type_symbol
_atom_site_label
_atom_site_fract_x
_atom_site_fract_y
_atom_site_fract_z
Si Si1 0.788119 0.598043 0.289884
Si Si2 0.914454 0.776239 0.094477
Si Si3 0.758254 0.311187 0.311721
Si Si4 0.121447 0.443897 0.341200
Si Si5 0.445640 0.421891 0.874736
O O1 0.775964 0.709061 0.268327
O O2 0.854562 0.550019 0.194538
O O3 0.850345 0.570188 0.472141
O O4 0.673779 0.552579 0.223550
O O5 0.844707 0.848016 0.158164
O O6 0.000000 0.730685 0.250000
O O7 0.844665 0.693472 0.990088
O O8 0.962265 0.828808 0.980464
O O9 0.800717 0.375855 0.206089
O O10 0.000000 0.418731 0.250000
O O11 0.500000 0.403018 0.750000
O O12 0.500000 0.500000 0.000000
#
# Coordination Sequence:
#
# PCOD8149925 Si02
#       5
#     8   8   8   8   8
#     4  11  27  48  74 106 152 187 247 308 365 442
#     4  10  24  42  73 101 146 185 237 296 373 432
#     4  10  26  47  72 108 146 194 245 301 368 442
#     4  12  28  48  78 105 145 200 253 300 368 441
#     4  11  24  41  70 108 145 184 234 298 375 438
#
# _framework density 24.113168999999999
#
# number of rings (size 3 to 8) (size 9 to 14) (size 15 to 20)
#    0.000    1.200    0.000    3.000   19.600    4.000 
#    0.000    0.000    0.000    0.000    0.000    0.000 
#    0.000    0.000    0.000    0.000    0.000    0.000 
#
# Total GULP energy -247885.287152 kJ/mol
# GULP energy per Si atom -12394.264358 kJ/mol
# Density = 2.405829 g / cm^3
# Si number density = 24.113169 Si / 1000 Ang^3
#
#
#
# Elastic Constant Matrix: (Units=GPa)
#
#
# Indices 1 2 3 4 5 6 
#
# 1 101.6344 25.1052 46.3364 0.0000 -8.5261 0.0000
# 2 25.1052 81.6813 24.1593 0.0000 -10.5187 0.0000
# 3 46.3364 24.1593 172.4544 0.0000 17.5818 0.0000
# 4 0.0000 0.0000 0.0000 18.9214 0.0000 -7.8588
# 5 -8.5261 -10.5187 17.5818 0.0000 57.8052 0.0000
# 6 0.0000 0.0000 0.0000 -7.8588 0.0000 32.7200
#
#
#
# Elastic Compliance Matrix: (Units=1/GPa)
#
#
# Indices 1 2 3 4 5 6 
#
# 1 0.012071 -0.002492 -0.003127 0.000000 0.002278 0.000000
# 2 -0.002492 0.013797 -0.001529 0.000000 0.002608 0.000000
# 3 -0.003127 -0.001529 0.007150 0.000000 -0.002914 0.000000
# 4 0.000000 0.000000 0.000000 0.058707 0.000000 0.014100
# 5 0.002278 0.002608 -0.002914 0.000000 0.018996 0.000000
# 6 0.000000 0.000000 0.000000 0.014100 0.000000 0.033949
#
#
# Mechanical properties :
#
#
# Convention : Reuss Voigt Hill
#
# Bulk Modulus (GPa) = 53.41123 60.77466 57.09295
# Shear Modulus (GPa) = 30.26515 39.23392 34.74953
#
# Velocity S-wave (km/s) = 3.54662 4.03808 3.80030
# Velocity P-wave (km/s) = 6.24257 6.85566 6.55629
#
# Compressibility (1/GPa) = 0.01872265
#
# Stress axis : x y z
#
# Youngs Moduli (GPa) = 82.84114 72.48060 139.85989
#
# Poissons Ratio (x) = 0.18063 0.43728
# Poissons Ratio (y) = 0.20645 0.21386
# Poissons Ratio (z) = 0.25901 0.11083
#
# Static dielectric constant tensor:
#      x y z
#    x 4.605220 0.000000 0.106440 
#    y 0.000000 3.840880 0.000000 
#    z 0.106440 0.000000 4.547630 
# 
# 
# High freq. dielectric constant tensor:
#      x y z
#    x 1.973150 0.000000 0.001220 
#    y 0.000000 1.939530 0.000000 
#    z 0.001220 0.000000 1.979360 
# 
# From -- ./inp_files/38026.got.cif
#   From: 2010.06.25/outbox.cif.g09.slc.cpg/sg15_20_cif.got.tgz:38026.got - 2010.06.28 07:06:18.
