data_PCOD8149453
_publ_section_title
;
Structure prediction by ZEFSAII (Michael W. Deem and Ramdas Pophale) SiO2 
 PCOD8149453
Probable space group: C 2/C
;
_chemical_formula_sum "Si O2"
_cell_formula_units_Z 48
_cell_length_a 11.071826
_cell_length_b 9.578470
_cell_length_c 18.317855
_cell_angle_alpha 90.000000
_cell_angle_beta 112.690123
_cell_angle_gamma 90.000000
_cell_volume 1792.279049
_symmetry_space_group_name_H-M "C 2/C"
_symmetry_group_IT_number 15
_symmetry_cell_setting 'monoclinic'
loop_
_space_group_symop_operation_xyz
x,y,z
-x,y,1/2-z
-x,-y,-z
x,-y,1/2+z
1/2+x,1/2+y,z
1/2-x,1/2+y,1/2-z
1/2-x,1/2-y,-z
1/2+x,1/2-y,1/2+z
loop_
_atom_site_type_symbol
_atom_site_label
_atom_site_fract_x
_atom_site_fract_y
_atom_site_fract_z
Si Si1 0.273774 0.602887 0.831005
Si Si2 0.479136 0.462814 0.578961
Si Si3 0.605263 0.288034 0.710828
Si Si4 0.346122 0.898148 0.832875
Si Si5 0.222883 0.397341 0.067687
Si Si6 0.135506 0.375703 0.889388
O O1 0.422042 0.554192 0.847836
O O2 0.170709 0.632062 0.737806
O O3 0.296969 0.761406 0.866777
O O4 0.206802 0.515830 0.880119
O O5 0.500000 0.500000 0.500000
O O6 0.528164 0.305191 0.614962
O O7 0.333397 0.493607 0.568099
O O8 0.500000 0.319279 0.750000
O O9 0.729421 0.405731 0.742537
O O10 0.486097 0.873730 0.826754
O O11 0.362244 0.028255 0.890709
O O12 0.283921 0.259094 0.120148
O O13 0.133431 0.361014 0.977280
#
# Coordination Sequence:
#
# PCOD8149453 Si02
#       6
#     8   8   8   8   8   8
#     4  10  24  45  72 110 151 196 255 312 390 461
#     4  12  22  47  78 111 153 211 257 319 399 467
#     4  10  23  47  70 103 151 198 258 314 386 464
#     4  10  23  46  71 105 153 197 256 312 381 464
#     4  11  22  43  73 110 159 200 245 317 390 455
#     4  11  23  44  69 114 155 192 256 315 378 472
#
# _framework density 26.781544
#
# number of rings (size 3 to 8) (size 9 to 14) (size 15 to 20)
#    1.000    0.333    5.000    0.500    0.000    2.000 
#   12.000    0.000    0.000    0.000    0.000    0.000 
#    0.000    0.000    0.000    0.000    0.000    0.000 
#
# Total GULP energy -297349.680307 kJ/mol
# GULP energy per Si atom -12389.570013 kJ/mol
# Density = 2.672059 g / cm^3
# Si number density = 26.781544 Si / 1000 Ang^3
#
#
#
# Elastic Constant Matrix: (Units=GPa)
#
#
# Indices 1 2 3 4 5 6 
#
# 1 87.3295 6.3874 20.0753 0.0000 23.5969 0.0000
# 2 6.3874 74.4048 22.6836 0.0000 -4.4801 0.0000
# 3 20.0753 22.6836 82.1174 0.0000 7.3772 0.0000
# 4 0.0000 0.0000 0.0000 41.1165 0.0000 13.2680
# 5 23.5969 -4.4801 7.3772 0.0000 42.6299 0.0000
# 6 0.0000 0.0000 0.0000 13.2680 0.0000 32.5791
#
#
#
# Elastic Compliance Matrix: (Units=1/GPa)
#
#
# Indices 1 2 3 4 5 6 
#
# 1 0.014117 -0.000889 -0.002535 0.000000 -0.007469 0.000000
# 2 -0.000889 0.014953 -0.004163 0.000000 0.002784 0.000000
# 3 -0.002535 -0.004163 0.014080 0.000000 -0.001471 0.000000
# 4 0.000000 0.000000 0.000000 0.028001 0.000000 -0.011404
# 5 -0.007469 0.002784 -0.001471 0.000000 0.028139 0.000000
# 6 0.000000 0.000000 0.000000 -0.011404 0.000000 0.035339
#
#
# Mechanical properties :
#
#
# Convention : Reuss Voigt Hill
#
# Bulk Modulus (GPa) = 35.74530 38.01604 36.88067
# Shear Modulus (GPa) = 31.42144 36.24547 33.83345
#
# Velocity S-wave (km/s) = 3.42899 3.68282 3.55817
# Velocity P-wave (km/s) = 5.39011 5.68418 5.53909
#
# Compressibility (1/GPa) = 0.02797570
#
# Stress axis : x y z
#
# Youngs Moduli (GPa) = 70.83832 66.87527 71.02501
#
# Poissons Ratio (x) = 0.05944 0.18002
# Poissons Ratio (y) = 0.06297 0.29570
# Poissons Ratio (z) = 0.17955 0.27843
#
# Static dielectric constant tensor:
#      x y z
#    x 4.794990 0.000000 0.444160 
#    y 0.000000 5.360450 0.000000 
#    z 0.444160 0.000000 4.948280 
# 
# 
# High freq. dielectric constant tensor:
#      x y z
#    x 2.074690 0.000000 0.019130 
#    y 0.000000 2.095740 0.000000 
#    z 0.019130 0.000000 2.070930 
# 
# From -- ./inp_files/237234.got.cif
#   From: 2010.06.25/outbox.cif.g09.slc.cpg/sg15_119_cif.got.tgz:237234.got - 2010.06.28 07:06:18.
