data_PCOD8149738
_publ_section_title
;
Structure prediction by ZEFSAII (Michael W. Deem and Ramdas Pophale) SiO2 
 PCOD8149738
Probable space group: C 2/C
;
_chemical_formula_sum "Si O2"
_cell_formula_units_Z 32
_cell_length_a 15.524928
_cell_length_b 9.752281
_cell_length_c 12.612266
_cell_angle_alpha 90.000000
_cell_angle_beta 127.986034
_cell_angle_gamma 90.000000
_cell_volume 1505.025137
_symmetry_space_group_name_H-M "C 2/C"
_symmetry_group_IT_number 15
_symmetry_cell_setting 'monoclinic'
loop_
_space_group_symop_operation_xyz
x,y,z
-x,y,1/2-z
-x,-y,-z
x,-y,1/2+z
1/2+x,1/2+y,z
1/2-x,1/2+y,1/2-z
1/2-x,1/2-y,-z
1/2+x,1/2-y,1/2+z
loop_
_atom_site_type_symbol
_atom_site_label
_atom_site_fract_x
_atom_site_fract_y
_atom_site_fract_z
Si Si1 0.890426 0.125000 0.530852
Si Si2 0.500000 0.840556 0.750000
Si Si3 0.337474 0.282416 0.774174
Si Si4 0.000000 0.090555 0.250000
Si Si5 0.313300 0.967584 0.725826
O O1 0.905387 0.248300 0.625363
O O2 0.918905 0.182703 0.434746
O O3 0.969977 0.001700 0.625363
O O4 0.765841 0.067297 0.434746
O O5 0.438465 0.934213 0.790145
O O6 0.398320 0.315787 0.709855
O O7 0.301931 0.125000 0.750000
O O8 0.227290 0.375000 0.704580
#
# Coordination Sequence:
#
# PCOD8149738 Si02
#       5
#     8   4   8   4   8
#     4   9  24  40  68  96 132 167 218 262 332 375
#     4  11  21  42  72  92 130 174 214 266 324 380
#     4  10  24  41  64  98 132 167 215 264 319 384
#     4  11  21  42  72  92 130 174 214 266 324 380
#     4  10  24  41  64  98 132 167 215 264 319 384
#
# _framework density 21.262104000000001
#
# number of rings (size 3 to 8) (size 9 to 14) (size 15 to 20)
#    1.500    0.500    0.000    2.250    7.000    2.000 
#    0.000    0.000    0.000    0.000    0.000    0.000 
#    0.000    0.000    0.000    0.000    0.000    0.000 
#
# Total GULP energy -198248.023707 kJ/mol
# GULP energy per Si atom -12390.501482 kJ/mol
# Density = 2.121371 g / cm^3
# Si number density = 21.262104 Si / 1000 Ang^3
#
#
#
# Elastic Constant Matrix: (Units=GPa)
#
#
# Indices 1 2 3 4 5 6 
#
# 1 154.7765 77.7783 10.8232 0.0000 0.0002 0.0000
# 2 77.7783 181.8008 34.8268 0.0000 0.0002 0.0000
# 3 10.8232 34.8268 78.3374 0.0000 0.0001 0.0000
# 4 0.0000 0.0000 0.0000 15.3167 0.0000 0.0000
# 5 0.0002 0.0002 0.0001 0.0000 20.2602 0.0000
# 6 0.0000 0.0000 0.0000 0.0000 0.0000 22.9577
#
#
#
# Elastic Compliance Matrix: (Units=1/GPa)
#
#
# Indices 1 2 3 4 5 6 
#
# 1 0.008246 -0.003618 0.000469 0.000000 0.000000 0.000000
# 2 -0.003618 0.007600 -0.002879 0.000000 0.000000 0.000000
# 3 0.000469 -0.002879 0.013980 0.000000 0.000000 0.000000
# 4 0.000000 0.000000 0.000000 0.065288 0.000000 0.000000
# 5 0.000000 0.000000 0.000000 0.000000 0.049358 0.000000
# 6 0.000000 0.000000 0.000000 0.000000 0.000000 0.043558
#
#
# Mechanical properties :
#
#
# Convention : Reuss Voigt Hill
#
# Bulk Modulus (GPa) = 56.27080 73.53016 64.90048
# Shear Modulus (GPa) = 24.27073 31.13933 27.70503
#
# Velocity S-wave (km/s) = 3.38228 3.83109 3.61366
# Velocity P-wave (km/s) = 6.46342 7.36393 6.92832
#
# Compressibility (1/GPa) = 0.01777121
#
# Stress axis : x y z
#
# Youngs Moduli (GPa) = 121.26934 131.58333 71.52905
#
# Poissons Ratio (x) = 0.47603 -0.03355
# Poissons Ratio (y) = 0.43872 0.20592
# Poissons Ratio (z) = -0.05688 0.37880
#
# Static dielectric constant tensor:
#      x y z
#    x 3.421530 0.000000 0.000000 
#    y 0.000000 3.722510 0.000000 
#    z 0.000000 0.000000 3.577080 
# 
# 
# High freq. dielectric constant tensor:
#      x y z
#    x 1.818900 0.000000 0.000000 
#    y 0.000000 1.841050 0.000000 
#    z 0.000000 0.000000 1.808650 
# 
# From -- ./inp_files/94181.got.cif
#   From: 2010.06.25/outbox.cif.g09.slc.cpg/sg15_48_cif.got.tgz:94181.got - 2010.06.28 07:06:18.
