data_PCOD8149313
_publ_section_title
;
Structure prediction by ZEFSAII (Michael W. Deem and Ramdas Pophale) SiO2 
 PCOD8149313
Probable space group: C 2/C
;
_chemical_formula_sum "Si O2"
_cell_formula_units_Z 40
_cell_length_a 16.469111
_cell_length_b 10.195580
_cell_length_c 13.895408
_cell_angle_alpha 90.000000
_cell_angle_beta 52.398437
_cell_angle_gamma 90.000000
_cell_volume 1848.537442
_symmetry_space_group_name_H-M "C 2/C"
_symmetry_group_IT_number 15
_symmetry_cell_setting 'monoclinic'
loop_
_space_group_symop_operation_xyz
x,y,z
-x,y,1/2-z
-x,-y,-z
x,-y,1/2+z
1/2+x,1/2+y,z
1/2-x,1/2+y,1/2-z
1/2-x,1/2-y,-z
1/2+x,1/2-y,1/2+z
loop_
_atom_site_type_symbol
_atom_site_label
_atom_site_fract_x
_atom_site_fract_y
_atom_site_fract_z
Si Si1 0.691276 0.661944 0.326430
Si Si2 0.702311 0.496760 0.496596
Si Si3 0.516387 0.320498 0.630112
Si Si4 0.719858 0.055544 0.865616
Si Si5 0.578530 0.033521 0.618061
O O1 0.691294 0.624498 0.438427
O O2 0.577993 0.637808 0.367703
O O3 0.728378 0.813261 0.295318
O O4 0.770928 0.570676 0.210491
O O5 0.620487 0.389781 0.519736
O O6 0.691210 0.545055 0.616206
O O7 0.815579 0.431540 0.401883
O O8 0.500000 0.369706 0.750000
O O9 0.525185 0.164477 0.618726
O O10 0.608993 0.053710 0.002111
O O11 0.500000 0.962251 0.750000
#
# Coordination Sequence:
#
# PCOD8149313 Si02
#       5
#     8   8   8   8   8
#     4  12  25  43  73  99 141 179 233 276 359 395
#     4  10  23  45  66  99 137 182 224 290 335 407
#     4  11  21  41  68 103 136 181 225 285 336 421
#     4  10  26  44  70 103 136 184 228 288 332 419
#     4   9  22  42  70  94 144 176 228 278 339 400
#
# _framework density 21.638728
#
# number of rings (size 3 to 8) (size 9 to 14) (size 15 to 20)
#    1.200    0.400    2.000    1.800    8.400    0.800 
#    0.000    1.000    0.000    0.000    0.000    0.000 
#    0.000    0.000    0.000    0.000    0.000    0.000 
#
# Total GULP energy -247834.451167 kJ/mol
# GULP energy per Si atom -12391.722558 kJ/mol
# Density = 2.158948 g / cm^3
# Si number density = 21.638728 Si / 1000 Ang^3
#
#
#
# Elastic Constant Matrix: (Units=GPa)
#
#
# Indices 1 2 3 4 5 6 
#
# 1 81.1799 18.5355 30.9981 0.0000 9.3948 0.0000
# 2 18.5355 107.9621 63.4285 0.0000 8.7906 0.0000
# 3 30.9981 63.4285 105.6851 0.0000 4.7357 0.0000
# 4 0.0000 0.0000 0.0000 31.5966 0.0000 9.9295
# 5 9.3948 8.7906 4.7357 0.0000 32.3260 0.0000
# 6 0.0000 0.0000 0.0000 9.9295 0.0000 21.9644
#
#
#
# Elastic Compliance Matrix: (Units=1/GPa)
#
#
# Indices 1 2 3 4 5 6 
#
# 1 0.014274 0.000322 -0.004218 0.000000 -0.003618 0.000000
# 2 0.000322 0.014544 -0.008699 0.000000 -0.002774 0.000000
# 3 -0.004218 -0.008699 0.015863 0.000000 0.001267 0.000000
# 4 0.000000 0.000000 0.000000 0.036890 0.000000 -0.016677
# 5 -0.003618 -0.002774 0.001267 0.000000 0.032555 0.000000
# 6 0.000000 0.000000 0.000000 -0.016677 0.000000 0.053067
#
#
# Mechanical properties :
#
#
# Convention : Reuss Voigt Hill
#
# Bulk Modulus (GPa) = 51.30398 57.86127 54.58263
# Shear Modulus (GPa) = 25.14088 29.30174 27.22131
#
# Velocity S-wave (km/s) = 3.41229 3.68385 3.55066
# Velocity P-wave (km/s) = 6.26783 6.70015 6.48759
#
# Compressibility (1/GPa) = 0.01949166
#
# Stress axis : x y z
#
# Youngs Moduli (GPa) = 70.05717 68.75840 63.03959
#
# Poissons Ratio (x) = -0.02213 0.26589
# Poissons Ratio (y) = -0.02255 0.54836
# Poissons Ratio (z) = 0.29548 0.59811
#
# Static dielectric constant tensor:
#      x y z
#    x 3.849310 0.000000 0.025020 
#    y 0.000000 3.481550 0.000000 
#    z 0.025020 0.000000 3.921310 
# 
# 
# High freq. dielectric constant tensor:
#      x y z
#    x 1.850530 0.000000 0.008250 
#    y 0.000000 1.825970 0.000000 
#    z 0.008250 0.000000 1.844830 
# 
# From -- ./inp_files/160205.got.cif
#   From: 2010.06.25/outbox.cif.g09.slc.cpg/sg15_81_cif.got.tgz:160205.got - 2010.06.28 07:06:18.
