data_PCOD8149027
_publ_section_title
;
Structure prediction by ZEFSAII (Michael W. Deem and Ramdas Pophale) SiO2 
 PCOD8149027
Probable space group: C 2/C
;
_chemical_formula_sum "Si O2"
_cell_formula_units_Z 40
_cell_length_a 29.668428
_cell_length_b 8.833846
_cell_length_c 13.720269
_cell_angle_alpha 90.000000
_cell_angle_beta 30.698953
_cell_angle_gamma 90.000000
_cell_volume 1835.802157
_symmetry_space_group_name_H-M "C 2/C"
_symmetry_group_IT_number 15
_symmetry_cell_setting 'monoclinic'
loop_
_space_group_symop_operation_xyz
x,y,z
-x,y,1/2-z
-x,-y,-z
x,-y,1/2+z
1/2+x,1/2+y,z
1/2-x,1/2+y,1/2-z
1/2-x,1/2-y,-z
1/2+x,1/2-y,1/2+z
loop_
_atom_site_type_symbol
_atom_site_label
_atom_site_fract_x
_atom_site_fract_y
_atom_site_fract_z
Si Si1 0.228088 0.508685 0.509935
Si Si2 0.632923 0.633135 0.882547
Si Si3 0.245857 0.703458 0.660170
Si Si4 0.446838 0.677350 0.942714
Si Si5 0.558362 0.147571 0.381900
O O1 0.313097 0.420161 0.313239
O O2 0.244822 0.559035 0.590492
O O3 0.209170 0.655253 0.478274
O O4 0.145200 0.396400 0.659253
O O5 0.697194 0.663275 0.852349
O O6 0.582594 0.786332 0.944029
O O7 0.563333 0.503914 0.041149
O O8 0.147542 0.740794 0.878339
O O9 0.500000 0.734289 0.750000
O O10 0.503586 0.721177 0.931157
O O11 0.500000 0.000000 0.500000
#
# Coordination Sequence:
#
# PCOD8149027 Si02
#       5
#     8   8   8   8   8
#     4  10  23  43  72  96 137 177 228 276 332 411
#     4  11  26  42  73  98 137 181 229 274 341 405
#     4  10  23  45  69 102 131 180 228 277 332 405
#     4  11  25  43  67 100 140 174 224 283 341 398
#     4  12  25  42  67 100 137 173 224 284 338 391
#
# _framework density 21.788841999999999
#
# number of rings (size 3 to 8) (size 9 to 14) (size 15 to 20)
#    0.000    1.200    2.000    2.400    8.400    3.200 
#    0.000    0.000    0.000    0.000    0.000    0.000 
#    0.000    0.000    0.000    0.000    0.000    0.000 
#
# Total GULP energy -248098.814103 kJ/mol
# GULP energy per Si atom -12404.940705 kJ/mol
# Density = 2.173925 g / cm^3
# Si number density = 21.788842 Si / 1000 Ang^3
#
#
#
# Elastic Constant Matrix: (Units=GPa)
#
#
# Indices 1 2 3 4 5 6 
#
# 1 159.6661 75.8060 70.2955 0.0000 -8.4042 0.0000
# 2 75.8060 100.8508 32.2734 0.0006 -11.8266 0.0003
# 3 70.2955 32.2734 79.8718 0.0005 1.0134 0.0002
# 4 0.0000 0.0006 0.0005 27.3561 0.0001 -2.0354
# 5 -8.4042 -11.8266 1.0134 0.0001 32.8229 0.0000
# 6 0.0000 0.0003 0.0002 -2.0354 0.0000 33.4228
#
#
#
# Elastic Compliance Matrix: (Units=1/GPa)
#
#
# Indices 1 2 3 4 5 6 
#
# 1 0.013893 -0.007332 -0.009280 0.000000 0.001202 0.000000
# 2 -0.007332 0.015882 -0.000013 0.000000 0.003846 0.000000
# 3 -0.009280 -0.000013 0.020731 0.000000 -0.003021 0.000000
# 4 0.000000 0.000000 0.000000 0.036721 0.000000 0.002236
# 5 0.001202 0.003846 -0.003021 0.000000 0.032253 0.000000
# 6 0.000000 0.000000 0.000000 0.002236 0.000000 0.030056
#
#
# Mechanical properties :
#
#
# Convention : Reuss Voigt Hill
#
# Bulk Modulus (GPa) = 57.95165 77.45983 67.70574
# Shear Modulus (GPa) = 26.51963 29.52128 28.02045
#
# Velocity S-wave (km/s) = 3.49251 3.68486 3.58997
# Velocity P-wave (km/s) = 6.55120 7.33019 6.95161
#
# Compressibility (1/GPa) = 0.01725577
#
# Stress axis : x y z
#
# Youngs Moduli (GPa) = 71.97729 62.96325 48.23696
#
# Poissons Ratio (x) = 0.46167 0.44764
# Poissons Ratio (y) = 0.52777 0.00062
# Poissons Ratio (z) = 0.66795 0.00082
#
# Static dielectric constant tensor:
#      x y z
#    x 3.903060 0.000000 -0.009020 
#    y 0.000000 4.113480 0.000000 
#    z -0.009020 0.000000 4.054530 
# 
# 
# High freq. dielectric constant tensor:
#      x y z
#    x 1.855800 0.000000 -0.002340 
#    y 0.000000 1.865440 0.000000 
#    z -0.002340 0.000000 1.861290 
# 
# From -- ./inp_files/150662.got.cif
#   From: 2010.06.25/outbox.cif.g09.slc.cpg/sg15_76_cif.got.tgz:150662.got - 2010.06.28 07:06:18.
