data_PCOD8149531
_publ_section_title
;
Structure prediction by ZEFSAII (Michael W. Deem and Ramdas Pophale) SiO2 
 PCOD8149531
Probable space group: C 2/C
;
_chemical_formula_sum "Si O2"
_cell_formula_units_Z 40
_cell_length_a 8.593489
_cell_length_b 22.319433
_cell_length_c 16.937499
_cell_angle_alpha 90.000000
_cell_angle_beta 147.213048
_cell_angle_gamma 90.000000
_cell_volume 1759.194583
_symmetry_space_group_name_H-M "C 2/C"
_symmetry_group_IT_number 15
_symmetry_cell_setting 'monoclinic'
loop_
_space_group_symop_operation_xyz
x,y,z
-x,y,1/2-z
-x,-y,-z
x,-y,1/2+z
1/2+x,1/2+y,z
1/2-x,1/2+y,1/2-z
1/2-x,1/2-y,-z
1/2+x,1/2-y,1/2+z
loop_
_atom_site_type_symbol
_atom_site_label
_atom_site_fract_x
_atom_site_fract_y
_atom_site_fract_z
Si Si1 0.266124 0.082680 0.418663
Si Si2 0.927176 0.810619 0.567727
Si Si3 0.338850 0.548322 0.598043
Si Si4 0.041133 0.243542 0.674810
Si Si5 0.817040 0.134712 0.859946
O O1 0.268139 0.137421 0.479391
O O2 0.548504 0.086127 0.484905
O O3 0.000000 0.091589 0.250000
O O4 0.243761 0.020350 0.458226
O O5 0.750000 0.750000 0.500000
O O6 0.986742 0.831650 0.503174
O O7 0.237345 0.799591 0.742822
O O8 0.500000 0.549493 0.750000
O O9 0.517442 0.575970 0.601627
O O10 0.204384 0.183039 0.718972
O O11 0.000000 0.235889 0.750000
O O12 0.750000 0.250000 0.500000
O O13 0.500000 0.114081 0.750000
#
# Coordination Sequence:
#
# PCOD8149531 Si02
#       5
#     8   8   8   8   8
#     4  10  25  45  74 103 140 188 237 300 363 441
#     4  12  27  44  67 107 147 189 239 298 367 434
#     4  10  23  48  74 103 137 188 243 293 369 435
#     4  12  27  45  68 102 145 191 240 295 363 438
#     4  12  25  43  73 106 141 192 242 305 358 433
#
# _framework density 22.737679
#
# number of rings (size 3 to 8) (size 9 to 14) (size 15 to 20)
#    0.000    0.800    4.000    1.800    8.400    0.800 
#    0.000    1.000    0.000    0.000    0.000    0.000 
#    0.000    0.000    0.000    0.000    0.000    0.000 
#
# Total GULP energy -247962.637533 kJ/mol
# GULP energy per Si atom -12398.131877 kJ/mol
# Density = 2.268593 g / cm^3
# Si number density = 22.737679 Si / 1000 Ang^3
#
#
#
# Elastic Constant Matrix: (Units=GPa)
#
#
# Indices 1 2 3 4 5 6 
#
# 1 150.1157 86.8952 54.2879 0.0140 21.7492 -0.0167
# 2 86.8952 151.7925 40.2260 -0.0145 12.3737 0.0010
# 3 54.2879 40.2260 143.1703 0.0058 14.7280 0.0571
# 4 0.0140 -0.0145 0.0058 32.6692 0.0005 6.8821
# 5 21.7492 12.3737 14.7280 0.0005 40.2325 0.0106
# 6 -0.0167 0.0010 0.0571 6.8821 0.0106 43.7292
#
#
#
# Elastic Compliance Matrix: (Units=1/GPa)
#
#
# Indices 1 2 3 4 5 6 
#
# 1 0.011204 -0.005508 -0.002340 -0.000009 -0.003506 0.000010
# 2 -0.005508 0.009915 -0.000717 0.000007 0.000190 -0.000003
# 3 -0.002340 -0.000717 0.008231 0.000002 -0.001527 -0.000012
# 4 -0.000009 0.000007 0.000002 0.031659 0.000003 -0.004983
# 5 -0.003506 0.000190 -0.001527 0.000003 0.027251 -0.000006
# 6 0.000010 -0.000003 -0.000012 -0.004983 -0.000006 0.023652
#
#
# Mechanical properties :
#
#
# Convention : Reuss Voigt Hill
#
# Bulk Modulus (GPa) = 81.83307 89.76629 85.79968
# Shear Modulus (GPa) = 37.56094 40.90414 39.23254
#
# Velocity S-wave (km/s) = 4.06880 4.24601 4.15835
# Velocity P-wave (km/s) = 7.62507 7.97515 7.80207
#
# Compressibility (1/GPa) = 0.01222000
#
# Stress axis : x y z
#
# Youngs Moduli (GPa) = 89.25288 100.85224 121.49726
#
# Poissons Ratio (x) = 0.55549 0.28433
# Poissons Ratio (y) = 0.49160 0.08711
# Poissons Ratio (z) = 0.20887 0.07231
#
# Static dielectric constant tensor:
#      x y z
#    x 4.047080 -0.000620 -0.029170 
#    y -0.000620 4.355490 -0.001300 
#    z -0.029170 -0.001300 4.067700 
# 
# 
# High freq. dielectric constant tensor:
#      x y z
#    x 1.897260 0.000000 0.013220 
#    y 0.000000 1.899390 -0.000010 
#    z 0.013220 -0.000010 1.907610 
# 
# From -- ./inp_files/193461.got.cif
#   From: 2010.06.25/outbox.cif.g09.slc.cpg/sg15_97_cif.got.tgz:193461.got - 2010.06.28 07:06:18.
