data_PCOD8149575
_publ_section_title
;
Structure prediction by ZEFSAII (Michael W. Deem and Ramdas Pophale) SiO2 
 PCOD8149575
Probable space group: C 2/C
;
_chemical_formula_sum "Si O2"
_cell_formula_units_Z 44
_cell_length_a 25.147765
_cell_length_b 12.189957
_cell_length_c 23.202659
_cell_angle_alpha 90.000000
_cell_angle_beta 19.359043
_cell_angle_gamma 90.000000
_cell_volume 2357.792393
_symmetry_space_group_name_H-M "C 2/C"
_symmetry_group_IT_number 15
_symmetry_cell_setting 'monoclinic'
loop_
_space_group_symop_operation_xyz
x,y,z
-x,y,1/2-z
-x,-y,-z
x,-y,1/2+z
1/2+x,1/2+y,z
1/2-x,1/2+y,1/2-z
1/2-x,1/2-y,-z
1/2+x,1/2-y,1/2+z
loop_
_atom_site_type_symbol
_atom_site_label
_atom_site_fract_x
_atom_site_fract_y
_atom_site_fract_z
Si Si1 0.500000 0.732464 0.750000
Si Si2 0.336184 0.393443 0.111033
Si Si3 0.265022 0.688981 0.901666
Si Si4 0.799593 0.831457 0.743485
Si Si5 0.295823 0.115436 0.282877
Si Si6 0.660145 0.951271 0.406278
O O1 0.427108 0.661594 0.771620
O O2 0.630185 0.811869 0.588414
O O3 0.240525 0.285969 0.187108
O O4 0.293000 0.498622 0.115241
O O5 0.281366 0.418894 0.231804
O O6 0.525118 0.371091 0.917049
O O7 0.279936 0.807476 0.854783
O O8 0.233925 0.592133 0.889784
O O9 0.785392 0.822029 0.688186
O O10 0.665119 0.916551 0.904220
O O11 0.481842 0.092646 0.077443
#
# Coordination Sequence:
#
# PCOD8149575 Si02
#       6
#     4   8   8   8   8   8
#     4  10  24  38  56  82 110 142 196 234 282 328
#     4  11  22  34  52  82 114 152 186 216 268 352
#     4  11  22  38  58  84 112 146 184 237 284 322
#     4  11  22  34  52  82 114 152 186 216 268 352
#     4  11  21  34  56  79 115 149 182 226 279 327
#     4  11  21  34  56  79 115 149 182 226 279 327
#
# _framework density 18.661524
#
# number of rings (size 3 to 8) (size 9 to 14) (size 15 to 20)
#    0.000    1.091    3.636    6.545    5.091    0.000 
#    0.000    0.000    0.000    0.000    0.000    7.636 
#    0.000    0.000    0.000    0.000    0.000    0.000 
#
# Total GULP energy -272720.155603 kJ/mol
# GULP energy per Si atom -12396.370709 kJ/mol
# Density = 1.861905 g / cm^3
# Si number density = 18.661524 Si / 1000 Ang^3
#
#
#
# Elastic Constant Matrix: (Units=GPa)
#
#
# Indices 1 2 3 4 5 6 
#
# 1 84.9887 26.8031 17.9915 -0.0091 -16.9536 -0.0003
# 2 26.8031 104.9994 11.1771 0.0173 -1.6327 0.0037
# 3 17.9915 11.1771 74.5294 0.0208 -12.0389 0.0064
# 4 -0.0091 0.0173 0.0208 24.3537 -0.0042 -9.7258
# 5 -16.9536 -1.6327 -12.0389 -0.0042 33.5088 -0.0016
# 6 -0.0003 0.0037 0.0064 -9.7258 -0.0016 12.9373
#
#
#
# Elastic Compliance Matrix: (Units=1/GPa)
#
#
# Indices 1 2 3 4 5 6 
#
# 1 0.014549 -0.003405 -0.001953 0.000017 0.006493 0.000016
# 2 -0.003405 0.010475 -0.001003 -0.000013 -0.001573 -0.000013
# 3 -0.001953 -0.001003 0.014726 -0.000021 0.004254 -0.000022
# 4 0.000017 -0.000013 -0.000021 0.058678 0.000010 0.044112
# 5 0.006493 -0.001573 0.004254 0.000010 0.034580 0.000010
# 6 0.000016 -0.000013 -0.000022 0.044112 0.000010 0.110458
#
#
# Mechanical properties :
#
#
# Convention : Reuss Voigt Hill
#
# Bulk Modulus (GPa) = 36.99674 41.82898 39.41286
# Shear Modulus (GPa) = 18.85383 28.06300 23.45841
#
# Velocity S-wave (km/s) = 3.18198 3.88208 3.54933
# Velocity P-wave (km/s) = 5.77652 6.52359 6.16139
#
# Compressibility (1/GPa) = 0.02702941
#
# Stress axis : x y z
#
# Youngs Moduli (GPa) = 68.73425 95.46188 67.90485
#
# Poissons Ratio (x) = 0.32505 0.13259
# Poissons Ratio (y) = 0.23404 0.06811
# Poissons Ratio (z) = 0.13421 0.09575
#
# Static dielectric constant tensor:
#      x y z
#    x 3.333110 -0.000020 -0.262470 
#    y -0.000020 3.779310 0.000050 
#    z -0.262470 0.000050 3.587280 
# 
# 
# High freq. dielectric constant tensor:
#      x y z
#    x 1.690420 0.000000 -0.024720 
#    y 0.000000 1.719170 0.000000 
#    z -0.024720 0.000000 1.740340 
# 
# From -- ./inp_files/60480.got.cif
#   From: 2010.06.25/outbox.cif.g09.slc.cpg/sg15_31_cif.got.tgz:60480.got - 2010.06.28 07:06:18.
