data_PCOD8149906
_publ_section_title
;
Structure prediction by ZEFSAII (Michael W. Deem and Ramdas Pophale) SiO2 
 PCOD8149906
Probable space group: C 2/C
;
_chemical_formula_sum "Si O2"
_cell_formula_units_Z 44
_cell_length_a 7.951567
_cell_length_b 16.480829
_cell_length_c 16.855460
_cell_angle_alpha 90.000000
_cell_angle_beta 60.261016
_cell_angle_gamma 90.000000
_cell_volume 1917.958859
_symmetry_space_group_name_H-M "C 2/C"
_symmetry_group_IT_number 15
_symmetry_cell_setting 'monoclinic'
loop_
_space_group_symop_operation_xyz
x,y,z
-x,y,1/2-z
-x,-y,-z
x,-y,1/2+z
1/2+x,1/2+y,z
1/2-x,1/2+y,1/2-z
1/2-x,1/2-y,-z
1/2+x,1/2-y,1/2+z
loop_
_atom_site_type_symbol
_atom_site_label
_atom_site_fract_x
_atom_site_fract_y
_atom_site_fract_z
Si Si1 0.000000 0.074195 0.750000
Si Si2 0.808026 0.328581 0.090479
Si Si3 0.660855 0.559678 0.308013
Si Si4 0.500000 0.701959 0.250000
Si Si5 0.129870 0.152067 0.466909
Si Si6 0.822885 0.664116 0.899604
Si Si7 0.500000 0.965024 0.250000
O O1 0.814668 0.133012 0.807354
O O2 0.990568 0.012517 0.676984
O O3 0.769055 0.232255 0.093575
O O4 0.035963 0.343331 0.056361
O O5 0.733490 0.369096 0.026099
O O6 0.636033 0.645020 0.270543
O O7 0.661108 0.575003 0.402522
O O8 0.865456 0.524245 0.229275
O O9 0.629585 0.755080 0.160987
O O10 0.900142 0.169080 0.525012
O O11 0.854275 0.586569 0.837334
#
# Coordination Sequence:
#
# PCOD8149906 Si02
#       7
#     4   8   8   4   8   8   4
#     4  11  24  46  70  95 144 178 234 267 354 402
#     4  11  24  44  71 106 132 186 223 290 330 411
#     4  11  24  45  64 105 136 182 219 294 330 417
#     4  10  24  42  70  94 136 178 234 272 338 394
#     4  11  26  43  73 101 143 169 238 283 346 387
#     4  11  23  48  70 100 129 189 225 282 332 417
#     4  11  24  42  70  97 136 176 232 267 352 400
#
# _framework density 22.941057000000001
#
# number of rings (size 3 to 8) (size 9 to 14) (size 15 to 20)
#    0.000    1.091    3.636    1.636    2.545    6.545 
#    3.273    1.818    0.000    0.000    0.000    0.000 
#    0.000    0.000    0.000    0.000    0.000    0.000 
#
# Total GULP energy -272674.244554 kJ/mol
# GULP energy per Si atom -12394.283843 kJ/mol
# Density = 2.288884 g / cm^3
# Si number density = 22.941057 Si / 1000 Ang^3
#
#
#
# Elastic Constant Matrix: (Units=GPa)
#
#
# Indices 1 2 3 4 5 6 
#
# 1 135.3580 37.0899 45.0435 0.0000 12.9033 0.0000
# 2 37.0899 116.8747 64.1522 0.0000 -8.8105 0.0000
# 3 45.0435 64.1522 91.0785 0.0000 8.6977 0.0000
# 4 0.0000 0.0000 0.0000 17.8385 0.0000 -0.7527
# 5 12.9033 -8.8105 8.6977 0.0000 36.0967 0.0000
# 6 0.0000 0.0000 0.0000 -0.7527 0.0000 28.0786
#
#
#
# Elastic Compliance Matrix: (Units=1/GPa)
#
#
# Indices 1 2 3 4 5 6 
#
# 1 0.009112 -0.001256 -0.003359 0.000000 -0.002754 0.000000
# 2 -0.001256 0.015472 -0.010932 0.000000 0.006860 0.000000
# 3 -0.003359 -0.010932 0.020964 0.000000 -0.006519 0.000000
# 4 0.000000 0.000000 0.000000 0.056122 0.000000 0.001504
# 5 -0.002754 0.006860 -0.006519 0.000000 0.031933 0.000000
# 6 0.000000 0.000000 0.000000 0.001504 0.000000 0.035655
#
#
# Mechanical properties :
#
#
# Convention : Reuss Voigt Hill
#
# Bulk Modulus (GPa) = 69.18335 70.65361 69.91848
# Shear Modulus (GPa) = 24.37003 29.53782 26.95392
#
# Velocity S-wave (km/s) = 3.26281 3.59214 3.43143
# Velocity P-wave (km/s) = 6.66461 6.93321 6.80024
#
# Compressibility (1/GPa) = 0.01445434
#
# Stress axis : x y z
#
# Youngs Moduli (GPa) = 109.74238 64.63104 47.70164
#
# Poissons Ratio (x) = 0.08115 0.16023
# Poissons Ratio (y) = 0.13779 0.52149
# Poissons Ratio (z) = 0.36864 0.70657
#
# Static dielectric constant tensor:
#      x y z
#    x 4.392370 0.000000 0.275560 
#    y 0.000000 4.329440 0.000000 
#    z 0.275560 0.000000 3.872990 
# 
# 
# High freq. dielectric constant tensor:
#      x y z
#    x 1.921400 0.000000 0.015120 
#    y 0.000000 1.922000 0.000000 
#    z 0.015120 0.000000 1.877020 
# 
# From -- ./inp_files/188926.got.cif
#   From: 2010.06.25/outbox.cif.g09.slc.cpg/sg15_95_cif.got.tgz:188926.got - 2010.06.28 07:06:18.
