data_PCOD8149924
_publ_section_title
;
Structure prediction by ZEFSAII (Michael W. Deem and Ramdas Pophale) SiO2 
 PCOD8149924
Probable space group: C 2/C
;
_chemical_formula_sum "Si O2"
_cell_formula_units_Z 52
_cell_length_a 16.729650
_cell_length_b 5.325562
_cell_length_c 25.923238
_cell_angle_alpha 90.000000
_cell_angle_beta 122.452952
_cell_angle_gamma 90.000000
_cell_volume 1948.936656
_symmetry_space_group_name_H-M "C 2/C"
_symmetry_group_IT_number 15
_symmetry_cell_setting 'monoclinic'
loop_
_space_group_symop_operation_xyz
x,y,z
-x,y,1/2-z
-x,-y,-z
x,-y,1/2+z
1/2+x,1/2+y,z
1/2-x,1/2+y,1/2-z
1/2-x,1/2-y,-z
1/2+x,1/2-y,1/2+z
loop_
_atom_site_type_symbol
_atom_site_label
_atom_site_fract_x
_atom_site_fract_y
_atom_site_fract_z
Si Si1 0.303434 0.979086 0.568180
Si Si2 0.500000 0.273465 0.750000
Si Si3 0.601086 0.690683 0.983596
Si Si4 0.820992 0.025812 0.139593
Si Si5 0.922893 0.843946 0.909303
Si Si6 0.597766 0.958190 0.195161
Si Si7 0.215406 0.801927 0.183400
O O1 0.375777 0.929950 0.545164
O O2 0.193980 0.989273 0.511474
O O3 0.314716 0.745893 0.611895
O O4 0.327468 0.247592 0.600519
O O5 0.584588 0.459867 0.793230
O O6 0.482218 0.075262 0.790066
O O7 0.583845 0.783487 0.036575
O O8 0.506701 0.548349 0.933611
O O9 0.733361 0.074256 0.148582
O O10 0.943821 0.644232 0.872666
O O11 0.818369 0.962375 0.862010
O O12 0.693037 0.828958 0.249455
O O13 0.627940 0.242747 0.192255
#
# Coordination Sequence:
#
# PCOD8149924 Si02
#       7
#     8   4   8   8   8   8   8
#     4  11  24  48  69 103 143 196 233 303 359 428
#     4  10  26  44  70 116 134 198 236 314 364 438
#     4  10  24  42  72  97 143 187 246 291 360 426
#     4  11  25  46  73 103 150 183 245 296 366 434
#     4  11  22  46  63 105 136 186 242 301 354 440
#     4  11  23  44  69  99 145 183 244 299 372 433
#     4  11  23  40  71  99 136 192 234 296 367 442
#
# _framework density 26.681215000000002
#
# number of rings (size 3 to 8) (size 9 to 14) (size 15 to 20)
#    0.000    1.231    3.077    1.846    2.154    3.077 
#    5.538    2.308    0.000    0.000    0.000    0.000 
#    0.000    0.000    0.000    0.000    0.000    0.000 
#
# Total GULP energy -322215.567666 kJ/mol
# GULP energy per Si atom -12392.906449 kJ/mol
# Density = 2.662049 g / cm^3
# Si number density = 26.681215 Si / 1000 Ang^3
#
#
#
# Elastic Constant Matrix: (Units=GPa)
#
#
# Indices 1 2 3 4 5 6 
#
# 1 108.6721 -4.6378 19.8600 -0.0001 -19.4761 0.0000
# 2 -4.6378 51.3582 8.0533 0.0003 -9.4965 0.0010
# 3 19.8600 8.0533 98.1767 -0.0001 -10.9819 -0.0001
# 4 -0.0001 0.0003 -0.0001 24.5058 -0.0001 -1.5863
# 5 -19.4761 -9.4965 -10.9819 -0.0001 48.4577 -0.0001
# 6 0.0000 0.0010 -0.0001 -1.5863 -0.0001 24.1372
#
#
#
# Elastic Compliance Matrix: (Units=1/GPa)
#
#
# Indices 1 2 3 4 5 6 
#
# 1 0.010357 0.001983 -0.001794 0.000000 0.004145 0.000000
# 2 0.001983 0.020733 -0.001599 0.000000 0.004498 -0.000001
# 3 -0.001794 -0.001599 0.010839 0.000000 0.001422 0.000000
# 4 0.000000 0.000000 0.000000 0.040981 0.000000 0.002693
# 5 0.004145 0.004498 0.001422 0.000000 0.023506 0.000000
# 6 0.000000 -0.000001 0.000000 0.002693 0.000000 0.041607
#
#
# Mechanical properties :
#
#
# Convention : Reuss Voigt Hill
#
# Bulk Modulus (GPa) = 25.56952 33.86199 29.71576
# Shear Modulus (GPa) = 30.51035 35.08224 32.79630
#
# Velocity S-wave (km/s) = 3.38526 3.63004 3.50978
# Velocity P-wave (km/s) = 4.98840 5.50350 5.25227
#
# Compressibility (1/GPa) = 0.03910906
#
# Stress axis : x y z
#
# Youngs Moduli (GPa) = 96.54979 48.23340 92.26059
#
# Poissons Ratio (x) = -0.09565 0.16553
# Poissons Ratio (y) = -0.19146 0.14750
# Poissons Ratio (z) = 0.17323 0.07711
#
# Static dielectric constant tensor:
#      x y z
#    x 5.197760 0.000000 -0.164730 
#    y 0.000000 4.253570 0.000000 
#    z -0.164730 0.000000 5.244650 
# 
# 
# High freq. dielectric constant tensor:
#      x y z
#    x 2.084480 0.000000 -0.001850 
#    y 0.000000 2.037880 0.000000 
#    z -0.001850 0.000000 2.096990 
# 
# From -- ./inp_files/297830.got.cif
#   From: 2010.06.25/outbox.cif.g09.slc.cpg/sg15_149_cif.got.tgz:297830.got - 2010.06.28 07:06:18.
