data_PCOD8149391
_publ_section_title
;
Structure prediction by ZEFSAII (Michael W. Deem and Ramdas Pophale) SiO2 
 PCOD8149391
Probable space group: C 2/C
;
_chemical_formula_sum "Si O2"
_cell_formula_units_Z 40
_cell_length_a 13.474714
_cell_length_b 8.960546
_cell_length_c 14.464193
_cell_angle_alpha 90.000000
_cell_angle_beta 85.121631
_cell_angle_gamma 90.000000
_cell_volume 1740.091709
_symmetry_space_group_name_H-M "C 2/C"
_symmetry_group_IT_number 15
_symmetry_cell_setting 'monoclinic'
loop_
_space_group_symop_operation_xyz
x,y,z
-x,y,1/2-z
-x,-y,-z
x,-y,1/2+z
1/2+x,1/2+y,z
1/2-x,1/2+y,1/2-z
1/2-x,1/2-y,-z
1/2+x,1/2-y,1/2+z
loop_
_atom_site_type_symbol
_atom_site_label
_atom_site_fract_x
_atom_site_fract_y
_atom_site_fract_z
Si Si1 0.498328 0.847978 0.056154
Si Si2 0.346801 0.224648 0.255146
Si Si3 0.833397 0.173040 0.551625
Si Si4 0.149431 0.130140 0.376819
Si Si5 0.000000 0.965363 0.250000
Si Si6 0.000000 0.526858 0.750000
O O1 0.387969 0.777889 0.067223
O O2 0.532472 0.873897 0.159451
O O3 0.562711 0.725034 0.998319
O O4 0.500000 0.000000 0.000000
O O5 0.316313 0.288218 0.159126
O O6 0.246687 0.184065 0.315904
O O7 0.416257 0.350818 0.300876
O O8 0.405252 0.072199 0.231478
O O9 0.750000 0.250000 0.500000
O O10 0.824163 0.993567 0.548077
O O11 0.057586 0.068296 0.319785
#
# Coordination Sequence:
#
# PCOD8149391 Si02
#       6
#     8   8   8   8   4   4
#     4  12  26  45  73 105 145 192 245 307 373 447
#     4  10  23  45  74 107 146 194 247 311 375 447
#     4  11  25  46  70 108 149 187 250 310 375 454
#     4  11  25  46  74 108 148 195 249 309 380 445
#     4   9  23  42  74 108 144 190 254 304 366 450
#     4  11  23  46  74 102 146 194 248 302 378 446
#
# _framework density 22.987293999999999
#
# number of rings (size 3 to 8) (size 9 to 14) (size 15 to 20)
#    0.000    1.200    2.000    2.400   11.200    0.000 
#    0.000    2.000    0.000    0.000    0.000    0.000 
#    0.000    0.000    0.000    0.000    0.000    0.000 
#
# Total GULP energy -247881.405033 kJ/mol
# GULP energy per Si atom -12394.070252 kJ/mol
# Density = 2.293497 g / cm^3
# Si number density = 22.987294 Si / 1000 Ang^3
#
#
#
# Elastic Constant Matrix: (Units=GPa)
#
#
# Indices 1 2 3 4 5 6 
#
# 1 129.6530 54.5883 42.4016 0.0000 -22.8400 0.0000
# 2 54.5883 144.4667 59.0868 0.0000 -20.9204 0.0000
# 3 42.4016 59.0868 107.6191 0.0000 -24.2037 0.0000
# 4 0.0000 0.0000 0.0000 -330.7748 0.0000 49.1176
# 5 -22.8400 -20.9204 -24.2037 0.0000 44.4157 0.0000
# 6 0.0000 0.0000 0.0000 49.1176 0.0000 24.5032
#
#
#
# Elastic Compliance Matrix: (Units=1/GPa)
#
#
# Indices 1 2 3 4 5 6 
#
# 1 0.009906 -0.002572 -0.001843 0.000000 0.002878 0.000000
# 2 -0.002572 0.009715 -0.004090 0.000000 0.001024 0.000000
# 3 -0.001843 -0.004090 0.013240 0.000000 0.004341 0.000000
# 4 0.000000 0.000000 0.000000 -0.002330 0.000000 0.004670
# 5 0.002878 0.001024 0.004341 0.000000 0.026842 0.000000
# 6 0.000000 0.000000 0.000000 0.004670 0.000000 0.031450
#
#
# Mechanical properties :
#
#
# Convention : Reuss Voigt Hill
#
# Bulk Modulus (GPa) = 63.09346 77.09913 70.09629
# Shear Modulus (GPa) = 44.99726 -37.32702 3.83512
#
# Velocity S-wave (km/s) = 4.42915 -4.03403 1.29305
# Velocity P-wave (km/s) = 7.32551 3.45179 5.72617
#
# Compressibility (1/GPa) = 0.01584950
#
# Stress axis : x y z
#
# Youngs Moduli (GPa) = 100.95174 102.93163 75.52798
#
# Poissons Ratio (x) = 0.26478 0.13922
# Poissons Ratio (y) = 0.25968 0.30892
# Poissons Ratio (z) = 0.18609 0.42100
#
# Static dielectric constant tensor:
#      x y z
#    x 4.352730 0.000000 0.129760 
#    y 0.000000 4.494280 0.000000 
#    z 0.129760 0.000000 3.953450 
# 
# 
# High freq. dielectric constant tensor:
#      x y z
#    x 1.906950 0.000000 -0.012970 
#    y 0.000000 1.931890 0.000000 
#    z -0.012970 0.000000 1.898110 
# 
# From -- ./inp_files/150648.got.cif
#   From: 2010.06.25/outbox.cif.g09.slc.cpg/sg15_76_cif.got.tgz:150648.got - 2010.06.28 07:06:18.
