data_PCOD8149458
_publ_section_title
;
Structure prediction by ZEFSAII (Michael W. Deem and Ramdas Pophale) SiO2 
 PCOD8149458
Probable space group: C 2/C
;
_chemical_formula_sum "Si O2"
_cell_formula_units_Z 44
_cell_length_a 11.148429
_cell_length_b 28.588101
_cell_length_c 8.392312
_cell_angle_alpha 90.000000
_cell_angle_beta 129.192871
_cell_angle_gamma 90.000000
_cell_volume 2072.980711
_symmetry_space_group_name_H-M "C 2/C"
_symmetry_group_IT_number 15
_symmetry_cell_setting 'monoclinic'
loop_
_space_group_symop_operation_xyz
x,y,z
-x,y,1/2-z
-x,-y,-z
x,-y,1/2+z
1/2+x,1/2+y,z
1/2-x,1/2+y,1/2-z
1/2-x,1/2-y,-z
1/2+x,1/2-y,1/2+z
loop_
_atom_site_type_symbol
_atom_site_label
_atom_site_fract_x
_atom_site_fract_y
_atom_site_fract_z
Si Si1 0.251121 0.056621 0.829965
Si Si2 0.000000 0.597280 0.250000
Si Si3 0.324893 0.300134 0.547128
Si Si4 0.246080 0.374985 0.720061
Si Si5 0.176486 0.040606 0.407679
Si Si6 0.562608 0.647947 0.644856
O O1 0.255129 0.046269 0.645970
O O2 0.153650 0.102859 0.785317
O O3 0.174722 0.013085 0.855287
O O4 0.420056 0.064603 0.048825
O O5 0.123630 0.630355 0.261551
O O6 0.500000 0.296590 0.750000
O O7 0.250000 0.250000 0.500000
O O8 0.219674 0.335459 0.563351
O O9 0.325272 0.318422 0.364234
O O10 0.224920 0.426815 0.628473
O O11 0.421607 0.369752 0.921490
O O12 0.000000 0.058806 0.250000
O O13 0.500000 0.675080 0.750000
#
# Coordination Sequence:
#
# PCOD8149458 Si02
#       6
#     8   4   8   8   8   8
#     4  12  25  40  66 100 138 179 230 280 334 400
#     4  12  28  42  60 100 142 182 218 284 348 400
#     4  10  23  46  72 100 133 172 222 285 344 410
#     4  11  23  44  67  96 136 174 229 274 342 401
#     4  12  23  41  70  96 128 184 239 280 327 399
#     4  11  21  44  71  99 130 177 227 280 326 402
#
# _framework density 21.225473999999998
#
# number of rings (size 3 to 8) (size 9 to 14) (size 15 to 20)
#    0.000    0.727    5.455    2.727    0.000    5.091 
#    1.636    1.818    0.000    0.000    0.000    0.000 
#    0.000    0.000    0.000    0.000    0.000    0.000 
#
# Total GULP energy -272777.391891 kJ/mol
# GULP energy per Si atom -12398.972359 kJ/mol
# Density = 2.117716 g / cm^3
# Si number density = 21.225474 Si / 1000 Ang^3
#
#
#
# Elastic Constant Matrix: (Units=GPa)
#
#
# Indices 1 2 3 4 5 6 
#
# 1 138.1595 70.1048 41.8860 0.0000 -23.6683 0.0000
# 2 70.1048 137.0893 34.1715 0.0000 -14.1288 0.0000
# 3 41.8860 34.1715 115.6592 0.0000 -18.5890 0.0000
# 4 0.0000 0.0000 0.0000 26.3375 0.0000 -1.6673
# 5 -23.6683 -14.1288 -18.5890 0.0000 38.6146 0.0000
# 6 0.0000 0.0000 0.0000 -1.6673 0.0000 35.9259
#
#
#
# Elastic Compliance Matrix: (Units=1/GPa)
#
#
# Indices 1 2 3 4 5 6 
#
# 1 0.010879 -0.004671 -0.001911 0.000000 0.004040 0.000000
# 2 -0.004671 0.010012 -0.001233 0.000000 0.000207 0.000000
# 3 -0.001911 -0.001233 0.010233 0.000000 0.003304 0.000000
# 4 0.000000 0.000000 0.000000 0.038081 0.000000 0.001767
# 5 0.004040 0.000207 0.003304 0.000000 0.030039 0.000000
# 6 0.000000 0.000000 0.000000 0.001767 0.000000 0.027917
#
#
# Mechanical properties :
#
#
# Convention : Reuss Voigt Hill
#
# Bulk Modulus (GPa) = 64.53709 75.91473 70.22591
# Shear Modulus (GPa) = 33.79381 36.49198 35.14289
#
# Velocity S-wave (km/s) = 3.99448 4.15089 4.07344
# Velocity P-wave (km/s) = 7.19347 7.66920 7.43514
#
# Compressibility (1/GPa) = 0.01549497
#
# Stress axis : x y z
#
# Youngs Moduli (GPa) = 91.91668 99.88192 97.71896
#
# Poissons Ratio (x) = 0.46654 0.18671
# Poissons Ratio (y) = 0.42934 0.12051
# Poissons Ratio (z) = 0.17563 0.12318
#
# Static dielectric constant tensor:
#      x y z
#    x 3.930120 0.000000 -0.275510 
#    y 0.000000 3.736650 0.000000 
#    z -0.275510 0.000000 4.033740 
# 
# 
# High freq. dielectric constant tensor:
#      x y z
#    x 1.836510 0.000000 -0.016150 
#    y 0.000000 1.810740 0.000000 
#    z -0.016150 0.000000 1.839360 
# 
# From -- ./inp_files/34002.got.cif
#   From: 2010.06.25/outbox.cif.g09.slc.cpg/sg15_18_cif.got.tgz:34002.got - 2010.06.28 07:06:18.
