data_PCOD8149681
_publ_section_title
;
Structure prediction by ZEFSAII (Michael W. Deem and Ramdas Pophale) SiO2 
 PCOD8149681
Probable space group: C 2/C
;
_chemical_formula_sum "Si O2"
_cell_formula_units_Z 60
_cell_length_a 20.978575
_cell_length_b 15.265359
_cell_length_c 8.217976
_cell_angle_alpha 90.000000
_cell_angle_beta 78.847548
_cell_angle_gamma 90.000000
_cell_volume 2582.071337
_symmetry_space_group_name_H-M "C 2/C"
_symmetry_group_IT_number 15
_symmetry_cell_setting 'monoclinic'
loop_
_space_group_symop_operation_xyz
x,y,z
-x,y,1/2-z
-x,-y,-z
x,-y,1/2+z
1/2+x,1/2+y,z
1/2-x,1/2+y,1/2-z
1/2-x,1/2-y,-z
1/2+x,1/2-y,1/2+z
loop_
_atom_site_type_symbol
_atom_site_label
_atom_site_fract_x
_atom_site_fract_y
_atom_site_fract_z
Si Si1 0.651286 0.004832 0.622793
Si Si2 0.442122 0.934281 0.075668
Si Si3 0.129114 0.930109 0.321425
Si Si4 0.684962 0.730648 0.631351
Si Si5 0.140280 0.116309 0.188167
Si Si6 0.000000 0.866479 0.250000
Si Si7 0.785641 0.379230 0.662243
Si Si8 0.934668 0.761267 0.544851
O O1 0.584606 0.037463 0.736911
O O2 0.686100 0.088534 0.523708
O O3 0.622311 0.937700 0.505544
O O4 0.704564 0.957381 0.710271
O O5 0.464678 0.833351 0.075914
O O6 0.500000 0.000000 0.000000
O O7 0.181891 0.868234 0.203938
O O8 0.121019 0.905209 0.513618
O O9 0.061638 0.926101 0.256499
O O10 0.148441 0.030751 0.297569
O O11 0.750000 0.750000 0.500000
O O12 0.676100 0.794676 0.790612
O O13 0.626634 0.749477 0.540462
O O14 0.212618 0.154866 0.168480
O O15 0.086619 0.183537 0.284917
O O16 0.991142 0.808847 0.416686
#
# Coordination Sequence:
#
# PCOD8149681 Si02
#       8
#     8   8   8   8   8   4   8   8
#     4  10  24  40  67 100 137 193 233 290 363 428
#     4  11  24  43  66  98 143 189 248 292 344 423
#     4  11  27  46  73 103 140 182 242 297 369 433
#     4  11  23  43  71 101 145 191 236 294 371 440
#     4  12  26  46  73 108 138 186 239 303 372 442
#     4  10  26  48  72  96 136 188 232 300 358 430
#     4  11  23  42  69 102 147 180 233 297 361 439
#     4  11  25  44  71 100 140 190 244 294 366 428
#
# _framework density 23.237158999999998
#
# number of rings (size 3 to 8) (size 9 to 14) (size 15 to 20)
#    0.000    1.067    2.667    2.800    5.600    5.333 
#    2.400    0.000    0.000    0.000    0.000    0.000 
#    0.000    0.000    0.000    0.000    0.000    0.000 
#
# Total GULP energy -371946.985679 kJ/mol
# GULP energy per Si atom -12398.232856 kJ/mol
# Density = 2.318427 g / cm^3
# Si number density = 23.237159 Si / 1000 Ang^3
#
#
#
# Elastic Constant Matrix: (Units=GPa)
#
#
# Indices 1 2 3 4 5 6 
#
# 1 57.5443 9.8082 21.9656 0.0000 -9.0474 0.0000
# 2 9.8082 122.3356 34.9016 0.0000 -13.7052 0.0000
# 3 21.9656 34.9016 105.9621 0.0000 -12.4905 0.0000
# 4 0.0000 0.0000 0.0000 36.0023 0.0000 0.6621
# 5 -9.0474 -13.7052 -12.4905 0.0000 44.3242 0.0000
# 6 0.0000 0.0000 0.0000 0.6621 0.0000 29.4440
#
#
#
# Elastic Compliance Matrix: (Units=1/GPa)
#
#
# Indices 1 2 3 4 5 6 
#
# 1 0.019229 -0.000199 -0.003584 0.000000 0.002853 0.000000
# 2 -0.000199 0.009202 -0.002750 0.000000 0.002030 0.000000
# 3 -0.003584 -0.002750 0.011274 0.000000 0.001595 0.000000
# 4 0.000000 0.000000 0.000000 0.027788 0.000000 -0.000625
# 5 0.002853 0.002030 0.001595 0.000000 0.024221 0.000000
# 6 0.000000 0.000000 0.000000 -0.000625 0.000000 0.033977
#
#
# Mechanical properties :
#
#
# Convention : Reuss Voigt Hill
#
# Bulk Modulus (GPa) = 37.54134 46.57697 42.05916
# Shear Modulus (GPa) = 33.86687 36.56519 35.21603
#
# Velocity S-wave (km/s) = 3.82179 3.97112 3.89717
# Velocity P-wave (km/s) = 5.97207 6.41203 6.19595
#
# Compressibility (1/GPa) = 0.02663730
#
# Stress axis : x y z
#
# Youngs Moduli (GPa) = 52.00584 108.66864 88.69780
#
# Poissons Ratio (x) = 0.02168 0.31789
# Poissons Ratio (y) = 0.01038 0.24396
# Poissons Ratio (z) = 0.18639 0.29889
#
# Static dielectric constant tensor:
#      x y z
#    x 4.140950 0.000000 -0.193870 
#    y 0.000000 4.199000 0.000000 
#    z -0.193870 0.000000 4.540940 
# 
# 
# High freq. dielectric constant tensor:
#      x y z
#    x 1.916450 0.000000 0.004670 
#    y 0.000000 1.916250 0.000000 
#    z 0.004670 0.000000 1.930180 
# 
# From -- ./inp_files/61533.got.cif
#   From: 2010.06.25/outbox.cif.g09.slc.cpg/sg15_31_cif.got.tgz:61533.got - 2010.06.28 07:06:18.
