data_PCOD8149946
_publ_section_title
;
Structure prediction by ZEFSAII (Michael W. Deem and Ramdas Pophale) SiO2 
 PCOD8149946
Probable space group: C 2/C
;
_chemical_formula_sum "Si O2"
_cell_formula_units_Z 60
_cell_length_a 29.539591
_cell_length_b 10.698370
_cell_length_c 21.203554
_cell_angle_alpha 90.000000
_cell_angle_beta 25.911916
_cell_angle_gamma 90.000000
_cell_volume 2928.202594
_symmetry_space_group_name_H-M "C 2/C"
_symmetry_group_IT_number 15
_symmetry_cell_setting 'monoclinic'
loop_
_space_group_symop_operation_xyz
x,y,z
-x,y,1/2-z
-x,-y,-z
x,-y,1/2+z
1/2+x,1/2+y,z
1/2-x,1/2+y,1/2-z
1/2-x,1/2-y,-z
1/2+x,1/2-y,1/2+z
loop_
_atom_site_type_symbol
_atom_site_label
_atom_site_fract_x
_atom_site_fract_y
_atom_site_fract_z
Si Si1 0.554856 0.221220 0.318503
Si Si2 0.781331 0.658558 0.177389
Si Si3 0.264535 0.290437 0.622423
Si Si4 0.031316 0.937267 0.144006
Si Si5 0.453198 0.640415 0.062120
Si Si6 0.890278 0.545884 0.472946
Si Si7 0.529773 0.299640 0.596220
Si Si8 0.500000 0.863924 0.250000
O O1 0.672206 0.188653 0.188646
O O2 0.548976 0.326277 0.271428
O O3 0.490686 0.279064 0.456283
O O4 0.500203 0.097062 0.360550
O O5 0.778681 0.699522 0.253029
O O6 0.670442 0.637491 0.285074
O O7 0.841721 0.527707 0.093088
O O8 0.848410 0.762990 0.055873
O O9 0.349647 0.395638 0.505254
O O10 0.313073 0.154846 0.548462
O O11 0.000000 0.992153 0.250000
O O12 0.019017 0.051648 0.112445
O O13 0.481560 0.724169 0.087699
O O14 0.500000 0.500000 0.000000
O O15 0.907685 0.454941 0.390500
O O16 0.469585 0.224320 0.727816
#
# Coordination Sequence:
#
# PCOD8149946 Si02
#       8
#     8   8   8   8   8   8   8   4
#     4  11  23  41  67 100 130 173 216 277 328 390
#     4  11  23  40  66  99 131 173 211 281 335 384
#     4  11  23  40  68  99 130 169 221 276 330 385
#     4  11  24  43  66  95 134 175 217 274 320 398
#     4  12  21  39  69 102 132 166 218 275 336 388
#     4  10  24  43  64  92 137 172 220 264 330 397
#     4  11  23  44  68  95 135 170 223 265 335 401
#     4  10  24  50  64  86 138 188 202 274 328 392
#
# _framework density 20.490386000000001
#
# number of rings (size 3 to 8) (size 9 to 14) (size 15 to 20)
#    0.000    1.067    6.000    0.800    5.600    1.067 
#    4.800    2.667    0.000    0.000    0.000    0.000 
#    0.000    0.000    0.000    0.000    0.000    0.000 
#
# Total GULP energy -371866.762946 kJ/mol
# GULP energy per Si atom -12395.558765 kJ/mol
# Density = 2.044375 g / cm^3
# Si number density = 20.490386 Si / 1000 Ang^3
#
#
#
# Elastic Constant Matrix: (Units=GPa)
#
#
# Indices 1 2 3 4 5 6 
#
# 1 97.4528 22.7823 36.0923 0.0000 -11.7168 -0.0002
# 2 22.7823 84.8853 24.6631 0.0008 -2.0355 -0.0001
# 3 36.0923 24.6631 76.6041 0.0005 2.4252 -0.0002
# 4 0.0000 0.0008 0.0005 33.0294 -0.0006 9.5046
# 5 -11.7168 -2.0355 2.4252 -0.0006 33.5484 0.0005
# 6 -0.0002 -0.0001 -0.0002 9.5046 0.0005 22.4412
#
#
#
# Elastic Compliance Matrix: (Units=1/GPa)
#
#
# Indices 1 2 3 4 5 6 
#
# 1 0.013480 -0.001771 -0.005940 0.000000 0.005030 0.000000
# 2 -0.001771 0.013269 -0.003451 0.000000 0.000436 0.000000
# 3 -0.005940 -0.003451 0.017075 0.000000 -0.003518 0.000000
# 4 0.000000 0.000000 0.000000 0.034478 0.000001 -0.014603
# 5 0.005030 0.000436 -0.003518 0.000001 0.031845 -0.000001
# 6 0.000000 0.000000 0.000000 -0.014603 -0.000001 0.050746
#
#
# Mechanical properties :
#
#
# Convention : Reuss Voigt Hill
#
# Bulk Modulus (GPa) = 46.51357 47.33527 46.92442
# Shear Modulus (GPa) = 26.26244 29.49743 27.87994
#
# Velocity S-wave (km/s) = 3.58396 3.79829 3.69268
# Velocity P-wave (km/s) = 6.31473 6.51056 6.41339
#
# Compressibility (1/GPa) = 0.02149910
#
# Stress axis : x y z
#
# Youngs Moduli (GPa) = 74.18268 75.36222 58.56372
#
# Poissons Ratio (x) = 0.13350 0.34788
# Poissons Ratio (y) = 0.13141 0.20212
# Poissons Ratio (z) = 0.44066 0.26010
#
# Static dielectric constant tensor:
#      x y z
#    x 3.822100 0.000000 0.094010 
#    y 0.000000 3.819390 0.000000 
#    z 0.094010 0.000000 3.825700 
# 
# 
# High freq. dielectric constant tensor:
#      x y z
#    x 1.792170 0.000000 0.012500 
#    y 0.000000 1.808680 0.000000 
#    z 0.012500 0.000000 1.805090 
# 
# From -- ./inp_files/222552.got.cif
#   From: 2010.06.25/outbox.cif.g09.slc.cpg/sg15_112_cif.got.tgz:222552.got - 2010.06.28 07:06:18.
