data_PCOD8149948
_publ_section_title
;
Structure prediction by ZEFSAII (Michael W. Deem and Ramdas Pophale) SiO2 
 PCOD8149948
Probable space group: C 2/C
;
_chemical_formula_sum "Si O2"
_cell_formula_units_Z 60
_cell_length_a 14.214062
_cell_length_b 14.967477
_cell_length_c 15.925354
_cell_angle_alpha 90.000000
_cell_angle_beta 124.271833
_cell_angle_gamma 90.000000
_cell_volume 2799.839845
_symmetry_space_group_name_H-M "C 2/C"
_symmetry_group_IT_number 15
_symmetry_cell_setting 'monoclinic'
loop_
_space_group_symop_operation_xyz
x,y,z
-x,y,1/2-z
-x,-y,-z
x,-y,1/2+z
1/2+x,1/2+y,z
1/2-x,1/2+y,1/2-z
1/2-x,1/2-y,-z
1/2+x,1/2-y,1/2+z
loop_
_atom_site_type_symbol
_atom_site_label
_atom_site_fract_x
_atom_site_fract_y
_atom_site_fract_z
Si Si1 0.850630 0.420552 0.922657
Si Si2 0.085255 0.611892 0.582368
Si Si3 0.779531 0.852225 0.496077
Si Si4 0.771917 0.834229 0.779056
Si Si5 0.488881 0.449883 0.906872
Si Si6 0.879447 0.675576 0.727953
Si Si7 0.212541 0.783277 0.389349
Si Si8 0.500000 0.418936 0.250000
O O1 0.889746 0.521404 0.953114
O O2 0.811510 0.402004 0.809415
O O3 0.749564 0.410566 0.937667
O O4 0.956705 0.355846 0.998064
O O5 0.096779 0.602722 0.688320
O O6 0.169477 0.684671 0.590031
O O7 0.750000 0.750000 0.500000
O O8 0.910586 0.876729 0.548176
O O9 0.701149 0.877531 0.377426
O O10 0.812014 0.760153 0.731542
O O11 0.692195 0.799854 0.816224
O O12 0.877869 0.890905 0.863464
O O13 0.478777 0.518118 0.821379
O O14 0.500000 0.500000 0.000000
O O15 0.000000 0.708372 0.750000
O O16 0.250000 0.750000 0.500000
O O17 0.109210 0.855345 0.328652
#
# Coordination Sequence:
#
# PCOD8149948 Si02
#       8
#     8   8   8   8   8   8   8   4
#     4  11  23  42  66  96 136 174 219 285 345 410
#     4  10  24  43  64  96 136 174 222 281 345 408
#     4  12  24  40  71 101 138 178 232 282 347 416
#     4  11  25  40  72  98 136 177 230 284 347 414
#     4  12  28  45  72 107 145 186 240 295 362 427
#     4  11  22  40  66 101 131 172 223 284 342 411
#     4  11  26  47  73  98 139 185 237 279 347 427
#     4  12  28  50  74 104 150 190 232 300 364 420
#
# _framework density 21.429798000000002
#
# number of rings (size 3 to 8) (size 9 to 14) (size 15 to 20)
#    0.000    0.800    2.667    4.000   10.267    0.000 
#    0.000    0.000    0.000    0.000    0.000    0.000 
#    0.000    0.000    0.000    0.000    0.000    0.000 
#
# Total GULP energy -371737.743037 kJ/mol
# GULP energy per Si atom -12391.258101 kJ/mol
# Density = 2.138102 g / cm^3
# Si number density = 21.429798 Si / 1000 Ang^3
#
#
#
# Elastic Constant Matrix: (Units=GPa)
#
#
# Indices 1 2 3 4 5 6 
#
# 1 73.0185 22.3131 34.7026 0.0000 -5.8156 0.0000
# 2 22.3131 63.6604 25.7097 0.0000 -3.9393 0.0000
# 3 34.7026 25.7097 137.9969 0.0000 -3.7682 0.0000
# 4 0.0000 0.0000 0.0000 36.2021 0.0000 5.7384
# 5 -5.8156 -3.9393 -3.7682 0.0000 45.7868 0.0000
# 6 0.0000 0.0000 0.0000 5.7384 0.0000 34.6454
#
#
#
# Elastic Compliance Matrix: (Units=1/GPa)
#
#
# Indices 1 2 3 4 5 6 
#
# 1 0.016758 -0.004430 -0.003349 0.000000 0.001472 0.000000
# 2 -0.004430 0.018224 -0.002259 0.000000 0.000819 0.000000
# 3 -0.003349 -0.002259 0.008512 0.000000 0.000081 0.000000
# 4 0.000000 0.000000 0.000000 0.028367 0.000000 -0.004699
# 5 0.001472 0.000819 0.000081 0.000000 0.022104 0.000000
# 6 0.000000 0.000000 0.000000 -0.004699 0.000000 0.029642
#
#
# Mechanical properties :
#
#
# Convention : Reuss Voigt Hill
#
# Bulk Modulus (GPa) = 42.70171 48.90295 45.80233
# Shear Modulus (GPa) = 33.00582 36.12355 34.56469
#
# Velocity S-wave (km/s) = 3.92877 4.11014 4.02048
# Velocity P-wave (km/s) = 6.36788 6.73751 6.55530
#
# Compressibility (1/GPa) = 0.02341827
#
# Stress axis : x y z
#
# Youngs Moduli (GPa) = 59.67452 54.87244 117.48599
#
# Poissons Ratio (x) = 0.24309 0.39341
# Poissons Ratio (y) = 0.26437 0.26538
# Poissons Ratio (z) = 0.19982 0.12395
#
# Static dielectric constant tensor:
#      x y z
#    x 4.302160 0.000000 -0.249890 
#    y 0.000000 3.533450 0.000000 
#    z -0.249890 0.000000 4.992040 
# 
# 
# High freq. dielectric constant tensor:
#      x y z
#    x 1.847750 0.000000 0.003450 
#    y 0.000000 1.833160 0.000000 
#    z 0.003450 0.000000 1.865060 
# 
# From -- ./inp_files/154274.got.cif
#   From: 2010.06.25/outbox.cif.g09.slc.cpg/sg15_78_cif.got.tgz:154274.got - 2010.06.28 07:06:18.
