data_PCOD8149399
_publ_section_title
;
Structure prediction by ZEFSAII (Michael W. Deem and Ramdas Pophale) SiO2 
 PCOD8149399
Probable space group: C 2/C
;
_chemical_formula_sum "Si O2"
_cell_formula_units_Z 28
_cell_length_a 7.050931
_cell_length_b 6.934098
_cell_length_c 21.208568
_cell_angle_alpha 90.000000
_cell_angle_beta 81.476187
_cell_angle_gamma 90.000000
_cell_volume 1025.472526
_symmetry_space_group_name_H-M "C 2/C"
_symmetry_group_IT_number 15
_symmetry_cell_setting 'monoclinic'
loop_
_space_group_symop_operation_xyz
x,y,z
-x,y,1/2-z
-x,-y,-z
x,-y,1/2+z
1/2+x,1/2+y,z
1/2-x,1/2+y,1/2-z
1/2-x,1/2-y,-z
1/2+x,1/2-y,1/2+z
loop_
_atom_site_type_symbol
_atom_site_label
_atom_site_fract_x
_atom_site_fract_y
_atom_site_fract_z
Si Si1 0.305210 0.491468 0.437103
Si Si2 0.715109 0.265130 0.834897
Si Si3 0.000000 0.004294 0.750000
Si Si4 0.244585 0.078993 0.922750
O O1 0.161233 0.379893 0.395733
O O2 0.337483 0.711456 0.413402
O O3 0.212801 0.480588 0.511298
O O4 0.515026 0.396147 0.424949
O O5 0.829162 0.148659 0.776238
O O6 0.538937 0.367475 0.807931
O O7 0.831036 0.442033 0.863194
#
# Coordination Sequence:
#
# PCOD8149399 Si02
#       4
#     8   8   4   8
#     4  10  23  45  77 110 142 184 237 303 371 428
#     4  12  27  54  68 112 141 204 234 316 334 454
#     4  12  32  44  78  96 154 194 260 272 376 406
#     4  10  23  45  77 110 142 184 237 303 371 428
#
# _framework density 27.304483000000001
#
# number of rings (size 3 to 8) (size 9 to 14) (size 15 to 20)
#    0.000    1.143    2.857    0.857    4.000    8.000 
#    0.000    8.571    0.000    0.000    0.000    0.000 
#    0.000    0.000    0.000    0.000    0.000    0.000 
#
# Total GULP energy -173545.481710 kJ/mol
# GULP energy per Si atom -12396.105836 kJ/mol
# Density = 2.724234 g / cm^3
# Si number density = 27.304483 Si / 1000 Ang^3
#
#
#
# Elastic Constant Matrix: (Units=GPa)
#
#
# Indices 1 2 3 4 5 6 
#
# 1 38.2390 28.4797 15.2412 0.0000 10.3386 0.0000
# 2 28.4797 75.0036 55.6908 0.0000 17.9978 0.0000
# 3 15.2412 55.6908 168.3911 0.0000 22.3045 0.0000
# 4 0.0000 0.0000 0.0000 73.7574 0.0000 4.0883
# 5 10.3386 17.9978 22.3045 0.0000 34.7665 0.0000
# 6 0.0000 0.0000 0.0000 4.0883 0.0000 33.8315
#
#
#
# Elastic Compliance Matrix: (Units=1/GPa)
#
#
# Indices 1 2 3 4 5 6 
#
# 1 0.037544 -0.014625 0.002093 0.000000 -0.004936 0.000000
# 2 -0.014625 0.024551 -0.006217 0.000000 -0.004372 0.000000
# 3 0.002093 -0.006217 0.008154 0.000000 -0.002635 0.000000
# 4 0.000000 0.000000 0.000000 0.013649 0.000000 -0.001649
# 5 -0.004936 -0.004372 -0.002635 0.000000 0.034185 0.000000
# 6 0.000000 0.000000 0.000000 -0.001649 0.000000 0.029758
#
#
# Mechanical properties :
#
#
# Convention : Reuss Voigt Hill
#
# Bulk Modulus (GPa) = 30.53362 53.38411 41.95887
# Shear Modulus (GPa) = 25.47665 40.61922 33.04793
#
# Velocity S-wave (km/s) = 3.05791 3.86118 3.48278
# Velocity P-wave (km/s) = 4.86566 6.28268 5.61902
#
# Compressibility (1/GPa) = 0.03275079
#
# Stress axis : x y z
#
# Youngs Moduli (GPa) = 26.63508 40.73116 122.63520
#
# Poissons Ratio (x) = 0.59571 -0.25662
# Poissons Ratio (y) = 0.38955 0.76240
# Poissons Ratio (z) = -0.05574 0.25322
#
# Static dielectric constant tensor:
#      x y z
#    x 4.279980 0.000000 0.359650 
#    y 0.000000 5.132590 0.000000 
#    z 0.359650 0.000000 5.324850 
# 
# 
# High freq. dielectric constant tensor:
#      x y z
#    x 2.071210 0.000000 0.012290 
#    y 0.000000 2.118060 0.000000 
#    z 0.012290 0.000000 2.118160 
# 
# From -- ./inp_files/262132.got.cif
#   From: 2010.06.25/outbox.cif.g09.slc.cpg/sg15_132_cif.got.tgz:262132.got - 2010.06.28 07:06:18.
