data_PCOD8149828
_publ_section_title
;
Structure prediction by ZEFSAII (Michael W. Deem and Ramdas Pophale) SiO2 
 PCOD8149828
Probable space group: C 2/C
;
_chemical_formula_sum "Si O2"
_cell_formula_units_Z 52
_cell_length_a 14.958336
_cell_length_b 14.276416
_cell_length_c 12.803955
_cell_angle_alpha 90.000000
_cell_angle_beta 66.467701
_cell_angle_gamma 90.000000
_cell_volume 2506.904963
_symmetry_space_group_name_H-M "C 2/C"
_symmetry_group_IT_number 15
_symmetry_cell_setting 'monoclinic'
loop_
_space_group_symop_operation_xyz
x,y,z
-x,y,1/2-z
-x,-y,-z
x,-y,1/2+z
1/2+x,1/2+y,z
1/2-x,1/2+y,1/2-z
1/2-x,1/2-y,-z
1/2+x,1/2-y,1/2+z
loop_
_atom_site_type_symbol
_atom_site_label
_atom_site_fract_x
_atom_site_fract_y
_atom_site_fract_z
Si Si1 0.298719 0.727239 0.587241
Si Si2 0.244750 0.601673 0.111427
Si Si3 0.618917 0.918261 0.866550
Si Si4 0.860660 0.254107 0.176835
Si Si5 0.099183 0.405161 0.503235
Si Si6 0.500000 0.627377 0.250000
Si Si7 0.907622 0.955526 0.984562
O O1 0.250000 0.750000 0.500000
O O2 0.354227 0.817954 0.600907
O O3 0.213672 0.698700 0.707232
O O4 0.378071 0.644463 0.547348
O O5 0.181360 0.558005 0.234827
O O6 0.304522 0.691204 0.119564
O O7 0.316332 0.523449 0.033498
O O8 0.173950 0.636219 0.052381
O O9 0.641557 0.996003 0.943315
O O10 0.504471 0.919935 0.892207
O O11 0.914787 0.335824 0.088608
O O12 0.938683 0.191550 0.200860
O O13 0.431410 0.560037 0.351042
O O14 0.000000 0.000000 0.000000
#
# Coordination Sequence:
#
# PCOD8149828 Si02
#       7
#     8   8   8   8   8   4   8
#     4  11  22  41  68  98 135 181 225 287 341 413
#     4  11  24  43  66  95 139 177 223 284 344 423
#     4  10  24  42  65  97 133 176 229 282 340 412
#     4  11  24  42  70  98 137 175 232 281 352 412
#     4  11  23  42  66  97 132 178 227 280 345 409
#     4  12  24  44  66 104 136 174 234 294 334 422
#     4  12  25  42  70 102 139 178 230 287 356 412
#
# _framework density 20.742708
#
# number of rings (size 3 to 8) (size 9 to 14) (size 15 to 20)
#    0.000    0.923    3.077    3.692    2.154    1.231 
#    2.769    0.000    0.000    0.000    0.000    0.000 
#    0.000    0.000    0.000    0.000    0.000    0.000 
#
# Total GULP energy -322519.024249 kJ/mol
# GULP energy per Si atom -12404.577856 kJ/mol
# Density = 2.069550 g / cm^3
# Si number density = 20.742708 Si / 1000 Ang^3
#
#
#
# Elastic Constant Matrix: (Units=GPa)
#
#
# Indices 1 2 3 4 5 6 
#
# 1 110.4354 28.5842 40.2208 0.0000 7.5268 0.0000
# 2 28.5842 74.5361 43.2650 0.0000 -8.9732 0.0000
# 3 40.2208 43.2650 118.2770 0.0000 -20.4532 0.0000
# 4 0.0000 0.0000 0.0000 41.2960 0.0000 -7.9992
# 5 7.5268 -8.9732 -20.4532 0.0000 42.6958 0.0000
# 6 0.0000 0.0000 0.0000 -7.9992 0.0000 34.4476
#
#
#
# Elastic Compliance Matrix: (Units=1/GPa)
#
#
# Indices 1 2 3 4 5 6 
#
# 1 0.011382 -0.002799 -0.003593 0.000000 -0.004316 0.000000
# 2 -0.002799 0.017738 -0.005241 0.000000 0.001711 0.000000
# 3 -0.003593 -0.005241 0.012553 0.000000 0.005545 0.000000
# 4 0.000000 0.000000 0.000000 0.025356 0.000000 0.005888
# 5 -0.004316 0.001711 0.005545 0.000000 0.027198 0.000000
# 6 0.000000 0.000000 0.000000 0.005888 0.000000 0.030397
#
#
# Mechanical properties :
#
#
# Convention : Reuss Voigt Hill
#
# Bulk Modulus (GPa) = 54.32753 58.59873 56.46313
# Shear Modulus (GPa) = 32.46227 36.43311 34.44769
#
# Velocity S-wave (km/s) = 3.96030 4.19552 4.07961
# Velocity P-wave (km/s) = 6.86731 7.19594 7.03354
#
# Compressibility (1/GPa) = 0.01840688
#
# Stress axis : x y z
#
# Youngs Moduli (GPa) = 87.85542 56.37726 79.66521
#
# Poissons Ratio (x) = 0.15780 0.28625
# Poissons Ratio (y) = 0.24591 0.41750
# Poissons Ratio (z) = 0.31568 0.29545
#
# Static dielectric constant tensor:
#      x y z
#    x 3.371740 0.000000 -0.811390 
#    y 0.000000 3.827670 0.000000 
#    z -0.811390 0.000000 3.137410 
# 
# 
# High freq. dielectric constant tensor:
#      x y z
#    x 1.819570 0.000000 -0.011770 
#    y 0.000000 1.813510 0.000000 
#    z -0.011770 0.000000 1.825650 
# 
# From -- ./inp_files/96955.got.cif
#   From: 2010.06.25/outbox.cif.g09.slc.cpg/sg15_49_cif.got.tgz:96955.got - 2010.06.28 07:06:18.
