data_PCOD8149655
_publ_section_title
;
Structure prediction by ZEFSAII (Michael W. Deem and Ramdas Pophale) SiO2 
 PCOD8149655
Probable space group: C 2/C
;
_chemical_formula_sum "Si O2"
_cell_formula_units_Z 52
_cell_length_a 21.601124
_cell_length_b 15.476292
_cell_length_c 10.442811
_cell_angle_alpha 90.000000
_cell_angle_beta 135.308416
_cell_angle_gamma 90.000000
_cell_volume 2455.247646
_symmetry_space_group_name_H-M "C 2/C"
_symmetry_group_IT_number 15
_symmetry_cell_setting 'monoclinic'
loop_
_space_group_symop_operation_xyz
x,y,z
-x,y,1/2-z
-x,-y,-z
x,-y,1/2+z
1/2+x,1/2+y,z
1/2-x,1/2+y,1/2-z
1/2-x,1/2-y,-z
1/2+x,1/2-y,1/2+z
loop_
_atom_site_type_symbol
_atom_site_label
_atom_site_fract_x
_atom_site_fract_y
_atom_site_fract_z
Si Si1 0.500000 0.025760 0.250000
Si Si2 0.359078 0.580870 0.872422
Si Si3 0.101524 0.280178 0.529526
Si Si4 0.277422 0.296313 0.912035
Si Si5 0.068534 0.366380 0.213017
Si Si6 0.594272 0.550799 0.842459
Si Si7 0.662518 0.873039 0.105761
O O1 0.579425 0.084340 0.415738
O O2 0.539178 0.963969 0.198858
O O3 0.394358 0.677974 0.940411
O O4 0.401146 0.536024 0.806019
O O5 0.253270 0.579879 0.700677
O O6 0.387426 0.534314 0.045624
O O7 0.189211 0.325926 0.710067
O O8 0.096001 0.307545 0.373381
O O9 0.015748 0.318177 0.476584
O O10 0.335949 0.228702 0.920290
O O11 0.250000 0.250000 0.000000
O O12 0.331643 0.381278 0.015243
O O13 0.151202 0.375707 0.241855
O O14 0.500000 0.586701 0.750000
#
# Coordination Sequence:
#
# PCOD8149655 Si02
#       7
#     4   8   8   8   8   8   8
#     4  10  24  40  64 106 138 162 218 268 342 412
#     4  11  27  46  68  99 137 175 230 282 331 403
#     4   9  22  45  66  96 137 168 223 275 335 395
#     4  11  24  43  67  97 133 174 223 273 333 399
#     4  10  24  41  73  98 132 177 213 280 345 399
#     4  12  28  45  71 100 133 186 228 279 340 395
#     4  11  25  40  70 100 131 177 217 274 345 400
#
# _framework density 21.179126
#
# number of rings (size 3 to 8) (size 9 to 14) (size 15 to 20)
#    0.000    1.538    3.077    0.923   14.000    3.692 
#    0.000    0.000    0.000    0.000    0.000    0.000 
#    0.000    0.000    0.000    0.000    0.000    0.000 
#
# Total GULP energy -322270.602737 kJ/mol
# GULP energy per Si atom -12395.023182 kJ/mol
# Density = 2.113092 g / cm^3
# Si number density = 21.179126 Si / 1000 Ang^3
#
#
#
# Elastic Constant Matrix: (Units=GPa)
#
#
# Indices 1 2 3 4 5 6 
#
# 1 137.5149 12.0560 36.4299 0.0000 2.5696 0.0000
# 2 12.0560 41.5434 36.6188 0.0000 9.0526 0.0000
# 3 36.4299 36.6188 120.5458 0.0000 7.6746 0.0000
# 4 0.0000 0.0000 0.0000 35.7058 0.0000 0.8333
# 5 2.5696 9.0526 7.6746 0.0000 19.4631 0.0000
# 6 0.0000 0.0000 0.0000 0.8333 0.0000 25.2502
#
#
#
# Elastic Compliance Matrix: (Units=1/GPa)
#
#
# Indices 1 2 3 4 5 6 
#
# 1 0.007907 -0.000254 -0.002311 0.000000 -0.000014 0.000000
# 2 -0.000254 0.035673 -0.009956 0.000000 -0.012633 0.000000
# 3 -0.002311 -0.009956 0.012006 0.000000 0.000202 0.000000
# 4 0.000000 0.000000 0.000000 0.028028 0.000000 -0.000925
# 5 -0.000014 -0.012633 0.000202 0.000000 0.057177 0.000000
# 6 0.000000 0.000000 0.000000 -0.000925 0.000000 0.039634
#
#
# Mechanical properties :
#
#
# Convention : Reuss Voigt Hill
#
# Bulk Modulus (GPa) = 32.74021 52.20151 42.47086
# Shear Modulus (GPa) = 23.18586 30.38376 26.78481
#
# Velocity S-wave (km/s) = 3.31229 3.79173 3.56009
# Velocity P-wave (km/s) = 5.48823 6.62350 6.08241
#
# Compressibility (1/GPa) = 0.03054348
#
# Stress axis : x y z
#
# Youngs Moduli (GPa) = 126.47321 28.03225 83.29475
#
# Poissons Ratio (x) = 0.00712 0.19253
# Poissons Ratio (y) = 0.03213 0.82925
# Poissons Ratio (z) = 0.29233 0.27908
#
# Static dielectric constant tensor:
#      x y z
#    x 4.021230 0.000000 -0.000060 
#    y 0.000000 2.501830 0.000000 
#    z -0.000060 0.000000 4.045970 
# 
# 
# High freq. dielectric constant tensor:
#      x y z
#    x 1.839030 0.000000 0.005560 
#    y 0.000000 1.828550 0.000000 
#    z 0.005560 0.000000 1.841040 
# 
# From -- ./inp_files/118827.got.cif
#   From: 2010.06.25/outbox.cif.g09.slc.cpg/sg15_60_cif.got.tgz:118827.got - 2010.06.28 07:06:18.
