data_PCOD8149355
_publ_section_title
;
Structure prediction by ZEFSAII (Michael W. Deem and Ramdas Pophale) SiO2 
 PCOD8149355
Probable space group: C 2/C
;
_chemical_formula_sum "Si O2"
_cell_formula_units_Z 40
_cell_length_a 13.805251
_cell_length_b 15.767453
_cell_length_c 9.205769
_cell_angle_alpha 90.000000
_cell_angle_beta 119.240661
_cell_angle_gamma 90.000000
_cell_volume 1748.513578
_symmetry_space_group_name_H-M "C 2/C"
_symmetry_group_IT_number 15
_symmetry_cell_setting 'monoclinic'
loop_
_space_group_symop_operation_xyz
x,y,z
-x,y,1/2-z
-x,-y,-z
x,-y,1/2+z
1/2+x,1/2+y,z
1/2-x,1/2+y,1/2-z
1/2-x,1/2-y,-z
1/2+x,1/2-y,1/2+z
loop_
_atom_site_type_symbol
_atom_site_label
_atom_site_fract_x
_atom_site_fract_y
_atom_site_fract_z
Si Si1 0.556583 0.843410 0.442361
Si Si2 0.390025 0.460026 0.354858
Si Si3 0.861514 0.342434 0.513627
Si Si4 0.355406 0.277291 0.267919
Si Si5 0.739989 0.020089 0.008911
O O1 0.500000 0.815549 0.250000
O O2 0.463638 0.872043 0.489777
O O3 0.624308 0.764499 0.559275
O O4 0.638111 0.922009 0.481148
O O5 0.500000 0.500000 0.500000
O O6 0.418906 0.367723 0.310492
O O7 0.341939 0.522848 0.197296
O O8 0.289786 0.446957 0.394898
O O9 0.776186 0.290296 0.349874
O O10 0.902980 0.281731 0.673803
O O11 0.803463 0.424255 0.541572
#
# Coordination Sequence:
#
# PCOD8149355 Si02
#       5
#     8   8   8   8   8
#     4  12  25  40  67 102 139 175 218 282 346 406
#     4  11  25  44  69  98 134 178 224 281 339 398
#     4  10  23  45  70  94 131 179 227 278 335 403
#     4  10  24  43  65  96 132 179 232 275 332 410
#     4  11  24  44  68  98 133 174 228 278 335 408
#
# _framework density 22.876571999999999
#
# number of rings (size 3 to 8) (size 9 to 14) (size 15 to 20)
#    0.000    1.200    0.000    5.400    0.000   16.000 
#    0.000    0.000    0.000    0.000    0.000    0.000 
#    0.000    0.000    0.000    0.000    0.000    0.000 
#
# Total GULP energy -248059.378553 kJ/mol
# GULP energy per Si atom -12402.968928 kJ/mol
# Density = 2.282450 g / cm^3
# Si number density = 22.876572 Si / 1000 Ang^3
#
#
#
# Elastic Constant Matrix: (Units=GPa)
#
#
# Indices 1 2 3 4 5 6 
#
# 1 101.4589 44.2475 15.9816 0.0000 -4.6426 0.0000
# 2 44.2475 104.9059 70.9983 0.0000 11.1073 0.0000
# 3 15.9816 70.9983 140.2471 0.0000 12.5793 0.0000
# 4 0.0000 0.0000 0.0000 40.3286 0.0000 -0.4832
# 5 -4.6426 11.1073 12.5793 0.0000 42.0985 0.0000
# 6 0.0000 0.0000 0.0000 -0.4832 0.0000 24.7814
#
#
#
# Elastic Compliance Matrix: (Units=1/GPa)
#
#
# Indices 1 2 3 4 5 6 
#
# 1 0.012678 -0.006830 0.001774 0.000000 0.002670 0.000000
# 2 -0.006830 0.018296 -0.008203 0.000000 -0.003129 0.000000
# 3 0.001774 -0.008203 0.011169 0.000000 -0.000977 0.000000
# 4 0.000000 0.000000 0.000000 0.024802 0.000000 0.000484
# 5 0.002670 -0.003129 -0.000977 0.000000 0.025166 0.000000
# 6 0.000000 0.000000 0.000000 0.000484 0.000000 0.040362
#
#
# Mechanical properties :
#
#
# Convention : Reuss Voigt Hill
#
# Bulk Modulus (GPa) = 64.00909 67.67409 65.84159
# Shear Modulus (GPa) = 30.45050 35.80067 33.12558
#
# Velocity S-wave (km/s) = 3.65235 3.96024 3.80941
# Velocity P-wave (km/s) = 6.76958 7.11040 6.94208
#
# Compressibility (1/GPa) = 0.01562278
#
# Stress axis : x y z
#
# Youngs Moduli (GPa) = 78.87796 54.65543 89.53634
#
# Poissons Ratio (x) = 0.37331 -0.15880
# Poissons Ratio (y) = 0.53876 0.73450
# Poissons Ratio (z) = -0.13990 0.44836
#
# Static dielectric constant tensor:
#      x y z
#    x 4.015240 0.000000 0.104120 
#    y 0.000000 4.061120 0.000000 
#    z 0.104120 0.000000 4.463810 
# 
# 
# High freq. dielectric constant tensor:
#      x y z
#    x 1.909110 0.000000 0.012240 
#    y 0.000000 1.898000 0.000000 
#    z 0.012240 0.000000 1.921460 
# 
# From -- ./inp_files/37785.got.cif
#   From: 2010.06.25/outbox.cif.g09.slc.cpg/sg15_19_cif.got.tgz:37785.got - 2010.06.28 07:06:18.
