data_PCOD8149381
_publ_section_title
;
Structure prediction by ZEFSAII (Michael W. Deem and Ramdas Pophale) SiO2 
 PCOD8149381
Probable space group: C 2/C
;
_chemical_formula_sum "Si O2"
_cell_formula_units_Z 32
_cell_length_a 13.731426
_cell_length_b 16.683730
_cell_length_c 8.209990
_cell_angle_alpha 90.000000
_cell_angle_beta 36.640119
_cell_angle_gamma 90.000000
_cell_volume 1122.459501
_symmetry_space_group_name_H-M "C 2/C"
_symmetry_group_IT_number 15
_symmetry_cell_setting 'monoclinic'
loop_
_space_group_symop_operation_xyz
x,y,z
-x,y,1/2-z
-x,-y,-z
x,-y,1/2+z
1/2+x,1/2+y,z
1/2-x,1/2+y,1/2-z
1/2-x,1/2-y,-z
1/2+x,1/2-y,1/2+z
loop_
_atom_site_type_symbol
_atom_site_label
_atom_site_fract_x
_atom_site_fract_y
_atom_site_fract_z
Si Si1 0.632644 0.064551 0.777544
Si Si2 0.362625 0.821921 0.605506
Si Si3 0.968045 0.155146 0.110428
Si Si4 0.790033 0.075480 0.903593
O O1 0.711688 0.097711 0.834644
O O2 0.763179 0.018977 0.482675
O O3 0.532409 0.135200 0.823240
O O4 0.500000 0.000000 0.000000
O O5 0.224707 0.826545 0.648271
O O6 0.414024 0.731544 0.572811
O O7 0.288760 0.863030 0.864788
O O8 0.000000 0.121415 0.250000
O O9 0.018286 0.092896 0.895697
#
# Coordination Sequence:
#
# PCOD8149381 Si02
#       4
#     8   8   8   8
#     4  10  23  45  73 105 144 194 244 302 372 443
#     4  11  24  47  74 108 147 196 249 312 374 444
#     4  12  27  46  74 110 149 196 253 310 372 447
#     4  11  25  46  73 107 148 198 249 306 374 446
#
# _framework density 28.508823
#
# number of rings (size 3 to 8) (size 9 to 14) (size 15 to 20)
#    0.000    1.000    0.000    6.750    0.000   12.000 
#    0.000   20.000    0.000    0.000    0.000    0.000 
#    0.000    0.000    0.000    0.000    0.000    0.000 
#
# Total GULP energy -198334.120023 kJ/mol
# GULP energy per Si atom -12395.882501 kJ/mol
# Density = 2.844394 g / cm^3
# Si number density = 28.508823 Si / 1000 Ang^3
#
#
#
# Elastic Constant Matrix: (Units=GPa)
#
#
# Indices 1 2 3 4 5 6 
#
# 1 151.0666 27.9742 54.2965 -0.0013 3.5513 0.0017
# 2 27.9742 96.9795 59.3261 -0.0019 -2.5698 0.0011
# 3 54.2965 59.3261 196.5197 -0.0034 1.5259 0.0018
# 4 -0.0013 -0.0019 -0.0034 36.7907 0.0014 4.9402
# 5 3.5513 -2.5698 1.5259 0.0014 58.1237 -0.0013
# 6 0.0017 0.0011 0.0018 4.9402 -0.0013 44.5808
#
#
#
# Elastic Compliance Matrix: (Units=1/GPa)
#
#
# Indices 1 2 3 4 5 6 
#
# 1 0.007454 -0.001110 -0.001721 0.000000 -0.000459 0.000000
# 2 -0.001110 0.012838 -0.003575 0.000000 0.000729 0.000000
# 3 -0.001721 -0.003575 0.006645 0.000000 -0.000227 0.000000
# 4 0.000000 0.000000 0.000000 0.027591 -0.000001 -0.003058
# 5 -0.000459 0.000729 -0.000227 -0.000001 0.017271 0.000001
# 6 0.000000 0.000000 0.000000 -0.003058 0.000001 0.022770
#
#
# Mechanical properties :
#
#
# Convention : Reuss Voigt Hill
#
# Bulk Modulus (GPa) = 70.78887 80.86215 75.82551
# Shear Modulus (GPa) = 44.60762 48.09695 46.35228
#
# Velocity S-wave (km/s) = 3.95991 4.11188 4.03661
# Velocity P-wave (km/s) = 6.76700 7.13925 6.95561
#
# Compressibility (1/GPa) = 0.01412652
#
# Stress axis : x y z
#
# Youngs Moduli (GPa) = 134.14799 77.89656 150.49098
#
# Poissons Ratio (x) = 0.08644 0.25900
# Poissons Ratio (y) = 0.14885 0.53793
# Poissons Ratio (z) = 0.23088 0.27844
#
# Static dielectric constant tensor:
#      x y z
#    x 5.139250 0.000000 -0.061750 
#    y 0.000000 5.541390 0.000010 
#    z -0.061750 0.000010 5.836730 
# 
# 
# High freq. dielectric constant tensor:
#      x y z
#    x 2.172420 0.000000 0.000170 
#    y 0.000000 2.150700 0.000000 
#    z 0.000170 0.000000 2.190860 
# 
# From -- ./inp_files/41150.got.cif
#   From: 2010.06.25/outbox.cif.g09.slc.cpg/sg15_21_cif.got.tgz:41150.got - 2010.06.28 07:06:18.
