data_PCOD8149131
_publ_section_title
;
Structure prediction by ZEFSAII (Michael W. Deem and Ramdas Pophale) SiO2 
 PCOD8149131
Probable space group: C 2/C
;
_chemical_formula_sum "Si O2"
_cell_formula_units_Z 44
_cell_length_a 18.244072
_cell_length_b 11.647892
_cell_length_c 30.336169
_cell_angle_alpha 90.000000
_cell_angle_beta 161.749015
_cell_angle_gamma 90.000000
_cell_volume 2018.942974
_symmetry_space_group_name_H-M "C 2/C"
_symmetry_group_IT_number 15
_symmetry_cell_setting 'monoclinic'
loop_
_space_group_symop_operation_xyz
x,y,z
-x,y,1/2-z
-x,-y,-z
x,-y,1/2+z
1/2+x,1/2+y,z
1/2-x,1/2+y,1/2-z
1/2-x,1/2-y,-z
1/2+x,1/2-y,1/2+z
loop_
_atom_site_type_symbol
_atom_site_label
_atom_site_fract_x
_atom_site_fract_y
_atom_site_fract_z
Si Si1 0.247451 0.629044 0.975242
Si Si2 0.000000 0.116742 0.750000
Si Si3 0.262643 0.070042 0.732787
Si Si4 0.493582 0.395858 0.961458
Si Si5 0.969719 0.267306 0.523485
Si Si6 0.175515 0.022741 0.268684
O O1 0.986051 0.586481 0.830664
O O2 0.250000 0.750000 0.000000
O O3 0.282238 0.630278 0.941924
O O4 0.427639 0.549016 0.104323
O O5 0.789023 0.192503 0.608147
O O6 0.129598 0.037238 0.788683
O O7 0.063852 0.165342 0.608617
O O8 0.195352 0.937758 0.682324
O O9 0.307169 0.067592 0.810939
O O10 0.500000 0.500000 0.000000
O O11 0.433628 0.279689 0.952996
O O12 0.161084 0.367420 0.630808
#
# Coordination Sequence:
#
# PCOD8149131 Si02
#       6
#     8   4   8   8   8   8
#     4  11  22  40  70  95 124 179 212 268 334 382
#     4  12  28  40  64  94 132 178 206 272 338 388
#     4  10  23  44  67  97 129 168 225 269 321 400
#     4   9  23  41  65  98 129 167 221 272 320 399
#     4  11  24  43  65  94 131 171 214 274 326 387
#     4  11  25  42  64  97 131 167 222 268 325 400
#
# _framework density 21.793583000000002
#
# number of rings (size 3 to 8) (size 9 to 14) (size 15 to 20)
#    0.000    1.455    1.818    1.636    5.091    8.000 
#    0.000    0.000    0.000    0.000    0.000    0.000 
#    0.000    0.000    0.000    0.000    0.000    0.000 
#
# Total GULP energy -272544.622233 kJ/mol
# GULP energy per Si atom -12388.391920 kJ/mol
# Density = 2.174398 g / cm^3
# Si number density = 21.793583 Si / 1000 Ang^3
#
#
#
# Elastic Constant Matrix: (Units=GPa)
#
#
# Indices 1 2 3 4 5 6 
#
# 1 155.8495 57.2071 14.9821 0.0057 5.8702 0.0013
# 2 57.2071 102.6988 38.2139 0.0259 1.6158 -0.0010
# 3 14.9821 38.2139 82.1258 0.0401 8.6434 -0.0222
# 4 0.0057 0.0259 0.0401 38.6568 -0.0582 -2.7473
# 5 5.8702 1.6158 8.6434 -0.0582 28.5615 0.0026
# 6 0.0013 -0.0010 -0.0222 -2.7473 0.0026 34.4585
#
#
#
# Elastic Compliance Matrix: (Units=1/GPa)
#
#
# Indices 1 2 3 4 5 6 
#
# 1 0.008182 -0.004889 0.000961 -0.000001 -0.001696 0.000000
# 2 -0.004889 0.014726 -0.006175 0.000000 0.002040 -0.000004
# 3 0.000961 -0.006175 0.015347 -0.000018 -0.004493 0.000009
# 4 -0.000001 0.000000 -0.000018 0.026016 0.000059 0.002074
# 5 -0.001696 0.002040 -0.004493 0.000059 0.036605 -0.000001
# 6 0.000000 -0.000004 0.000009 0.002074 -0.000001 0.029186
#
#
# Mechanical properties :
#
#
# Convention : Reuss Voigt Hill
#
# Bulk Modulus (GPa) = 55.40352 62.38670 58.89511
# Shear Modulus (GPa) = 31.99272 35.68677 33.83974
#
# Velocity S-wave (km/s) = 3.83559 4.05098 3.94476
# Velocity P-wave (km/s) = 6.71512 7.11118 6.91599
#
# Compressibility (1/GPa) = 0.01804939
#
# Stress axis : x y z
#
# Youngs Moduli (GPa) = 122.21278 67.90710 65.15782
#
# Poissons Ratio (x) = 0.33197 -0.06258
# Poissons Ratio (y) = 0.59746 0.40235
# Poissons Ratio (z) = -0.11739 0.41933
#
# Static dielectric constant tensor:
#      x y z
#    x 4.836190 0.001730 0.008230 
#    y 0.001730 4.466910 0.000480 
#    z 0.008230 0.000480 3.956380 
# 
# 
# High freq. dielectric constant tensor:
#      x y z
#    x 1.870930 0.000000 -0.000060 
#    y 0.000000 1.859980 -0.000010 
#    z -0.000060 -0.000010 1.850780 
# 
# From -- ./inp_files/104365.got.cif
#   From: 2010.06.25/outbox.cif.g09.slc.cpg/sg15_53_cif.got.tgz:104365.got - 2010.06.28 07:06:18.
