data_PCOD8149053
_publ_section_title
;
Structure prediction by ZEFSAII (Michael W. Deem and Ramdas Pophale) SiO2 
 PCOD8149053
Probable space group: C 2/C
;
_chemical_formula_sum "Si O2"
_cell_formula_units_Z 36
_cell_length_a 20.130887
_cell_length_b 17.673650
_cell_length_c 8.792940
_cell_angle_alpha 90.000000
_cell_angle_beta 30.443305
_cell_angle_gamma 90.000000
_cell_volume 1585.118608
_symmetry_space_group_name_H-M "C 2/C"
_symmetry_group_IT_number 15
_symmetry_cell_setting 'monoclinic'
loop_
_space_group_symop_operation_xyz
x,y,z
-x,y,1/2-z
-x,-y,-z
x,-y,1/2+z
1/2+x,1/2+y,z
1/2-x,1/2+y,1/2-z
1/2-x,1/2-y,-z
1/2+x,1/2-y,1/2+z
loop_
_atom_site_type_symbol
_atom_site_label
_atom_site_fract_x
_atom_site_fract_y
_atom_site_fract_z
Si Si1 0.000000 0.481512 0.750000
Si Si2 0.220940 0.356927 0.984627
Si Si3 0.118415 0.134561 0.618873
Si Si4 0.045739 0.222903 0.329091
Si Si5 0.320478 0.968754 0.856481
O O1 0.904703 0.430971 0.829380
O O2 0.091761 0.536482 0.467925
O O3 0.269962 0.336529 0.716689
O O4 0.328779 0.330596 0.893421
O O5 0.086104 0.310529 0.274616
O O6 0.198513 0.444825 0.055505
O O7 0.180451 0.070605 0.607021
O O8 0.000000 0.099627 0.750000
O O9 0.067777 0.203075 0.824345
O O10 0.000000 0.206184 0.250000
#
# Coordination Sequence:
#
# PCOD8149053 Si02
#       5
#     4   8   8   8   8
#     4  10  24  38  62  98 132 178 222 272 342 392
#     4  10  23  44  63 100 143 170 226 281 345 403
#     4  10  23  44  71 102 138 175 224 291 347 396
#     4  10  24  41  66  98 134 183 224 275 340 415
#     4  11  22  43  67  99 134 183 225 290 334 407
#
# _framework density 22.711233
#
# number of rings (size 3 to 8) (size 9 to 14) (size 15 to 20)
#    0.000    1.778    2.222    0.000    4.667    5.333 
#   10.000    0.000    0.000    0.000    0.000    0.000 
#    0.000    0.000    0.000    0.000    0.000    0.000 
#
# Total GULP energy -223099.707281 kJ/mol
# GULP energy per Si atom -12394.428182 kJ/mol
# Density = 2.265954 g / cm^3
# Si number density = 22.711233 Si / 1000 Ang^3
#
#
#
# Elastic Constant Matrix: (Units=GPa)
#
#
# Indices 1 2 3 4 5 6 
#
# 1 195.9661 54.5136 58.1628 0.0000 -1.8174 0.0000
# 2 54.5136 114.2379 70.3914 0.0000 0.9796 0.0000
# 3 58.1628 70.3914 135.3060 0.0002 10.3472 0.0000
# 4 0.0000 0.0000 0.0002 28.5962 0.0000 -7.6354
# 5 -1.8174 0.9796 10.3472 0.0000 34.0137 0.0000
# 6 0.0000 0.0000 0.0000 -7.6354 0.0000 24.2600
#
#
#
# Elastic Compliance Matrix: (Units=1/GPa)
#
#
# Indices 1 2 3 4 5 6 
#
# 1 0.006148 -0.001869 -0.001740 0.000000 0.000912 0.000000
# 2 -0.001869 0.013550 -0.006356 0.000000 0.001443 0.000000
# 3 -0.001740 -0.006356 0.011711 0.000000 -0.003472 0.000000
# 4 0.000000 0.000000 0.000000 0.038178 0.000000 0.012016
# 5 0.000912 0.001443 -0.003472 0.000000 0.030463 0.000000
# 6 0.000000 0.000000 0.000000 0.012016 0.000000 0.045002
#
#
# Mechanical properties :
#
#
# Convention : Reuss Voigt Hill
#
# Bulk Modulus (GPa) = 87.12424 90.18286 88.65355
# Shear Modulus (GPa) = 29.61948 34.87014 32.24481
#
# Velocity S-wave (km/s) = 3.61526 3.92263 3.77208
# Velocity P-wave (km/s) = 7.47474 7.76600 7.62176
#
# Compressibility (1/GPa) = 0.01147786
#
# Stress axis : x y z
#
# Youngs Moduli (GPa) = 162.65965 73.80208 85.39222
#
# Poissons Ratio (x) = 0.13797 0.14857
# Poissons Ratio (y) = 0.30408 0.54274
# Poissons Ratio (z) = 0.28301 0.46908
#
# Static dielectric constant tensor:
#      x y z
#    x 4.636080 0.000000 -0.081010 
#    y 0.000000 3.636110 0.000000 
#    z -0.081010 0.000000 4.292410 
# 
# 
# High freq. dielectric constant tensor:
#      x y z
#    x 1.927760 0.000000 -0.003470 
#    y 0.000000 1.854070 0.000000 
#    z -0.003470 0.000000 1.899240 
# 
# From -- ./inp_files/56915.got.cif
#   From: 2010.06.25/outbox.cif.g09.slc.cpg/sg15_29_cif.got.tgz:56915.got - 2010.06.28 07:06:18.
