data_PCOD8149904
_publ_section_title
;
Structure prediction by ZEFSAII (Michael W. Deem and Ramdas Pophale) SiO2 
 PCOD8149904
Probable space group: C 2/C
;
_chemical_formula_sum "Si O2"
_cell_formula_units_Z 24
_cell_length_a 12.876081
_cell_length_b 7.494144
_cell_length_c 18.282900
_cell_angle_alpha 90.000000
_cell_angle_beta 29.470413
_cell_angle_gamma 90.000000
_cell_volume 867.946616
_symmetry_space_group_name_H-M "C 2/C"
_symmetry_group_IT_number 15
_symmetry_cell_setting 'monoclinic'
loop_
_space_group_symop_operation_xyz
x,y,z
-x,y,1/2-z
-x,-y,-z
x,-y,1/2+z
1/2+x,1/2+y,z
1/2-x,1/2+y,1/2-z
1/2-x,1/2-y,-z
1/2+x,1/2-y,1/2+z
loop_
_atom_site_type_symbol
_atom_site_label
_atom_site_fract_x
_atom_site_fract_y
_atom_site_fract_z
Si Si1 0.270119 0.341498 0.878228
Si Si2 0.022440 0.640399 0.385389
Si Si3 0.791213 0.954523 0.585699
O O1 0.500000 0.429154 0.750000
O O2 0.213669 0.329410 0.825972
O O3 0.279924 0.141222 0.907616
O O4 0.090433 0.454546 0.027715
O O5 0.110593 0.626378 0.249369
O O6 0.853467 0.803247 0.488940
O O7 0.000000 0.000000 0.500000
#
# Coordination Sequence:
#
# PCOD8149904 Si02
#       3
#     8   8   8
#     4  10  24  43  70 102 130 176 228 273 326 397
#     4  10  24  45  69  97 138 177 217 277 337 390
#     4  10  24  42  70  94 135 180 218 270 336 393
#
# _framework density 27.65147
#
# number of rings (size 3 to 8) (size 9 to 14) (size 15 to 20)
#    0.000    2.000    0.000    0.000   28.000    2.667 
#    0.000    3.333    0.000    0.000    0.000    0.000 
#    0.000    0.000    0.000    0.000    0.000    0.000 
#
# Total GULP energy -148802.025056 kJ/mol
# GULP energy per Si atom -12400.168755 kJ/mol
# Density = 2.758853 g / cm^3
# Si number density = 27.651470 Si / 1000 Ang^3
#
#
#
# Elastic Constant Matrix: (Units=GPa)
#
#
# Indices 1 2 3 4 5 6 
#
# 1 88.1461 35.0359 23.2757 -0.0011 -2.0999 0.0009
# 2 35.0359 192.5595 85.6459 -0.0054 15.3531 0.0033
# 3 23.2757 85.6459 164.5853 -0.0130 0.2252 0.0078
# 4 -0.0011 -0.0054 -0.0130 25.6381 -0.0007 15.3480
# 5 -2.0999 15.3531 0.2252 -0.0007 33.3686 0.0003
# 6 0.0009 0.0033 0.0078 15.3480 0.0003 3.9042
#
#
#
# Elastic Compliance Matrix: (Units=1/GPa)
#
#
# Indices 1 2 3 4 5 6 
#
# 1 0.012396 -0.002100 -0.000662 0.000000 0.001751 -0.000001
# 2 -0.002100 0.007446 -0.003573 0.000001 -0.003534 -0.000003
# 3 -0.000662 -0.003573 0.008027 -0.000008 0.001548 0.000019
# 4 0.000000 0.000001 -0.000008 -0.028821 -0.000002 0.113299
# 5 0.001751 -0.003534 0.001548 -0.000002 0.031694 0.000005
# 6 -0.000001 -0.000003 0.000019 0.113299 0.000005 -0.189261
#
#
# Mechanical properties :
#
#
# Convention : Reuss Voigt Hill
#
# Bulk Modulus (GPa) = 65.80001 81.46731 73.63366
# Shear Modulus (GPa) = -35.51620 32.67107 -1.42256
#
# Velocity S-wave (km/s) = -3.58777 3.44107 -0.71804
# Velocity P-wave (km/s) = 2.58554 6.73158 5.09898
#
# Compressibility (1/GPa) = 0.01519757
#
# Stress axis : x y z
#
# Youngs Moduli (GPa) = 80.66912 134.29407 124.58355
#
# Poissons Ratio (x) = 0.28208 0.08253
# Poissons Ratio (y) = 0.16944 0.44514
# Poissons Ratio (z) = 0.05344 0.47983
#
# Static dielectric constant tensor:
#      x y z
#    x 5.002120 0.000000 -0.370270 
#    y 0.000000 6.417890 0.000000 
#    z -0.370270 0.000000 5.253870 
# 
# 
# High freq. dielectric constant tensor:
#      x y z
#    x 2.121470 0.000000 -0.025270 
#    y 0.000000 2.130260 0.000000 
#    z -0.025270 0.000000 2.116200 
# 
# From -- ./inp_files/45295.got.cif
#   From: 2010.06.25/outbox.cif.g09.slc.cpg/sg15_23_cif.got.tgz:45295.got - 2010.06.28 07:06:18.
