data_PCOD8149562
_publ_section_title
;
Structure prediction by ZEFSAII (Michael W. Deem and Ramdas Pophale) SiO2 
 PCOD8149562
Probable space group: C 2/C
;
_chemical_formula_sum "Si O2"
_cell_formula_units_Z 36
_cell_length_a 7.516392
_cell_length_b 23.104796
_cell_length_c 8.927778
_cell_angle_alpha 90.000000
_cell_angle_beta 90.402442
_cell_angle_gamma 90.000000
_cell_volume 1550.401676
_symmetry_space_group_name_H-M "C 2/C"
_symmetry_group_IT_number 15
_symmetry_cell_setting 'monoclinic'
loop_
_space_group_symop_operation_xyz
x,y,z
-x,y,1/2-z
-x,-y,-z
x,-y,1/2+z
1/2+x,1/2+y,z
1/2-x,1/2+y,1/2-z
1/2-x,1/2-y,-z
1/2+x,1/2-y,1/2+z
loop_
_atom_site_type_symbol
_atom_site_label
_atom_site_fract_x
_atom_site_fract_y
_atom_site_fract_z
Si Si1 0.123480 0.921950 0.518372
Si Si2 0.000000 0.990726 0.250000
Si Si3 0.823596 0.829323 0.514928
Si Si4 0.243947 0.757585 0.254350
Si Si5 0.585675 0.826889 0.987424
O O1 0.125969 0.950795 0.354171
O O2 0.295488 0.882936 0.541291
O O3 0.943479 0.885206 0.539001
O O4 0.128208 0.970875 0.646048
O O5 0.872932 0.798637 0.357286
O O6 0.865399 0.783522 0.648074
O O7 0.617164 0.847800 0.516608
O O8 0.370736 0.798212 0.353420
O O9 0.114051 0.719645 0.356447
#
# Coordination Sequence:
#
# PCOD8149562 Si02
#       5
#     8   4   8   8   8
#     4  11  24  44  66  88 126 166 216 277 312 366
#     4  10  24  46  66  90 116 164 228 278 322 352
#     4  11  24  39  62  93 133 167 213 248 315 386
#     4  10  24  36  58  98 132 170 206 242 302 398
#     4  11  24  39  62  93 133 167 213 248 315 386
#
# _framework density 23.21979
#
# number of rings (size 3 to 8) (size 9 to 14) (size 15 to 20)
#    0.000    1.333    0.000    4.000   18.667    0.000 
#    0.000    6.667    0.000    0.000    0.000    0.000 
#    0.000    0.000    0.000    0.000    0.000    0.000 
#
# Total GULP energy -223273.129699 kJ/mol
# GULP energy per Si atom -12404.062761 kJ/mol
# Density = 2.316694 g / cm^3
# Si number density = 23.219790 Si / 1000 Ang^3
#
#
#
# Elastic Constant Matrix: (Units=GPa)
#
#
# Indices 1 2 3 4 5 6 
#
# 1 87.1097 33.2819 -6.9853 0.0000 4.6377 0.0000
# 2 33.2819 61.8827 -14.6168 0.0000 2.5472 0.0000
# 3 -6.9853 -14.6168 83.5704 0.0000 -14.6857 0.0000
# 4 0.0000 0.0000 0.0000 171.1198 0.0000 35.8754
# 5 4.6377 2.5472 -14.6857 0.0000 27.9361 0.0000
# 6 0.0000 0.0000 0.0000 35.8754 0.0000 36.2506
#
#
#
# Elastic Compliance Matrix: (Units=1/GPa)
#
#
# Indices 1 2 3 4 5 6 
#
# 1 0.014548 -0.007862 -0.000504 0.000000 -0.001963 0.000000
# 2 -0.007862 0.021105 0.003223 0.000000 0.001075 0.000000
# 3 -0.000504 0.003223 0.013718 0.000000 0.007001 0.000000
# 4 0.000000 0.000000 0.000000 0.007374 0.000000 -0.007297
# 5 -0.001963 0.001075 0.007001 0.000000 0.039704 0.000000
# 6 0.000000 0.000000 0.000000 -0.007297 0.000000 0.034808
#
#
# Mechanical properties :
#
#
# Convention : Reuss Voigt Hill
#
# Bulk Modulus (GPa) = 25.58588 28.43583 27.01085
# Shear Modulus (GPa) = 32.34746 61.78683 47.06715
#
# Velocity S-wave (km/s) = 3.73647 5.16404 4.50714
# Velocity P-wave (km/s) = 5.44591 6.91588 6.22444
#
# Compressibility (1/GPa) = 0.03908406
#
# Stress axis : x y z
#
# Youngs Moduli (GPa) = 68.73860 47.38156 72.89760
#
# Poissons Ratio (x) = 0.37254 0.03675
# Poissons Ratio (y) = 0.54045 -0.23496
# Poissons Ratio (z) = 0.03466 -0.15272
#
# Static dielectric constant tensor:
#      x y z
#    x 3.860690 0.000000 -0.091460 
#    y 0.000000 4.259070 0.000000 
#    z -0.091460 0.000000 4.738480 
# 
# 
# High freq. dielectric constant tensor:
#      x y z
#    x 1.906830 0.000000 -0.005270 
#    y 0.000000 1.906180 0.000000 
#    z -0.005270 0.000000 1.952630 
# 
# From -- ./inp_files/23859.got.cif
#   From: 2010.06.25/outbox.cif.g09.slc.cpg/sg15_12_cif.got.tgz:23859.got - 2010.06.28 07:06:18.
