data_PCOD8149422
_publ_section_title
;
Structure prediction by ZEFSAII (Michael W. Deem and Ramdas Pophale) SiO2 
 PCOD8149422
Probable space group: C 2/C
;
_chemical_formula_sum "Si O2"
_cell_formula_units_Z 40
_cell_length_a 14.895282
_cell_length_b 17.484911
_cell_length_c 14.439167
_cell_angle_alpha 90.000000
_cell_angle_beta 149.097014
_cell_angle_gamma 90.000000
_cell_volume 1931.378739
_symmetry_space_group_name_H-M "C 2/C"
_symmetry_group_IT_number 15
_symmetry_cell_setting 'monoclinic'
loop_
_space_group_symop_operation_xyz
x,y,z
-x,y,1/2-z
-x,-y,-z
x,-y,1/2+z
1/2+x,1/2+y,z
1/2-x,1/2+y,1/2-z
1/2-x,1/2-y,-z
1/2+x,1/2-y,1/2+z
loop_
_atom_site_type_symbol
_atom_site_label
_atom_site_fract_x
_atom_site_fract_y
_atom_site_fract_z
Si Si1 0.438611 0.155043 0.301014
Si Si2 0.186855 0.492573 0.869338
Si Si3 0.500000 0.582412 0.750000
Si Si4 0.214998 0.841175 0.089021
Si Si5 0.297029 0.685207 0.710401
Si Si6 0.000000 0.233338 0.250000
O O1 0.500000 0.150080 0.250000
O O2 0.332305 0.075836 0.223897
O O3 0.308651 0.226019 0.193252
O O4 0.600206 0.158788 0.514459
O O5 0.241200 0.569547 0.866211
O O6 0.000000 0.508698 0.750000
O O7 0.335773 0.469856 0.075679
O O8 0.440274 0.635918 0.782212
O O9 0.163211 0.818256 0.146271
O O10 0.365372 0.789093 0.179910
O O11 0.055318 0.824793 0.879601
#
# Coordination Sequence:
#
# PCOD8149422 Si02
#       6
#     8   8   4   8   8   4
#     4  11  21  40  63  98 136 174 213 275 337 394
#     4  11  23  43  66  97 134 182 215 282 338 384
#     4  12  23  42  67  98 148 168 220 280 339 402
#     4  11  24  44  70  96 131 179 231 273 336 398
#     4  12  23  39  68 101 131 184 225 267 336 414
#     4  10  23  46  67  92 134 178 228 286 317 398
#
# _framework density 20.710594
#
# number of rings (size 3 to 8) (size 9 to 14) (size 15 to 20)
#    0.000    0.800    6.000    3.600    0.000    1.600 
#    0.000    0.000    0.000    0.000    0.000    0.000 
#    0.000    0.000    0.000    0.000    0.000    0.000 
#
# Total GULP energy -247951.886021 kJ/mol
# GULP energy per Si atom -12397.594301 kJ/mol
# Density = 2.066346 g / cm^3
# Si number density = 20.710594 Si / 1000 Ang^3
#
#
#
# Elastic Constant Matrix: (Units=GPa)
#
#
# Indices 1 2 3 4 5 6 
#
# 1 111.1281 33.9938 34.3377 -0.0001 7.7015 0.0002
# 2 33.9938 155.7013 36.4882 -0.0001 8.4525 0.0002
# 3 34.3377 36.4882 135.1086 0.0000 1.1827 -0.0007
# 4 -0.0001 -0.0001 0.0000 28.1936 0.0000 8.2273
# 5 7.7015 8.4525 1.1827 0.0000 56.4879 -0.0003
# 6 0.0002 0.0002 -0.0007 8.2273 -0.0003 6.0527
#
#
#
# Elastic Compliance Matrix: (Units=1/GPa)
#
#
# Indices 1 2 3 4 5 6 
#
# 1 0.010250 -0.001676 -0.002143 0.000000 -0.001102 -0.000001
# 2 -0.001676 0.007186 -0.001508 0.000000 -0.000815 -0.000001
# 3 -0.002143 -0.001508 0.008350 -0.000001 0.000343 0.000002
# 4 0.000000 0.000000 -0.000001 0.058788 0.000000 -0.079909
# 5 -0.001102 -0.000815 0.000343 0.000000 0.017968 0.000002
# 6 -0.000001 -0.000001 0.000002 -0.079909 0.000002 0.273834
#
#
# Mechanical properties :
#
#
# Convention : Reuss Voigt Hill
#
# Bulk Modulus (GPa) = 66.07859 67.95304 67.01582
# Shear Modulus (GPa) = 12.75276 37.95472 25.35374
#
# Velocity S-wave (km/s) = 2.48414 4.28556 3.50264
# Velocity P-wave (km/s) = 6.34058 7.57430 6.98473
#
# Compressibility (1/GPa) = 0.01513349
#
# Stress axis : x y z
#
# Youngs Moduli (GPa) = 97.56379 139.15948 119.75780
#
# Poissons Ratio (x) = 0.23321 0.25661
# Poissons Ratio (y) = 0.16350 0.18055
# Poissons Ratio (z) = 0.20905 0.20980
#
# Static dielectric constant tensor:
#      x y z
#    x 3.443650 0.000000 0.048070 
#    y 0.000000 4.136770 0.000000 
#    z 0.048070 0.000000 3.997100 
# 
# 
# High freq. dielectric constant tensor:
#      x y z
#    x 1.788330 0.000000 0.003390 
#    y 0.000000 1.827380 0.000000 
#    z 0.003390 0.000000 1.824870 
# 
# From -- ./inp_files/39001.got.cif
#   From: 2010.06.25/outbox.cif.g09.slc.cpg/sg15_20_cif.got.tgz:39001.got - 2010.06.28 07:06:18.
