data_PCOD8149067
_publ_section_title
;
Structure prediction by ZEFSAII (Michael W. Deem and Ramdas Pophale) SiO2 
 PCOD8149067
Probable space group: C 2/C
;
_chemical_formula_sum "Si O2"
_cell_formula_units_Z 44
_cell_length_a 20.261286
_cell_length_b 9.889650
_cell_length_c 10.935078
_cell_angle_alpha 90.000000
_cell_angle_beta 78.525125
_cell_angle_gamma 90.000000
_cell_volume 2147.342025
_symmetry_space_group_name_H-M "C 2/C"
_symmetry_group_IT_number 15
_symmetry_cell_setting 'monoclinic'
loop_
_space_group_symop_operation_xyz
x,y,z
-x,y,1/2-z
-x,-y,-z
x,-y,1/2+z
1/2+x,1/2+y,z
1/2-x,1/2+y,1/2-z
1/2-x,1/2-y,-z
1/2+x,1/2-y,1/2+z
loop_
_atom_site_type_symbol
_atom_site_label
_atom_site_fract_x
_atom_site_fract_y
_atom_site_fract_z
Si Si1 0.000000 0.232526 0.250000
Si Si2 0.820481 0.924062 0.523911
Si Si3 0.939494 0.411489 0.476740
Si Si4 0.165351 0.375866 0.558431
Si Si5 0.068674 0.726192 0.281790
Si Si6 0.388489 0.481354 0.753252
O O1 0.041092 0.333251 0.150705
O O2 0.058872 0.140506 0.285714
O O3 0.842470 0.766587 0.510460
O O4 0.740371 0.929097 0.545239
O O5 0.840951 0.981906 0.650009
O O6 0.848491 0.015922 0.399333
O O7 0.874009 0.505120 0.494429
O O8 0.925549 0.292751 0.576938
O O9 0.000000 0.500000 0.500000
O O10 0.132567 0.351961 0.702742
O O11 0.000000 0.663821 0.250000
O O12 0.067599 0.884497 0.258403
#
# Coordination Sequence:
#
# PCOD8149067 Si02
#       6
#     4   8   8   8   8   8
#     4  12  26  40  68 100 130 172 224 280 330 388
#     4  10  24  45  68  94 133 181 217 269 333 399
#     4  12  23  39  64  98 133 166 218 276 332 387
#     4  10  23  44  64  94 134 176 216 273 333 402
#     4  11  22  40  65  94 129 174 218 275 332 383
#     4  11  24  44  67  95 130 176 227 271 327 399
#
# _framework density 20.490447
#
# number of rings (size 3 to 8) (size 9 to 14) (size 15 to 20)
#    0.000    1.091    2.727    3.273    5.091    1.455 
#    6.545    1.818    0.000    0.000    0.000    0.000 
#    0.000    0.000    0.000    0.000    0.000    0.000 
#
# Total GULP energy -272655.354916 kJ/mol
# GULP energy per Si atom -12393.425223 kJ/mol
# Density = 2.044381 g / cm^3
# Si number density = 20.490447 Si / 1000 Ang^3
#
#
#
# Elastic Constant Matrix: (Units=GPa)
#
#
# Indices 1 2 3 4 5 6 
#
# 1 122.8393 47.0141 45.7661 0.0000 -6.2453 0.0000
# 2 47.0141 66.9199 24.0968 0.0000 -1.9088 0.0000
# 3 45.7661 24.0968 123.0589 0.0000 4.7918 0.0000
# 4 0.0000 0.0000 0.0000 21.5425 0.0000 6.3928
# 5 -6.2453 -1.9088 4.7918 0.0000 32.9363 0.0000
# 6 0.0000 0.0000 0.0000 6.3928 0.0000 31.4351
#
#
#
# Elastic Compliance Matrix: (Units=1/GPa)
#
#
# Indices 1 2 3 4 5 6 
#
# 1 0.012296 -0.007414 -0.003213 0.000000 0.002369 0.000000
# 2 -0.007414 0.020611 -0.001278 0.000000 -0.000025 0.000000
# 3 -0.003213 -0.001278 0.009653 0.000000 -0.002088 0.000000
# 4 0.000000 0.000000 0.000000 0.049401 0.000000 -0.010046
# 5 0.002369 -0.000025 -0.002088 0.000000 0.031113 0.000000
# 6 0.000000 0.000000 0.000000 -0.010046 0.000000 0.033855
#
#
# Mechanical properties :
#
#
# Convention : Reuss Voigt Hill
#
# Bulk Modulus (GPa) = 53.33364 60.73024 57.03194
# Shear Modulus (GPa) = 26.73963 30.24552 28.49258
#
# Velocity S-wave (km/s) = 3.61637 3.84615 3.73303
# Velocity P-wave (km/s) = 6.59716 7.03039 6.81722
#
# Compressibility (1/GPa) = 0.01874989
#
# Stress axis : x y z
#
# Youngs Moduli (GPa) = 81.32856 48.51773 103.59715
#
# Poissons Ratio (x) = 0.35969 0.33290
# Poissons Ratio (y) = 0.60294 0.13238
# Poissons Ratio (z) = 0.26134 0.06200
#
# Static dielectric constant tensor:
#      x y z
#    x 3.794900 0.000000 0.148660 
#    y 0.000000 3.602260 0.000000 
#    z 0.148660 0.000000 4.855600 
# 
# 
# High freq. dielectric constant tensor:
#      x y z
#    x 1.803230 0.000000 -0.009430 
#    y 0.000000 1.808280 0.000000 
#    z -0.009430 0.000000 1.806740 
# 
# From -- ./inp_files/110025.got.cif
#   From: 2010.06.25/outbox.cif.g09.slc.cpg/sg15_56_cif.got.tgz:110025.got - 2010.06.28 07:06:18.
