data_PCOD8149392
_publ_section_title
;
Structure prediction by ZEFSAII (Michael W. Deem and Ramdas Pophale) SiO2 
 PCOD8149392
Probable space group: C 2/C
;
_chemical_formula_sum "Si O2"
_cell_formula_units_Z 40
_cell_length_a 5.185512
_cell_length_b 13.009896
_cell_length_c 25.888228
_cell_angle_alpha 90.000000
_cell_angle_beta 96.067759
_cell_angle_gamma 90.000000
_cell_volume 1736.712192
_symmetry_space_group_name_H-M "C 2/C"
_symmetry_group_IT_number 15
_symmetry_cell_setting 'monoclinic'
loop_
_space_group_symop_operation_xyz
x,y,z
-x,y,1/2-z
-x,-y,-z
x,-y,1/2+z
1/2+x,1/2+y,z
1/2-x,1/2+y,1/2-z
1/2-x,1/2-y,-z
1/2+x,1/2-y,1/2+z
loop_
_atom_site_type_symbol
_atom_site_label
_atom_site_fract_x
_atom_site_fract_y
_atom_site_fract_z
Si Si1 0.626076 0.334323 0.876395
Si Si2 0.775004 0.786814 0.281954
Si Si3 0.864570 0.968854 0.347511
Si Si4 0.620996 0.970801 0.090956
Si Si5 0.484032 0.214165 0.970100
O O1 0.784012 0.269058 0.837765
O O2 0.426399 0.409661 0.841127
O O3 0.827714 0.406029 0.914650
O O4 0.465820 0.262795 0.912169
O O5 0.500000 0.770178 0.250000
O O6 0.832320 0.908168 0.292839
O O7 0.000000 0.741372 0.250000
O O8 0.599534 0.952263 0.371930
O O9 0.108795 0.919454 0.383742
O O10 0.537224 0.910287 0.036925
O O11 0.750000 0.250000 0.000000
O O12 0.250000 0.250000 0.000000
#
# Coordination Sequence:
#
# PCOD8149392 Si02
#       5
#     8   8   8   8   8
#     4  10  28  47  75  97 152 183 232 288 366 404
#     4  12  27  46  75 107 141 185 240 291 350 419
#     4  10  23  46  73  97 140 191 224 287 352 413
#     4  10  23  45  74  96 143 185 230 284 352 413
#     4  12  27  44  74 108 139 184 241 289 349 420
#
# _framework density 23.032025000000001
#
# number of rings (size 3 to 8) (size 9 to 14) (size 15 to 20)
#    1.200    0.000    2.000    2.400    5.600    2.400 
#    0.000    0.000    0.000    0.000    0.000    0.000 
#    0.000    0.000    0.000    0.000    0.000    0.000 
#
# Total GULP energy -247824.313220 kJ/mol
# GULP energy per Si atom -12391.215661 kJ/mol
# Density = 2.297960 g / cm^3
# Si number density = 23.032025 Si / 1000 Ang^3
#
#
#
# Elastic Constant Matrix: (Units=GPa)
#
#
# Indices 1 2 3 4 5 6 
#
# 1 134.9509 27.1262 32.5005 0.0000 -18.9619 0.0000
# 2 27.1262 106.4185 44.6415 0.0000 -11.6754 0.0000
# 3 32.5005 44.6415 93.5103 0.0000 -39.8790 0.0000
# 4 0.0000 0.0000 0.0000 22.5197 0.0000 9.0232
# 5 -18.9619 -11.6754 -39.8790 0.0000 45.2343 0.0000
# 6 0.0000 0.0000 0.0000 9.0232 0.0000 26.1632
#
#
#
# Elastic Compliance Matrix: (Units=1/GPa)
#
#
# Indices 1 2 3 4 5 6 
#
# 1 0.008284 -0.001289 -0.001482 0.000000 0.001833 0.000000
# 2 -0.001289 0.012222 -0.006846 0.000000 -0.003421 0.000000
# 3 -0.001482 -0.006846 0.021568 0.000000 0.016626 0.000000
# 4 0.000000 0.000000 0.000000 0.051526 0.000000 -0.017770
# 5 0.001833 -0.003421 0.016626 0.000000 0.036650 0.000000
# 6 0.000000 0.000000 0.000000 -0.017770 0.000000 0.044350
#
#
# Mechanical properties :
#
#
# Convention : Reuss Voigt Hill
#
# Bulk Modulus (GPa) = 43.78207 60.37958 52.08082
# Shear Modulus (GPa) = 24.82063 34.15754 29.48908
#
# Velocity S-wave (km/s) = 3.28633 3.85521 3.58208
# Velocity P-wave (km/s) = 5.78364 6.78891 6.30633
#
# Compressibility (1/GPa) = 0.02284040
#
# Stress axis : x y z
#
# Youngs Moduli (GPa) = 120.71972 81.82173 46.36591
#
# Poissons Ratio (x) = 0.10544 0.06872
# Poissons Ratio (y) = 0.15557 0.31740
# Poissons Ratio (z) = 0.17891 0.56011
#
# Static dielectric constant tensor:
#      x y z
#    x 3.999390 0.000000 -0.041420 
#    y 0.000000 4.405250 0.000000 
#    z -0.041420 0.000000 3.968360 
# 
# 
# High freq. dielectric constant tensor:
#      x y z
#    x 1.917360 0.000000 -0.015050 
#    y 0.000000 1.915170 0.000000 
#    z -0.015050 0.000000 1.889680 
# 
# From -- ./inp_files/285321.got.cif
#   From: 2010.06.25/outbox.cif.g09.slc.cpg/sg15_143_cif.got.tgz:285321.got - 2010.06.28 07:06:18.
