data_PCOD8149982
_publ_section_title
;
Structure prediction by ZEFSAII (Michael W. Deem and Ramdas Pophale) SiO2 
 PCOD8149982
Probable space group: C 2/C
;
_chemical_formula_sum "Si O2"
_cell_formula_units_Z 56
_cell_length_a 14.803767
_cell_length_b 11.260266
_cell_length_c 30.382653
_cell_angle_alpha 90.000000
_cell_angle_beta 30.084007
_cell_angle_gamma 90.000000
_cell_volume 2538.736511
_symmetry_space_group_name_H-M "C 2/C"
_symmetry_group_IT_number 15
_symmetry_cell_setting 'monoclinic'
loop_
_space_group_symop_operation_xyz
x,y,z
-x,y,1/2-z
-x,-y,-z
x,-y,1/2+z
1/2+x,1/2+y,z
1/2-x,1/2+y,1/2-z
1/2-x,1/2-y,-z
1/2+x,1/2-y,1/2+z
loop_
_atom_site_type_symbol
_atom_site_label
_atom_site_fract_x
_atom_site_fract_y
_atom_site_fract_z
Si Si1 0.980826 0.027715 0.058595
Si Si2 0.137329 0.273835 0.005369
Si Si3 0.648455 0.821817 0.815191
Si Si4 0.450940 0.975700 0.970462
Si Si5 0.864322 0.862668 0.438814
Si Si6 0.020070 0.256108 0.191479
Si Si7 0.092218 0.518273 0.254435
O O1 0.792687 0.981661 0.156509
O O2 0.131531 0.956071 0.022474
O O3 0.994913 0.169230 0.057709
O O4 0.000000 0.000000 0.000000
O O5 0.280767 0.287523 0.905321
O O6 0.250000 0.250000 0.000000
O O7 0.027869 0.394423 0.059974
O O8 0.562185 0.689908 0.844242
O O9 0.864271 0.806582 0.727678
O O10 0.591456 0.895883 0.796512
O O11 0.578182 0.884853 0.889835
O O12 0.500000 0.000000 0.000000
O O13 0.242166 0.928999 0.055942
O O14 0.750000 0.750000 0.500000
O O15 0.014483 0.398455 0.188203
O O16 0.000000 0.216399 0.250000
O O17 0.000000 0.578726 0.250000
#
# Coordination Sequence:
#
# PCOD8149982 Si02
#       7
#     8   8   8   8   8   8   8
#     4  12  25  43  72 100 132 179 234 279 339 408
#     4  12  24  41  67  99 134 169 227 288 326 399
#     4  11  24  45  68  96 141 181 222 282 349 413
#     4  11  25  43  68  99 134 180 228 276 348 409
#     4  10  24  43  67  92 134 179 221 271 346 410
#     4  11  23  42  67  95 133 178 226 274 338 404
#     4  11  25  42  66 101 133 175 230 284 341 399
#
# _framework density 22.058216999999999
#
# number of rings (size 3 to 8) (size 9 to 14) (size 15 to 20)
#    0.000    0.857    2.857    4.286   10.000    0.000 
#    0.000    0.000    0.000    0.857    0.000    0.000 
#    0.000    0.000    0.000    0.000    0.000    0.000 
#
# Total GULP energy -347104.055343 kJ/mol
# GULP energy per Si atom -12396.573405 kJ/mol
# Density = 2.200801 g / cm^3
# Si number density = 22.058217 Si / 1000 Ang^3
#
#
#
# Elastic Constant Matrix: (Units=GPa)
#
#
# Indices 1 2 3 4 5 6 
#
# 1 152.1269 34.9603 5.3414 0.0006 12.4628 0.0005
# 2 34.9603 106.2884 -1.7173 -0.0007 -3.6209 0.0005
# 3 5.3414 -1.7173 54.3913 -0.0025 3.2614 0.0024
# 4 0.0006 -0.0007 -0.0025 28.0510 -0.0018 -5.4087
# 5 12.4628 -3.6209 3.2614 -0.0018 38.5910 0.0001
# 6 0.0005 0.0005 0.0024 -5.4087 0.0001 39.9101
#
#
#
# Elastic Compliance Matrix: (Units=1/GPa)
#
#
# Indices 1 2 3 4 5 6 
#
# 1 0.007388 -0.002528 -0.000651 0.000000 -0.002568 0.000000
# 2 -0.002528 0.010307 0.000469 0.000000 0.001744 0.000000
# 3 -0.000651 0.000469 0.018543 0.000001 -0.001313 -0.000001
# 4 0.000000 0.000000 0.000001 0.036606 0.000002 0.004961
# 5 -0.002568 0.001744 -0.001313 0.000002 0.027017 0.000000
# 6 0.000000 0.000000 -0.000001 0.004961 0.000000 0.025729
#
#
# Mechanical properties :
#
#
# Convention : Reuss Voigt Hill
#
# Bulk Modulus (GPa) = 32.44970 43.33061 37.89016
# Shear Modulus (GPa) = 35.39045 39.59190 37.49118
#
# Velocity S-wave (km/s) = 4.00986 4.24120 4.12715
# Velocity P-wave (km/s) = 6.01510 6.60834 6.31869
#
# Compressibility (1/GPa) = 0.03081692
#
# Stress axis : x y z
#
# Youngs Moduli (GPa) = 135.36098 97.02299 53.92938
#
# Poissons Ratio (x) = 0.24527 0.03513
# Poissons Ratio (y) = 0.34219 -0.02530
# Poissons Ratio (z) = 0.08816 -0.04551
#
# Static dielectric constant tensor:
#      x y z
#    x 4.273740 -0.000020 0.154690 
#    y -0.000020 3.359790 0.000150 
#    z 0.154690 0.000150 4.756180 
# 
# 
# High freq. dielectric constant tensor:
#      x y z
#    x 1.884800 0.000000 -0.008130 
#    y 0.000000 1.874430 0.000000 
#    z -0.008130 0.000000 1.853030 
# 
# From -- ./inp_files/313714.got.cif
#   From: 2010.06.25/outbox.cif.g09.slc.cpg/sg15_157_cif.got.tgz:313714.got - 2010.06.28 07:06:18.
