data_PCOD8149832
_publ_section_title
;
Structure prediction by ZEFSAII (Michael W. Deem and Ramdas Pophale) SiO2 
 PCOD8149832
Probable space group: C 2/C
;
_chemical_formula_sum "Si O2"
_cell_formula_units_Z 52
_cell_length_a 19.809977
_cell_length_b 10.862688
_cell_length_c 15.408660
_cell_angle_alpha 90.000000
_cell_angle_beta 47.017210
_cell_angle_gamma 90.000000
_cell_volume 2425.689581
_symmetry_space_group_name_H-M "C 2/C"
_symmetry_group_IT_number 15
_symmetry_cell_setting 'monoclinic'
loop_
_space_group_symop_operation_xyz
x,y,z
-x,y,1/2-z
-x,-y,-z
x,-y,1/2+z
1/2+x,1/2+y,z
1/2-x,1/2+y,1/2-z
1/2-x,1/2-y,-z
1/2+x,1/2-y,1/2+z
loop_
_atom_site_type_symbol
_atom_site_label
_atom_site_fract_x
_atom_site_fract_y
_atom_site_fract_z
Si Si1 0.591297 0.055318 0.127149
Si Si2 0.821666 0.594034 0.808937
Si Si3 0.683073 0.014069 0.373678
Si Si4 0.388434 0.445169 0.209762
Si Si5 0.139015 0.215940 0.927495
Si Si6 0.000000 0.792069 0.250000
Si Si7 0.532669 0.306214 0.813469
O O1 0.500000 0.991123 0.250000
O O2 0.575033 0.203041 0.136539
O O3 0.671200 0.013426 0.124412
O O4 0.608142 0.012204 0.014178
O O5 0.846691 0.547852 0.690454
O O6 0.715552 0.635333 0.909887
O O7 0.887615 0.707529 0.772366
O O8 0.779480 0.959533 0.323693
O O9 0.687889 0.159836 0.350599
O O10 0.404646 0.364115 0.110787
O O11 0.440226 0.376926 0.240974
O O12 0.430784 0.580770 0.160168
O O13 0.055993 0.254457 0.063219
O O14 0.500000 0.359437 0.750000
#
# Coordination Sequence:
#
# PCOD8149832 Si02
#       7
#     8   8   8   8   8   4   8
#     4  10  24  42  66 102 128 173 226 272 333 389
#     4  11  24  43  67 101 133 170 228 275 330 395
#     4  11  24  44  71  96 134 178 222 277 332 392
#     4  11  24  45  64  98 135 182 219 266 343 393
#     4  11  25  42  69  97 136 175 221 278 327 399
#     4  10  24  44  64  94 138 168 226 272 328 398
#     4  12  25  42  68  99 134 175 221 272 335 397
#
# _framework density 21.437201999999999
#
# number of rings (size 3 to 8) (size 9 to 14) (size 15 to 20)
#    0.462    0.615    2.308    3.692    4.308    3.077 
#    0.000    0.000    0.000    0.000    0.000    0.000 
#    0.000    0.000    0.000    0.000    0.000    0.000 
#
# Total GULP energy -322363.679278 kJ/mol
# GULP energy per Si atom -12398.603049 kJ/mol
# Density = 2.138841 g / cm^3
# Si number density = 21.437202 Si / 1000 Ang^3
#
#
#
# Elastic Constant Matrix: (Units=GPa)
#
#
# Indices 1 2 3 4 5 6 
#
# 1 84.9416 30.8675 5.7446 0.0000 13.9779 0.0000
# 2 30.8675 100.8041 3.2340 0.0000 7.1393 0.0000
# 3 5.7446 3.2340 71.2033 0.0000 7.3016 0.0000
# 4 0.0000 0.0000 0.0000 27.7824 0.0000 2.9437
# 5 13.9779 7.1393 7.3016 0.0000 24.3568 0.0000
# 6 0.0000 0.0000 0.0000 2.9437 0.0000 21.1184
#
#
#
# Elastic Compliance Matrix: (Units=1/GPa)
#
#
# Indices 1 2 3 4 5 6 
#
# 1 0.014360 -0.003892 -0.000262 0.000000 -0.007022 0.000000
# 2 -0.003892 0.011187 -0.000090 0.000000 -0.001019 0.000000
# 3 -0.000262 -0.000090 0.014497 0.000000 -0.004169 0.000000
# 4 0.000000 0.000000 0.000000 0.036534 0.000000 -0.005092
# 5 -0.007022 -0.001019 -0.004169 0.000000 0.046634 0.000000
# 6 0.000000 0.000000 0.000000 -0.005092 0.000000 0.048062
#
#
# Mechanical properties :
#
#
# Convention : Reuss Voigt Hill
#
# Bulk Modulus (GPa) = 31.68749 37.40458 34.54603
# Shear Modulus (GPa) = 26.27715 29.12505 27.70110
#
# Velocity S-wave (km/s) = 3.50490 3.68995 3.59861
# Velocity P-wave (km/s) = 5.58505 5.96998 5.78072
#
# Compressibility (1/GPa) = 0.03155820
#
# Stress axis : x y z
#
# Youngs Moduli (GPa) = 69.63691 89.39013 68.97962
#
# Poissons Ratio (x) = 0.34787 0.01806
# Poissons Ratio (y) = 0.27100 0.00618
# Poissons Ratio (z) = 0.01823 0.00801
#
# Static dielectric constant tensor:
#      x y z
#    x 4.008150 0.000000 0.021050 
#    y 0.000000 3.948490 0.000000 
#    z 0.021050 0.000000 3.619050 
# 
# 
# High freq. dielectric constant tensor:
#      x y z
#    x 1.853730 0.000000 -0.000500 
#    y 0.000000 1.851370 0.000000 
#    z -0.000500 0.000000 1.825510 
# 
# From -- ./inp_files/160752.got.cif
#   From: 2010.06.25/outbox.cif.g09.slc.cpg/sg15_81_cif.got.tgz:160752.got - 2010.06.28 07:06:18.
