data_PCOD8149329
_publ_section_title
;
Structure prediction by ZEFSAII (Michael W. Deem and Ramdas Pophale) SiO2 
 PCOD8149329
Probable space group: C 2/C
;
_chemical_formula_sum "Si O2"
_cell_formula_units_Z 52
_cell_length_a 17.151949
_cell_length_b 6.240406
_cell_length_c 23.271032
_cell_angle_alpha 90.000000
_cell_angle_beta 65.226772
_cell_angle_gamma 90.000000
_cell_volume 2261.596265
_symmetry_space_group_name_H-M "C 2/C"
_symmetry_group_IT_number 15
_symmetry_cell_setting 'monoclinic'
loop_
_space_group_symop_operation_xyz
x,y,z
-x,y,1/2-z
-x,-y,-z
x,-y,1/2+z
1/2+x,1/2+y,z
1/2-x,1/2+y,1/2-z
1/2-x,1/2-y,-z
1/2+x,1/2-y,1/2+z
loop_
_atom_site_type_symbol
_atom_site_label
_atom_site_fract_x
_atom_site_fract_y
_atom_site_fract_z
Si Si1 0.864443 0.842322 0.765546
Si Si2 0.894832 0.587280 0.476433
Si Si3 0.875473 0.497919 0.352858
Si Si4 0.000000 0.822492 0.250000
Si Si5 0.313372 0.644527 0.085319
Si Si6 0.824331 0.470985 0.179491
Si Si7 0.423576 0.243043 0.068527
O O1 0.884312 0.739674 0.822360
O O2 0.864991 0.631411 0.724621
O O3 0.775280 0.967110 0.784458
O O4 0.937395 0.021756 0.731885
O O5 0.880229 0.475355 0.419860
O O6 0.814664 0.733823 0.523013
O O7 0.906504 0.402871 0.518880
O O8 0.975956 0.746900 0.448751
O O9 0.943982 0.671876 0.309202
O O10 0.779799 0.569197 0.367185
O O11 0.344445 0.801359 0.124785
O O12 0.387152 0.469121 0.061197
O O13 0.876611 0.678845 0.143024
#
# Coordination Sequence:
#
# PCOD8149329 Si02
#       7
#     8   8   8   4   8   8   8
#     4  12  27  47  71 106 146 193 241 298 357 431
#     4  10  25  42  70 103 136 181 239 294 358 421
#     4  12  26  46  69 102 144 184 237 295 362 430
#     4  12  30  46  68 110 146 188 242 296 370 418
#     4  11  22  46  69 102 137 186 238 292 358 422
#     4  11  25  43  73  99 137 191 243 291 352 437
#     4  10  23  45  68 100 137 183 241 296 352 420
#
# _framework density 22.992609000000002
#
# number of rings (size 3 to 8) (size 9 to 14) (size 15 to 20)
#    0.000    0.923    3.077    2.308    6.462    1.846 
#    0.000    0.000    0.000    0.000    0.000    0.000 
#    0.000    0.000    0.000    0.000    0.000    0.000 
#
# Total GULP energy -322248.858883 kJ/mol
# GULP energy per Si atom -12394.186880 kJ/mol
# Density = 2.294028 g / cm^3
# Si number density = 22.992609 Si / 1000 Ang^3
#
#
#
# Elastic Constant Matrix: (Units=GPa)
#
#
# Indices 1 2 3 4 5 6 
#
# 1 47.5357 17.5199 14.3146 -0.0002 1.4575 0.0219
# 2 17.5199 57.8311 15.3753 0.0023 2.2220 0.0295
# 3 14.3146 15.3753 83.2868 0.0007 10.8035 -0.0012
# 4 -0.0002 0.0023 0.0007 28.9454 0.0003 -11.6842
# 5 1.4575 2.2220 10.8035 0.0003 26.9424 0.0000
# 6 0.0219 0.0295 -0.0012 -11.6842 0.0000 47.8629
#
#
#
# Elastic Compliance Matrix: (Units=1/GPa)
#
#
# Indices 1 2 3 4 5 6 
#
# 1 0.024365 -0.006593 -0.003028 -0.000002 0.000440 -0.000008
# 2 -0.006593 0.019969 -0.002517 -0.000006 -0.000281 -0.000011
# 3 -0.003028 -0.002517 0.013654 0.000001 -0.005104 0.000004
# 4 -0.000002 -0.000006 0.000001 0.038324 0.000000 0.009356
# 5 0.000440 -0.000281 -0.005104 0.000000 0.039162 0.000000
# 6 -0.000008 -0.000011 0.000004 0.009356 0.000000 0.023177
#
#
# Mechanical properties :
#
#
# Convention : Reuss Voigt Hill
#
# Bulk Modulus (GPa) = 29.66255 31.45261 30.55758
# Shear Modulus (GPa) = 25.75142 30.17974 27.96558
#
# Velocity S-wave (km/s) = 3.35025 3.62689 3.49131
# Velocity P-wave (km/s) = 5.28152 5.59001 5.43796
#
# Compressibility (1/GPa) = 0.03371254
#
# Stress axis : x y z
#
# Youngs Moduli (GPa) = 41.04231 50.07733 73.24036
#
# Poissons Ratio (x) = 0.33018 0.22174
# Poissons Ratio (y) = 0.27061 0.18433
# Poissons Ratio (z) = 0.12426 0.12603
#
# Static dielectric constant tensor:
#      x y z
#    x 4.078160 -0.000020 -0.203670 
#    y -0.000020 4.246600 0.000000 
#    z -0.203670 0.000000 4.436830 
# 
# 
# High freq. dielectric constant tensor:
#      x y z
#    x 1.905660 0.000000 -0.011470 
#    y 0.000000 1.912080 0.000000 
#    z -0.011470 0.000000 1.920060 
# 
# From -- ./inp_files/278888.got.cif
#   From: 2010.06.25/outbox.cif.g09.slc.cpg/sg15_140_cif.got.tgz:278888.got - 2010.06.28 07:06:18.
