data_PCOD8149201
_publ_section_title
;
Structure prediction by ZEFSAII (Michael W. Deem and Ramdas Pophale) SiO2 
 PCOD8149201
Probable space group: C 2/C
;
_chemical_formula_sum "Si O2"
_cell_formula_units_Z 48
_cell_length_a 11.924084
_cell_length_b 14.033921
_cell_length_c 19.888434
_cell_angle_alpha 90.000000
_cell_angle_beta 135.841469
_cell_angle_gamma 90.000000
_cell_volume 2318.551871
_symmetry_space_group_name_H-M "C 2/C"
_symmetry_group_IT_number 15
_symmetry_cell_setting 'monoclinic'
loop_
_space_group_symop_operation_xyz
x,y,z
-x,y,1/2-z
-x,-y,-z
x,-y,1/2+z
1/2+x,1/2+y,z
1/2-x,1/2+y,1/2-z
1/2-x,1/2-y,-z
1/2+x,1/2-y,1/2+z
loop_
_atom_site_type_symbol
_atom_site_label
_atom_site_fract_x
_atom_site_fract_y
_atom_site_fract_z
Si Si1 0.415389 0.096742 0.863188
Si Si2 0.697990 0.345218 0.152785
Si Si3 0.324133 0.496046 0.143530
Si Si4 0.860360 0.509035 0.141203
Si Si5 0.673086 0.352428 0.473533
Si Si6 0.697839 0.808653 0.542751
O O1 0.309575 0.160201 0.766900
O O2 0.307242 0.017579 0.853902
O O3 0.560373 0.043497 0.887856
O O4 0.506901 0.167042 0.954630
O O5 0.741182 0.438676 0.129084
O O6 0.731707 0.251558 0.124000
O O7 0.515557 0.347956 0.096395
O O8 0.500000 0.491397 0.250000
O O9 0.302593 0.595577 0.095613
O O10 0.294628 0.409672 0.080383
O O11 0.755499 0.598062 0.072924
O O12 0.000000 0.547817 0.250000
O O13 0.750000 0.250000 0.500000
O O14 0.750000 0.750000 0.500000
#
# Coordination Sequence:
#
# PCOD8149201 Si02
#       6
#     8   8   8   8   8   8
#     4  11  23  45  69  94 142 173 227 275 339 405
#     4  11  24  45  70 101 136 174 228 280 335 414
#     4  12  26  45  69 101 138 180 225 284 346 407
#     4  10  23  44  70  95 132 179 223 277 336 400
#     4  12  25  45  67  98 137 176 226 280 343 412
#     4  12  25  43  73 106 135 176 230 284 342 405
#
# _framework density 20.702577999999999
#
# number of rings (size 3 to 8) (size 9 to 14) (size 15 to 20)
#    0.000    0.667    5.000    2.000    4.667    0.667 
#    3.000    0.000    0.000    0.000    0.000    0.000 
#    0.000    0.000    0.000    0.000    0.000    0.000 
#
# Total GULP energy -297712.773352 kJ/mol
# GULP energy per Si atom -12404.698890 kJ/mol
# Density = 2.065546 g / cm^3
# Si number density = 20.702578 Si / 1000 Ang^3
#
#
#
# Elastic Constant Matrix: (Units=GPa)
#
#
# Indices 1 2 3 4 5 6 
#
# 1 70.5084 21.1794 7.1231 0.0000 2.8221 0.0000
# 2 21.1794 132.0217 66.3118 0.0000 -6.8818 0.0000
# 3 7.1231 66.3118 125.4279 0.0000 -1.4475 0.0000
# 4 0.0000 0.0000 0.0000 25.3162 0.0000 -10.1407
# 5 2.8221 -6.8818 -1.4475 0.0000 35.4038 0.0000
# 6 0.0000 0.0000 0.0000 -10.1407 0.0000 21.7272
#
#
#
# Elastic Compliance Matrix: (Units=1/GPa)
#
#
# Indices 1 2 3 4 5 6 
#
# 1 0.015033 -0.002808 0.000611 0.000000 -0.001719 0.000000
# 2 -0.002808 0.010951 -0.005606 0.000000 0.002123 0.000000
# 3 0.000611 -0.005606 0.010894 0.000000 -0.000693 0.000000
# 4 0.000000 0.000000 0.000000 0.048583 0.000000 0.022675
# 5 -0.001719 0.002123 -0.000693 0.000000 0.028767 0.000000
# 6 0.000000 0.000000 0.000000 0.022675 0.000000 0.056608
#
#
# Mechanical properties :
#
#
# Convention : Reuss Voigt Hill
#
# Bulk Modulus (GPa) = 47.00920 57.46518 52.23719
# Shear Modulus (GPa) = 25.83527 32.04569 28.94048
#
# Velocity S-wave (km/s) = 3.53643 3.93861 3.74293
# Velocity P-wave (km/s) = 6.27944 6.96429 6.63071
#
# Compressibility (1/GPa) = 0.02127243
#
# Stress axis : x y z
#
# Youngs Moduli (GPa) = 66.51890 91.31240 91.79587
#
# Poissons Ratio (x) = 0.25643 -0.05610
# Poissons Ratio (y) = 0.18680 0.51459
# Poissons Ratio (z) = -0.04065 0.51188
#
# Static dielectric constant tensor:
#      x y z
#    x 4.022340 0.000000 0.006770 
#    y 0.000000 3.880950 0.000000 
#    z 0.006770 0.000000 4.214860 
# 
# 
# High freq. dielectric constant tensor:
#      x y z
#    x 1.815670 0.000000 0.000230 
#    y 0.000000 1.803460 0.000000 
#    z 0.000230 0.000000 1.835830 
# 
# From -- ./inp_files/239012.got.cif
#   From: 2010.06.25/outbox.cif.g09.slc.cpg/sg15_120_cif.got.tgz:239012.got - 2010.06.28 07:06:18.
