data_PCOD8149635
_publ_section_title
;
Structure prediction by ZEFSAII (Michael W. Deem and Ramdas Pophale) SiO2 
 PCOD8149635
Probable space group: C 2/C
;
_chemical_formula_sum "Si O2"
_cell_formula_units_Z 44
_cell_length_a 10.661073
_cell_length_b 17.734656
_cell_length_c 11.739362
_cell_angle_alpha 90.000000
_cell_angle_beta 127.148625
_cell_angle_gamma 90.000000
_cell_volume 1769.153766
_symmetry_space_group_name_H-M "C 2/C"
_symmetry_group_IT_number 15
_symmetry_cell_setting 'monoclinic'
loop_
_space_group_symop_operation_xyz
x,y,z
-x,y,1/2-z
-x,-y,-z
x,-y,1/2+z
1/2+x,1/2+y,z
1/2-x,1/2+y,1/2-z
1/2-x,1/2-y,-z
1/2+x,1/2-y,1/2+z
loop_
_atom_site_type_symbol
_atom_site_label
_atom_site_fract_x
_atom_site_fract_y
_atom_site_fract_z
Si Si1 0.772918 0.822784 0.438001
Si Si2 0.711748 0.767916 0.152832
Si Si3 0.500000 0.355844 0.250000
Si Si4 0.475279 0.112607 0.546242
Si Si5 0.417347 0.610809 0.463155
Si Si6 0.633530 0.024748 0.228472
O O1 0.750000 0.750000 0.500000
O O2 0.752491 0.787761 0.303817
O O3 0.640136 0.881294 0.407876
O O4 0.938072 0.867984 0.541720
O O5 0.848187 0.802991 0.150997
O O6 0.542956 0.807711 0.038226
O O7 0.703486 0.680668 0.114958
O O8 0.509166 0.405132 0.370619
O O9 0.385321 0.079261 0.389514
O O10 0.619370 0.060037 0.670451
O O11 0.312572 0.537216 0.373246
O O12 0.500000 0.042164 0.250000
#
# Coordination Sequence:
#
# PCOD8149635 Si02
#       6
#     8   8   4   8   8   8
#     4  11  22  40  67 103 134 175 232 288 348 406
#     4  11  22  39  65  95 138 180 225 288 345 406
#     4  10  24  40  60 106 138 182 230 288 344 414
#     4  11  24  44  68 100 140 181 231 285 347 416
#     4  11  24  40  69 101 140 181 233 288 350 418
#     4  11  25  44  68  98 138 188 229 277 347 426
#
# _framework density 24.870647999999999
#
# number of rings (size 3 to 8) (size 9 to 14) (size 15 to 20)
#    0.000    1.091    1.818    4.364    3.818    2.182 
#    0.000   11.818    0.000    0.000    0.000    0.000 
#    0.000    0.000    0.000    0.000    0.000    0.000 
#
# Total GULP energy -272697.555457 kJ/mol
# GULP energy per Si atom -12395.343430 kJ/mol
# Density = 2.481404 g / cm^3
# Si number density = 24.870648 Si / 1000 Ang^3
#
#
#
# Elastic Constant Matrix: (Units=GPa)
#
#
# Indices 1 2 3 4 5 6 
#
# 1 117.2739 6.9505 23.6403 0.0000 13.5393 0.0000
# 2 6.9505 62.1858 25.0442 0.0000 4.7181 0.0000
# 3 23.6403 25.0442 98.7559 0.0000 5.4441 0.0000
# 4 0.0000 0.0000 0.0000 32.4325 0.0000 8.3604
# 5 13.5393 4.7181 5.4441 0.0000 38.0853 0.0000
# 6 0.0000 0.0000 0.0000 8.3604 0.0000 31.4593
#
#
#
# Elastic Compliance Matrix: (Units=1/GPa)
#
#
# Indices 1 2 3 4 5 6 
#
# 1 0.009289 0.000021 -0.002063 0.000000 -0.003010 0.000000
# 2 0.000021 0.018005 -0.004483 0.000000 -0.001597 0.000000
# 3 -0.002063 -0.004483 0.011778 0.000000 -0.000395 0.000000
# 4 0.000000 0.000000 0.000000 0.033101 0.000000 -0.008797
# 5 -0.003010 -0.001597 -0.000395 0.000000 0.027581 0.000000
# 6 0.000000 0.000000 0.000000 -0.008797 0.000000 0.034125
#
#
# Mechanical properties :
#
#
# Convention : Reuss Voigt Hill
#
# Bulk Modulus (GPa) = 38.42812 43.27617 40.85215
# Shear Modulus (GPa) = 32.13283 35.23413 33.68348
#
# Velocity S-wave (km/s) = 3.59834 3.76798 3.68414
# Velocity P-wave (km/s) = 5.72265 6.03063 5.87866
#
# Compressibility (1/GPa) = 0.02602261
#
# Stress axis : x y z
#
# Youngs Moduli (GPa) = 107.65206 55.53971 84.90062
#
# Poissons Ratio (x) = -0.00116 0.17515
# Poissons Ratio (y) = -0.00226 0.38061
# Poissons Ratio (z) = 0.22209 0.24899
#
# Static dielectric constant tensor:
#      x y z
#    x 4.935850 0.000000 0.107550 
#    y 0.000000 4.370840 0.000000 
#    z 0.107550 0.000000 4.310190 
# 
# 
# High freq. dielectric constant tensor:
#      x y z
#    x 1.999650 0.000000 -0.003070 
#    y 0.000000 1.981830 0.000000 
#    z -0.003070 0.000000 1.996850 
# 
# From -- ./inp_files/89202.got.cif
#   From: 2010.06.25/outbox.cif.g09.slc.cpg/sg15_45_cif.got.tgz:89202.got - 2010.06.28 07:06:18.
