data_PCOD8149426
_publ_section_title
;
Structure prediction by ZEFSAII (Michael W. Deem and Ramdas Pophale) SiO2 
 PCOD8149426
Probable space group: C 2/C
;
_chemical_formula_sum "Si O2"
_cell_formula_units_Z 60
_cell_length_a 26.748808
_cell_length_b 9.250028
_cell_length_c 10.255107
_cell_angle_alpha 90.000000
_cell_angle_beta 114.973387
_cell_angle_gamma 90.000000
_cell_volume 2300.156555
_symmetry_space_group_name_H-M "C 2/C"
_symmetry_group_IT_number 15
_symmetry_cell_setting 'monoclinic'
loop_
_space_group_symop_operation_xyz
x,y,z
-x,y,1/2-z
-x,-y,-z
x,-y,1/2+z
1/2+x,1/2+y,z
1/2-x,1/2+y,1/2-z
1/2-x,1/2-y,-z
1/2+x,1/2-y,1/2+z
loop_
_atom_site_type_symbol
_atom_site_label
_atom_site_fract_x
_atom_site_fract_y
_atom_site_fract_z
Si Si1 0.335872 0.846111 0.845305
Si Si2 0.054994 0.657024 0.473880
Si Si3 0.793308 0.449386 0.072640
Si Si4 0.180967 0.957955 0.062367
Si Si5 0.076587 0.103925 0.283717
Si Si6 0.457505 0.161040 0.559109
Si Si7 0.000000 0.124659 0.750000
Si Si8 0.842881 0.772006 0.812586
O O1 0.310928 0.682478 0.833657
O O2 0.402172 0.829573 0.910001
O O3 0.316677 0.917798 0.687233
O O4 0.316508 0.944074 0.950370
O O5 0.035534 0.505910 0.391994
O O6 0.121423 0.646159 0.575221
O O7 0.012983 0.706692 0.543664
O O8 0.048800 0.780429 0.360693
O O9 0.726906 0.455705 0.998327
O O10 0.808180 0.297106 0.158096
O O11 0.193219 0.113211 0.146166
O O12 0.120386 0.959525 0.935580
O O13 0.049037 0.246926 0.316438
O O14 0.105828 0.135065 0.181722
O O15 0.031881 0.985513 0.189261
#
# Coordination Sequence:
#
# PCOD8149426 Si02
#       8
#     8   8   8   8   8   8   4   8
#     4  11  25  48  73 107 143 197 243 308 367 448
#     4  11  25  42  71 102 139 188 241 300 364 442
#     4  12  25  48  76 104 148 192 252 303 372 438
#     4  11  25  45  72 104 144 191 242 305 373 434
#     4  11  25  43  70  99 142 189 235 302 372 440
#     4  10  23  46  67  99 138 185 238 291 366 431
#     4  12  26  42  66 102 144 182 240 302 362 444
#     4  12  24  46  71 104 143 187 248 300 371 443
#
# _framework density 26.085180000000001
#
# number of rings (size 3 to 8) (size 9 to 14) (size 15 to 20)
#    0.000    0.800    5.333    2.000    5.600    4.800 
#    2.400    1.333    0.000    0.000    0.000    0.000 
#    0.000    0.000    0.000    0.000    0.000    0.000 
#
# Total GULP energy -371723.318148 kJ/mol
# GULP energy per Si atom -12390.777272 kJ/mol
# Density = 2.602581 g / cm^3
# Si number density = 26.085180 Si / 1000 Ang^3
#
#
#
# Elastic Constant Matrix: (Units=GPa)
#
#
# Indices 1 2 3 4 5 6 
#
# 1 101.9301 18.0506 -5.5854 0.0000 -1.2779 0.0000
# 2 18.0506 86.0455 5.8438 0.0000 -6.6466 0.0000
# 3 -5.5854 5.8438 46.0965 0.0000 -7.2834 0.0000
# 4 0.0000 0.0000 0.0000 28.6359 0.0000 0.5591
# 5 -1.2779 -6.6466 -7.2834 0.0000 23.7004 0.0000
# 6 0.0000 0.0000 0.0000 0.5591 0.0000 34.1324
#
#
#
# Elastic Compliance Matrix: (Units=1/GPa)
#
#
# Indices 1 2 3 4 5 6 
#
# 1 0.010300 -0.002237 0.001598 0.000000 0.000419 0.000000
# 2 -0.002237 0.012412 -0.001381 0.000000 0.002936 0.000000
# 3 0.001598 -0.001381 0.023138 0.000000 0.006810 0.000000
# 4 0.000000 0.000000 0.000000 0.034932 0.000000 -0.000572
# 5 0.000419 0.002936 0.006810 0.000000 0.045132 0.000000
# 6 0.000000 0.000000 0.000000 -0.000572 0.000000 0.029307
#
#
# Mechanical properties :
#
#
# Convention : Reuss Voigt Hill
#
# Bulk Modulus (GPa) = 23.91772 30.07668 26.99720
# Shear Modulus (GPa) = 28.86894 31.67795 30.27345
#
# Velocity S-wave (km/s) = 3.33035 3.48861 3.41040
# Velocity P-wave (km/s) = 4.89666 5.27090 5.08722
#
# Compressibility (1/GPa) = 0.04181000
#
# Stress axis : x y z
#
# Youngs Moduli (GPa) = 97.09155 80.57025 43.21861
#
# Poissons Ratio (x) = 0.18022 -0.06905
# Poissons Ratio (y) = 0.21717 0.05967
# Poissons Ratio (z) = -0.15513 0.11124
#
# Static dielectric constant tensor:
#      x y z
#    x 4.898760 0.000000 0.244140 
#    y 0.000000 4.859420 0.000000 
#    z 0.244140 0.000000 4.289380 
# 
# 
# High freq. dielectric constant tensor:
#      x y z
#    x 2.057350 0.000000 0.021470 
#    y 0.000000 2.059740 0.000000 
#    z 0.021470 0.000000 2.016080 
# 
# From -- ./inp_files/125939.got.cif
#   From: 2010.06.25/outbox.cif.g09.slc.cpg/sg15_63_cif.got.tgz:125939.got - 2010.06.28 07:06:18.
