data_PCOD8149496
_publ_section_title
;
Structure prediction by ZEFSAII (Michael W. Deem and Ramdas Pophale) SiO2 
 PCOD8149496
Probable space group: C 2/C
;
_chemical_formula_sum "Si O2"
_cell_formula_units_Z 48
_cell_length_a 25.345595
_cell_length_b 5.180401
_cell_length_c 17.919279
_cell_angle_alpha 90.000000
_cell_angle_beta 120.499608
_cell_angle_gamma 90.000000
_cell_volume 2027.255744
_symmetry_space_group_name_H-M "C 2/C"
_symmetry_group_IT_number 15
_symmetry_cell_setting 'monoclinic'
loop_
_space_group_symop_operation_xyz
x,y,z
-x,y,1/2-z
-x,-y,-z
x,-y,1/2+z
1/2+x,1/2+y,z
1/2-x,1/2+y,1/2-z
1/2-x,1/2-y,-z
1/2+x,1/2-y,1/2+z
loop_
_atom_site_type_symbol
_atom_site_label
_atom_site_fract_x
_atom_site_fract_y
_atom_site_fract_z
Si Si1 0.492849 0.750809 0.920700
Si Si2 0.983086 0.268939 0.152370
Si Si3 0.104108 0.944653 0.572174
Si Si4 0.261727 0.544331 0.572280
Si Si5 0.847626 0.772785 0.526286
Si Si6 0.217229 0.997416 0.249621
O O1 0.502254 0.506489 0.873016
O O2 0.434785 0.700830 0.932791
O O3 0.479740 0.005782 0.863250
O O4 0.553495 0.780119 0.018075
O O5 0.911918 0.347548 0.096855
O O6 0.000000 0.258852 0.250000
O O7 0.142062 0.991044 0.523371
O O8 0.152291 0.890061 0.672804
O O9 0.250000 0.750000 0.500000
O O10 0.194976 0.433854 0.545802
O O11 0.311137 0.345632 0.575162
O O12 0.289338 0.628284 0.672086
O O13 0.239898 0.753742 0.216504
#
# Coordination Sequence:
#
# PCOD8149496 Si02
#       6
#     8   8   8   8   8   8
#     4  10  25  43  72 100 134 190 225 287 347 410
#     4  11  25  44  69 103 140 177 234 284 346 410
#     4  10  23  47  70 100 141 179 236 283 347 415
#     4  11  25  44  69 101 138 187 230 282 357 412
#     4  10  24  44  66  98 139 183 224 289 347 415
#     4  12  27  44  72 105 139 184 236 291 345 418
#
# _framework density 23.677327999999999
#
# number of rings (size 3 to 8) (size 9 to 14) (size 15 to 20)
#    0.000    1.333    1.667    1.500   11.667    8.667 
#    0.000    0.000    0.000    0.000    0.000    0.000 
#    0.000    0.000    0.000    0.000    0.000    0.000 
#
# Total GULP energy -297422.210281 kJ/mol
# GULP energy per Si atom -12392.592095 kJ/mol
# Density = 2.362344 g / cm^3
# Si number density = 23.677328 Si / 1000 Ang^3
#
#
#
# Elastic Constant Matrix: (Units=GPa)
#
#
# Indices 1 2 3 4 5 6 
#
# 1 79.0291 -10.4784 20.4572 -0.0002 3.9646 0.0003
# 2 -10.4784 75.2544 12.9724 0.0033 -7.7992 -0.0019
# 3 20.4572 12.9724 160.5971 0.0001 -9.5855 0.0001
# 4 -0.0002 0.0033 0.0001 30.1607 0.0000 -7.8225
# 5 3.9646 -7.7992 -9.5855 0.0000 33.6538 0.0000
# 6 0.0003 -0.0019 0.0001 -7.8225 0.0000 10.9709
#
#
#
# Elastic Compliance Matrix: (Units=1/GPa)
#
#
# Indices 1 2 3 4 5 6 
#
# 1 0.013525 0.002052 -0.001989 0.000000 -0.001684 0.000000
# 2 0.002052 0.014064 -0.001238 -0.000001 0.002665 0.000002
# 3 -0.001989 -0.001238 0.006691 0.000000 0.001853 0.000000
# 4 0.000000 -0.000001 0.000000 0.040679 0.000000 0.029005
# 5 -0.001684 0.002665 0.001853 0.000000 0.031058 0.000000
# 6 0.000000 0.000002 0.000000 0.029005 0.000000 0.111832
#
#
# Mechanical properties :
#
#
# Convention : Reuss Voigt Hill
#
# Bulk Modulus (GPa) = 31.32088 40.08701 35.70395
# Shear Modulus (GPa) = 21.65983 34.41903 28.03943
#
# Velocity S-wave (km/s) = 3.02783 3.81684 3.44500
# Velocity P-wave (km/s) = 5.04784 6.03255 5.56203
#
# Compressibility (1/GPa) = 0.03192758
#
# Stress axis : x y z
#
# Youngs Moduli (GPa) = 73.93735 71.10581 149.45982
#
# Poissons Ratio (x) = -0.14587 0.29729
# Poissons Ratio (y) = -0.15168 0.18507
# Poissons Ratio (z) = 0.14707 0.08805
#
# Static dielectric constant tensor:
#      x y z
#    x 4.676510 0.000000 -0.020780 
#    y 0.000000 3.998250 0.000000 
#    z -0.020780 0.000000 4.424710 
# 
# 
# High freq. dielectric constant tensor:
#      x y z
#    x 1.949040 0.000000 -0.005460 
#    y 0.000000 1.919160 0.000000 
#    z -0.005460 0.000000 1.945900 
# 
# From -- ./inp_files/221016.got.cif
#   From: 2010.06.25/outbox.cif.g09.slc.cpg/sg15_111_cif.got.tgz:221016.got - 2010.06.28 07:06:18.
