data_PCOD8149277
_publ_section_title
;
Structure prediction by ZEFSAII (Michael W. Deem and Ramdas Pophale) SiO2 
 PCOD8149277
Probable space group: C 2/C
;
_chemical_formula_sum "Si O2"
_cell_formula_units_Z 52
_cell_length_a 14.633806
_cell_length_b 14.297892
_cell_length_c 13.331075
_cell_angle_alpha 90.000000
_cell_angle_beta 114.779538
_cell_angle_gamma 90.000000
_cell_volume 2532.477022
_symmetry_space_group_name_H-M "C 2/C"
_symmetry_group_IT_number 15
_symmetry_cell_setting 'monoclinic'
loop_
_space_group_symop_operation_xyz
x,y,z
-x,y,1/2-z
-x,-y,-z
x,-y,1/2+z
1/2+x,1/2+y,z
1/2-x,1/2+y,1/2-z
1/2-x,1/2-y,-z
1/2+x,1/2-y,1/2+z
loop_
_atom_site_type_symbol
_atom_site_label
_atom_site_fract_x
_atom_site_fract_y
_atom_site_fract_z
Si Si1 0.265949 0.114171 0.818359
Si Si2 0.500000 0.020628 0.750000
Si Si3 0.451991 0.801507 0.328833
Si Si4 0.675248 0.083421 0.440953
Si Si5 0.492688 0.354341 0.993248
Si Si6 0.840651 0.004158 0.890682
Si Si7 0.598288 0.276390 0.350987
O O1 0.330256 0.195337 0.788662
O O2 0.237434 0.026782 0.734226
O O3 0.161267 0.158187 0.806002
O O4 0.331784 0.072494 0.941648
O O5 0.525366 0.086841 0.665495
O O6 0.411904 0.957971 0.667279
O O7 0.500000 0.754906 0.250000
O O8 0.503689 0.745920 0.443670
O O9 0.673087 0.194492 0.420566
O O10 0.779577 0.036221 0.456824
O O11 0.603107 0.399607 0.053107
O O12 0.440391 0.339814 0.075731
O O13 0.422438 0.425457 0.895952
O O14 0.500000 0.235468 0.250000
#
# Coordination Sequence:
#
# PCOD8149277 Si02
#       7
#     8   4   8   8   8   8   8
#     4  12  23  41  69  96 138 172 226 283 334 401
#     4  10  24  44  62  92 130 168 226 262 336 402
#     4  10  23  45  63  90 136 175 215 278 338 400
#     4  12  23  43  68  98 131 178 223 282 326 402
#     4  11  23  45  69  94 140 177 215 285 341 401
#     4  11  24  41  67 103 131 171 230 271 334 403
#     4  12  23  41  71 102 130 177 230 276 342 400
#
# _framework density 20.533256000000002
#
# number of rings (size 3 to 8) (size 9 to 14) (size 15 to 20)
#    0.462    0.308    6.923    1.385    0.000    1.846 
#    2.769    3.077    0.000    0.000    0.000    0.000 
#    0.000    0.000    0.000    0.000    0.000    0.000 
#
# Total GULP energy -322141.845581 kJ/mol
# GULP energy per Si atom -12390.070984 kJ/mol
# Density = 2.048652 g / cm^3
# Si number density = 20.533256 Si / 1000 Ang^3
#
#
#
# Elastic Constant Matrix: (Units=GPa)
#
#
# Indices 1 2 3 4 5 6 
#
# 1 126.5903 30.4562 40.1081 0.0000 -6.2761 0.0000
# 2 30.4562 81.6143 44.1386 0.0000 10.7346 0.0000
# 3 40.1081 44.1386 104.7065 0.0000 4.6461 0.0000
# 4 0.0000 0.0000 0.0000 40.4467 0.0000 5.8308
# 5 -6.2761 10.7346 4.6461 0.0000 25.9636 0.0000
# 6 0.0000 0.0000 0.0000 5.8308 0.0000 29.6355
#
#
#
# Elastic Compliance Matrix: (Units=1/GPa)
#
#
# Indices 1 2 3 4 5 6 
#
# 1 0.009589 -0.002603 -0.002748 0.000000 0.003886 0.000000
# 2 -0.002603 0.017369 -0.006026 0.000000 -0.006732 0.000000
# 3 -0.002748 -0.006026 0.013167 0.000000 -0.000529 0.000000
# 4 0.000000 0.000000 0.000000 0.025446 0.000000 -0.005006
# 5 0.003886 -0.006732 -0.000529 0.000000 0.042333 0.000000
# 6 0.000000 0.000000 0.000000 -0.005006 0.000000 0.034728
#
#
# Mechanical properties :
#
#
# Convention : Reuss Voigt Hill
#
# Bulk Modulus (GPa) = 57.57007 60.25741 58.91374
# Shear Modulus (GPa) = 29.20973 32.42303 30.81638
#
# Velocity S-wave (km/s) = 3.77577 3.97804 3.87822
# Velocity P-wave (km/s) = 6.86345 7.10702 6.98629
#
# Compressibility (1/GPa) = 0.01737014
#
# Stress axis : x y z
#
# Youngs Moduli (GPa) = 104.28391 57.57548 75.94861
#
# Poissons Ratio (x) = 0.14988 0.20872
# Poissons Ratio (y) = 0.27148 0.45764
# Poissons Ratio (z) = 0.28659 0.34693
#
# Static dielectric constant tensor:
#      x y z
#    x 3.932210 0.000000 0.102700 
#    y 0.000000 3.580640 0.000000 
#    z 0.102700 0.000000 3.734820 
# 
# 
# High freq. dielectric constant tensor:
#      x y z
#    x 1.812990 0.000000 0.004770 
#    y 0.000000 1.795560 0.000000 
#    z 0.004770 0.000000 1.794190 
# 
# From -- ./inp_files/154048.got.cif
#   From: 2010.06.25/outbox.cif.g09.slc.cpg/sg15_78_cif.got.tgz:154048.got - 2010.06.28 07:06:18.
