data_PCOD8149044
_publ_section_title
;
Structure prediction by ZEFSAII (Michael W. Deem and Ramdas Pophale) SiO2 
 PCOD8149044
Probable space group: C 2/C
;
_chemical_formula_sum "Si O2"
_cell_formula_units_Z 48
_cell_length_a 12.672297
_cell_length_b 11.715916
_cell_length_c 21.976325
_cell_angle_alpha 90.000000
_cell_angle_beta 141.768357
_cell_angle_gamma 90.000000
_cell_volume 2019.141056
_symmetry_space_group_name_H-M "C 2/C"
_symmetry_group_IT_number 15
_symmetry_cell_setting 'monoclinic'
loop_
_space_group_symop_operation_xyz
x,y,z
-x,y,1/2-z
-x,-y,-z
x,-y,1/2+z
1/2+x,1/2+y,z
1/2-x,1/2+y,1/2-z
1/2-x,1/2-y,-z
1/2+x,1/2-y,1/2+z
loop_
_atom_site_type_symbol
_atom_site_label
_atom_site_fract_x
_atom_site_fract_y
_atom_site_fract_z
Si Si1 0.682397 0.531130 0.109247
Si Si2 0.069679 0.353444 0.482030
Si Si3 0.861463 0.402935 0.503358
Si Si4 0.602697 0.222824 0.360313
Si Si5 0.306866 0.783894 0.168896
Si Si6 0.272034 0.283296 0.786893
O O1 0.767385 0.628093 0.106508
O O2 0.799200 0.420546 0.167824
O O3 0.663837 0.588411 0.168264
O O4 0.500000 0.500000 0.000000
O O5 0.158881 0.462105 0.488736
O O6 0.209308 0.257900 0.563615
O O7 0.999923 0.396407 0.513947
O O8 0.919280 0.305655 0.371588
O O9 0.682489 0.348945 0.400004
O O10 0.937005 0.326725 0.591067
O O11 0.401587 0.235848 0.247263
O O12 0.500000 0.743465 0.250000
O O13 0.231759 0.731526 0.197551
#
# Coordination Sequence:
#
# PCOD8149044 Si02
#       6
#     8   8   8   8   8   8
#     4  12  26  48  75 108 150 193 244 305 368 448
#     4  11  24  48  67 108 150 185 238 313 365 430
#     4  10  23  43  75 103 149 183 244 304 361 432
#     4  11  23  47  75 111 140 200 250 295 365 454
#     4  12  28  49  70 107 147 189 250 304 378 441
#     4  12  26  46  76 105 144 196 249 298 370 443
#
# _framework density 23.772485
#
# number of rings (size 3 to 8) (size 9 to 14) (size 15 to 20)
#    0.000    0.667    5.000    1.500    7.000    2.000 
#    6.000    0.000    0.000    0.000    0.000    0.000 
#    0.000    0.000    0.000    0.000    0.000    0.000 
#
# Total GULP energy -297468.200373 kJ/mol
# GULP energy per Si atom -12394.508349 kJ/mol
# Density = 2.371838 g / cm^3
# Si number density = 23.772485 Si / 1000 Ang^3
#
#
#
# Elastic Constant Matrix: (Units=GPa)
#
#
# Indices 1 2 3 4 5 6 
#
# 1 55.9960 24.0365 24.2592 0.0000 23.1641 0.0000
# 2 24.0365 158.6310 58.3698 0.0000 13.7679 0.0000
# 3 24.2592 58.3698 145.8062 -0.0001 29.0353 0.0000
# 4 0.0000 0.0000 -0.0001 39.8432 0.0000 7.2192
# 5 23.1641 13.7679 29.0353 0.0000 28.7462 0.0000
# 6 0.0000 0.0000 0.0000 7.2192 0.0000 30.4359
#
#
#
# Elastic Compliance Matrix: (Units=1/GPa)
#
#
# Indices 1 2 3 4 5 6 
#
# 1 0.027666 -0.002584 0.000781 0.000000 -0.021845 0.000000
# 2 -0.002584 0.007645 -0.002899 0.000000 0.001349 0.000000
# 3 0.000781 -0.002899 0.009686 0.000000 -0.009025 0.000000
# 4 0.000000 0.000000 0.000000 0.026225 0.000000 -0.006220
# 5 -0.021845 0.001349 -0.009025 0.000000 0.060860 0.000000
# 6 0.000000 0.000000 0.000000 -0.006220 0.000000 0.034331
#
#
# Mechanical properties :
#
#
# Convention : Reuss Voigt Hill
#
# Bulk Modulus (GPa) = 28.09435 63.75158 45.92297
# Shear Modulus (GPa) = 26.64086 36.72292 31.68189
#
# Velocity S-wave (km/s) = 3.35126 3.93461 3.65459
# Velocity P-wave (km/s) = 5.17863 6.89327 6.09653
#
# Compressibility (1/GPa) = 0.03559435
#
# Stress axis : x y z
#
# Youngs Moduli (GPa) = 36.14575 130.80152 103.23969
#
# Poissons Ratio (x) = 0.33794 -0.08068
# Poissons Ratio (y) = 0.09339 0.29932
# Poissons Ratio (z) = -0.02825 0.37923
#
# Static dielectric constant tensor:
#      x y z
#    x 4.569720 0.000000 -0.315620 
#    y 0.000000 4.619780 0.000000 
#    z -0.315620 0.000000 4.594190 
# 
# 
# High freq. dielectric constant tensor:
#      x y z
#    x 1.945200 0.000000 -0.005410 
#    y 0.000000 1.939630 0.000000 
#    z -0.005410 0.000000 1.959540 
# 
# From -- ./inp_files/296205.got.cif
#   From: 2010.06.25/outbox.cif.g09.slc.cpg/sg15_149_cif.got.tgz:296205.got - 2010.06.28 07:06:18.
