data_PCOD8149569
_publ_section_title
;
Structure prediction by ZEFSAII (Michael W. Deem and Ramdas Pophale) SiO2 
 PCOD8149569
Probable space group: C 2/C
;
_chemical_formula_sum "Si O2"
_cell_formula_units_Z 48
_cell_length_a 21.683339
_cell_length_b 7.402160
_cell_length_c 18.539884
_cell_angle_alpha 90.000000
_cell_angle_beta 128.498088
_cell_angle_gamma 90.000000
_cell_volume 2328.882289
_symmetry_space_group_name_H-M "C 2/C"
_symmetry_group_IT_number 15
_symmetry_cell_setting 'monoclinic'
loop_
_space_group_symop_operation_xyz
x,y,z
-x,y,1/2-z
-x,-y,-z
x,-y,1/2+z
1/2+x,1/2+y,z
1/2-x,1/2+y,1/2-z
1/2-x,1/2-y,-z
1/2+x,1/2-y,1/2+z
loop_
_atom_site_type_symbol
_atom_site_label
_atom_site_fract_x
_atom_site_fract_y
_atom_site_fract_z
Si Si1 0.818487 0.897953 0.114057
Si Si2 0.402201 0.713212 0.806656
Si Si3 0.661211 0.377832 0.087002
Si Si4 0.322124 0.986378 0.657737
Si Si5 0.913632 0.816004 0.046694
Si Si6 0.155994 0.435840 0.479085
O O1 0.866192 0.932106 0.223671
O O2 0.781556 0.692512 0.090069
O O3 0.880522 0.910941 0.094301
O O4 0.750673 0.045683 0.056426
O O5 0.354621 0.699758 0.845930
O O6 0.387783 0.915851 0.762703
O O7 0.492779 0.675126 0.884706
O O8 0.755528 0.398305 0.148849
O O9 0.617073 0.569064 0.044165
O O10 0.628236 0.237940 0.003338
O O11 0.362703 0.093370 0.620161
O O12 0.888310 0.608403 0.020093
#
# Coordination Sequence:
#
# PCOD8149569 Si02
#       6
#     8   8   8   8   8   8
#     4   9  19  38  63  87 112 172 203 239 305 356
#     4  10  24  36  65  92 125 165 192 263 316 350
#     4  12  23  38  65  96 121 158 211 253 307 368
#     4   9  20  40  60  90 117 163 209 245 304 365
#     4  11  20  43  63  85 131 162 204 243 311 376
#     4  11  21  39  69  85 121 169 207 250 301 371
#
# _framework density 20.610745000000001
#
# number of rings (size 3 to 8) (size 9 to 14) (size 15 to 20)
#    1.000    0.667    3.333    2.500    2.333    0.667 
#    0.000    1.667    3.667    0.000    0.000    0.000 
#    0.000    0.000    0.000    0.000    0.000    0.000 
#
# Total GULP energy -297514.446275 kJ/mol
# GULP energy per Si atom -12396.435261 kJ/mol
# Density = 2.056383 g / cm^3
# Si number density = 20.610745 Si / 1000 Ang^3
#
#
#
# Elastic Constant Matrix: (Units=GPa)
#
#
# Indices 1 2 3 4 5 6 
#
# 1 70.5938 19.3122 16.1092 0.0000 -19.2356 0.0000
# 2 19.3122 44.6695 12.9353 0.0000 -3.0965 0.0000
# 3 16.1092 12.9353 53.9440 0.0000 -13.5079 0.0000
# 4 0.0000 0.0000 0.0000 24.2785 0.0000 -4.5191
# 5 -19.2356 -3.0965 -13.5079 0.0000 31.8198 0.0000
# 6 0.0000 0.0000 0.0000 -4.5191 0.0000 17.1802
#
#
#
# Elastic Compliance Matrix: (Units=1/GPa)
#
#
# Indices 1 2 3 4 5 6 
#
# 1 0.019283 -0.007203 -0.001441 0.000000 0.010345 0.000000
# 2 -0.007203 0.026748 -0.005261 0.000000 -0.003984 0.000000
# 3 -0.001441 -0.005261 0.022248 0.000000 0.008062 0.000000
# 4 0.000000 0.000000 0.000000 0.043309 0.000000 0.011392
# 5 0.010345 -0.003984 0.008062 0.000000 0.040715 0.000000
# 6 0.000000 0.000000 0.000000 0.011392 0.000000 0.061203
#
#
# Mechanical properties :
#
#
# Convention : Reuss Voigt Hill
#
# Bulk Modulus (GPa) = 24.70925 29.54674 27.12800
# Shear Modulus (GPa) = 19.62279 22.71239 21.16759
#
# Velocity S-wave (km/s) = 3.08890 3.32319 3.20819
# Velocity P-wave (km/s) = 4.97356 5.39366 5.18786
#
# Compressibility (1/GPa) = 0.04047067
#
# Stress axis : x y z
#
# Youngs Moduli (GPa) = 51.85781 37.38631 44.94736
#
# Poissons Ratio (x) = 0.26928 0.06478
# Poissons Ratio (y) = 0.37351 0.23646
# Poissons Ratio (z) = 0.07474 0.19668
#
# Static dielectric constant tensor:
#      x y z
#    x 3.564330 0.000000 -0.167410 
#    y 0.000000 3.525140 0.000000 
#    z -0.167410 0.000000 3.572410 
# 
# 
# High freq. dielectric constant tensor:
#      x y z
#    x 1.800540 0.000000 -0.011200 
#    y 0.000000 1.786070 0.000000 
#    z -0.011200 0.000000 1.792730 
# 
# From -- ./inp_files/251692.got.cif
#   From: 2010.06.25/outbox.cif.g09.slc.cpg/sg15_126_cif.got.tgz:251692.got - 2010.06.28 07:06:18.
