data_PCOD8149860
_publ_section_title
;
Structure prediction by ZEFSAII (Michael W. Deem and Ramdas Pophale) SiO2 
 PCOD8149860
Probable space group: C 2/C
;
_chemical_formula_sum "Si O2"
_cell_formula_units_Z 32
_cell_length_a 14.387610
_cell_length_b 9.538941
_cell_length_c 10.699385
_cell_angle_alpha 90.000000
_cell_angle_beta 72.149902
_cell_angle_gamma 90.000000
_cell_volume 1397.724262
_symmetry_space_group_name_H-M "C 2/C"
_symmetry_group_IT_number 15
_symmetry_cell_setting 'monoclinic'
loop_
_space_group_symop_operation_xyz
x,y,z
-x,y,1/2-z
-x,-y,-z
x,-y,1/2+z
1/2+x,1/2+y,z
1/2-x,1/2+y,1/2-z
1/2-x,1/2-y,-z
1/2+x,1/2-y,1/2+z
loop_
_atom_site_type_symbol
_atom_site_label
_atom_site_fract_x
_atom_site_fract_y
_atom_site_fract_z
Si Si1 0.918085 0.299383 0.537874
Si Si2 0.560739 0.534437 0.099988
Si Si3 0.831830 0.214126 0.827467
Si Si4 0.136952 0.606699 0.962516
O O1 0.886273 0.184297 0.448048
O O2 0.902321 0.227689 0.679936
O O3 0.853864 0.438988 0.554484
O O4 0.031197 0.336692 0.467494
O O5 0.500000 0.553847 0.250000
O O6 0.637494 0.411259 0.091610
O O7 0.500000 0.500000 0.000000
O O8 0.840183 0.357831 0.902180
O O9 0.718643 0.180419 0.839598
#
# Coordination Sequence:
#
# PCOD8149860 Si02
#       4
#     8   8   8   8
#     4  11  24  44  70 100 140 182 230 293 350 416
#     4  12  23  42  72 100 139 189 229 285 350 413
#     4  11  23  44  68  99 141 181 235 291 348 414
#     4  10  24  42  67 101 138 184 228 291 353 415
#
# _framework density 22.894356999999999
#
# number of rings (size 3 to 8) (size 9 to 14) (size 15 to 20)
#    0.000    1.000    5.000    0.750    0.000   11.000 
#    0.000    0.000    0.000    0.000    0.000    0.000 
#    0.000    0.000    0.000    0.000    0.000    0.000 
#
# Total GULP energy -198356.979270 kJ/mol
# GULP energy per Si atom -12397.311204 kJ/mol
# Density = 2.284225 g / cm^3
# Si number density = 22.894357 Si / 1000 Ang^3
#
#
#
# Elastic Constant Matrix: (Units=GPa)
#
#
# Indices 1 2 3 4 5 6 
#
# 1 68.7065 33.8950 20.4124 0.0000 -4.5295 0.0000
# 2 33.8950 155.8880 47.9137 0.0000 14.1921 0.0000
# 3 20.4124 47.9137 118.2858 0.0000 7.8098 0.0000
# 4 0.0000 0.0000 0.0000 35.9076 0.0000 3.5762
# 5 -4.5295 14.1921 7.8098 0.0000 23.1150 0.0000
# 6 0.0000 0.0000 0.0000 3.5762 0.0000 41.1096
#
#
#
# Elastic Compliance Matrix: (Units=1/GPa)
#
#
# Indices 1 2 3 4 5 6 
#
# 1 0.017403 -0.003783 -0.001892 0.000000 0.006372 0.000000
# 2 -0.003783 0.008450 -0.002433 0.000000 -0.005107 0.000000
# 3 -0.001892 -0.002433 0.009913 0.000000 -0.002226 0.000000
# 4 0.000000 0.000000 0.000000 0.028093 0.000000 -0.002444
# 5 0.006372 -0.005107 -0.002226 0.000000 0.048399 0.000000
# 6 0.000000 0.000000 0.000000 -0.002444 0.000000 0.024538
#
#
# Mechanical properties :
#
#
# Convention : Reuss Voigt Hill
#
# Bulk Modulus (GPa) = 51.14667 60.81362 55.98015
# Shear Modulus (GPa) = 31.34279 36.07039 33.70659
#
# Velocity S-wave (km/s) = 3.70404 3.97358 3.84117
# Velocity P-wave (km/s) = 6.37824 6.90455 6.64661
#
# Compressibility (1/GPa) = 0.01955161
#
# Stress axis : x y z
#
# Youngs Moduli (GPa) = 57.46205 118.34235 100.87752
#
# Poissons Ratio (x) = 0.44764 0.19083
# Poissons Ratio (y) = 0.21736 0.24542
# Poissons Ratio (z) = 0.10870 0.28791
#
# Static dielectric constant tensor:
#      x y z
#    x 3.965730 0.000000 -0.148680 
#    y 0.000000 4.752700 0.000000 
#    z -0.148680 0.000000 3.978530 
# 
# 
# High freq. dielectric constant tensor:
#      x y z
#    x 1.885360 0.000000 -0.020820 
#    y 0.000000 1.925850 0.000000 
#    z -0.020820 0.000000 1.897390 
# 
# From -- ./inp_files/93405.got.cif
#   From: 2010.06.25/outbox.cif.g09.slc.cpg/sg15_47_cif.got.tgz:93405.got - 2010.06.28 07:06:18.
