data_PCOD8149475
_publ_section_title
;
Structure prediction by ZEFSAII (Michael W. Deem and Ramdas Pophale) SiO2 
 PCOD8149475
Probable space group: C 2/C
;
_chemical_formula_sum "Si O2"
_cell_formula_units_Z 56
_cell_length_a 11.403079
_cell_length_b 9.711714
_cell_length_c 23.500240
_cell_angle_alpha 90.000000
_cell_angle_beta 105.020998
_cell_angle_gamma 90.000000
_cell_volume 2513.572490
_symmetry_space_group_name_H-M "C 2/C"
_symmetry_group_IT_number 15
_symmetry_cell_setting 'monoclinic'
loop_
_space_group_symop_operation_xyz
x,y,z
-x,y,1/2-z
-x,-y,-z
x,-y,1/2+z
1/2+x,1/2+y,z
1/2-x,1/2+y,1/2-z
1/2-x,1/2-y,-z
1/2+x,1/2-y,1/2+z
loop_
_atom_site_type_symbol
_atom_site_label
_atom_site_fract_x
_atom_site_fract_y
_atom_site_fract_z
Si Si1 0.988059 0.510149 0.648771
Si Si2 0.557395 0.264406 0.313511
Si Si3 0.152931 0.855895 0.935535
Si Si4 0.939365 0.990991 0.854245
Si Si5 0.714064 0.169724 0.834654
Si Si6 0.813790 0.277724 0.298509
Si Si7 0.892055 0.581265 0.517466
O O1 0.995266 0.344388 0.647012
O O2 0.902996 0.570257 0.688334
O O3 0.904586 0.544203 0.584320
O O4 0.118307 0.583622 0.670926
O O5 0.500000 0.201913 0.250000
O O6 0.509302 0.416978 0.317065
O O7 0.702551 0.264431 0.328166
O O8 0.191254 0.788785 0.878925
O O9 0.111517 0.749021 0.980311
O O10 0.036131 0.953430 0.914914
O O11 0.263526 0.954340 0.971230
O O12 0.899992 0.853370 0.816555
O O13 0.829425 0.077357 0.867863
O O14 0.734432 0.223732 0.772580
O O15 0.000000 0.500000 0.500000
#
# Coordination Sequence:
#
# PCOD8149475 Si02
#       7
#     8   8   8   8   8   8   8
#     4  11  25  47  68  98 141 183 231 289 347 404
#     4  12  27  41  65 106 142 177 233 275 343 429
#     4  10  25  46  68 101 136 175 241 289 340 421
#     4  12  26  42  69 106 137 182 225 279 342 417
#     4  11  23  42  71  98 144 180 221 285 353 410
#     4  12  25  44  69 100 145 184 223 277 349 428
#     4  10  23  46  74  94 128 191 239 288 349 402
#
# _framework density 22.279046999999998
#
# number of rings (size 3 to 8) (size 9 to 14) (size 15 to 20)
#    0.000    0.857    5.714    1.286    6.000    0.000 
#    0.000    8.571    0.000    0.000    0.000    0.000 
#    0.000    0.000    0.000    0.000    0.000    0.000 
#
# Total GULP energy -346923.436467 kJ/mol
# GULP energy per Si atom -12390.122731 kJ/mol
# Density = 2.222834 g / cm^3
# Si number density = 22.279047 Si / 1000 Ang^3
#
#
#
# Elastic Constant Matrix: (Units=GPa)
#
#
# Indices 1 2 3 4 5 6 
#
# 1 119.2969 65.4436 31.6404 0.0000 31.3257 0.0000
# 2 65.4436 107.9658 26.3188 0.0000 13.9513 0.0000
# 3 31.6404 26.3188 72.7576 0.0000 29.4091 0.0000
# 4 0.0000 0.0000 0.0000 24.2838 0.0000 9.3701
# 5 31.3257 13.9513 29.4091 0.0000 40.9867 0.0000
# 6 0.0000 0.0000 0.0000 9.3701 0.0000 43.4111
#
#
#
# Elastic Compliance Matrix: (Units=1/GPa)
#
#
# Indices 1 2 3 4 5 6 
#
# 1 0.015088 -0.007983 -0.000156 0.000000 -0.008702 0.000000
# 2 -0.007983 0.014421 -0.003137 0.000000 0.003444 0.000000
# 3 -0.000156 -0.003137 0.020377 0.000000 -0.013434 0.000000
# 4 0.000000 0.000000 0.000000 0.044921 0.000000 -0.009696
# 5 -0.008702 0.003444 -0.013434 0.000000 0.039516 0.000000
# 6 0.000000 0.000000 0.000000 -0.009696 0.000000 0.025128
#
#
# Mechanical properties :
#
#
# Convention : Reuss Voigt Hill
#
# Bulk Modulus (GPa) = 36.58446 60.75843 48.67144
# Shear Modulus (GPa) = 26.16215 33.51083 29.83649
#
# Velocity S-wave (km/s) = 3.43051 3.88253 3.66350
# Velocity P-wave (km/s) = 5.66991 6.88691 6.30783
#
# Compressibility (1/GPa) = 0.02733401
#
# Stress axis : x y z
#
# Youngs Moduli (GPa) = 66.27581 69.34365 49.07519
#
# Poissons Ratio (x) = 0.55359 0.00766
# Poissons Ratio (y) = 0.52910 0.15393
# Poissons Ratio (z) = 0.01035 0.21751
#
# Static dielectric constant tensor:
#      x y z
#    x 4.271860 0.000000 0.196030 
#    y 0.000000 4.100360 0.000000 
#    z 0.196030 0.000000 4.075290 
# 
# 
# High freq. dielectric constant tensor:
#      x y z
#    x 1.885060 0.000000 0.021930 
#    y 0.000000 1.874350 0.000000 
#    z 0.021930 0.000000 1.869120 
# 
# From -- ./inp_files/291621.got.cif
#   From: 2010.06.25/outbox.cif.g09.slc.cpg/sg15_146_cif.got.tgz:291621.got - 2010.06.28 07:06:18.
