data_PCOD8149742
_publ_section_title
;
Structure prediction by ZEFSAII (Michael W. Deem and Ramdas Pophale) SiO2 
 PCOD8149742
Probable space group: C 2/C
;
_chemical_formula_sum "Si O2"
_cell_formula_units_Z 40
_cell_length_a 18.962131
_cell_length_b 11.918410
_cell_length_c 8.750125
_cell_angle_alpha 90.000000
_cell_angle_beta 90.020217
_cell_angle_gamma 90.000000
_cell_volume 1977.514579
_symmetry_space_group_name_H-M "C 2/C"
_symmetry_group_IT_number 15
_symmetry_cell_setting 'monoclinic'
loop_
_space_group_symop_operation_xyz
x,y,z
-x,y,1/2-z
-x,-y,-z
x,-y,1/2+z
1/2+x,1/2+y,z
1/2-x,1/2+y,1/2-z
1/2-x,1/2-y,-z
1/2+x,1/2-y,1/2+z
loop_
_atom_site_type_symbol
_atom_site_label
_atom_site_fract_x
_atom_site_fract_y
_atom_site_fract_z
Si Si1 0.992054 0.119534 0.074388
Si Si2 0.570146 0.761016 0.841077
Si Si3 0.211799 0.360627 0.931840
Si Si4 0.270124 0.912826 0.906819
Si Si5 0.856965 0.796460 0.443506
O O1 0.000000 0.102560 0.250000
O O2 0.916099 0.177076 0.065992
O O3 0.049990 0.198212 0.995984
O O4 0.000000 0.000000 0.000000
O O5 0.500000 0.808653 0.750000
O O6 0.627986 0.851624 0.895245
O O7 0.610860 0.676034 0.725010
O O8 0.249938 0.394964 0.772086
O O9 0.250000 0.250000 0.000000
O O10 0.216449 0.456848 0.059889
O O11 0.337778 0.835994 0.948728
O O12 0.209005 0.874633 0.022072
#
# Coordination Sequence:
#
# PCOD8149742 Si02
#       5
#     8   8   8   8   8
#     4  11  23  36  62  90 125 171 215 271 324 386
#     4   9  21  44  62  91 131 164 219 263 323 385
#     4  11  26  41  68  99 133 172 221 271 330 397
#     4  10  24  41  66  93 133 168 217 268 332 384
#     4   9  21  42  62  89 129 170 211 269 322 381
#
# _framework density 20.227409000000002
#
# number of rings (size 3 to 8) (size 9 to 14) (size 15 to 20)
#    0.000    2.000    0.000    1.800   14.000    0.000 
#    0.000   10.000    0.000    0.000    0.000    0.000 
#    0.000    0.000    0.000    0.000    0.000    0.000 
#
# Total GULP energy -247806.061535 kJ/mol
# GULP energy per Si atom -12390.303077 kJ/mol
# Density = 2.018137 g / cm^3
# Si number density = 20.227409 Si / 1000 Ang^3
#
#
#
# Elastic Constant Matrix: (Units=GPa)
#
#
# Indices 1 2 3 4 5 6 
#
# 1 112.5431 46.0517 54.7166 0.0000 -4.4138 0.0000
# 2 46.0517 126.6696 62.8790 0.0000 11.0207 0.0000
# 3 54.7166 62.8790 151.4288 0.0000 7.7057 0.0000
# 4 0.0000 0.0000 0.0000 36.8973 0.0000 7.5498
# 5 -4.4138 11.0207 7.7057 0.0000 24.2245 0.0000
# 6 0.0000 0.0000 0.0000 7.5498 0.0000 17.1612
#
#
#
# Elastic Compliance Matrix: (Units=1/GPa)
#
#
# Indices 1 2 3 4 5 6 
#
# 1 0.011924 -0.003127 -0.003246 0.000000 0.004628 0.000000
# 2 -0.003127 0.011025 -0.003216 0.000000 -0.004562 0.000000
# 3 -0.003246 -0.003216 0.009217 0.000000 -0.002060 0.000000
# 4 0.000000 0.000000 0.000000 0.029783 0.000000 -0.013103
# 5 0.004628 -0.004562 -0.002060 0.000000 0.044855 0.000000
# 6 0.000000 0.000000 0.000000 -0.013103 0.000000 0.064035
#
#
# Mechanical properties :
#
#
# Convention : Reuss Voigt Hill
#
# Bulk Modulus (GPa) = 76.98811 79.77066 78.37938
# Shear Modulus (GPa) = 25.72736 30.78955 28.25845
#
# Velocity S-wave (km/s) = 3.57025 3.90573 3.74175
# Velocity P-wave (km/s) = 7.42560 7.73707 7.58293
#
# Compressibility (1/GPa) = 0.01298902
#
# Stress axis : x y z
#
# Youngs Moduli (GPa) = 83.86119 90.70661 108.49694
#
# Poissons Ratio (x) = 0.28360 0.35218
# Poissons Ratio (y) = 0.26220 0.34892
# Poissons Ratio (z) = 0.27221 0.29171
#
# Static dielectric constant tensor:
#      x y z
#    x 4.153890 0.000000 -0.191540 
#    y 0.000000 3.336360 0.000000 
#    z -0.191540 0.000000 4.046340 
# 
# 
# High freq. dielectric constant tensor:
#      x y z
#    x 1.798820 0.000000 -0.011430 
#    y 0.000000 1.767200 0.000000 
#    z -0.011430 0.000000 1.804770 
# 
# From -- ./inp_files/46087.got.cif
#   From: 2010.06.25/outbox.cif.g09.slc.cpg/sg15_24_cif.got.tgz:46087.got - 2010.06.28 07:06:18.
