data_PCOD8149765
_publ_section_title
;
Structure prediction by ZEFSAII (Michael W. Deem and Ramdas Pophale) SiO2 
 PCOD8149765
Probable space group: C 2/C
;
_chemical_formula_sum "Si O2"
_cell_formula_units_Z 60
_cell_length_a 17.237003
_cell_length_b 17.245849
_cell_length_c 9.059565
_cell_angle_alpha 90.000000
_cell_angle_beta 84.354560
_cell_angle_gamma 90.000000
_cell_volume 2680.045063
_symmetry_space_group_name_H-M "C 2/C"
_symmetry_group_IT_number 15
_symmetry_cell_setting 'monoclinic'
loop_
_space_group_symop_operation_xyz
x,y,z
-x,y,1/2-z
-x,-y,-z
x,-y,1/2+z
1/2+x,1/2+y,z
1/2-x,1/2+y,1/2-z
1/2-x,1/2-y,-z
1/2+x,1/2-y,1/2+z
loop_
_atom_site_type_symbol
_atom_site_label
_atom_site_fract_x
_atom_site_fract_y
_atom_site_fract_z
Si Si1 0.580300 0.426609 0.171555
Si Si2 0.830759 0.986403 0.079242
Si Si3 0.369961 0.737354 0.880095
Si Si4 0.739355 0.399735 0.681495
Si Si5 0.701560 0.764138 0.290676
Si Si6 0.099944 0.453298 0.917793
Si Si7 0.588870 0.100902 0.735798
Si Si8 0.000000 0.646185 0.250000
O O1 0.500000 0.457889 0.250000
O O2 0.643058 0.431852 0.291755
O O3 0.575951 0.338222 0.121207
O O4 0.597453 0.479160 0.026655
O O5 0.784208 0.056673 0.163197
O O6 0.780392 0.939169 0.970973
O O7 0.293304 0.718564 0.796298
O O8 0.424411 0.804091 0.806062
O O9 0.343106 0.759082 0.047491
O O10 0.698974 0.315222 0.696057
O O11 0.832413 0.400055 0.666967
O O12 0.654311 0.831342 0.213742
O O13 0.104311 0.543688 0.870393
O O14 0.020486 0.410847 0.882083
O O15 0.102207 0.454003 0.093083
O O16 0.500000 0.134931 0.750000
#
# Coordination Sequence:
#
# PCOD8149765 Si02
#       8
#     8   8   8   8   8   8   8   4
#     4  11  22  42  66  98 133 181 231 282 348 411
#     4  10  24  41  69  98 137 179 232 287 342 419
#     4  11  24  42  69 100 137 185 226 289 349 420
#     4  11  23  45  68 105 138 182 231 285 351 417
#     4  11  26  45  69 101 144 180 230 287 358 412
#     4  12  27  44  75 102 141 184 237 292 349 424
#     4  12  28  48  72 107 143 184 234 294 359 421
#     4  12  24  46  70 102 140 182 244 288 354 420
#
# _framework density 22.387681000000001
#
# number of rings (size 3 to 8) (size 9 to 14) (size 15 to 20)
#    0.000    0.800    4.000    2.400    7.467    1.600 
#    2.400    0.667    0.000    0.000    0.000    0.000 
#    0.000    0.000    0.000    0.000    0.000    0.000 
#
# Total GULP energy -371901.240290 kJ/mol
# GULP energy per Si atom -12396.708010 kJ/mol
# Density = 2.233673 g / cm^3
# Si number density = 22.387681 Si / 1000 Ang^3
#
#
#
# Elastic Constant Matrix: (Units=GPa)
#
#
# Indices 1 2 3 4 5 6 
#
# 1 102.6644 28.0511 22.4530 0.0000 -11.0842 0.0000
# 2 28.0511 116.7014 24.9072 0.0000 9.3031 0.0000
# 3 22.4530 24.9072 95.6865 0.0000 -0.7225 0.0000
# 4 0.0000 0.0000 0.0000 23.0965 0.0000 0.5921
# 5 -11.0842 9.3031 -0.7225 0.0000 34.1088 0.0000
# 6 0.0000 0.0000 0.0000 0.5921 0.0000 36.4216
#
#
#
# Elastic Compliance Matrix: (Units=1/GPa)
#
#
# Indices 1 2 3 4 5 6 
#
# 1 0.011366 -0.002667 -0.001940 0.000000 0.004380 0.000000
# 2 -0.002667 0.009922 -0.001984 0.000000 -0.003615 0.000000
# 3 -0.001940 -0.001984 0.011424 0.000000 0.000153 0.000000
# 4 0.000000 0.000000 0.000000 0.043315 0.000000 -0.000704
# 5 0.004380 -0.003615 0.000153 0.000000 0.031731 0.000000
# 6 0.000000 0.000000 0.000000 -0.000704 0.000000 0.027468
#
#
# Mechanical properties :
#
#
# Convention : Reuss Voigt Hill
#
# Bulk Modulus (GPa) = 51.20475 51.76389 51.48432
# Shear Modulus (GPa) = 32.27547 34.70144 33.48846
#
# Velocity S-wave (km/s) = 3.80104 3.94131 3.87181
# Velocity P-wave (km/s) = 6.49503 6.62447 6.56007
#
# Compressibility (1/GPa) = 0.01952944
#
# Stress axis : x y z
#
# Youngs Moduli (GPa) = 87.97860 100.79011 87.53837
#
# Poissons Ratio (x) = 0.26883 0.16981
# Poissons Ratio (y) = 0.23466 0.17368
# Poissons Ratio (z) = 0.17066 0.19997
#
# Static dielectric constant tensor:
#      x y z
#    x 4.148440 0.000000 -0.115700 
#    y 0.000000 3.886750 0.000000 
#    z -0.115700 0.000000 3.988400 
# 
# 
# High freq. dielectric constant tensor:
#      x y z
#    x 1.888980 0.000000 -0.013720 
#    y 0.000000 1.880280 0.000000 
#    z -0.013720 0.000000 1.890420 
# 
# From -- ./inp_files/49107.got.cif
#   From: 2010.06.25/outbox.cif.g09.slc.cpg/sg15_25_cif.got.tgz:49107.got - 2010.06.28 07:06:18.
