data_PCOD8149854
_publ_section_title
;
Structure prediction by ZEFSAII (Michael W. Deem and Ramdas Pophale) SiO2 
 PCOD8149854
Probable space group: C 2/C
;
_chemical_formula_sum "Si O2"
_cell_formula_units_Z 60
_cell_length_a 9.005217
_cell_length_b 26.210736
_cell_length_c 12.091083
_cell_angle_alpha 90.000000
_cell_angle_beta 89.761401
_cell_angle_gamma 90.000000
_cell_volume 2853.874266
_symmetry_space_group_name_H-M "C 2/C"
_symmetry_group_IT_number 15
_symmetry_cell_setting 'monoclinic'
loop_
_space_group_symop_operation_xyz
x,y,z
-x,y,1/2-z
-x,-y,-z
x,-y,1/2+z
1/2+x,1/2+y,z
1/2-x,1/2+y,1/2-z
1/2-x,1/2-y,-z
1/2+x,1/2-y,1/2+z
loop_
_atom_site_type_symbol
_atom_site_label
_atom_site_fract_x
_atom_site_fract_y
_atom_site_fract_z
Si Si1 0.171422 0.346650 0.231527
Si Si2 0.500000 0.531915 0.250000
Si Si3 0.153750 0.903279 0.940440
Si Si4 0.142283 0.934632 0.187413
Si Si5 0.591979 0.837775 0.644184
Si Si6 0.815144 0.306446 0.509098
Si Si7 0.702340 0.751872 0.375102
Si Si8 0.536433 0.678412 0.131260
O O1 0.219436 0.403876 0.262896
O O2 0.243083 0.304753 0.315041
O O3 0.000000 0.343657 0.250000
O O4 0.213078 0.335202 0.105481
O O5 0.435401 0.564104 0.149475
O O6 0.638851 0.495354 0.212910
O O7 0.321785 0.887319 0.904511
O O8 0.063717 0.850660 0.959028
O O9 0.149033 0.932543 0.055255
O O10 0.000000 0.908983 0.250000
O O11 0.500000 0.856769 0.750000
O O12 0.484726 0.813403 0.549223
O O13 0.706428 0.793843 0.685433
O O14 0.750000 0.250000 0.500000
O O15 0.708200 0.330632 0.603143
O O16 0.750000 0.750000 0.500000
O O17 0.524179 0.737818 0.367284
O O18 0.500000 0.653095 0.250000
#
# Coordination Sequence:
#
# PCOD8149854 Si02
#       8
#     8   4   8   8   8   8   8   8
#     4  12  23  40  62  89 135 176 210 261 329 387
#     4  10  24  44  74  96 120 164 224 288 352 396
#     4  11  21  44  69  92 129 165 214 285 336 396
#     4  10  24  42  66  99 123 161 220 271 338 409
#     4  11  24  39  60  99 134 173 226 266 320 392
#     4  12  23  37  60  95 138 180 216 258 307 389
#     4  11  22  37  57  86 131 181 216 258 311 380
#     4  11  21  36  60  89 121 167 218 253 315 378
#
# _framework density 21.024049999999999
#
# number of rings (size 3 to 8) (size 9 to 14) (size 15 to 20)
#    0.400    0.533    0.667    9.600    0.000    1.600 
#    0.000    0.667    0.000    2.400    0.000    0.000 
#    0.000    0.000    0.000    0.000    0.000    0.000 
#
# Total GULP energy -371758.004585 kJ/mol
# GULP energy per Si atom -12391.933486 kJ/mol
# Density = 2.097620 g / cm^3
# Si number density = 21.024050 Si / 1000 Ang^3
#
#
#
# Elastic Constant Matrix: (Units=GPa)
#
#
# Indices 1 2 3 4 5 6 
#
# 1 89.0651 31.8032 39.5466 0.0000 -8.4891 0.0000
# 2 31.8032 90.3761 41.6095 0.0000 3.9309 0.0000
# 3 39.5466 41.6095 133.5152 0.0000 -3.9429 0.0000
# 4 0.0000 0.0000 0.0000 27.4725 0.0000 6.4636
# 5 -8.4891 3.9309 -3.9429 0.0000 36.9428 0.0000
# 6 0.0000 0.0000 0.0000 6.4636 0.0000 36.4923
#
#
#
# Elastic Compliance Matrix: (Units=1/GPa)
#
#
# Indices 1 2 3 4 5 6 
#
# 1 0.014202 -0.003797 -0.002924 0.000000 0.003355 0.000000
# 2 -0.003797 0.014056 -0.003336 0.000000 -0.002724 0.000000
# 3 -0.002924 -0.003336 0.009416 0.000000 0.000688 0.000000
# 4 0.000000 0.000000 0.000000 0.037983 0.000000 -0.006728
# 5 0.003355 -0.002724 0.000688 0.000000 0.028203 0.000000
# 6 0.000000 0.000000 0.000000 -0.006728 0.000000 0.028595
#
#
# Mechanical properties :
#
#
# Convention : Reuss Voigt Hill
#
# Bulk Modulus (GPa) = 56.95262 59.87500 58.41381
# Shear Modulus (GPa) = 31.56136 33.51466 32.53801
#
# Velocity S-wave (km/s) = 3.87874 3.99696 3.93829
# Velocity P-wave (km/s) = 6.87078 7.05989 6.96598
#
# Compressibility (1/GPa) = 0.01755846
#
# Stress axis : x y z
#
# Youngs Moduli (GPa) = 70.41357 71.14617 106.20388
#
# Poissons Ratio (x) = 0.27016 0.31054
# Poissons Ratio (y) = 0.26738 0.35430
# Poissons Ratio (z) = 0.20589 0.23735
#
# Static dielectric constant tensor:
#      x y z
#    x 4.284890 0.000000 -0.309750 
#    y 0.000000 3.750240 0.000000 
#    z -0.309750 0.000000 4.298270 
# 
# 
# High freq. dielectric constant tensor:
#      x y z
#    x 1.822280 0.000000 -0.002070 
#    y 0.000000 1.797430 0.000000 
#    z -0.002070 0.000000 1.844360 
# 
# From -- ./inp_files/81362.got.cif
#   From: 2010.06.25/outbox.cif.g09.slc.cpg/sg15_41_cif.got.tgz:81362.got - 2010.06.28 07:06:18.
