data_PCOD8149301
_publ_section_title
;
Structure prediction by ZEFSAII (Michael W. Deem and Ramdas Pophale) SiO2 
 PCOD8149301
Probable space group: C 2/C
;
_chemical_formula_sum "Si O2"
_cell_formula_units_Z 60
_cell_length_a 28.246042
_cell_length_b 6.350599
_cell_length_c 18.447088
_cell_angle_alpha 90.000000
_cell_angle_beta 124.313917
_cell_angle_gamma 90.000000
_cell_volume 2733.127285
_symmetry_space_group_name_H-M "C 2/C"
_symmetry_group_IT_number 15
_symmetry_cell_setting 'monoclinic'
loop_
_space_group_symop_operation_xyz
x,y,z
-x,y,1/2-z
-x,-y,-z
x,-y,1/2+z
1/2+x,1/2+y,z
1/2-x,1/2+y,1/2-z
1/2-x,1/2-y,-z
1/2+x,1/2-y,1/2+z
loop_
_atom_site_type_symbol
_atom_site_label
_atom_site_fract_x
_atom_site_fract_y
_atom_site_fract_z
Si Si1 0.187944 0.320021 0.969749
Si Si2 0.183625 0.639773 0.842667
Si Si3 0.535410 0.587905 0.629480
Si Si4 0.633588 0.905913 0.662004
Si Si5 0.000000 0.994016 0.750000
Si Si6 0.692186 0.177460 0.073004
Si Si7 0.121428 0.096325 0.394486
Si Si8 0.457892 0.196343 0.959483
O O1 0.167477 0.490478 0.894698
O O2 0.139557 0.141821 0.929225
O O3 0.250000 0.250000 0.000000
O O4 0.196505 0.430461 0.055758
O O5 0.164567 0.525026 0.753693
O O6 0.250478 0.693590 0.895388
O O7 0.148712 0.848381 0.838223
O O8 0.589230 0.727638 0.650126
O O9 0.529044 0.626970 0.710006
O O10 0.542170 0.340538 0.614007
O O11 0.474641 0.656332 0.541289
O O12 0.679322 0.797488 0.647608
O O13 0.604307 0.090997 0.589179
O O14 0.052749 0.864642 0.830644
O O15 0.641199 0.269721 0.980454
O O16 0.500000 0.000000 0.000000
#
# Coordination Sequence:
#
# PCOD8149301 Si02
#       8
#     8   8   8   8   4   8   8   8
#     4  11  20  43  74  93 132 182 229 292 353 410
#     4  11  23  46  65 100 137 175 235 292 340 417
#     4  10  23  45  65  97 137 178 234 280 348 423
#     4  11  25  43  65 100 140 181 225 289 351 419
#     4  12  26  40  72 104 130 184 226 290 344 414
#     4  11  25  42  69 103 133 184 233 283 357 423
#     4  11  24  45  68  99 139 175 234 289 352 418
#     4   9  21  43  69  89 133 183 221 283 346 417
#
# _framework density 21.952873
#
# number of rings (size 3 to 8) (size 9 to 14) (size 15 to 20)
#    0.000    1.333    2.667    2.400    7.467    1.067 
#    4.800    5.333    0.000    0.000    0.000    0.000 
#    0.000    0.000    0.000    0.000    0.000    0.000 
#
# Total GULP energy -371698.532543 kJ/mol
# GULP energy per Si atom -12389.951085 kJ/mol
# Density = 2.190291 g / cm^3
# Si number density = 21.952873 Si / 1000 Ang^3
#
#
#
# Elastic Constant Matrix: (Units=GPa)
#
#
# Indices 1 2 3 4 5 6 
#
# 1 106.9869 32.2471 41.4452 -0.0002 -9.0904 -0.0002
# 2 32.2471 103.5627 31.9997 -0.0027 -3.5150 0.0040
# 3 41.4452 31.9997 103.0210 0.0001 -2.5108 0.0000
# 4 -0.0002 -0.0027 0.0001 28.7913 0.0000 -1.3968
# 5 -9.0904 -3.5150 -2.5108 0.0000 51.1797 0.0000
# 6 -0.0002 0.0040 0.0000 -1.3968 0.0000 25.1393
#
#
#
# Elastic Compliance Matrix: (Units=1/GPa)
#
#
# Indices 1 2 3 4 5 6 
#
# 1 0.011737 -0.002378 -0.003941 0.000000 0.001728 0.000000
# 2 -0.002378 0.011180 -0.002510 0.000001 0.000222 -0.000002
# 3 -0.003941 -0.002510 0.012065 0.000000 -0.000281 0.000000
# 4 0.000000 0.000001 0.000000 0.034827 0.000000 0.001935
# 5 0.001728 0.000222 -0.000281 0.000000 0.019847 0.000000
# 6 0.000000 -0.000002 0.000000 0.001935 0.000000 0.039886
#
#
# Mechanical properties :
#
#
# Convention : Reuss Voigt Hill
#
# Bulk Modulus (GPa) = 57.72762 58.32830 58.02796
# Shear Modulus (GPa) = 32.68489 34.88063 33.78276
#
# Velocity S-wave (km/s) = 3.86277 3.99041 3.92711
# Velocity P-wave (km/s) = 6.80058 6.91799 6.85954
#
# Compressibility (1/GPa) = 0.01732273
#
# Stress axis : x y z
#
# Youngs Moduli (GPa) = 85.19819 89.44726 82.88327
#
# Poissons Ratio (x) = 0.21274 0.32665
# Poissons Ratio (y) = 0.20263 0.20807
# Poissons Ratio (z) = 0.33577 0.22455
#
# Static dielectric constant tensor:
#      x y z
#    x 3.853580 0.000000 0.041170 
#    y 0.000000 4.910180 0.000000 
#    z 0.041170 0.000000 4.189990 
# 
# 
# High freq. dielectric constant tensor:
#      x y z
#    x 1.855040 0.000000 0.004060 
#    y 0.000000 1.863500 0.000000 
#    z 0.004060 0.000000 1.871400 
# 
# From -- ./inp_files/256788.got.cif
#   From: 2010.06.25/outbox.cif.g09.slc.cpg/sg15_129_cif.got.tgz:256788.got - 2010.06.28 07:06:18.
