data_PCOD8149696
_publ_section_title
;
Structure prediction by ZEFSAII (Michael W. Deem and Ramdas Pophale) SiO2 
 PCOD8149696
Probable space group: C 2/C
;
_chemical_formula_sum "Si O2"
_cell_formula_units_Z 36
_cell_length_a 21.489676
_cell_length_b 9.000525
_cell_length_c 18.612852
_cell_angle_alpha 90.000000
_cell_angle_beta 25.338721
_cell_angle_gamma 90.000000
_cell_volume 1540.716365
_symmetry_space_group_name_H-M "C 2/C"
_symmetry_group_IT_number 15
_symmetry_cell_setting 'monoclinic'
loop_
_space_group_symop_operation_xyz
x,y,z
-x,y,1/2-z
-x,-y,-z
x,-y,1/2+z
1/2+x,1/2+y,z
1/2-x,1/2+y,1/2-z
1/2-x,1/2-y,-z
1/2+x,1/2-y,1/2+z
loop_
_atom_site_type_symbol
_atom_site_label
_atom_site_fract_x
_atom_site_fract_y
_atom_site_fract_z
Si Si1 0.878240 0.309594 0.319166
Si Si2 0.724020 0.118442 0.113471
Si Si3 0.836400 0.173502 0.691454
Si Si4 0.500000 0.292312 0.250000
Si Si5 0.364458 0.656106 0.192611
O O1 0.750000 0.250000 0.500000
O O2 0.832095 0.451694 0.320588
O O3 0.921076 0.185920 0.214780
O O4 0.000000 0.348900 0.250000
O O5 0.711090 0.202918 0.201888
O O6 0.616677 0.193880 0.169256
O O7 0.895670 0.111082 0.911268
O O8 0.756186 0.220497 0.701697
O O9 0.008133 0.172447 0.498646
O O10 0.792623 0.008642 0.764226
#
# Coordination Sequence:
#
# PCOD8149696 Si02
#       5
#     8   8   8   4   8
#     4  12  28  45  68 103 146 188 232 287 349 416
#     4  11  24  44  70 103 140 184 231 285 350 415
#     4  11  25  46  75 103 137 181 232 291 347 414
#     4  10  24  40  70 102 140 178 232 280 346 420
#     4  11  26  46  71 104 139 181 232 287 349 414
#
# _framework density 23.365756000000001
#
# number of rings (size 3 to 8) (size 9 to 14) (size 15 to 20)
#    0.000    0.889    1.111    4.000    7.778   10.667 
#    0.000    0.000    0.000    0.000    0.000    0.000 
#    0.000    0.000    0.000    0.000    0.000    0.000 
#
# Total GULP energy -223170.414170 kJ/mol
# GULP energy per Si atom -12398.356343 kJ/mol
# Density = 2.331257 g / cm^3
# Si number density = 23.365756 Si / 1000 Ang^3
#
#
#
# Elastic Constant Matrix: (Units=GPa)
#
#
# Indices 1 2 3 4 5 6 
#
# 1 108.9654 60.6249 40.1390 0.0000 9.6913 -0.0001
# 2 60.6249 152.8553 40.3067 0.0000 4.3029 -0.0002
# 3 40.1390 40.3067 120.9646 0.0000 -2.0504 -0.0001
# 4 0.0000 0.0000 0.0000 42.3883 0.0000 35.6795
# 5 9.6913 4.3029 -2.0504 0.0000 41.4658 0.0000
# 6 -0.0001 -0.0002 -0.0001 35.6795 0.0000 115.3696
#
#
#
# Elastic Compliance Matrix: (Units=1/GPa)
#
#
# Indices 1 2 3 4 5 6 
#
# 1 0.012852 -0.004259 -0.002891 0.000000 -0.002705 0.000000
# 2 -0.004259 0.008615 -0.001457 0.000000 0.000029 0.000000
# 3 -0.002891 -0.001457 0.009734 0.000000 0.001308 0.000000
# 4 0.000000 0.000000 0.000000 0.031894 0.000000 -0.009864
# 5 -0.002705 0.000029 0.001308 0.000000 0.024810 0.000000
# 6 0.000000 0.000000 0.000000 -0.009864 0.000000 0.011718
#
#
# Mechanical properties :
#
#
# Convention : Reuss Voigt Hill
#
# Bulk Modulus (GPa) = 71.49669 73.88072 72.68871
# Shear Modulus (GPa) = 41.15236 55.95906 48.55571
#
# Velocity S-wave (km/s) = 4.20125 4.89910 4.56353
# Velocity P-wave (km/s) = 7.36202 7.98057 7.67752
#
# Compressibility (1/GPa) = 0.01398666
#
# Stress axis : x y z
#
# Youngs Moduli (GPa) = 77.80637 116.08222 102.73331
#
# Poissons Ratio (x) = 0.49438 0.29705
# Poissons Ratio (y) = 0.33137 0.14966
# Poissons Ratio (z) = 0.22498 0.16911
#
# Static dielectric constant tensor:
#      x y z
#    x 4.493280 0.000000 -0.595600 
#    y 0.000000 1.197560 0.000000 
#    z -0.595600 0.000000 5.286280 
# 
# 
# High freq. dielectric constant tensor:
#      x y z
#    x 1.938830 0.000000 -0.001880 
#    y 0.000000 1.928490 0.000000 
#    z -0.001880 0.000000 1.925020 
# 
# From -- ./inp_files/59866.got.cif
#   From: 2010.06.25/outbox.cif.g09.slc.cpg/sg15_30_cif.got.tgz:59866.got - 2010.06.28 07:06:18.
