data_PCOD8149979
_publ_section_title
;
Structure prediction by ZEFSAII (Michael W. Deem and Ramdas Pophale) SiO2 
 PCOD8149979
Probable space group: C 2/C
;
_chemical_formula_sum "Si O2"
_cell_formula_units_Z 52
_cell_length_a 8.454809
_cell_length_b 15.467463
_cell_length_c 28.657468
_cell_angle_alpha 90.000000
_cell_angle_beta 141.354343
_cell_angle_gamma 90.000000
_cell_volume 2340.424583
_symmetry_space_group_name_H-M "C 2/C"
_symmetry_group_IT_number 15
_symmetry_cell_setting 'monoclinic'
loop_
_space_group_symop_operation_xyz
x,y,z
-x,y,1/2-z
-x,-y,-z
x,-y,1/2+z
1/2+x,1/2+y,z
1/2-x,1/2+y,1/2-z
1/2-x,1/2-y,-z
1/2+x,1/2-y,1/2+z
loop_
_atom_site_type_symbol
_atom_site_label
_atom_site_fract_x
_atom_site_fract_y
_atom_site_fract_z
Si Si1 0.984964 0.286784 0.889103
Si Si2 0.274365 0.983331 0.664873
Si Si3 0.500000 0.427654 0.250000
Si Si4 0.495951 0.012389 0.119502
Si Si5 0.455368 0.765206 0.983850
Si Si6 0.682895 0.391535 0.985429
Si Si7 0.276147 0.365245 0.291703
O O1 0.244166 0.233641 0.949599
O O2 0.023557 0.384588 0.882960
O O3 0.820283 0.234560 0.813816
O O4 0.844136 0.277909 0.906321
O O5 0.500000 0.943086 0.750000
O O6 0.080902 0.909533 0.601915
O O7 0.413006 0.023747 0.651015
O O8 0.092475 0.055044 0.649371
O O9 0.285763 0.485764 0.175538
O O10 0.350419 0.370832 0.254168
O O11 0.305997 0.977691 0.035826
O O12 0.354326 0.675836 0.981152
O O13 0.379883 0.849336 0.995469
O O14 0.000000 0.389520 0.250000
#
# Coordination Sequence:
#
# PCOD8149979 Si02
#       7
#     8   8   4   8   8   8   8
#     4  11  25  43  65 105 142 184 240 297 356 429
#     4  11  23  46  72 101 141 185 236 299 364 418
#     4  12  26  48  72 106 142 190 250 292 360 436
#     4  12  25  44  73 107 141 191 242 300 354 430
#     4  10  24  43  67 101 143 182 238 295 353 434
#     4  11  24  45  73 102 138 196 238 293 359 433
#     4  11  25  48  69  97 145 193 228 297 365 421
#
# _framework density 22.218188999999999
#
# number of rings (size 3 to 8) (size 9 to 14) (size 15 to 20)
#    0.000    0.923    4.615    2.308    7.538    0.615 
#    1.385    0.000    0.000    0.000    0.000    0.000 
#    0.000    0.000    0.000    0.000    0.000    0.000 
#
# Total GULP energy -322172.601030 kJ/mol
# GULP energy per Si atom -12391.253886 kJ/mol
# Density = 2.216762 g / cm^3
# Si number density = 22.218189 Si / 1000 Ang^3
#
#
#
# Elastic Constant Matrix: (Units=GPa)
#
#
# Indices 1 2 3 4 5 6 
#
# 1 156.0657 53.3256 42.1866 0.0001 -18.9635 0.0000
# 2 53.3256 117.8359 44.5247 0.0001 -14.0450 0.0001
# 3 42.1866 44.5247 116.1788 0.0015 -5.6933 0.0006
# 4 0.0001 0.0001 0.0015 30.6575 0.0004 -1.9522
# 5 -18.9635 -14.0450 -5.6933 0.0004 30.9811 0.0001
# 6 0.0000 0.0001 0.0006 -1.9522 0.0001 10.5640
#
#
#
# Elastic Compliance Matrix: (Units=1/GPa)
#
#
# Indices 1 2 3 4 5 6 
#
# 1 0.008217 -0.002617 -0.001809 0.000000 0.003511 0.000000
# 2 -0.002617 0.011229 -0.003211 0.000000 0.002899 0.000000
# 3 -0.001809 -0.003211 0.010464 -0.000001 -0.000640 -0.000001
# 4 0.000000 0.000000 -0.000001 0.033007 0.000000 0.006100
# 5 0.003511 0.002899 -0.000640 0.000000 0.035623 -0.000001
# 6 0.000000 0.000000 -0.000001 0.006100 -0.000001 0.095788
#
#
# Mechanical properties :
#
#
# Convention : Reuss Voigt Hill
#
# Bulk Modulus (GPa) = 68.32282 74.46158 71.39220
# Shear Modulus (GPa) = 23.31204 31.11010 27.21107
#
# Velocity S-wave (km/s) = 3.24270 3.74600 3.50340
# Velocity P-wave (km/s) = 6.69610 7.23163 6.96901
#
# Compressibility (1/GPa) = 0.01463640
#
# Stress axis : x y z
#
# Youngs Moduli (GPa) = 121.69532 89.05130 95.56885
#
# Poissons Ratio (x) = 0.23301 0.17288
# Poissons Ratio (y) = 0.31843 0.30691
# Poissons Ratio (z) = 0.22014 0.28598
#
# Static dielectric constant tensor:
#      x y z
#    x 4.246260 0.000000 -0.074680 
#    y 0.000000 3.772710 0.000000 
#    z -0.074680 0.000000 3.963120 
# 
# 
# High freq. dielectric constant tensor:
#      x y z
#    x 1.893520 0.000000 -0.004940 
#    y 0.000000 1.866090 0.000000 
#    z -0.004940 0.000000 1.862780 
# 
# From -- ./inp_files/308334.got.cif
#   From: 2010.06.25/outbox.cif.g09.slc.cpg/sg15_155_cif.got.tgz:308334.got - 2010.06.28 07:06:18.
