data_PCOD8149350
_publ_section_title
;
Structure prediction by ZEFSAII (Michael W. Deem and Ramdas Pophale) SiO2 
 PCOD8149350
Probable space group: C 2/C
;
_chemical_formula_sum "Si O2"
_cell_formula_units_Z 44
_cell_length_a 10.920242
_cell_length_b 8.551353
_cell_length_c 21.893291
_cell_angle_alpha 90.000000
_cell_angle_beta 72.346355
_cell_angle_gamma 90.000000
_cell_volume 1948.178432
_symmetry_space_group_name_H-M "C 2/C"
_symmetry_group_IT_number 15
_symmetry_cell_setting 'monoclinic'
loop_
_space_group_symop_operation_xyz
x,y,z
-x,y,1/2-z
-x,-y,-z
x,-y,1/2+z
1/2+x,1/2+y,z
1/2-x,1/2+y,1/2-z
1/2-x,1/2-y,-z
1/2+x,1/2-y,1/2+z
loop_
_atom_site_type_symbol
_atom_site_label
_atom_site_fract_x
_atom_site_fract_y
_atom_site_fract_z
Si Si1 0.277033 0.133839 0.285635
Si Si2 0.887351 0.887435 0.994082
Si Si3 0.508511 0.338986 0.852429
Si Si4 0.641927 0.058763 0.462639
Si Si5 0.500000 0.092240 0.750000
Si Si6 0.208599 0.020637 0.675526
O O1 0.251219 0.110164 0.217584
O O2 0.316727 0.312396 0.290366
O O3 0.149891 0.090909 0.344473
O O4 0.385485 0.015838 0.291508
O O5 0.937445 0.795975 0.925772
O O6 0.753329 0.977421 0.997445
O O7 0.861777 0.747889 0.046101
O O8 0.000000 0.000000 0.000000
O O9 0.537859 0.190671 0.804115
O O10 0.428296 0.470451 0.829970
O O11 0.683131 0.974387 0.393720
O O12 0.500000 0.000000 0.500000
#
# Coordination Sequence:
#
# PCOD8149350 Si02
#       6
#     8   8   8   8   4   8
#     4  12  24  41  66 100 133 174 227 274 353 395
#     4  10  24  45  71 100 131 187 227 281 342 404
#     4  11  23  46  66  94 141 169 224 285 336 406
#     4  10  23  45  69  98 140 176 231 280 342 400
#     4  12  26  40  68 100 132 184 218 282 344 404
#     4  11  23  43  68  99 138 181 220 287 336 414
#
# _framework density 22.585201000000001
#
# number of rings (size 3 to 8) (size 9 to 14) (size 15 to 20)
#    0.000    1.091    3.636    1.091    2.545    6.545 
#    3.273    0.000    0.000    0.000    0.000    0.000 
#    0.000    0.000    0.000    0.000    0.000    0.000 
#
# Total GULP energy -272727.986916 kJ/mol
# GULP energy per Si atom -12396.726678 kJ/mol
# Density = 2.253380 g / cm^3
# Si number density = 22.585201 Si / 1000 Ang^3
#
#
#
# Elastic Constant Matrix: (Units=GPa)
#
#
# Indices 1 2 3 4 5 6 
#
# 1 155.9069 49.2047 19.2807 0.0000 -28.8967 0.0000
# 2 49.2047 116.4308 39.2573 0.0000 -6.6822 0.0000
# 3 19.2807 39.2573 65.3991 0.0000 -12.2643 0.0000
# 4 0.0000 0.0000 0.0000 28.7875 0.0000 -10.0945
# 5 -28.8967 -6.6822 -12.2643 0.0000 35.6782 0.0000
# 6 0.0000 0.0000 0.0000 -10.0945 0.0000 36.1398
#
#
#
# Elastic Compliance Matrix: (Units=1/GPa)
#
#
# Indices 1 2 3 4 5 6 
#
# 1 0.008665 -0.003560 0.000827 0.000000 0.006636 0.000000
# 2 -0.003560 0.012232 -0.006846 0.000000 -0.002945 0.000000
# 3 0.000827 -0.006846 0.020353 0.000000 0.006384 0.000000
# 4 0.000000 0.000000 0.000000 0.038509 0.000000 0.010756
# 5 0.006636 -0.002945 0.006384 0.000000 0.035045 0.000000
# 6 0.000000 0.000000 0.000000 0.010756 0.000000 0.030675
#
#
# Mechanical properties :
#
#
# Convention : Reuss Voigt Hill
#
# Bulk Modulus (GPa) = 45.26257 61.46913 53.36585
# Shear Modulus (GPa) = 29.06935 35.45403 32.26169
#
# Velocity S-wave (km/s) = 3.59151 3.96636 3.78358
# Velocity P-wave (km/s) = 6.10597 6.94634 6.53967
#
# Compressibility (1/GPa) = 0.02209331
#
# Stress axis : x y z
#
# Youngs Moduli (GPa) = 115.40341 81.75060 49.13189
#
# Poissons Ratio (x) = 0.29102 -0.04061
# Poissons Ratio (y) = 0.41082 0.33634
# Poissons Ratio (z) = -0.09540 0.55963
#
# Static dielectric constant tensor:
#      x y z
#    x 4.471380 0.000000 -0.045910 
#    y 0.000000 3.875400 0.000000 
#    z -0.045910 0.000000 4.182870 
# 
# 
# High freq. dielectric constant tensor:
#      x y z
#    x 1.917200 0.000000 -0.015780 
#    y 0.000000 1.876250 0.000000 
#    z -0.015780 0.000000 1.882140 
# 
# From -- ./inp_files/236209.got.cif
#   From: 2010.06.25/outbox.cif.g09.slc.cpg/sg15_119_cif.got.tgz:236209.got - 2010.06.28 07:06:18.
