data_PCOD8149411
_publ_section_title
;
Structure prediction by ZEFSAII (Michael W. Deem and Ramdas Pophale) SiO2 
 PCOD8149411
Probable space group: C 2/C
;
_chemical_formula_sum "Si O2"
_cell_formula_units_Z 48
_cell_length_a 10.594520
_cell_length_b 16.036742
_cell_length_c 25.996032
_cell_angle_alpha 90.000000
_cell_angle_beta 148.893476
_cell_angle_gamma 90.000000
_cell_volume 2281.837983
_symmetry_space_group_name_H-M "C 2/C"
_symmetry_group_IT_number 15
_symmetry_cell_setting 'monoclinic'
loop_
_space_group_symop_operation_xyz
x,y,z
-x,y,1/2-z
-x,-y,-z
x,-y,1/2+z
1/2+x,1/2+y,z
1/2-x,1/2+y,1/2-z
1/2-x,1/2-y,-z
1/2+x,1/2-y,1/2+z
loop_
_atom_site_type_symbol
_atom_site_label
_atom_site_fract_x
_atom_site_fract_y
_atom_site_fract_z
Si Si1 0.807527 0.216509 0.801866
Si Si2 0.229663 0.485270 0.425666
Si Si3 0.446657 0.106926 0.392522
Si Si4 0.500000 0.909774 0.250000
Si Si5 0.246095 0.865403 0.402946
Si Si6 0.000000 0.992678 0.250000
Si Si7 0.059359 0.681667 0.915938
O O1 0.836957 0.304455 0.839528
O O2 0.737159 0.148062 0.820594
O O3 0.586083 0.216904 0.683913
O O4 0.072351 0.201457 0.869638
O O5 0.500000 0.500000 0.500000
O O6 0.054154 0.470512 0.316124
O O7 0.200889 0.405077 0.453442
O O8 0.156962 0.571449 0.428544
O O9 0.542261 0.106942 0.484272
O O10 0.226279 0.044175 0.309394
O O11 0.363966 0.828945 0.392776
O O12 0.071438 0.940906 0.325615
O O13 0.250000 0.750000 0.000000
#
# Coordination Sequence:
#
# PCOD8149411 Si02
#       7
#     8   8   8   4   8   4   8
#     4  11  24  45  70  97 136 183 231 279 337 417
#     4  11  25  45  64 102 136 176 220 285 344 400
#     4  12  27  40  75 105 129 183 231 289 341 413
#     4  10  23  46  65  92 140 182 214 276 343 404
#     4  12  24  48  69 101 137 183 228 285 350 408
#     4  12  23  46  67  98 142 168 226 286 351 402
#     4  11  26  43  71  99 140 183 231 282 348 414
#
# _framework density 21.035675000000001
#
# number of rings (size 3 to 8) (size 9 to 14) (size 15 to 20)
#    0.000    0.667    3.333    3.500    9.333    1.333 
#    0.000    0.000    0.000    0.000    0.000    0.000 
#    0.000    0.000    0.000    0.000    0.000    0.000 
#
# Total GULP energy -297685.023229 kJ/mol
# GULP energy per Si atom -12403.542635 kJ/mol
# Density = 2.098780 g / cm^3
# Si number density = 21.035675 Si / 1000 Ang^3
#
#
#
# Elastic Constant Matrix: (Units=GPa)
#
#
# Indices 1 2 3 4 5 6 
#
# 1 80.9217 5.6759 28.3317 0.0001 -2.0524 0.0001
# 2 5.6759 72.9175 42.7962 0.0001 -11.5069 0.0001
# 3 28.3317 42.7962 102.3979 0.0013 -1.9869 0.0002
# 4 0.0001 0.0001 0.0013 55.7795 0.0003 -1.4807
# 5 -2.0524 -11.5069 -1.9869 0.0003 38.0902 0.0001
# 6 0.0001 0.0001 0.0002 -1.4807 0.0001 26.8096
#
#
#
# Elastic Compliance Matrix: (Units=1/GPa)
#
#
# Indices 1 2 3 4 5 6 
#
# 1 0.013852 0.001753 -0.004545 0.000000 0.001039 0.000000
# 2 0.001753 0.019440 -0.008503 0.000000 0.005524 0.000000
# 3 -0.004545 -0.008503 0.014537 0.000000 -0.002055 0.000000
# 4 0.000000 0.000000 0.000000 0.017954 0.000000 0.000992
# 5 0.001039 0.005524 -0.002055 0.000000 0.027871 0.000000
# 6 0.000000 0.000000 0.000000 0.000992 0.000000 0.037355
#
#
# Mechanical properties :
#
#
# Convention : Reuss Voigt Hill
#
# Bulk Modulus (GPa) = 39.61953 45.53830 42.57892
# Shear Modulus (GPa) = 30.86208 36.09808 33.48008
#
# Velocity S-wave (km/s) = 3.83447 4.14701 3.99380
# Velocity P-wave (km/s) = 6.20319 6.68022 6.44612
#
# Compressibility (1/GPa) = 0.02524008
#
# Stress axis : x y z
#
# Youngs Moduli (GPa) = 72.18976 51.44159 68.78940
#
# Poissons Ratio (x) = -0.09020 0.31267
# Poissons Ratio (y) = -0.12658 0.58488
# Poissons Ratio (z) = 0.32813 0.43738
#
# Static dielectric constant tensor:
#      x y z
#    x 4.074320 0.000000 0.050010 
#    y 0.000000 4.115950 0.000000 
#    z 0.050010 0.000000 4.131070 
# 
# 
# High freq. dielectric constant tensor:
#      x y z
#    x 1.842360 0.000000 0.002510 
#    y 0.000000 1.822990 0.000000 
#    z 0.002510 0.000000 1.834050 
# 
# From -- ./inp_files/182460.got.cif
#   From: 2010.06.25/outbox.cif.g09.slc.cpg/sg15_92_cif.got.tgz:182460.got - 2010.06.28 07:06:18.
