data_PCOD8149800
_publ_section_title
;
Structure prediction by ZEFSAII (Michael W. Deem and Ramdas Pophale) SiO2 
 PCOD8149800
Probable space group: C 2/C
;
_chemical_formula_sum "Si O2"
_cell_formula_units_Z 40
_cell_length_a 12.455172
_cell_length_b 17.865194
_cell_length_c 8.783753
_cell_angle_alpha 90.000000
_cell_angle_beta 70.909678
_cell_angle_gamma 90.000000
_cell_volume 1847.018756
_symmetry_space_group_name_H-M "C 2/C"
_symmetry_group_IT_number 15
_symmetry_cell_setting 'monoclinic'
loop_
_space_group_symop_operation_xyz
x,y,z
-x,y,1/2-z
-x,-y,-z
x,-y,1/2+z
1/2+x,1/2+y,z
1/2-x,1/2+y,1/2-z
1/2-x,1/2-y,-z
1/2+x,1/2-y,1/2+z
loop_
_atom_site_type_symbol
_atom_site_label
_atom_site_fract_x
_atom_site_fract_y
_atom_site_fract_z
Si Si1 0.066503 0.059315 0.069679
Si Si2 0.393762 0.676376 0.693791
Si Si3 0.450648 0.156767 0.112345
Si Si4 0.155604 0.394317 0.356161
Si Si5 0.180557 0.540072 0.512564
O O1 0.185929 0.024331 0.061840
O O2 0.000000 0.080872 0.250000
O O3 0.088422 0.136620 0.974404
O O4 0.000000 0.000000 0.000000
O O5 0.500000 0.654388 0.750000
O O6 0.387735 0.764226 0.664696
O O7 0.275606 0.647961 0.823239
O O8 0.500000 0.129085 0.250000
O O9 0.354868 0.100125 0.098277
O O10 0.553175 0.163539 0.939932
O O11 0.130192 0.459253 0.492522
O O12 0.142291 0.430973 0.195779
#
# Coordination Sequence:
#
# PCOD8149800 Si02
#       5
#     8   8   8   8   8
#     4  11  22  38  64  94 128 167 214 268 321 386
#     4  10  24  42  63  93 129 172 216 265 327 386
#     4  11  25  42  63  94 130 170 215 265 325 386
#     4  11  23  42  66  92 129 166 213 269 320 387
#     4  11  23  40  66  94 126 168 215 267 322 382
#
# _framework density 21.65652
#
# number of rings (size 3 to 8) (size 9 to 14) (size 15 to 20)
#    0.000    1.200    0.000    6.600    0.000   11.200 
#    0.000    0.000    0.000    0.000    0.000    0.000 
#    0.000    0.000    0.000    0.000    0.000    0.000 
#
# Total GULP energy -248007.810481 kJ/mol
# GULP energy per Si atom -12400.390524 kJ/mol
# Density = 2.160723 g / cm^3
# Si number density = 21.656520 Si / 1000 Ang^3
#
#
#
# Elastic Constant Matrix: (Units=GPa)
#
#
# Indices 1 2 3 4 5 6 
#
# 1 108.3547 48.4848 33.8961 0.0000 3.9363 0.0000
# 2 48.4848 104.0943 32.8786 0.0000 4.6749 0.0000
# 3 33.8961 32.8786 101.6665 0.0000 -11.0012 0.0000
# 4 0.0000 0.0000 0.0000 29.0446 0.0000 3.5322
# 5 3.9363 4.6749 -11.0012 0.0000 35.4352 0.0000
# 6 0.0000 0.0000 0.0000 3.5322 0.0000 40.7910
#
#
#
# Elastic Compliance Matrix: (Units=1/GPa)
#
#
# Indices 1 2 3 4 5 6 
#
# 1 0.012279 -0.004791 -0.002715 0.000000 -0.001575 0.000000
# 2 -0.004791 0.012801 -0.002760 0.000000 -0.002013 0.000000
# 3 -0.002715 -0.002760 0.012113 0.000000 0.004426 0.000000
# 4 0.000000 0.000000 0.000000 0.034796 0.000000 -0.003013
# 5 -0.001575 -0.002013 0.004426 0.000000 0.030035 0.000000
# 6 0.000000 0.000000 0.000000 -0.003013 0.000000 0.024776
#
#
# Mechanical properties :
#
#
# Convention : Reuss Voigt Hill
#
# Bulk Modulus (GPa) = 60.02329 60.51494 60.26912
# Shear Modulus (GPa) = 32.70406 34.31123 33.50765
#
# Velocity S-wave (km/s) = 3.89025 3.98469 3.93775
# Velocity P-wave (km/s) = 6.92495 7.01242 6.96882
#
# Compressibility (1/GPa) = 0.01666020
#
# Stress axis : x y z
#
# Youngs Moduli (GPa) = 81.43757 78.12180 82.55707
#
# Poissons Ratio (x) = 0.37430 0.22414
# Poissons Ratio (y) = 0.39018 0.22787
# Poissons Ratio (z) = 0.22110 0.21563
#
# Static dielectric constant tensor:
#      x y z
#    x 4.182010 0.000000 0.059420 
#    y 0.000000 3.784250 0.000000 
#    z 0.059420 0.000000 4.063560 
# 
# 
# High freq. dielectric constant tensor:
#      x y z
#    x 1.866870 0.000000 0.002060 
#    y 0.000000 1.848200 0.000000 
#    z 0.002060 0.000000 1.856920 
# 
# From -- ./inp_files/29051.got.cif
#   From: 2010.06.25/outbox.cif.g09.slc.cpg/sg15_15_cif.got.tgz:29051.got - 2010.06.28 07:06:18.
