data_PCOD8149728
_publ_section_title
;
Structure prediction by ZEFSAII (Michael W. Deem and Ramdas Pophale) SiO2 
 PCOD8149728
Probable space group: C 2/C
;
_chemical_formula_sum "Si O2"
_cell_formula_units_Z 60
_cell_length_a 20.254786
_cell_length_b 17.398945
_cell_length_c 12.463565
_cell_angle_alpha 90.000000
_cell_angle_beta 139.674829
_cell_angle_gamma 90.000000
_cell_volume 2842.371769
_symmetry_space_group_name_H-M "C 2/C"
_symmetry_group_IT_number 15
_symmetry_cell_setting 'monoclinic'
loop_
_space_group_symop_operation_xyz
x,y,z
-x,y,1/2-z
-x,-y,-z
x,-y,1/2+z
1/2+x,1/2+y,z
1/2-x,1/2+y,1/2-z
1/2-x,1/2-y,-z
1/2+x,1/2-y,1/2+z
loop_
_atom_site_type_symbol
_atom_site_label
_atom_site_fract_x
_atom_site_fract_y
_atom_site_fract_z
Si Si1 0.472398 0.319766 0.596140
Si Si2 0.500000 0.872951 0.250000
Si Si3 0.225770 0.761364 0.247252
Si Si4 0.153686 0.267729 0.306529
Si Si5 0.268477 0.090949 0.914878
Si Si6 0.399890 0.479835 0.437519
Si Si7 0.239444 0.909670 0.629053
Si Si8 0.589362 0.988245 0.526210
O O1 0.500000 0.291519 0.750000
O O2 0.391104 0.260782 0.441424
O O3 0.585054 0.307135 0.683787
O O4 0.425214 0.404308 0.539176
O O5 0.579211 0.828033 0.271494
O O6 0.567531 0.924106 0.411499
O O7 0.298723 0.797008 0.245565
O O8 0.240905 0.819788 0.363772
O O9 0.257656 0.677744 0.327296
O O10 0.250000 0.250000 0.500000
O O11 0.183430 0.037071 0.756277
O O12 0.377875 0.065662 0.999063
O O13 0.267624 0.080318 0.040540
O O14 0.500000 0.500000 0.500000
O O15 0.369631 0.550143 0.479211
O O16 0.316922 0.962021 0.787714
O O17 0.500000 0.000000 0.500000
#
# Coordination Sequence:
#
# PCOD8149728 Si02
#       8
#     8   4   8   8   8   8   8   8
#     4  11  22  39  61  96 130 162 206 271 321 376
#     4  12  24  38  64  96 128 164 212 270 322 388
#     4  11  23  42  64  93 130 167 217 266 318 391
#     4  12  21  38  61  95 128 163 204 259 331 379
#     4  10  24  42  63  93 126 169 216 264 320 385
#     4  10  24  41  63  94 129 168 217 262 319 390
#     4  11  23  43  66  92 126 173 216 260 322 386
#     4  11  23  42  63  93 128 166 215 267 320 388
#
# _framework density 21.109133
#
# number of rings (size 3 to 8) (size 9 to 14) (size 15 to 20)
#    0.000    1.067    2.000    4.400    1.867    3.200 
#    0.000    0.000    0.000    6.400    0.000    0.000 
#    0.000    0.000    0.000    0.000    0.000    0.000 
#
# Total GULP energy -371734.472597 kJ/mol
# GULP energy per Si atom -12391.149087 kJ/mol
# Density = 2.106109 g / cm^3
# Si number density = 21.109133 Si / 1000 Ang^3
#
#
#
# Elastic Constant Matrix: (Units=GPa)
#
#
# Indices 1 2 3 4 5 6 
#
# 1 146.5505 47.6692 51.3526 0.0000 2.2735 0.0000
# 2 47.6692 119.4744 47.3839 0.0000 1.7402 0.0000
# 3 51.3526 47.3839 105.2215 0.0000 -1.3510 0.0000
# 4 0.0000 0.0000 0.0000 22.3520 0.0000 -2.2826
# 5 2.2735 1.7402 -1.3510 0.0000 41.9617 0.0000
# 6 0.0000 0.0000 0.0000 -2.2826 0.0000 37.4480
#
#
#
# Elastic Compliance Matrix: (Units=1/GPa)
#
#
# Indices 1 2 3 4 5 6 
#
# 1 0.008679 -0.002159 -0.003270 0.000000 -0.000486 0.000000
# 2 -0.002159 0.010741 -0.003789 0.000000 -0.000450 0.000000
# 3 -0.003270 -0.003789 0.012815 0.000000 0.000747 0.000000
# 4 0.000000 0.000000 0.000000 0.045019 0.000000 0.002744
# 5 -0.000486 -0.000450 0.000747 0.000000 0.023900 0.000000
# 6 0.000000 0.000000 0.000000 0.002744 0.000000 0.026871
#
#
# Mechanical properties :
#
#
# Convention : Reuss Voigt Hill
#
# Bulk Modulus (GPa) = 72.46464 73.78419 73.12442
# Shear Modulus (GPa) = 33.09924 35.34170 34.22047
#
# Velocity S-wave (km/s) = 3.96410 4.09618 4.03068
# Velocity P-wave (km/s) = 7.44011 7.57636 7.50854
#
# Compressibility (1/GPa) = 0.01379983
#
# Stress axis : x y z
#
# Youngs Moduli (GPa) = 115.21851 93.10409 78.03124
#
# Poissons Ratio (x) = 0.20101 0.25515
# Poissons Ratio (y) = 0.24876 0.29565
# Poissons Ratio (z) = 0.37674 0.35276
#
# Static dielectric constant tensor:
#      x y z
#    x 5.194910 0.000000 1.126740 
#    y 0.000000 3.477160 0.000000 
#    z 1.126740 0.000000 4.825600 
# 
# 
# High freq. dielectric constant tensor:
#      x y z
#    x 1.839220 0.000000 0.005490 
#    y 0.000000 1.828000 0.000000 
#    z 0.005490 0.000000 1.832750 
# 
# From -- ./inp_files/113813.got.cif
#   From: 2010.06.25/outbox.cif.g09.slc.cpg/sg15_57_cif.got.tgz:113813.got - 2010.06.28 07:06:18.
