data_PCOD8149490
_publ_section_title
;
Structure prediction by ZEFSAII (Michael W. Deem and Ramdas Pophale) SiO2 
 PCOD8149490
Probable space group: C 2/C
;
_chemical_formula_sum "Si O2"
_cell_formula_units_Z 48
_cell_length_a 25.312573
_cell_length_b 6.827048
_cell_length_c 19.036433
_cell_angle_alpha 90.000000
_cell_angle_beta 140.113538
_cell_angle_gamma 90.000000
_cell_volume 2109.573333
_symmetry_space_group_name_H-M "C 2/C"
_symmetry_group_IT_number 15
_symmetry_cell_setting 'monoclinic'
loop_
_space_group_symop_operation_xyz
x,y,z
-x,y,1/2-z
-x,-y,-z
x,-y,1/2+z
1/2+x,1/2+y,z
1/2-x,1/2+y,1/2-z
1/2-x,1/2-y,-z
1/2+x,1/2-y,1/2+z
loop_
_atom_site_type_symbol
_atom_site_label
_atom_site_fract_x
_atom_site_fract_y
_atom_site_fract_z
Si Si1 0.358468 0.113140 0.899596
Si Si2 0.152064 0.879332 0.320710
Si Si3 0.791016 0.680379 0.437598
Si Si4 0.080675 0.074323 0.370921
Si Si5 0.506793 0.602601 0.932874
Si Si6 0.770372 0.571268 0.189057
O O1 0.292204 0.291567 0.830949
O O2 0.344950 0.972671 0.950680
O O3 0.348146 0.986832 0.817595
O O4 0.451123 0.190234 0.005015
O O5 0.203140 0.681677 0.356539
O O6 0.084608 0.880876 0.190407
O O7 0.206871 0.076288 0.374868
O O8 0.111069 0.883090 0.356415
O O9 0.850036 0.754651 0.561286
O O10 0.774195 0.872732 0.375481
O O11 0.000000 0.160254 0.250000
O O12 0.063516 0.010162 0.433536
O O13 0.500000 0.500000 0.000000
#
# Coordination Sequence:
#
# PCOD8149490 Si02
#       6
#     8   8   8   8   8   8
#     4  11  23  40  69 103 138 177 226 288 344 404
#     4  10  25  44  68 101 139 181 230 280 352 413
#     4  11  22  43  73  99 132 185 230 283 342 414
#     4  10  23  47  68  96 144 184 229 288 340 410
#     4  11  24  44  69  99 142 182 227 290 344 407
#     4  11  22  40  69 101 138 173 229 285 345 412
#
# _framework density 22.753415
#
# number of rings (size 3 to 8) (size 9 to 14) (size 15 to 20)
#    0.000    1.333    3.333    1.500    4.667    1.333 
#    9.000    0.833    0.000    0.000    0.000    0.000 
#    0.000    0.000    0.000    0.000    0.000    0.000 
#
# Total GULP energy -297437.207495 kJ/mol
# GULP energy per Si atom -12393.216979 kJ/mol
# Density = 2.270163 g / cm^3
# Si number density = 22.753415 Si / 1000 Ang^3
#
#
#
# Elastic Constant Matrix: (Units=GPa)
#
#
# Indices 1 2 3 4 5 6 
#
# 1 109.1394 37.3281 37.3820 -0.0001 -18.6195 -0.0001
# 2 37.3281 98.0990 34.8799 -0.0006 -6.0903 -0.0004
# 3 37.3820 34.8799 125.2924 -0.0001 -1.3409 -0.0001
# 4 -0.0001 -0.0006 -0.0001 42.6717 0.0000 9.0289
# 5 -18.6195 -6.0903 -1.3409 0.0000 35.4764 0.0000
# 6 -0.0001 -0.0004 -0.0001 9.0289 0.0000 24.8297
#
#
#
# Elastic Compliance Matrix: (Units=1/GPa)
#
#
# Indices 1 2 3 4 5 6 
#
# 1 0.012188 -0.003342 -0.002645 0.000000 0.005723 0.000000
# 2 -0.003342 0.012349 -0.002438 0.000000 0.000274 0.000000
# 3 -0.002645 -0.002438 0.009434 0.000000 -0.001450 0.000000
# 4 0.000000 0.000000 0.000000 0.025388 0.000000 -0.009232
# 5 0.005723 0.000274 -0.001450 0.000000 0.031184 0.000000
# 6 0.000000 0.000000 0.000000 -0.009232 0.000000 0.043631
#
#
# Mechanical properties :
#
#
# Convention : Reuss Voigt Hill
#
# Bulk Modulus (GPa) = 58.40598 61.30121 59.85359
# Shear Modulus (GPa) = 31.90199 35.45829 33.68014
#
# Velocity S-wave (km/s) = 3.74849 3.95190 3.85154
# Velocity P-wave (km/s) = 6.66781 6.91545 6.79276
#
# Compressibility (1/GPa) = 0.01712153
#
# Stress axis : x y z
#
# Youngs Moduli (GPa) = 82.04895 80.97648 106.00462
#
# Poissons Ratio (x) = 0.27062 0.28035
# Poissons Ratio (y) = 0.27421 0.25842
# Poissons Ratio (z) = 0.21700 0.19741
#
# Static dielectric constant tensor:
#      x y z
#    x 4.165070 0.000000 0.118180 
#    y 0.000000 4.165900 0.000000 
#    z 0.118180 0.000000 4.427270 
# 
# 
# High freq. dielectric constant tensor:
#      x y z
#    x 1.895160 0.000000 0.002810 
#    y 0.000000 1.887350 0.000000 
#    z 0.002810 0.000000 1.912190 
# 
# From -- ./inp_files/258561.got.cif
#   From: 2010.06.25/outbox.cif.g09.slc.cpg/sg15_130_cif.got.tgz:258561.got - 2010.06.28 07:06:18.
