data_PCOD8149045
_publ_section_title
;
Structure prediction by ZEFSAII (Michael W. Deem and Ramdas Pophale) SiO2 
 PCOD8149045
Probable space group: C 2/C
;
_chemical_formula_sum "Si O2"
_cell_formula_units_Z 44
_cell_length_a 9.543302
_cell_length_b 28.163236
_cell_length_c 16.056641
_cell_angle_alpha 90.000000
_cell_angle_beta 151.881250
_cell_angle_gamma 90.000000
_cell_volume 2033.919914
_symmetry_space_group_name_H-M "C 2/C"
_symmetry_group_IT_number 15
_symmetry_cell_setting 'monoclinic'
loop_
_space_group_symop_operation_xyz
x,y,z
-x,y,1/2-z
-x,-y,-z
x,-y,1/2+z
1/2+x,1/2+y,z
1/2-x,1/2+y,1/2-z
1/2-x,1/2-y,-z
1/2+x,1/2-y,1/2+z
loop_
_atom_site_type_symbol
_atom_site_label
_atom_site_fract_x
_atom_site_fract_y
_atom_site_fract_z
Si Si1 0.285124 0.982807 0.705104
Si Si2 0.079355 0.553950 0.054489
Si Si3 0.000000 0.883107 0.250000
Si Si4 0.274013 0.937807 0.041291
Si Si5 0.500000 0.766213 0.750000
Si Si6 0.461314 0.308362 0.370693
Si Si7 0.500000 0.148557 0.750000
O O1 0.500000 0.958221 0.750000
O O2 0.920599 0.976582 0.504887
O O3 0.397293 0.036694 0.784613
O O4 0.291193 0.943892 0.784528
O O5 0.790925 0.585864 0.892367
O O6 0.311362 0.567530 0.101344
O O7 0.000000 0.500000 0.000000
O O8 0.955682 0.852846 0.143009
O O9 0.272413 0.885981 0.081357
O O10 0.612938 0.735178 0.730404
O O11 0.229795 0.798214 0.575274
O O12 0.171239 0.318306 0.274513
#
# Coordination Sequence:
#
# PCOD8149045 Si02
#       7
#     8   8   4   8   4   8   4
#     4  11  24  37  60  82 124 185 236 283 318 376
#     4  10  24  36  61  82 131 182 232 268 320 375
#     4  11  22  42  64  96 131 183 232 272 328 379
#     4  11  24  40  56  90 129 175 235 277 329 377
#     4   9  22  50  74 101 130 164 215 252 380 421
#     4  10  23  43  76 102 131 168 209 285 330 435
#     4  12  24  38  64  99 135 159 215 276 330 384
#
# _framework density 21.633103999999999
#
# number of rings (size 3 to 8) (size 9 to 14) (size 15 to 20)
#    0.000    1.455    2.727    1.091   12.727    2.182 
#    0.000    0.000    0.000    0.000    0.000    0.000 
#    0.000    0.000    0.000    0.000    0.000    0.000 
#
# Total GULP energy -272627.649911 kJ/mol
# GULP energy per Si atom -12392.165905 kJ/mol
# Density = 2.158387 g / cm^3
# Si number density = 21.633104 Si / 1000 Ang^3
#
#
#
# Elastic Constant Matrix: (Units=GPa)
#
#
# Indices 1 2 3 4 5 6 
#
# 1 192.1950 52.2885 55.6985 0.0000 13.1471 0.0000
# 2 52.2885 97.4014 42.5101 0.0000 7.0899 0.0000
# 3 55.6985 42.5101 87.4197 0.0001 0.0922 0.0001
# 4 0.0000 0.0000 0.0001 36.6248 0.0000 3.4697
# 5 13.1471 7.0899 0.0922 0.0000 42.5895 0.0001
# 6 0.0000 0.0000 0.0001 3.4697 0.0001 30.9290
#
#
#
# Elastic Compliance Matrix: (Units=1/GPa)
#
#
# Indices 1 2 3 4 5 6 
#
# 1 0.006865 -0.002093 -0.003354 0.000000 -0.001764 0.000000
# 2 -0.002093 0.013872 -0.005410 0.000000 -0.001651 0.000000
# 3 -0.003354 -0.005410 0.016205 0.000000 0.001901 0.000000
# 4 0.000000 0.000000 0.000000 0.027597 0.000000 -0.003096
# 5 -0.001764 -0.001651 0.001901 0.000000 0.024295 0.000000
# 6 0.000000 0.000000 0.000000 -0.003096 0.000000 0.032679
#
#
# Mechanical properties :
#
#
# Convention : Reuss Voigt Hill
#
# Bulk Modulus (GPa) = 65.67378 75.33449 70.50413
# Shear Modulus (GPa) = 33.71427 37.12995 35.42211
#
# Velocity S-wave (km/s) = 3.95201 4.14738 4.05087
# Velocity P-wave (km/s) = 7.15880 7.60484 7.38519
#
# Compressibility (1/GPa) = 0.01522678
#
# Stress axis : x y z
#
# Youngs Moduli (GPa) = 145.66085 72.08817 61.70877
#
# Poissons Ratio (x) = 0.15089 0.20700
# Poissons Ratio (y) = 0.30489 0.33386
# Poissons Ratio (z) = 0.48861 0.39001
#
# Static dielectric constant tensor:
#      x y z
#    x 5.275950 0.000000 -0.748590 
#    y 0.000000 3.470190 0.000000 
#    z -0.748590 0.000000 4.427980 
# 
# 
# High freq. dielectric constant tensor:
#      x y z
#    x 1.895520 0.000000 -0.018370 
#    y 0.000000 1.813840 0.000000 
#    z -0.018370 0.000000 1.860570 
# 
# From -- ./inp_files/194138.got.cif
#   From: 2010.06.25/outbox.cif.g09.slc.cpg/sg15_98_cif.got.tgz:194138.got - 2010.06.28 07:06:18.
