data_PCOD8149346
_publ_section_title
;
Structure prediction by ZEFSAII (Michael W. Deem and Ramdas Pophale) SiO2 
 PCOD8149346
Probable space group: C 2/C
;
_chemical_formula_sum "Si O2"
_cell_formula_units_Z 32
_cell_length_a 25.817538
_cell_length_b 11.250814
_cell_length_c 5.241324
_cell_angle_alpha 90.000000
_cell_angle_beta 78.245184
_cell_angle_gamma 90.000000
_cell_volume 1490.510520
_symmetry_space_group_name_H-M "C 2/C"
_symmetry_group_IT_number 15
_symmetry_cell_setting 'monoclinic'
loop_
_space_group_symop_operation_xyz
x,y,z
-x,y,1/2-z
-x,-y,-z
x,-y,1/2+z
1/2+x,1/2+y,z
1/2-x,1/2+y,1/2-z
1/2-x,1/2-y,-z
1/2+x,1/2-y,1/2+z
loop_
_atom_site_type_symbol
_atom_site_label
_atom_site_fract_x
_atom_site_fract_y
_atom_site_fract_z
Si Si1 0.223377 0.877300 0.042653
Si Si2 0.058253 0.076299 0.163101
Si Si3 0.833628 0.818807 0.896105
Si Si4 0.175770 0.456034 0.079495
O O1 0.188442 0.885169 0.333321
O O2 0.250000 0.750000 0.000000
O O3 0.186175 0.891770 0.830796
O O4 0.267498 0.979762 0.012609
O O5 0.102557 0.177771 0.159516
O O6 0.000000 0.135330 0.250000
O O7 0.064856 0.975650 0.372374
O O8 0.813746 0.683097 0.902609
O O9 0.143999 0.511516 0.351957
#
# Coordination Sequence:
#
# PCOD8149346 Si02
#       4
#     8   8   8   8
#     4  12  23  38  57  89 126 172 204 240 294 377
#     4  10  23  45  69  94 119 154 211 272 319 367
#     4  12  24  41  61  88 123 167 203 257 314 360
#     4  12  23  37  55  82 125 165 201 243 288 362
#
# _framework density 21.469155000000001
#
# number of rings (size 3 to 8) (size 9 to 14) (size 15 to 20)
#    0.000    0.500    5.000    3.750    0.000    6.000 
#    0.000    0.000    0.000    1.500    0.000    0.000 
#    0.000    0.000    0.000    0.000    0.000    0.000 
#
# Total GULP energy -198337.916682 kJ/mol
# GULP energy per Si atom -12396.119793 kJ/mol
# Density = 2.142029 g / cm^3
# Si number density = 21.469155 Si / 1000 Ang^3
#
#
#
# Elastic Constant Matrix: (Units=GPa)
#
#
# Indices 1 2 3 4 5 6 
#
# 1 105.7805 30.0153 22.9498 0.0000 -20.3443 0.0000
# 2 30.0153 110.3208 2.7814 0.0000 -20.9619 0.0000
# 3 22.9498 2.7814 159.2301 0.0000 26.1942 0.0000
# 4 0.0000 0.0000 0.0000 -11.2981 0.0000 -4.8937
# 5 -20.3443 -20.9619 26.1942 0.0000 25.1624 0.0000
# 6 0.0000 0.0000 0.0000 -4.8937 0.0000 13.6362
#
#
#
# Elastic Compliance Matrix: (Units=1/GPa)
#
#
# Indices 1 2 3 4 5 6 
#
# 1 0.013457 -0.000738 -0.004363 0.000000 0.014807 0.000000
# 2 -0.000738 0.011369 -0.001873 0.000000 0.010824 0.000000
# 3 -0.004363 -0.001873 0.009386 0.000000 -0.014858 0.000000
# 4 0.000000 0.000000 0.000000 -0.076603 0.000000 -0.027491
# 5 0.014807 0.010824 -0.014858 0.000000 0.076199 0.000000
# 6 0.000000 0.000000 0.000000 -0.027491 0.000000 0.063469
#
#
# Mechanical properties :
#
#
# Convention : Reuss Voigt Hill
#
# Bulk Modulus (GPa) = 49.34449 54.09162 51.71805
# Shear Modulus (GPa) = 42.38051 26.80575 34.59313
#
# Velocity S-wave (km/s) = 4.44781 3.53734 4.01845
# Velocity P-wave (km/s) = 7.02931 6.47561 6.75813
#
# Compressibility (1/GPa) = 0.02026569
#
# Stress axis : x y z
#
# Youngs Moduli (GPa) = 74.30968 87.95717 106.54182
#
# Poissons Ratio (x) = 0.06490 0.46479
# Poissons Ratio (y) = 0.05483 0.19954
# Poissons Ratio (z) = 0.32418 0.16474
#
# Static dielectric constant tensor:
#      x y z
#    x 4.066950 0.000000 0.728170 
#    y 0.000000 3.797830 0.000000 
#    z 0.728170 0.000000 5.494630 
# 
# 
# High freq. dielectric constant tensor:
#      x y z
#    x 1.805690 0.000000 0.031220 
#    y 0.000000 1.838460 0.000000 
#    z 0.031220 0.000000 1.883180 
# 
# From -- ./inp_files/14852.got.cif
#   From: 2010.06.25/outbox.cif.g09.slc.cpg/sg15_8_cif.got.tgz:14852.got - 2010.06.28 07:06:18.
