data_PCOD8149565
_publ_section_title
;
Structure prediction by ZEFSAII (Michael W. Deem and Ramdas Pophale) SiO2 
 PCOD8149565
Probable space group: C 2/C
;
_chemical_formula_sum "Si O2"
_cell_formula_units_Z 60
_cell_length_a 21.965506
_cell_length_b 11.933563
_cell_length_c 19.501098
_cell_angle_alpha 90.000000
_cell_angle_beta 143.618906
_cell_angle_gamma 90.000000
_cell_volume 3032.056782
_symmetry_space_group_name_H-M "C 2/C"
_symmetry_group_IT_number 15
_symmetry_cell_setting 'monoclinic'
loop_
_space_group_symop_operation_xyz
x,y,z
-x,y,1/2-z
-x,-y,-z
x,-y,1/2+z
1/2+x,1/2+y,z
1/2-x,1/2+y,1/2-z
1/2-x,1/2-y,-z
1/2+x,1/2-y,1/2+z
loop_
_atom_site_type_symbol
_atom_site_label
_atom_site_fract_x
_atom_site_fract_y
_atom_site_fract_z
Si Si1 0.855168 0.179321 0.936772
Si Si2 0.205022 0.928277 0.387555
Si Si3 0.426306 0.737363 0.411549
Si Si4 0.745571 0.900228 0.683977
Si Si5 0.130826 0.240736 0.988782
Si Si6 0.828477 0.554196 0.773255
Si Si7 0.500000 0.681368 0.750000
Si Si8 0.725589 0.496822 0.552252
O O1 0.817191 0.306350 0.914714
O O2 0.780440 0.119860 0.812812
O O3 0.845487 0.107515 0.998647
O O4 0.969263 0.175160 0.011791
O O5 0.268849 0.816155 0.430762
O O6 0.255066 0.990138 0.499221
O O7 0.087050 0.897476 0.295241
O O8 0.208198 0.011357 0.326902
O O9 0.336482 0.651876 0.311177
O O10 0.423390 0.769492 0.488927
O O11 0.419264 0.854980 0.363543
O O12 0.664913 0.957649 0.663472
O O13 0.161713 0.111387 0.016808
O O14 0.049745 0.260853 0.853523
O O15 0.827033 0.505282 0.693732
#
# Coordination Sequence:
#
# PCOD8149565 Si02
#       8
#     8   8   8   8   8   8   4   8
#     4   9  23  38  58  94 119 159 207 250 316 362
#     4  11  24  41  62  91 125 166 207 257 314 367
#     4  11  21  38  64  92 124 160 205 261 309 376
#     4  11  22  39  64  89 122 158 214 256 311 374
#     4  11  22  40  60  92 127 155 206 261 308 368
#     4   9  20  38  59  91 120 165 200 257 314 355
#     4  10  24  36  60  92 116 168 204 250 308 372
#     4   9  20  39  59  81 125 157 201 254 305 361
#
# _framework density 19.788547999999999
#
# number of rings (size 3 to 8) (size 9 to 14) (size 15 to 20)
#    0.800    1.067    2.667    1.600    5.600    2.133 
#    2.400    0.000    0.000    0.000    0.000    0.000 
#    0.000    0.000    0.000    0.000    0.000    0.000 
#
# Total GULP energy -371822.210331 kJ/mol
# GULP energy per Si atom -12394.073678 kJ/mol
# Density = 1.974351 g / cm^3
# Si number density = 19.788548 Si / 1000 Ang^3
#
#
#
# Elastic Constant Matrix: (Units=GPa)
#
#
# Indices 1 2 3 4 5 6 
#
# 1 77.0695 19.8531 25.2825 0.0000 -12.2655 0.0000
# 2 19.8531 90.9108 30.1257 0.0000 3.6118 0.0000
# 3 25.2825 30.1257 63.0006 0.0000 -14.2934 0.0000
# 4 0.0000 0.0000 0.0000 18.5484 0.0000 -9.6498
# 5 -12.2655 3.6118 -14.2934 0.0000 25.9848 0.0000
# 6 0.0000 0.0000 0.0000 -9.6498 0.0000 31.5821
#
#
#
# Elastic Compliance Matrix: (Units=1/GPa)
#
#
# Indices 1 2 3 4 5 6 
#
# 1 0.015765 -0.002366 -0.003921 0.000000 0.005613 0.000000
# 2 -0.002366 0.014301 -0.007533 0.000000 -0.007249 0.000000
# 3 -0.003921 -0.007533 0.023842 0.000000 0.012311 0.000000
# 4 0.000000 0.000000 0.000000 0.064103 0.000000 0.019587
# 5 0.005613 -0.007249 0.012311 0.000000 0.048913 0.000000
# 6 0.000000 0.000000 0.000000 0.019587 0.000000 0.037648
#
#
# Mechanical properties :
#
#
# Convention : Reuss Voigt Hill
#
# Bulk Modulus (GPa) = 38.07303 42.38929 40.23116
# Shear Modulus (GPa) = 20.74961 25.60436 23.17698
#
# Velocity S-wave (km/s) = 3.24167 3.60098 3.42604
# Velocity P-wave (km/s) = 5.77000 6.22552 6.00208
#
# Compressibility (1/GPa) = 0.02626531
#
# Stress axis : x y z
#
# Youngs Moduli (GPa) = 63.43334 69.92582 41.94298
#
# Poissons Ratio (x) = 0.16546 0.16448
# Poissons Ratio (y) = 0.15010 0.31597
# Poissons Ratio (z) = 0.24875 0.52678
#
# Static dielectric constant tensor:
#      x y z
#    x 3.394220 0.000000 -0.267190 
#    y 0.000000 3.648510 0.000000 
#    z -0.267190 0.000000 3.650010 
# 
# 
# High freq. dielectric constant tensor:
#      x y z
#    x 1.751000 0.000000 -0.014260 
#    y 0.000000 1.777380 0.000000 
#    z -0.014260 0.000000 1.763790 
# 
# From -- ./inp_files/255560.got.cif
#   From: 2010.06.25/outbox.cif.g09.slc.cpg/sg15_128_cif.got.tgz:255560.got - 2010.06.28 07:06:18.
