data_PCOD8149407
_publ_section_title
;
Structure prediction by ZEFSAII (Michael W. Deem and Ramdas Pophale) SiO2 
 PCOD8149407
Probable space group: C 2/C
;
_chemical_formula_sum "Si O2"
_cell_formula_units_Z 40
_cell_length_a 11.524298
_cell_length_b 9.496207
_cell_length_c 16.102100
_cell_angle_alpha 90.000000
_cell_angle_beta 100.874670
_cell_angle_gamma 90.000000
_cell_volume 1730.522814
_symmetry_space_group_name_H-M "C 2/C"
_symmetry_group_IT_number 15
_symmetry_cell_setting 'monoclinic'
loop_
_space_group_symop_operation_xyz
x,y,z
-x,y,1/2-z
-x,-y,-z
x,-y,1/2+z
1/2+x,1/2+y,z
1/2-x,1/2+y,1/2-z
1/2-x,1/2-y,-z
1/2+x,1/2-y,1/2+z
loop_
_atom_site_type_symbol
_atom_site_label
_atom_site_fract_x
_atom_site_fract_y
_atom_site_fract_z
Si Si1 0.820916 0.307176 0.931978
Si Si2 0.296153 0.403394 0.093793
Si Si3 0.221948 0.871567 0.229157
Si Si4 0.897819 0.153423 0.295931
Si Si5 0.567490 0.261917 0.519888
O O1 0.744123 0.438357 0.890259
O O2 0.838220 0.200123 0.857866
O O3 0.750000 0.250000 0.000000
O O4 0.955325 0.333769 0.979339
O O5 0.333814 0.333416 0.187282
O O6 0.180110 0.338005 0.036530
O O7 0.404816 0.385657 0.044350
O O8 0.354835 0.806369 0.255182
O O9 0.210856 0.040477 0.214321
O O10 0.955817 0.167239 0.394334
O O11 0.000000 0.092781 0.250000
#
# Coordination Sequence:
#
# PCOD8149407 Si02
#       5
#     8   8   8   8   8
#     4  12  24  40  70 101 131 180 226 280 342 408
#     4  10  23  46  64  97 140 173 232 277 334 418
#     4  11  24  42  68  98 139 176 227 280 337 407
#     4  11  24  45  68  99 139 181 227 282 339 408
#     4  10  24  42  70  98 133 180 220 286 340 397
#
# _framework density 23.114401999999998
#
# number of rings (size 3 to 8) (size 9 to 14) (size 15 to 20)
#    0.000    1.200    2.000    3.000    2.800    1.600 
#    0.000    7.000    4.400    0.000    0.000    0.000 
#    0.000    0.000    0.000    0.000    0.000    0.000 
#
# Total GULP energy -247768.478831 kJ/mol
# GULP energy per Si atom -12388.423942 kJ/mol
# Density = 2.306179 g / cm^3
# Si number density = 23.114402 Si / 1000 Ang^3
#
#
#
# Elastic Constant Matrix: (Units=GPa)
#
#
# Indices 1 2 3 4 5 6 
#
# 1 88.3589 35.7731 44.0958 0.0000 -9.6051 0.0000
# 2 35.7731 96.8925 25.3691 0.0000 -7.3294 0.0000
# 3 44.0958 25.3691 157.8702 0.0000 -16.4387 0.0000
# 4 0.0000 0.0000 0.0000 27.1966 0.0000 2.7165
# 5 -9.6051 -7.3294 -16.4387 0.0000 33.3308 0.0000
# 6 0.0000 0.0000 0.0000 2.7165 0.0000 27.9924
#
#
#
# Elastic Compliance Matrix: (Units=1/GPa)
#
#
# Indices 1 2 3 4 5 6 
#
# 1 0.014977 -0.004543 -0.003276 0.000000 0.001701 0.000000
# 2 -0.004543 0.012233 -0.000583 0.000000 0.001093 0.000000
# 3 -0.003276 -0.000583 0.007623 0.000000 0.002687 0.000000
# 4 0.000000 0.000000 0.000000 0.037129 0.000000 -0.003603
# 5 0.001701 0.001093 0.002687 0.000000 0.032058 0.000000
# 6 0.000000 0.000000 0.000000 -0.003603 0.000000 0.036074
#
#
# Mechanical properties :
#
#
# Convention : Reuss Voigt Hill
#
# Bulk Modulus (GPa) = 55.46720 61.51085 58.48902
# Shear Modulus (GPa) = 30.69222 33.56286 32.12754
#
# Velocity S-wave (km/s) = 3.64791 3.81469 3.73223
# Velocity P-wave (km/s) = 6.46466 6.78761 6.62811
#
# Compressibility (1/GPa) = 0.01802867
#
# Stress axis : x y z
#
# Youngs Moduli (GPa) = 66.77085 81.74363 131.18383
#
# Poissons Ratio (x) = 0.37136 0.42976
# Poissons Ratio (y) = 0.30334 0.07649
# Poissons Ratio (z) = 0.21874 0.04766
#
# Static dielectric constant tensor:
#      x y z
#    x 3.993290 0.000000 -0.057700 
#    y 0.000000 4.872970 0.000000 
#    z -0.057700 0.000000 4.493920 
# 
# 
# High freq. dielectric constant tensor:
#      x y z
#    x 1.892900 0.000000 0.001580 
#    y 0.000000 1.895350 0.000000 
#    z 0.001580 0.000000 1.948830 
# 
# From -- ./inp_files/195244.got.cif
#   From: 2010.06.25/outbox.cif.g09.slc.cpg/sg15_98_cif.got.tgz:195244.got - 2010.06.28 07:06:18.
