data_PCOD8149598
_publ_section_title
;
Structure prediction by ZEFSAII (Michael W. Deem and Ramdas Pophale) SiO2 
 PCOD8149598
Probable space group: C 2/C
;
_chemical_formula_sum "Si O2"
_cell_formula_units_Z 36
_cell_length_a 20.326075
_cell_length_b 10.120306
_cell_length_c 18.724733
_cell_angle_alpha 90.000000
_cell_angle_beta 26.213555
_cell_angle_gamma 90.000000
_cell_volume 1701.406196
_symmetry_space_group_name_H-M "C 2/C"
_symmetry_group_IT_number 15
_symmetry_cell_setting 'monoclinic'
loop_
_space_group_symop_operation_xyz
x,y,z
-x,y,1/2-z
-x,-y,-z
x,-y,1/2+z
1/2+x,1/2+y,z
1/2-x,1/2+y,1/2-z
1/2-x,1/2-y,-z
1/2+x,1/2-y,1/2+z
loop_
_atom_site_type_symbol
_atom_site_label
_atom_site_fract_x
_atom_site_fract_y
_atom_site_fract_z
Si Si1 0.743453 0.079643 0.450081
Si Si2 0.000000 0.749813 0.750000
Si Si3 0.663834 0.135331 0.121934
Si Si4 0.873061 0.664732 0.176357
Si Si5 0.206079 0.425611 0.341374
O O1 0.891630 0.166985 0.303997
O O2 0.593270 0.167200 0.600382
O O3 0.749520 0.999027 0.518447
O O4 0.737898 0.978759 0.389718
O O5 0.500000 0.128830 0.250000
O O6 0.668525 0.149179 0.201215
O O7 0.750000 0.250000 0.000000
O O8 0.783303 0.551655 0.221060
O O9 0.824972 0.813870 0.200959
O O10 0.047313 0.647322 0.992405
#
# Coordination Sequence:
#
# PCOD8149598 Si02
#       5
#     8   4   8   8   8
#     4  11  22  42  63  96 128 176 215 281 325 406
#     4  10  24  38  64  94 134 168 220 270 348 386
#     4  12  22  40  69  94 130 168 230 275 321 387
#     4  11  24  44  65 102 131 183 217 284 328 406
#     4  11  25  43  68  94 141 171 227 270 343 397
#
# _framework density 21.158968999999999
#
# number of rings (size 3 to 8) (size 9 to 14) (size 15 to 20)
#    0.000    0.889    5.556    0.000    1.556    9.778 
#    0.000    0.000    0.000    0.000    0.000    0.000 
#    0.000    0.000    0.000    0.000    0.000    0.000 
#
# Total GULP energy -223186.554058 kJ/mol
# GULP energy per Si atom -12399.253003 kJ/mol
# Density = 2.111081 g / cm^3
# Si number density = 21.158969 Si / 1000 Ang^3
#
#
#
# Elastic Constant Matrix: (Units=GPa)
#
#
# Indices 1 2 3 4 5 6 
#
# 1 79.6922 45.3504 27.2780 0.0003 5.4354 -0.0005
# 2 45.3504 152.4580 55.9442 0.0002 -13.0557 -0.0003
# 3 27.2780 55.9442 84.0877 0.0002 -5.7497 0.0003
# 4 0.0003 0.0002 0.0002 63.6330 0.0000 -22.9169
# 5 5.4354 -13.0557 -5.7497 0.0000 27.9374 -0.0005
# 6 -0.0005 -0.0003 0.0003 -22.9169 -0.0005 84.0731
#
#
#
# Elastic Compliance Matrix: (Units=1/GPa)
#
#
# Indices 1 2 3 4 5 6 
#
# 1 0.016375 -0.004329 -0.002828 0.000000 -0.005791 0.000000
# 2 -0.004329 0.010062 -0.004981 0.000000 0.004519 0.000000
# 3 -0.002828 -0.004981 0.016230 0.000000 0.001563 0.000000
# 4 0.000000 0.000000 0.000000 0.017426 0.000000 0.004750
# 5 -0.005791 0.004519 0.001563 0.000000 0.039354 0.000000
# 6 0.000000 0.000000 0.000000 0.004750 0.000000 0.013189
#
#
# Mechanical properties :
#
#
# Convention : Reuss Voigt Hill
#
# Bulk Modulus (GPa) = 54.37303 63.70925 59.04114
# Shear Modulus (GPa) = 34.95489 47.63973 41.29731
#
# Velocity S-wave (km/s) = 4.06891 4.75016 4.42267
# Velocity P-wave (km/s) = 6.91577 7.76277 7.35148
#
# Compressibility (1/GPa) = 0.01839147
#
# Stress axis : x y z
#
# Youngs Moduli (GPa) = 61.06973 99.38789 61.61355
#
# Poissons Ratio (x) = 0.43026 0.17423
# Poissons Ratio (y) = 0.26438 0.30688
# Poissons Ratio (z) = 0.17269 0.49502
#
# Static dielectric constant tensor:
#      x y z
#    x 3.895600 0.000000 0.126780 
#    y 0.000000 4.248230 0.000000 
#    z 0.126780 0.000000 4.125350 
# 
# 
# High freq. dielectric constant tensor:
#      x y z
#    x 1.821630 0.000000 -0.004000 
#    y 0.000000 1.853830 0.000000 
#    z -0.004000 0.000000 1.828610 
# 
# From -- ./inp_files/53875.got.cif
#   From: 2010.06.25/outbox.cif.g09.slc.cpg/sg15_27_cif.got.tgz:53875.got - 2010.06.28 07:06:18.
