data_PCOD8149848
_publ_section_title
;
Structure prediction by ZEFSAII (Michael W. Deem and Ramdas Pophale) SiO2 
 PCOD8149848
Probable space group: C 2/C
;
_chemical_formula_sum "Si O2"
_cell_formula_units_Z 44
_cell_length_a 27.671281
_cell_length_b 14.740260
_cell_length_c 14.534936
_cell_angle_alpha 90.000000
_cell_angle_beta 159.587063
_cell_angle_gamma 90.000000
_cell_volume 2067.776884
_symmetry_space_group_name_H-M "C 2/C"
_symmetry_group_IT_number 15
_symmetry_cell_setting 'monoclinic'
loop_
_space_group_symop_operation_xyz
x,y,z
-x,y,1/2-z
-x,-y,-z
x,-y,1/2+z
1/2+x,1/2+y,z
1/2-x,1/2+y,1/2-z
1/2-x,1/2-y,-z
1/2+x,1/2-y,1/2+z
loop_
_atom_site_type_symbol
_atom_site_label
_atom_site_fract_x
_atom_site_fract_y
_atom_site_fract_z
Si Si1 0.000000 0.780455 0.750000
Si Si2 0.354457 0.680733 0.454139
Si Si3 0.162519 0.505576 0.389847
Si Si4 0.760678 0.129079 0.725892
Si Si5 0.652879 0.975856 0.659941
Si Si6 0.237168 0.312666 0.563061
O O1 0.918556 0.843143 0.530805
O O2 0.900636 0.713775 0.628107
O O3 0.327526 0.779514 0.449446
O O4 0.229560 0.609361 0.249420
O O5 0.500000 0.641114 0.750000
O O6 0.364692 0.696033 0.362248
O O7 0.244614 0.574105 0.602806
O O8 0.167066 0.541568 0.294103
O O9 0.244472 0.412708 0.536659
O O10 0.009079 0.483692 0.153935
O O11 0.714353 0.070416 0.732150
O O12 0.250000 0.250000 0.500000
#
# Coordination Sequence:
#
# PCOD8149848 Si02
#       6
#     4   8   8   8   8   8
#     4  10  24  42  66  96 136 174 222 284 336 390
#     4  11  24  42  64  94 137 173 214 284 335 391
#     4  11  22  40  67  93 127 175 223 276 331 406
#     4  11  23  41  66  93 131 173 220 275 334 395
#     4  11  24  40  65  97 129 171 228 272 338 397
#     4  11  23  43  68  96 130 180 229 271 334 406
#
# _framework density 21.278891999999999
#
# number of rings (size 3 to 8) (size 9 to 14) (size 15 to 20)
#    0.000    1.091    1.818    6.000    1.273    3.636 
#    0.000    2.727    0.000    0.000    0.000    0.000 
#    0.000    0.000    0.000    0.000    0.000    0.000 
#
# Total GULP energy -272695.697475 kJ/mol
# GULP energy per Si atom -12395.258976 kJ/mol
# Density = 2.123046 g / cm^3
# Si number density = 21.278892 Si / 1000 Ang^3
#
#
#
# Elastic Constant Matrix: (Units=GPa)
#
#
# Indices 1 2 3 4 5 6 
#
# 1 84.2677 16.3316 24.6579 0.0000 -19.9276 0.0000
# 2 16.3316 120.9334 16.9268 0.0000 -4.0831 0.0000
# 3 24.6579 16.9268 109.6010 0.0000 -20.8683 0.0000
# 4 0.0000 0.0000 0.0000 30.2680 0.0000 -8.0833
# 5 -19.9276 -4.0831 -20.8683 0.0000 29.9215 0.0000
# 6 0.0000 0.0000 0.0000 -8.0833 0.0000 30.3853
#
#
#
# Elastic Compliance Matrix: (Units=1/GPa)
#
#
# Indices 1 2 3 4 5 6 
#
# 1 0.014586 -0.001482 -0.001432 0.000000 0.008514 0.000000
# 2 -0.001482 0.008604 -0.001107 0.000000 -0.000585 0.000000
# 3 -0.001432 -0.001107 0.010847 0.000000 0.006461 0.000000
# 4 0.000000 0.000000 0.000000 0.035565 0.000000 0.009461
# 5 0.008514 -0.000585 0.006461 0.000000 0.043517 0.000000
# 6 0.000000 0.000000 0.000000 0.009461 0.000000 0.035428
#
#
# Mechanical properties :
#
#
# Convention : Reuss Voigt Hill
#
# Bulk Modulus (GPa) = 38.46606 47.84829 43.15717
# Shear Modulus (GPa) = 30.25644 35.24066 32.74855
#
# Velocity S-wave (km/s) = 3.77490 4.07398 3.92728
# Velocity P-wave (km/s) = 6.09230 6.68317 6.39457
#
# Compressibility (1/GPa) = 0.02599694
#
# Stress axis : x y z
#
# Youngs Moduli (GPa) = 68.55683 116.22062 92.19006
#
# Poissons Ratio (x) = 0.17224 0.13199
# Poissons Ratio (y) = 0.10160 0.10203
# Poissons Ratio (z) = 0.09815 0.12863
#
# Static dielectric constant tensor:
#      x y z
#    x 3.653250 0.000000 -0.249480 
#    y 0.000000 4.011220 0.000000 
#    z -0.249480 0.000000 3.863370 
# 
# 
# High freq. dielectric constant tensor:
#      x y z
#    x 1.825720 0.000000 -0.022240 
#    y 0.000000 1.850930 0.000000 
#    z -0.022240 0.000000 1.839330 
# 
# From -- ./inp_files/182382.got.cif
#   From: 2010.06.25/outbox.cif.g09.slc.cpg/sg15_92_cif.got.tgz:182382.got - 2010.06.28 07:06:18.
