data_PCOD8149143
_publ_section_title
;
Structure prediction by ZEFSAII (Michael W. Deem and Ramdas Pophale) SiO2 
 PCOD8149143
Probable space group: C 2/C
;
_chemical_formula_sum "Si O2"
_cell_formula_units_Z 40
_cell_length_a 27.668155
_cell_length_b 4.896557
_cell_length_c 11.822187
_cell_angle_alpha 90.000000
_cell_angle_beta 101.305331
_cell_angle_gamma 90.000000
_cell_volume 1570.576676
_symmetry_space_group_name_H-M "C 2/C"
_symmetry_group_IT_number 15
_symmetry_cell_setting 'monoclinic'
loop_
_space_group_symop_operation_xyz
x,y,z
-x,y,1/2-z
-x,-y,-z
x,-y,1/2+z
1/2+x,1/2+y,z
1/2-x,1/2+y,1/2-z
1/2-x,1/2-y,-z
1/2+x,1/2-y,1/2+z
loop_
_atom_site_type_symbol
_atom_site_label
_atom_site_fract_x
_atom_site_fract_y
_atom_site_fract_z
Si Si1 0.446361 0.501836 0.270008
Si Si2 0.946434 0.496032 0.421187
Si Si3 0.874111 0.239804 0.062945
Si Si4 0.804750 0.976615 0.857032
Si Si5 0.307871 0.976937 0.708614
O O1 0.500000 0.582969 0.250000
O O2 0.444455 0.190390 0.310381
O O3 0.408187 0.538772 0.151253
O O4 0.433273 0.692831 0.371626
O O5 0.906237 0.579300 0.493520
O O6 0.000000 0.500000 0.500000
O O7 0.845201 0.456737 0.126083
O O8 0.836015 0.042445 0.981933
O O9 0.747491 0.011586 0.863591
O O10 0.818713 0.171827 0.757423
O O11 0.816283 0.670766 0.821586
#
# Coordination Sequence:
#
# PCOD8149143 Si02
#       5
#     8   8   8   8   8
#     4  12  27  46  69  98 135 181 235 284 344 407
#     4  12  27  47  68  99 135 182 232 286 341 409
#     4  12  25  43  73 100 139 181 233 282 354 404
#     4  10  23  44  68 102 140 176 228 281 343 416
#     4  10  23  44  68 101 140 178 225 282 342 419
#
# _framework density 25.468353
#
# number of rings (size 3 to 8) (size 9 to 14) (size 15 to 20)
#    0.000    0.800    2.000    4.200    0.000    4.800 
#    0.000    6.000    0.000    0.000    0.000    0.000 
#    0.000    0.000    0.000    0.000    0.000    0.000 
#
# Total GULP energy -248234.708849 kJ/mol
# GULP energy per Si atom -12411.735442 kJ/mol
# Density = 2.541039 g / cm^3
# Si number density = 25.468353 Si / 1000 Ang^3
#
#
#
# Elastic Constant Matrix: (Units=GPa)
#
#
# Indices 1 2 3 4 5 6 
#
# 1 113.3203 -0.9255 48.5411 0.0000 4.9475 0.0000
# 2 -0.9255 72.0019 1.6935 0.0000 1.2014 0.0000
# 3 48.5411 1.6935 114.5147 0.0000 23.6380 0.0000
# 4 0.0000 0.0000 0.0000 19.4167 0.0000 8.9590
# 5 4.9475 1.2014 23.6380 0.0000 51.3788 0.0000
# 6 0.0000 0.0000 0.0000 8.9590 0.0000 13.6192
#
#
#
# Elastic Compliance Matrix: (Units=1/GPa)
#
#
# Indices 1 2 3 4 5 6 
#
# 1 0.010851 0.000234 -0.004846 0.000000 0.001179 0.000000
# 2 0.000234 0.013901 -0.000257 0.000000 -0.000229 0.000000
# 3 -0.004846 -0.000257 0.011815 0.000000 -0.004963 0.000000
# 4 0.000000 0.000000 0.000000 0.073947 0.000000 -0.048644
# 5 0.001179 -0.000229 -0.004963 0.000000 0.021638 0.000000
# 6 0.000000 0.000000 0.000000 -0.048644 0.000000 0.105425
#
#
# Mechanical properties :
#
#
# Convention : Reuss Voigt Hill
#
# Bulk Modulus (GPa) = 37.27535 44.27279 40.77407
# Shear Modulus (GPa) = 19.51140 33.58479 26.54810
#
# Velocity S-wave (km/s) = 2.77086 3.63531 3.23212
# Velocity P-wave (km/s) = 4.99045 5.91962 5.47478
#
# Compressibility (1/GPa) = 0.02682738
#
# Stress axis : x y z
#
# Youngs Moduli (GPa) = 92.15769 71.93521 84.63722
#
# Poissons Ratio (x) = -0.01682 0.41019
# Poissons Ratio (y) = -0.02155 0.02178
# Poissons Ratio (z) = 0.44664 0.01852
#
# Static dielectric constant tensor:
#      x y z
#    x 4.940800 0.000000 0.164210 
#    y 0.000000 4.538700 0.000000 
#    z 0.164210 0.000000 4.567900 
# 
# 
# High freq. dielectric constant tensor:
#      x y z
#    x 2.042230 0.000000 0.008110 
#    y 0.000000 2.021850 0.000000 
#    z 0.008110 0.000000 2.019750 
# 
# From -- ./inp_files/120887.got.cif
#   From: 2010.06.25/outbox.cif.g09.slc.cpg/sg15_61_cif.got.tgz:120887.got - 2010.06.28 07:06:18.
