data_PCOD8149934
_publ_section_title
;
Structure prediction by ZEFSAII (Michael W. Deem and Ramdas Pophale) SiO2 
 PCOD8149934
Probable space group: C 2/C
;
_chemical_formula_sum "Si O2"
_cell_formula_units_Z 48
_cell_length_a 23.932203
_cell_length_b 9.146359
_cell_length_c 9.722059
_cell_angle_alpha 90.000000
_cell_angle_beta 79.211078
_cell_angle_gamma 90.000000
_cell_volume 2090.468804
_symmetry_space_group_name_H-M "C 2/C"
_symmetry_group_IT_number 15
_symmetry_cell_setting 'monoclinic'
loop_
_space_group_symop_operation_xyz
x,y,z
-x,y,1/2-z
-x,-y,-z
x,-y,1/2+z
1/2+x,1/2+y,z
1/2-x,1/2+y,1/2-z
1/2-x,1/2-y,-z
1/2+x,1/2-y,1/2+z
loop_
_atom_site_type_symbol
_atom_site_label
_atom_site_fract_x
_atom_site_fract_y
_atom_site_fract_z
Si Si1 0.361446 0.311480 0.542044
Si Si2 0.573342 0.842605 0.959061
Si Si3 0.793268 0.667345 0.800983
Si Si4 0.174075 0.133554 0.964231
Si Si5 0.884138 0.558543 0.334419
Si Si6 0.518204 0.363177 0.900288
O O1 0.311910 0.223538 0.643090
O O2 0.340509 0.466576 0.496635
O O3 0.376712 0.219418 0.400202
O O4 0.414537 0.333157 0.622096
O O5 0.574255 0.930035 0.815800
O O6 0.620007 0.714456 0.925336
O O7 0.511740 0.776772 0.017602
O O8 0.585023 0.953161 0.075200
O O9 0.808326 0.794172 0.901050
O O10 0.823719 0.512848 0.819694
O O11 0.725676 0.641174 0.831157
O O12 0.500000 0.387633 0.750000
O O13 0.500000 0.500000 0.000000
#
# Coordination Sequence:
#
# PCOD8149934 Si02
#       6
#     8   8   8   8   8   8
#     4  12  26  44  76 103 139 190 247 286 370 424
#     4  11  25  49  70 105 150 185 246 292 366 420
#     4  10  24  47  63 109 147 183 239 294 364 427
#     4  10  24  42  75  99 146 189 233 304 351 431
#     4  11  25  46  72 106 142 194 234 300 358 443
#     4  12  28  48  76 106 144 186 241 300 352 426
#
# _framework density 22.961357
#
# number of rings (size 3 to 8) (size 9 to 14) (size 15 to 20)
#    0.000    1.000    3.333    2.000    7.000    2.667 
#    3.000    0.000    0.000    0.000    0.000    0.000 
#    0.000    0.000    0.000    0.000    0.000    0.000 
#
# Total GULP energy -297749.541762 kJ/mol
# GULP energy per Si atom -12406.230907 kJ/mol
# Density = 2.290910 g / cm^3
# Si number density = 22.961357 Si / 1000 Ang^3
#
#
#
# Elastic Constant Matrix: (Units=GPa)
#
#
# Indices 1 2 3 4 5 6 
#
# 1 78.0128 32.9628 14.0274 0.0000 -19.7849 0.0000
# 2 32.9628 138.9767 31.9055 0.0000 -2.0978 0.0000
# 3 14.0274 31.9055 103.2876 0.0000 -9.7292 0.0000
# 4 0.0000 0.0000 0.0000 33.7700 0.0000 -16.3042
# 5 -19.7849 -2.0978 -9.7292 0.0000 26.2489 0.0000
# 6 0.0000 0.0000 0.0000 -16.3042 0.0000 28.5676
#
#
#
# Elastic Compliance Matrix: (Units=1/GPa)
#
#
# Indices 1 2 3 4 5 6 
#
# 1 0.017856 -0.004052 0.000066 0.000000 0.013159 0.000000
# 2 -0.004052 0.008666 -0.002434 0.000000 -0.003263 0.000000
# 3 0.000066 -0.002434 0.010788 0.000000 0.003854 0.000000
# 4 0.000000 0.000000 0.000000 0.040875 0.000000 0.023328
# 5 0.013159 -0.003263 0.003854 0.000000 0.049183 0.000000
# 6 0.000000 0.000000 0.000000 0.023328 0.000000 0.048319
#
#
# Mechanical properties :
#
#
# Convention : Reuss Voigt Hill
#
# Bulk Modulus (GPa) = 40.86593 53.11872 46.99233
# Shear Modulus (GPa) = 25.42173 33.80940 29.61556
#
# Velocity S-wave (km/s) = 3.33100 3.84141 3.59528
# Velocity P-wave (km/s) = 5.71230 6.54671 6.14369
#
# Compressibility (1/GPa) = 0.02447026
#
# Stress axis : x y z
#
# Youngs Moduli (GPa) = 56.00412 115.39402 92.69891
#
# Poissons Ratio (x) = 0.46753 -0.00613
# Poissons Ratio (y) = 0.22691 0.22564
# Poissons Ratio (z) = -0.00370 0.28088
#
# Static dielectric constant tensor:
#      x y z
#    x 4.970360 0.000000 -0.688870 
#    y 0.000000 4.320620 0.000000 
#    z -0.688870 0.000000 4.394690 
# 
# 
# High freq. dielectric constant tensor:
#      x y z
#    x 1.904000 0.000000 -0.013330 
#    y 0.000000 1.923110 0.000000 
#    z -0.013330 0.000000 1.907960 
# 
# From -- ./inp_files/116354.got.cif
#   From: 2010.06.25/outbox.cif.g09.slc.cpg/sg15_59_cif.got.tgz:116354.got - 2010.06.28 07:06:18.
