data_PCOD8149861
_publ_section_title
;
Structure prediction by ZEFSAII (Michael W. Deem and Ramdas Pophale) SiO2 
 PCOD8149861
Probable space group: C 2/C
;
_chemical_formula_sum "Si O2"
_cell_formula_units_Z 60
_cell_length_a 8.759719
_cell_length_b 14.804424
_cell_length_c 22.963877
_cell_angle_alpha 90.000000
_cell_angle_beta 109.923618
_cell_angle_gamma 90.000000
_cell_volume 2799.774202
_symmetry_space_group_name_H-M "C 2/C"
_symmetry_group_IT_number 15
_symmetry_cell_setting 'monoclinic'
loop_
_space_group_symop_operation_xyz
x,y,z
-x,y,1/2-z
-x,-y,-z
x,-y,1/2+z
1/2+x,1/2+y,z
1/2-x,1/2+y,1/2-z
1/2-x,1/2-y,-z
1/2+x,1/2-y,1/2+z
loop_
_atom_site_type_symbol
_atom_site_label
_atom_site_fract_x
_atom_site_fract_y
_atom_site_fract_z
Si Si1 0.298789 0.179613 0.795934
Si Si2 0.390117 0.614785 0.827388
Si Si3 0.312123 0.026620 0.971896
Si Si4 0.243165 0.905066 0.582525
Si Si5 0.187957 0.208701 0.904509
Si Si6 0.561172 0.035431 0.820847
Si Si7 0.449595 0.432744 0.631597
Si Si8 0.000000 0.185672 0.250000
O O1 0.141556 0.139615 0.743700
O O2 0.244255 0.230375 0.846114
O O3 0.424126 0.099774 0.830597
O O4 0.360644 0.250668 0.756406
O O5 0.495209 0.686636 0.878554
O O6 0.223168 0.596325 0.839630
O O7 0.499788 0.527215 0.835334
O O8 0.295467 0.127096 0.943172
O O9 0.222771 0.948204 0.923033
O O10 0.224577 0.029869 0.023964
O O11 0.500000 0.000000 0.000000
O O12 0.282469 0.805371 0.560968
O O13 0.082307 0.899914 0.601409
O O14 0.399185 0.944771 0.637995
O O15 0.500000 0.002643 0.750000
O O16 0.428925 0.368795 0.685259
#
# Coordination Sequence:
#
# PCOD8149861 Si02
#       8
#     8   8   8   8   8   8   8   4
#     4  11  20  39  59  91 133 163 202 255 322 378
#     4   9  20  37  58  88 127 166 196 257 321 370
#     4  11  25  46  65  89 129 175 216 265 317 383
#     4  11  22  43  64  94 122 167 219 261 316 377
#     4  11  23  38  62  94 126 161 215 268 308 370
#     4   9  19  38  61  88 127 168 204 250 318 385
#     4  10  24  42  67  92 126 171 213 258 324 386
#     4  12  22  40  66  98 128 160 212 260 314 386
#
# _framework density 21.430299000000002
#
# number of rings (size 3 to 8) (size 9 to 14) (size 15 to 20)
#    0.000    1.600    3.333    2.000    3.733    2.133 
#    4.800    0.667    0.000    0.000    0.000    0.000 
#    0.000    0.000    0.000    0.000    0.000    0.000 
#
# Total GULP energy -371782.739545 kJ/mol
# GULP energy per Si atom -12392.757985 kJ/mol
# Density = 2.138152 g / cm^3
# Si number density = 21.430299 Si / 1000 Ang^3
#
#
#
# Elastic Constant Matrix: (Units=GPa)
#
#
# Indices 1 2 3 4 5 6 
#
# 1 84.0085 30.5001 45.6629 0.0000 20.5618 0.0000
# 2 30.5001 99.1382 39.9714 0.0000 18.1960 0.0000
# 3 45.6629 39.9714 104.0918 0.0000 9.4528 0.0000
# 4 0.0000 0.0000 0.0000 40.9759 0.0000 -3.0919
# 5 20.5618 18.1960 9.4528 0.0000 45.3848 0.0000
# 6 0.0000 0.0000 0.0000 -3.0919 0.0000 11.1296
#
#
#
# Elastic Compliance Matrix: (Units=1/GPa)
#
#
# Indices 1 2 3 4 5 6 
#
# 1 0.017484 -0.001680 -0.006489 0.000000 -0.005896 0.000000
# 2 -0.001680 0.012816 -0.003860 0.000000 -0.003573 0.000000
# 3 -0.006489 -0.003860 0.013789 0.000000 0.001615 0.000000
# 4 0.000000 0.000000 0.000000 0.024927 0.000000 0.006925
# 5 -0.005896 -0.003573 0.001615 0.000000 0.025801 0.000000
# 6 0.000000 0.000000 0.000000 0.006925 0.000000 0.091775
#
#
# Mechanical properties :
#
#
# Convention : Reuss Voigt Hill
#
# Bulk Modulus (GPa) = 49.92450 57.72304 53.82377
# Shear Modulus (GPa) = 23.00684 30.90498 26.95591
#
# Velocity S-wave (km/s) = 3.28009 3.80164 3.55045
# Velocity P-wave (km/s) = 6.13939 6.80174 6.47903
#
# Compressibility (1/GPa) = 0.02003025
#
# Stress axis : x y z
#
# Youngs Moduli (GPa) = 57.19552 78.02805 72.52183
#
# Poissons Ratio (x) = 0.13113 0.47060
# Poissons Ratio (y) = 0.09612 0.27991
# Poissons Ratio (z) = 0.37115 0.30116
#
# Static dielectric constant tensor:
#      x y z
#    x 3.848590 0.000000 0.154360 
#    y 0.000000 3.895300 0.000000 
#    z 0.154360 0.000000 4.192840 
# 
# 
# High freq. dielectric constant tensor:
#      x y z
#    x 1.835190 0.000000 0.001050 
#    y 0.000000 1.835050 0.000000 
#    z 0.001050 0.000000 1.848750 
# 
# From -- ./inp_files/264753.got.cif
#   From: 2010.06.25/outbox.cif.g09.slc.cpg/sg15_133_cif.got.tgz:264753.got - 2010.06.28 07:06:18.
