data_PCOD8149772
_publ_section_title
;
Structure prediction by ZEFSAII (Michael W. Deem and Ramdas Pophale) SiO2 
 PCOD8149772
Probable space group: C 2/C
;
_chemical_formula_sum "Si O2"
_cell_formula_units_Z 56
_cell_length_a 11.749487
_cell_length_b 14.791342
_cell_length_c 14.901543
_cell_angle_alpha 90.000000
_cell_angle_beta 95.590677
_cell_angle_gamma 90.000000
_cell_volume 2577.430548
_symmetry_space_group_name_H-M "C 2/C"
_symmetry_group_IT_number 15
_symmetry_cell_setting 'monoclinic'
loop_
_space_group_symop_operation_xyz
x,y,z
-x,y,1/2-z
-x,-y,-z
x,-y,1/2+z
1/2+x,1/2+y,z
1/2-x,1/2+y,1/2-z
1/2-x,1/2-y,-z
1/2+x,1/2-y,1/2+z
loop_
_atom_site_type_symbol
_atom_site_label
_atom_site_fract_x
_atom_site_fract_y
_atom_site_fract_z
Si Si1 0.082288 0.549994 0.616306
Si Si2 0.966514 0.259466 0.344674
Si Si3 0.673188 0.551298 0.815295
Si Si4 0.849414 0.018678 0.887299
Si Si5 0.060812 0.904548 0.936637
Si Si6 0.621594 0.074335 0.414597
Si Si7 0.216202 0.242010 0.894491
O O1 0.004159 0.635114 0.639040
O O2 0.190982 0.535713 0.688729
O O3 0.135877 0.572950 0.523158
O O4 0.004866 0.461528 0.617431
O O5 0.830841 0.244561 0.345547
O O6 0.000000 0.225393 0.250000
O O7 0.051146 0.201310 0.413753
O O8 0.617499 0.550756 0.711080
O O9 0.625664 0.468417 0.870243
O O10 0.652194 0.648474 0.862417
O O11 0.718076 0.989783 0.880342
O O12 0.876432 0.096964 0.961950
O O13 0.928655 0.936417 0.927941
O O14 0.630071 0.174072 0.371716
O O15 0.250000 0.250000 0.000000
#
# Coordination Sequence:
#
# PCOD8149772 Si02
#       7
#     8   8   8   8   8   8   8
#     4  10  24  41  71  95 135 175 230 277 335 409
#     4  11  23  40  68 101 131 182 229 277 341 421
#     4  11  23  42  70 104 130 175 231 283 340 409
#     4  11  23  38  71  97 135 172 225 287 340 394
#     4  11  23  42  66  99 134 177 218 281 350 403
#     4  11  21  43  69  99 129 185 222 274 342 408
#     4  11  21  42  72  98 130 183 231 274 335 421
#
# _framework density 21.727066000000001
#
# number of rings (size 3 to 8) (size 9 to 14) (size 15 to 20)
#    0.000    1.143    5.714    1.286    6.000    0.000 
#    0.000    0.714   18.857    0.000    0.000    0.000 
#    0.000    0.000    0.000    0.000    0.000    0.000 
#
# Total GULP energy -347082.309044 kJ/mol
# GULP energy per Si atom -12395.796752 kJ/mol
# Density = 2.167761 g / cm^3
# Si number density = 21.727066 Si / 1000 Ang^3
#
#
#
# Elastic Constant Matrix: (Units=GPa)
#
#
# Indices 1 2 3 4 5 6 
#
# 1 63.5375 31.8102 13.2960 0.0000 -10.9507 0.0000
# 2 31.8102 96.4220 16.3353 0.0000 4.8420 0.0000
# 3 13.2960 16.3353 108.0660 0.0000 -1.3783 0.0000
# 4 0.0000 0.0000 0.0000 24.1069 0.0000 -1.2715
# 5 -10.9507 4.8420 -1.3783 0.0000 32.5597 0.0000
# 6 0.0000 0.0000 0.0000 -1.2715 0.0000 40.4197
#
#
#
# Elastic Compliance Matrix: (Units=1/GPa)
#
#
# Indices 1 2 3 4 5 6 
#
# 1 0.020965 -0.007082 -0.001406 0.000000 0.008045 0.000000
# 2 -0.007082 0.013126 -0.001169 0.000000 -0.004383 0.000000
# 3 -0.001406 -0.001169 0.009605 0.000000 0.000107 0.000000
# 4 0.000000 0.000000 0.000000 0.041551 0.000000 0.001307
# 5 0.008045 -0.004383 0.000107 0.000000 0.034075 0.000000
# 6 0.000000 0.000000 0.000000 0.001307 0.000000 0.024782
#
#
# Mechanical properties :
#
#
# Convention : Reuss Voigt Hill
#
# Bulk Modulus (GPa) = 41.01526 43.43428 42.22477
# Shear Modulus (GPa) = 29.14693 33.18953 31.16823
#
# Velocity S-wave (km/s) = 3.66663 3.91265 3.79163
# Velocity P-wave (km/s) = 6.06993 6.35972 6.21651
#
# Compressibility (1/GPa) = 0.02438117
#
# Stress axis : x y z
#
# Youngs Moduli (GPa) = 47.69766 76.18649 104.11627
#
# Poissons Ratio (x) = 0.53958 0.14642
# Poissons Ratio (y) = 0.33781 0.12167
# Poissons Ratio (z) = 0.06708 0.08903
#
# Static dielectric constant tensor:
#      x y z
#    x 3.885600 0.000000 -0.091760 
#    y 0.000000 4.012360 0.000000 
#    z -0.091760 0.000000 3.993170 
# 
# 
# High freq. dielectric constant tensor:
#      x y z
#    x 1.847010 0.000000 -0.014990 
#    y 0.000000 1.846700 0.000000 
#    z -0.014990 0.000000 1.853770 
# 
# From -- ./inp_files/144269.got.cif
#   From: 2010.06.25/outbox.cif.g09.slc.cpg/sg15_73_cif.got.tgz:144269.got - 2010.06.28 07:06:18.
