data_PCOD8149388
_publ_section_title
;
Structure prediction by ZEFSAII (Michael W. Deem and Ramdas Pophale) SiO2 
 PCOD8149388
Probable space group: C 2/C
;
_chemical_formula_sum "Si O2"
_cell_formula_units_Z 40
_cell_length_a 16.545923
_cell_length_b 12.227587
_cell_length_c 8.749055
_cell_angle_alpha 90.000000
_cell_angle_beta 108.578302
_cell_angle_gamma 90.000000
_cell_volume 1677.839642
_symmetry_space_group_name_H-M "C 2/C"
_symmetry_group_IT_number 15
_symmetry_cell_setting 'monoclinic'
loop_
_space_group_symop_operation_xyz
x,y,z
-x,y,1/2-z
-x,-y,-z
x,-y,1/2+z
1/2+x,1/2+y,z
1/2-x,1/2+y,1/2-z
1/2-x,1/2-y,-z
1/2+x,1/2-y,1/2+z
loop_
_atom_site_type_symbol
_atom_site_label
_atom_site_fract_x
_atom_site_fract_y
_atom_site_fract_z
Si Si1 0.166093 0.552775 0.841745
Si Si2 0.901013 0.360625 0.515105
Si Si3 0.407610 0.629276 0.624955
Si Si4 0.859140 0.059709 0.906322
Si Si5 0.556575 0.218506 0.933678
O O1 0.113918 0.441705 0.850486
O O2 0.148008 0.589580 0.658616
O O3 0.266737 0.541367 0.925000
O O4 0.137157 0.643364 0.946164
O O5 0.864107 0.242077 0.542436
O O6 0.000728 0.341147 0.532294
O O7 0.500000 0.653723 0.750000
O O8 0.349775 0.569596 0.717971
O O9 0.414174 0.547335 0.484685
O O10 0.908463 0.165960 0.993292
O O11 0.500000 0.236097 0.750000
#
# Coordination Sequence:
#
# PCOD8149388 Si02
#       5
#     8   8   8   8   8
#     4  11  26  45  73 106 150 187 240 302 369 431
#     4  11  26  49  73 107 145 198 241 299 361 445
#     4  12  27  47  77 104 145 192 249 299 364 436
#     4  12  26  45  73 108 145 189 242 308 365 424
#     4  10  23  45  74 103 144 192 246 294 360 441
#
# _framework density 23.840181000000001
#
# number of rings (size 3 to 8) (size 9 to 14) (size 15 to 20)
#    0.000    0.800    2.000    3.600    8.400    5.600 
#    0.000    0.000    0.000    0.000    0.000    0.000 
#    0.000    0.000    0.000    0.000    0.000    0.000 
#
# Total GULP energy -248008.839471 kJ/mol
# GULP energy per Si atom -12400.441974 kJ/mol
# Density = 2.378592 g / cm^3
# Si number density = 23.840181 Si / 1000 Ang^3
#
#
#
# Elastic Constant Matrix: (Units=GPa)
#
#
# Indices 1 2 3 4 5 6 
#
# 1 102.8922 35.1606 44.8028 0.0000 -8.5375 0.0000
# 2 35.1606 181.4445 82.5612 0.0000 -2.0979 0.0000
# 3 44.8028 82.5612 107.2625 0.0000 -17.5647 0.0000
# 4 0.0000 0.0000 0.0000 50.2164 0.0000 -8.2183
# 5 -8.5375 -2.0979 -17.5647 0.0000 32.0879 0.0000
# 6 0.0000 0.0000 0.0000 -8.2183 0.0000 25.3430
#
#
#
# Elastic Compliance Matrix: (Units=1/GPa)
#
#
# Indices 1 2 3 4 5 6 
#
# 1 0.011888 -0.000120 -0.004786 0.000000 0.000536 0.000000
# 2 -0.000120 0.008817 -0.007302 0.000000 -0.003452 0.000000
# 3 -0.004786 -0.007302 0.018295 0.000000 0.008264 0.000000
# 4 0.000000 0.000000 0.000000 0.021030 0.000000 0.006820
# 5 0.000536 -0.003452 0.008264 0.000000 0.035605 0.000000
# 6 0.000000 0.000000 0.000000 0.006820 0.000000 0.041670
#
#
# Mechanical properties :
#
#
# Convention : Reuss Voigt Hill
#
# Bulk Modulus (GPa) = 68.55930 79.62758 74.09344
# Shear Modulus (GPa) = 30.01514 36.80110 33.40812
#
# Velocity S-wave (km/s) = 3.55211 3.93320 3.74750
# Velocity P-wave (km/s) = 6.75601 7.35526 7.06199
#
# Compressibility (1/GPa) = 0.01458591
#
# Stress axis : x y z
#
# Youngs Moduli (GPa) = 84.11746 113.41460 54.65830
#
# Poissons Ratio (x) = 0.01361 0.26157
# Poissons Ratio (y) = 0.01009 0.39911
# Poissons Ratio (z) = 0.40255 0.82815
#
# Static dielectric constant tensor:
#      x y z
#    x 4.399410 0.000000 -0.479710 
#    y 0.000000 4.367440 0.000000 
#    z -0.479710 0.000000 4.476270 
# 
# 
# High freq. dielectric constant tensor:
#      x y z
#    x 1.943800 0.000000 -0.016540 
#    y 0.000000 1.957620 0.000000 
#    z -0.016540 0.000000 1.950620 
# 
# From -- ./inp_files/46267.got.cif
#   From: 2010.06.25/outbox.cif.g09.slc.cpg/sg15_24_cif.got.tgz:46267.got - 2010.06.28 07:06:18.
