data_PCOD8149662
_publ_section_title
;
Structure prediction by ZEFSAII (Michael W. Deem and Ramdas Pophale) SiO2 
 PCOD8149662
Probable space group: C 2/C
;
_chemical_formula_sum "Si O2"
_cell_formula_units_Z 40
_cell_length_a 10.163711
_cell_length_b 16.372295
_cell_length_c 11.619438
_cell_angle_alpha 90.000000
_cell_angle_beta 108.466864
_cell_angle_gamma 90.000000
_cell_volume 1833.950181
_symmetry_space_group_name_H-M "C 2/C"
_symmetry_group_IT_number 15
_symmetry_cell_setting 'monoclinic'
loop_
_space_group_symop_operation_xyz
x,y,z
-x,y,1/2-z
-x,-y,-z
x,-y,1/2+z
1/2+x,1/2+y,z
1/2-x,1/2+y,1/2-z
1/2-x,1/2-y,-z
1/2+x,1/2-y,1/2+z
loop_
_atom_site_type_symbol
_atom_site_label
_atom_site_fract_x
_atom_site_fract_y
_atom_site_fract_z
Si Si1 0.573767 0.695240 0.513103
Si Si2 0.311094 0.400259 0.879679
Si Si3 0.135872 0.067256 0.712678
Si Si4 0.339082 0.019382 0.959076
Si Si5 0.275242 0.844761 0.884330
O O1 0.416394 0.663894 0.466705
O O2 0.659132 0.638861 0.626722
O O3 0.586569 0.789514 0.558519
O O4 0.639867 0.697172 0.403128
O O5 0.392567 0.480665 0.858415
O O6 0.235267 0.354860 0.754967
O O7 0.195119 0.426136 0.939546
O O8 0.276478 0.063381 0.828069
O O9 0.000000 0.086740 0.750000
O O10 0.272690 0.930344 0.950477
O O11 0.500000 0.000000 0.000000
#
# Coordination Sequence:
#
# PCOD8149662 Si02
#       5
#     8   8   8   8   8
#     4  11  21  42  67 101 135 171 228 288 340 412
#     4  11  21  42  69  93 135 182 230 276 336 419
#     4  11  21  38  69  98 124 177 234 273 331 415
#     4  11  24  43  63  94 133 181 225 280 340 409
#     4  10  24  40  65 101 134 171 219 286 353 397
#
# _framework density 21.810841
#
# number of rings (size 3 to 8) (size 9 to 14) (size 15 to 20)
#    0.000    1.200    4.000    3.600    0.000    4.800 
#    3.600    4.000    0.000    0.000    0.000    0.000 
#    0.000    0.000    0.000    0.000    0.000    0.000 
#
# Total GULP energy -247931.471716 kJ/mol
# GULP energy per Si atom -12396.573586 kJ/mol
# Density = 2.176120 g / cm^3
# Si number density = 21.810841 Si / 1000 Ang^3
#
#
#
# Elastic Constant Matrix: (Units=GPa)
#
#
# Indices 1 2 3 4 5 6 
#
# 1 118.1769 19.5649 65.0360 0.0000 3.0095 0.0000
# 2 19.5649 79.1869 52.4178 0.0000 -6.9475 0.0000
# 3 65.0360 52.4178 140.9524 0.0000 -3.5947 0.0000
# 4 0.0000 0.0000 0.0000 37.8722 0.0000 2.5225
# 5 3.0095 -6.9475 -3.5947 0.0000 28.6324 0.0000
# 6 0.0000 0.0000 0.0000 2.5225 0.0000 35.7099
#
#
#
# Elastic Compliance Matrix: (Units=1/GPa)
#
#
# Indices 1 2 3 4 5 6 
#
# 1 0.011472 0.000725 -0.005607 0.000000 -0.001734 0.000000
# 2 0.000725 0.017113 -0.006616 0.000000 0.003246 0.000000
# 3 -0.005607 -0.006616 0.012155 0.000000 0.000510 0.000000
# 4 0.000000 0.000000 0.000000 0.026529 0.000000 -0.001874
# 5 -0.001734 0.003246 0.000510 0.000000 0.035959 0.000000
# 6 0.000000 0.000000 0.000000 -0.001874 0.000000 0.028136
#
#
# Mechanical properties :
#
#
# Convention : Reuss Voigt Hill
#
# Bulk Modulus (GPa) = 56.35565 68.03929 62.19747
# Shear Modulus (GPa) = 31.19638 33.86275 32.52956
#
# Velocity S-wave (km/s) = 3.78605 3.94453 3.86611
# Velocity P-wave (km/s) = 6.70871 7.21171 6.96475
#
# Compressibility (1/GPa) = 0.01774445
#
# Stress axis : x y z
#
# Youngs Moduli (GPa) = 87.17142 58.43370 82.27050
#
# Poissons Ratio (x) = -0.04237 0.46128
# Poissons Ratio (y) = -0.06321 0.54430
# Poissons Ratio (z) = 0.48876 0.38660
#
# Static dielectric constant tensor:
#      x y z
#    x 3.555200 0.000000 0.026230 
#    y 0.000000 4.251200 0.000000 
#    z 0.026230 0.000000 4.122390 
# 
# 
# High freq. dielectric constant tensor:
#      x y z
#    x 1.832000 0.000000 -0.007870 
#    y 0.000000 1.855490 0.000000 
#    z -0.007870 0.000000 1.868960 
# 
# From -- ./inp_files/76922.got.cif
#   From: 2010.06.25/outbox.cif.g09.slc.cpg/sg15_39_cif.got.tgz:76922.got - 2010.06.28 07:06:18.
