data_PCOD8149659
_publ_section_title
;
Structure prediction by ZEFSAII (Michael W. Deem and Ramdas Pophale) SiO2 
 PCOD8149659
Probable space group: C 2/C
;
_chemical_formula_sum "Si O2"
_cell_formula_units_Z 64
_cell_length_a 18.414788
_cell_length_b 17.924790
_cell_length_c 9.596589
_cell_angle_alpha 90.000000
_cell_angle_beta 85.822494
_cell_angle_gamma 90.000000
_cell_volume 3159.237717
_symmetry_space_group_name_H-M "C 2/C"
_symmetry_group_IT_number 15
_symmetry_cell_setting 'monoclinic'
loop_
_space_group_symop_operation_xyz
x,y,z
-x,y,1/2-z
-x,-y,-z
x,-y,1/2+z
1/2+x,1/2+y,z
1/2-x,1/2+y,1/2-z
1/2-x,1/2-y,-z
1/2+x,1/2-y,1/2+z
loop_
_atom_site_type_symbol
_atom_site_label
_atom_site_fract_x
_atom_site_fract_y
_atom_site_fract_z
Si Si1 0.918061 0.785520 0.298549
Si Si2 0.621026 0.560435 0.587470
Si Si3 0.278741 0.938360 0.975061
Si Si4 0.674636 0.216133 0.959265
Si Si5 0.217073 0.586218 0.345672
Si Si6 0.641901 0.687061 0.207725
Si Si7 0.074088 0.045476 0.303817
Si Si8 0.831165 0.265118 0.552397
O O1 0.922375 0.871747 0.339477
O O2 0.892630 0.737461 0.433434
O O3 0.855994 0.778882 0.187534
O O4 0.000000 0.758720 0.250000
O O5 0.695109 0.587926 0.503726
O O6 0.575542 0.524495 0.465986
O O7 0.636325 0.498691 0.705671
O O8 0.300245 0.941925 0.808700
O O9 0.324874 0.874071 0.045206
O O10 0.288933 0.017999 0.046113
O O11 0.664085 0.247008 0.807120
O O12 0.750000 0.250000 0.000000
O O13 0.292878 0.630133 0.336319
O O14 0.158497 0.647304 0.411234
O O15 0.578740 0.634885 0.280199
O O16 0.615088 0.731915 0.074011
O O17 0.000000 0.013605 0.250000
O O18 0.750000 0.250000 0.500000
#
# Coordination Sequence:
#
# PCOD8149659 Si02
#       8
#     8   8   8   8   8   8   8   8
#     4  12  25  42  67  96 131 174 219 267 332 393
#     4  12  24  41  58  91 129 176 217 260 320 388
#     4  12  22  37  66  88 130 158 216 266 326 382
#     4  12  20  42  66  92 126 171 216 267 318 384
#     4  11  22  39  57  95 121 162 208 274 327 368
#     4  11  22  38  59  89 123 165 216 265 311 371
#     4  12  25  39  57  83 130 176 216 252 314 392
#     4  10  24  40  64  94 129 163 220 274 320 377
#
# _framework density 20.258051999999999
#
# number of rings (size 3 to 8) (size 9 to 14) (size 15 to 20)
#    0.000    0.500    7.500    1.500    5.250    1.000 
#    0.000    0.000    0.000    0.750    0.000    0.000 
#    0.000    0.000    0.000    0.000    0.000    0.000 
#
# Total GULP energy -396569.624495 kJ/mol
# GULP energy per Si atom -12392.800765 kJ/mol
# Density = 2.021194 g / cm^3
# Si number density = 20.258052 Si / 1000 Ang^3
#
#
#
# Elastic Constant Matrix: (Units=GPa)
#
#
# Indices 1 2 3 4 5 6 
#
# 1 47.2879 23.7225 11.9194 0.0000 -2.0370 0.0000
# 2 23.7225 135.1148 84.8054 0.0000 -2.0136 0.0000
# 3 11.9194 84.8054 129.3602 0.0000 7.2846 0.0000
# 4 0.0000 0.0000 0.0000 50.0065 0.0000 -2.0224
# 5 -2.0370 -2.0136 7.2846 0.0000 24.6905 0.0000
# 6 0.0000 0.0000 0.0000 -2.0224 0.0000 18.8900
#
#
#
# Elastic Compliance Matrix: (Units=1/GPa)
#
#
# Indices 1 2 3 4 5 6 
#
# 1 0.023294 -0.004547 0.000760 0.000000 0.001327 0.000000
# 2 -0.004547 0.013771 -0.008797 0.000000 0.003343 0.000000
# 3 0.000760 -0.008797 0.013692 0.000000 -0.004694 0.000000
# 4 0.000000 0.000000 0.000000 0.020084 0.000000 0.002150
# 5 0.001327 0.003343 -0.004694 0.000000 0.042268 0.000000
# 6 0.000000 0.000000 0.000000 0.002150 0.000000 0.053168
#
#
# Mechanical properties :
#
#
# Convention : Reuss Voigt Hill
#
# Bulk Modulus (GPa) = 39.08083 61.40637 50.24360
# Shear Modulus (GPa) = 25.00312 31.47179 28.23746
#
# Velocity S-wave (km/s) = 3.51697 3.94578 3.73753
# Velocity P-wave (km/s) = 5.98544 7.15100 6.59402
#
# Compressibility (1/GPa) = 0.02558799
#
# Stress axis : x y z
#
# Youngs Moduli (GPa) = 42.93008 72.61752 73.03604
#
# Poissons Ratio (x) = 0.33018 -0.05549
# Poissons Ratio (y) = 0.19520 0.64251
# Poissons Ratio (z) = -0.03262 0.63882
#
# Static dielectric constant tensor:
#      x y z
#    x 3.496110 0.000000 -0.090340 
#    y 0.000000 4.039790 0.000000 
#    z -0.090340 0.000000 4.096430 
# 
# 
# High freq. dielectric constant tensor:
#      x y z
#    x 1.742210 0.000000 -0.006920 
#    y 0.000000 1.795560 0.000000 
#    z -0.006920 0.000000 1.813800 
# 
# From -- ./inp_files/56626.got.cif
#   From: 2010.06.25/outbox.cif.g09.slc.cpg/sg15_29_cif.got.tgz:56626.got - 2010.06.28 07:06:18.
