data_PCOD8149503
_publ_section_title
;
Structure prediction by ZEFSAII (Michael W. Deem and Ramdas Pophale) SiO2 
 PCOD8149503
Probable space group: C 2/C
;
_chemical_formula_sum "Si O2"
_cell_formula_units_Z 40
_cell_length_a 20.651804
_cell_length_b 5.372467
_cell_length_c 14.560294
_cell_angle_alpha 90.000000
_cell_angle_beta 75.981963
_cell_angle_gamma 90.000000
_cell_volume 1567.371348
_symmetry_space_group_name_H-M "C 2/C"
_symmetry_group_IT_number 15
_symmetry_cell_setting 'monoclinic'
loop_
_space_group_symop_operation_xyz
x,y,z
-x,y,1/2-z
-x,-y,-z
x,-y,1/2+z
1/2+x,1/2+y,z
1/2-x,1/2+y,1/2-z
1/2-x,1/2-y,-z
1/2+x,1/2-y,1/2+z
loop_
_atom_site_type_symbol
_atom_site_label
_atom_site_fract_x
_atom_site_fract_y
_atom_site_fract_z
Si Si1 0.238564 0.098950 0.856697
Si Si2 0.807711 0.988825 0.942527
Si Si3 0.648086 0.781992 0.736865
Si Si4 0.058539 0.247637 0.068185
Si Si5 0.012312 0.743062 0.376869
O O1 0.248396 0.364782 0.903186
O O2 0.178546 0.097193 0.803823
O O3 0.306058 0.030333 0.777213
O O4 0.219641 0.908619 0.948462
O O5 0.862459 0.775272 0.946062
O O6 0.844799 0.194572 0.870392
O O7 0.570032 0.814225 0.782407
O O8 0.037958 0.511635 0.119194
O O9 0.044344 0.254956 0.965613
O O10 0.021315 0.012129 0.129365
#
# Coordination Sequence:
#
# PCOD8149503 Si02
#       5
#     8   8   8   8   8
#     4  11  25  45  69 105 139 185 236 300 365 422
#     4  11  25  46  70 101 142 185 245 291 363 437
#     4  12  24  45  71 105 141 189 240 299 360 439
#     4  10  23  47  72 106 139 192 233 301 358 422
#     4  10  24  45  75 102 146 184 240 296 362 419
#
# _framework density 25.520436
#
# number of rings (size 3 to 8) (size 9 to 14) (size 15 to 20)
#    0.000    1.200    4.000    0.600    5.600    0.800 
#    3.600    0.000    0.000    0.000    0.000    0.000 
#    0.000    0.000    0.000    0.000    0.000    0.000 
#
# Total GULP energy -247903.328951 kJ/mol
# GULP energy per Si atom -12395.166448 kJ/mol
# Density = 2.546235 g / cm^3
# Si number density = 25.520436 Si / 1000 Ang^3
#
#
#
# Elastic Constant Matrix: (Units=GPa)
#
#
# Indices 1 2 3 4 5 6 
#
# 1 57.0238 3.0927 14.0536 0.0000 -22.7336 0.0000
# 2 3.0927 93.6083 27.3012 0.0000 -7.9935 0.0000
# 3 14.0536 27.3012 144.3495 0.0000 -27.8889 0.0000
# 4 0.0000 0.0000 0.0000 33.6285 0.0000 -11.7314
# 5 -22.7336 -7.9935 -27.8889 0.0000 49.5281 0.0000
# 6 0.0000 0.0000 0.0000 -11.7314 0.0000 32.6688
#
#
#
# Elastic Compliance Matrix: (Units=1/GPa)
#
#
# Indices 1 2 3 4 5 6 
#
# 1 0.021473 0.000194 -0.000243 0.000000 0.009751 0.000000
# 2 0.000194 0.011330 -0.002010 0.000000 0.000786 0.000000
# 3 -0.000243 -0.002010 0.008132 0.000000 0.004143 0.000000
# 4 0.000000 0.000000 0.000000 0.033995 0.000000 0.012208
# 5 0.009751 0.000786 0.004143 0.000000 0.027126 0.000000
# 6 0.000000 0.000000 0.000000 0.012208 0.000000 0.034994
#
#
# Mechanical properties :
#
#
# Convention : Reuss Voigt Hill
#
# Bulk Modulus (GPa) = 27.16177 42.65297 34.90737
# Shear Modulus (GPa) = 32.58591 39.86735 36.22663
#
# Velocity S-wave (km/s) = 3.57719 3.95672 3.77173
# Velocity P-wave (km/s) = 5.26573 6.13382 5.71628
#
# Compressibility (1/GPa) = 0.03681645
#
# Stress axis : x y z
#
# Youngs Moduli (GPa) = 46.56964 88.26355 122.97270
#
# Poissons Ratio (x) = -0.01714 0.02994
# Poissons Ratio (y) = -0.00904 0.24716
# Poissons Ratio (z) = 0.01134 0.17740
#
# Static dielectric constant tensor:
#      x y z
#    x 4.610940 0.000000 -0.030320 
#    y 0.000000 4.283900 0.000000 
#    z -0.030320 0.000000 4.974410 
# 
# 
# High freq. dielectric constant tensor:
#      x y z
#    x 2.026840 0.000000 0.005220 
#    y 0.000000 1.994240 0.000000 
#    z 0.005220 0.000000 2.038670 
# 
# From -- ./inp_files/170736.got.cif
#   From: 2010.06.25/outbox.cif.g09.slc.cpg/sg15_86_cif.got.tgz:170736.got - 2010.06.28 07:06:18.
