data_PCOD8149826
_publ_section_title
;
Structure prediction by ZEFSAII (Michael W. Deem and Ramdas Pophale) SiO2 
 PCOD8149826
Probable space group: C 2/C
;
_chemical_formula_sum "Si O2"
_cell_formula_units_Z 64
_cell_length_a 10.508097
_cell_length_b 8.890971
_cell_length_c 32.657140
_cell_angle_alpha 90.000000
_cell_angle_beta 86.704472
_cell_angle_gamma 90.000000
_cell_volume 3046.019157
_symmetry_space_group_name_H-M "C 2/C"
_symmetry_group_IT_number 15
_symmetry_cell_setting 'monoclinic'
loop_
_space_group_symop_operation_xyz
x,y,z
-x,y,1/2-z
-x,-y,-z
x,-y,1/2+z
1/2+x,1/2+y,z
1/2-x,1/2+y,1/2-z
1/2-x,1/2-y,-z
1/2+x,1/2-y,1/2+z
loop_
_atom_site_type_symbol
_atom_site_label
_atom_site_fract_x
_atom_site_fract_y
_atom_site_fract_z
Si Si1 0.738379 0.365416 0.794345
Si Si2 0.268357 0.119869 0.032399
Si Si3 0.467268 0.282127 0.337604
Si Si4 0.045510 0.782915 0.425896
Si Si5 0.615341 0.818041 0.493857
Si Si6 0.468246 0.367172 0.836937
Si Si7 0.763252 0.220650 0.705791
Si Si8 0.502714 0.611534 0.070373
O O1 0.601740 0.315368 0.814578
O O2 0.755883 0.292165 0.750233
O O3 0.745968 0.543027 0.789910
O O4 0.851363 0.312514 0.821829
O O5 0.321482 0.192788 0.073856
O O6 0.132355 0.050640 0.046679
O O7 0.366544 0.996657 0.012661
O O8 0.250000 0.250000 0.000000
O O9 0.468622 0.248474 0.386075
O O10 0.443233 0.457182 0.329190
O O11 0.602092 0.230277 0.316302
O O12 0.973131 0.719558 0.466612
O O13 0.082053 0.960058 0.427716
O O14 0.750000 0.750000 0.500000
O O15 0.560731 0.746170 0.453274
O O16 0.352951 0.275218 0.819769
O O17 0.474460 0.327271 0.884618
#
# Coordination Sequence:
#
# PCOD8149826 Si02
#       8
#     8   8   8   8   8   8   8   8
#     4  11  24  41  68  95 126 166 207 256 314 382
#     4  12  24  41  62  88 121 168 215 258 310 364
#     4  10  24  43  64  95 130 166 206 262 317 371
#     4  11  23  43  63  91 128 165 210 264 313 369
#     4  12  24  40  64  91 123 170 215 257 313 370
#     4  10  24  42  65  95 129 164 207 261 313 375
#     4  11  23  44  66  97 127 165 209 254 317 382
#     4  11  24  43  63  91 128 164 210 262 313 369
#
# _framework density 21.011029000000001
#
# number of rings (size 3 to 8) (size 9 to 14) (size 15 to 20)
#    0.000    1.000    2.500    3.750    1.750    6.000 
#    2.250    0.000    0.000    0.000    0.000    0.000 
#    0.000    0.000    0.000    0.000    0.000    0.000 
#
# Total GULP energy -396851.966824 kJ/mol
# GULP energy per Si atom -12401.623963 kJ/mol
# Density = 2.096321 g / cm^3
# Si number density = 21.011029 Si / 1000 Ang^3
#
#
#
# Elastic Constant Matrix: (Units=GPa)
#
#
# Indices 1 2 3 4 5 6 
#
# 1 93.4748 37.1693 23.2815 0.0000 20.1138 0.0000
# 2 37.1693 98.6538 48.6977 0.0000 15.7027 0.0000
# 3 23.2815 48.6977 125.9605 0.0000 18.7806 0.0000
# 4 0.0000 0.0000 0.0000 34.5254 0.0000 9.6740
# 5 20.1138 15.7027 18.7806 0.0000 29.4669 0.0000
# 6 0.0000 0.0000 0.0000 9.6740 0.0000 39.5937
#
#
#
# Elastic Compliance Matrix: (Units=1/GPa)
#
#
# Indices 1 2 3 4 5 6 
#
# 1 0.013891 -0.004123 0.000124 0.000000 -0.007364 0.000000
# 2 -0.004123 0.014185 -0.004436 0.000000 -0.001917 0.000000
# 3 0.000124 -0.004436 0.010267 0.000000 -0.004265 0.000000
# 4 0.000000 0.000000 0.000000 0.031093 0.000000 -0.007597
# 5 -0.007364 -0.001917 -0.004265 0.000000 0.042703 0.000000
# 6 0.000000 0.000000 0.000000 -0.007597 0.000000 0.027113
#
#
# Mechanical properties :
#
#
# Convention : Reuss Voigt Hill
#
# Bulk Modulus (GPa) = 46.56875 59.59845 53.08360
# Shear Modulus (GPa) = 30.62256 34.64655 32.63456
#
# Velocity S-wave (km/s) = 3.82180 4.06516 3.94536
# Velocity P-wave (km/s) = 6.45654 7.10358 6.78778
#
# Compressibility (1/GPa) = 0.02147363
#
# Stress axis : x y z
#
# Youngs Moduli (GPa) = 71.98828 70.49817 97.40075
#
# Poissons Ratio (x) = 0.29066 -0.01212
# Poissons Ratio (y) = 0.29681 0.43207
# Poissons Ratio (z) = -0.00896 0.31273
#
# Static dielectric constant tensor:
#      x y z
#    x 3.987350 0.000000 0.054520 
#    y 0.000000 3.917160 0.000000 
#    z 0.054520 0.000000 4.143680 
# 
# 
# High freq. dielectric constant tensor:
#      x y z
#    x 1.838780 0.000000 0.005150 
#    y 0.000000 1.828120 0.000000 
#    z 0.005150 0.000000 1.833340 
# 
# From -- ./inp_files/310300.got.cif
#   From: 2010.06.25/outbox.cif.g09.slc.cpg/sg15_156_cif.got.tgz:310300.got - 2010.06.28 07:06:18.
