data_PCOD8149241
_publ_section_title
;
Structure prediction by ZEFSAII (Michael W. Deem and Ramdas Pophale) SiO2 
 PCOD8149241
Probable space group: C 2/C
;
_chemical_formula_sum "Si O2"
_cell_formula_units_Z 44
_cell_length_a 9.980015
_cell_length_b 21.431047
_cell_length_c 9.149670
_cell_angle_alpha 90.000000
_cell_angle_beta 105.188011
_cell_angle_gamma 90.000000
_cell_volume 1888.597585
_symmetry_space_group_name_H-M "C 2/C"
_symmetry_group_IT_number 15
_symmetry_cell_setting 'monoclinic'
loop_
_space_group_symop_operation_xyz
x,y,z
-x,y,1/2-z
-x,-y,-z
x,-y,1/2+z
1/2+x,1/2+y,z
1/2-x,1/2+y,1/2-z
1/2-x,1/2-y,-z
1/2+x,1/2-y,1/2+z
loop_
_atom_site_type_symbol
_atom_site_label
_atom_site_fract_x
_atom_site_fract_y
_atom_site_fract_z
Si Si1 0.792716 0.892406 0.471598
Si Si2 0.500000 0.059149 0.250000
Si Si3 0.000000 0.240342 0.750000
Si Si4 0.278798 0.642186 0.645747
Si Si5 0.477671 0.159953 0.481701
Si Si6 0.500000 0.583082 0.250000
Si Si7 0.710254 0.530605 0.082402
O O1 0.835523 0.884154 0.315989
O O2 0.650078 0.854356 0.448007
O O3 0.905200 0.869352 0.624277
O O4 0.800961 0.966541 0.510663
O O5 0.498403 0.098190 0.395692
O O6 0.358233 0.019934 0.207099
O O7 0.122264 0.200627 0.859835
O O8 0.059918 0.282414 0.634994
O O9 0.294476 0.590026 0.525977
O O10 0.121432 0.668681 0.611148
O O11 0.590938 0.539015 0.168913
#
# Coordination Sequence:
#
# PCOD8149241 Si02
#       7
#     8   4   4   8   8   4   8
#     4  12  25  43  70 109 147 187 243 295 370 439
#     4   9  20  40  68 103 137 194 229 288 366 425
#     4  11  24  49  72 100 146 197 251 300 362 417
#     4  11  25  44  74 112 141 190 244 304 363 427
#     4  10  23  44  72 103 142 188 247 300 355 427
#     4  12  24  43  64 103 153 195 228 284 362 448
#     4  11  24  42  73 106 153 190 234 296 368 444
#
# _framework density 23.297711
#
# number of rings (size 3 to 8) (size 9 to 14) (size 15 to 20)
#    0.000    1.091    1.818    3.818    2.545    3.636 
#    3.273    0.000    0.000    0.000    0.000    0.000 
#    0.000    0.000    0.000    0.000    0.000    0.000 
#
# Total GULP energy -272686.222336 kJ/mol
# GULP energy per Si atom -12394.828288 kJ/mol
# Density = 2.324468 g / cm^3
# Si number density = 23.297711 Si / 1000 Ang^3
#
#
#
# Elastic Constant Matrix: (Units=GPa)
#
#
# Indices 1 2 3 4 5 6 
#
# 1 151.1944 39.3337 52.0528 0.0000 8.0606 0.0000
# 2 39.3337 84.3158 30.7139 0.0000 -6.2715 0.0000
# 3 52.0528 30.7139 125.6264 0.0000 9.2842 0.0000
# 4 0.0000 0.0000 0.0000 -22.7245 0.0000 30.7821
# 5 8.0606 -6.2715 9.2842 0.0000 45.6614 0.0000
# 6 0.0000 0.0000 0.0000 30.7821 0.0000 5.9362
#
#
#
# Elastic Compliance Matrix: (Units=1/GPa)
#
#
# Indices 1 2 3 4 5 6 
#
# 1 0.008386 -0.003057 -0.002626 0.000000 -0.001366 0.000000
# 2 -0.003057 0.014415 -0.002481 0.000000 0.003024 0.000000
# 3 -0.002626 -0.002481 0.009793 0.000000 -0.001868 0.000000
# 4 0.000000 0.000000 0.000000 -0.005484 0.000000 0.028438
# 5 -0.001366 0.003024 -0.001868 0.000000 0.022937 0.000000
# 6 0.000000 0.000000 0.000000 0.028438 0.000000 0.020994
#
#
# Mechanical properties :
#
#
# Convention : Reuss Voigt Hill
#
# Bulk Modulus (GPa) = 61.48118 67.25972 64.37045
# Shear Modulus (GPa) = 53.88390 21.71036 37.79713
#
# Velocity S-wave (km/s) = 4.81442 3.05596 4.03222
# Velocity P-wave (km/s) = 7.57308 6.43306 7.02623
#
# Compressibility (1/GPa) = 0.01626514
#
# Stress axis : x y z
#
# Youngs Moduli (GPa) = 119.24054 69.37186 102.11347
#
# Poissons Ratio (x) = 0.21208 0.26820
# Poissons Ratio (y) = 0.36454 0.25335
# Poissons Ratio (z) = 0.31318 0.17211
#
# Static dielectric constant tensor:
#      x y z
#    x -59.244530 0.000000 -34.083560 
#    y 0.000000 3.879980 0.000000 
#    z -34.083560 0.000000 -14.359180 
# 
# 
# High freq. dielectric constant tensor:
#      x y z
#    x 1.933690 0.000000 0.014470 
#    y 0.000000 1.890300 0.000000 
#    z 0.014470 0.000000 1.937370 
# 
# From -- ./inp_files/31075.got.cif
#   From: 2010.06.25/outbox.cif.g09.slc.cpg/sg15_16_cif.got.tgz:31075.got - 2010.06.28 07:06:18.
