data_PCOD8149703
_publ_section_title
;
Structure prediction by ZEFSAII (Michael W. Deem and Ramdas Pophale) SiO2 
 PCOD8149703
Probable space group: C 2/C
;
_chemical_formula_sum "Si O2"
_cell_formula_units_Z 56
_cell_length_a 18.409837
_cell_length_b 8.602318
_cell_length_c 17.737806
_cell_angle_alpha 90.000000
_cell_angle_beta 111.649541
_cell_angle_gamma 90.000000
_cell_volume 2610.928814
_symmetry_space_group_name_H-M "C 2/C"
_symmetry_group_IT_number 15
_symmetry_cell_setting 'monoclinic'
loop_
_space_group_symop_operation_xyz
x,y,z
-x,y,1/2-z
-x,-y,-z
x,-y,1/2+z
1/2+x,1/2+y,z
1/2-x,1/2+y,1/2-z
1/2-x,1/2-y,-z
1/2+x,1/2-y,1/2+z
loop_
_atom_site_type_symbol
_atom_site_label
_atom_site_fract_x
_atom_site_fract_y
_atom_site_fract_z
Si Si1 0.180503 0.181094 0.371877
Si Si2 0.554076 0.128436 0.203164
Si Si3 0.995658 0.324196 0.971058
Si Si4 0.149474 0.070865 0.746082
Si Si5 0.376340 0.379711 0.897373
Si Si6 0.843661 0.176532 0.970763
Si Si7 0.178641 0.372312 0.228468
O O1 0.132704 0.186365 0.431760
O O2 0.269702 0.215743 0.426213
O O3 0.150456 0.301294 0.297549
O O4 0.168884 0.010333 0.332688
O O5 0.500000 0.063897 0.250000
O O6 0.492265 0.175334 0.114456
O O7 0.606817 0.271160 0.252052
O O8 0.615580 0.006702 0.190985
O O9 0.909904 0.256227 0.947830
O O10 0.000000 0.500000 0.000000
O O11 0.053011 0.205354 0.033953
O O12 0.231018 0.078805 0.730073
O O13 0.094284 0.975048 0.666032
O O14 0.333518 0.496100 0.940318
O O15 0.320044 0.245923 0.842211
#
# Coordination Sequence:
#
# PCOD8149703 Si02
#       7
#     8   8   8   8   8   8   8
#     4  10  24  40  70  97 132 168 228 288 330 398
#     4  12  27  43  67 105 143 174 230 291 339 408
#     4  12  25  44  65  91 135 180 218 271 344 416
#     4  11  23  44  70  99 131 183 228 278 341 419
#     4  11  23  40  72  90 126 183 222 269 339 407
#     4  11  23  45  65 100 130 173 226 282 335 404
#     4  11  22  45  68  98 134 186 225 275 351 408
#
# _framework density 21.448304
#
# number of rings (size 3 to 8) (size 9 to 14) (size 15 to 20)
#    0.000    0.857    4.286    3.000    4.000    0.000 
#    0.000    3.571    0.000    0.000    0.000    0.000 
#    0.000    0.000    0.000    0.000    0.000    0.000 
#
# Total GULP energy -347008.332198 kJ/mol
# GULP energy per Si atom -12393.154721 kJ/mol
# Density = 2.139949 g / cm^3
# Si number density = 21.448304 Si / 1000 Ang^3
#
#
#
# Elastic Constant Matrix: (Units=GPa)
#
#
# Indices 1 2 3 4 5 6 
#
# 1 49.3727 12.1961 26.0981 0.0000 -1.2230 0.0000
# 2 12.1961 101.6866 40.3347 0.0000 4.8456 0.0000
# 3 26.0981 40.3347 135.5898 0.0000 -10.3369 0.0000
# 4 0.0000 0.0000 0.0000 32.2106 0.0000 2.2605
# 5 -1.2230 4.8456 -10.3369 0.0000 31.8247 0.0000
# 6 0.0000 0.0000 0.0000 2.2605 0.0000 30.9025
#
#
#
# Elastic Compliance Matrix: (Units=1/GPa)
#
#
# Indices 1 2 3 4 5 6 
#
# 1 0.022663 -0.001095 -0.004058 0.000000 -0.000280 0.000000
# 2 -0.001095 0.011460 -0.003419 0.000000 -0.002897 0.000000
# 3 -0.004058 -0.003419 0.009435 0.000000 0.003429 0.000000
# 4 0.000000 0.000000 0.000000 0.031206 0.000000 -0.002283
# 5 -0.000280 -0.002897 0.003429 0.000000 0.032966 0.000000
# 6 0.000000 0.000000 0.000000 -0.002283 0.000000 0.032527
#
#
# Mechanical properties :
#
#
# Convention : Reuss Voigt Hill
#
# Bulk Modulus (GPa) = 37.86000 49.32302 43.59151
# Shear Modulus (GPa) = 30.08342 32.85555 31.46948
#
# Velocity S-wave (km/s) = 3.74919 3.91813 3.83459
# Velocity P-wave (km/s) = 6.03589 6.59660 6.32247
#
# Compressibility (1/GPa) = 0.02641310
#
# Stress axis : x y z
#
# Youngs Moduli (GPa) = 44.12564 87.26173 105.99156
#
# Poissons Ratio (x) = 0.09558 0.43007
# Poissons Ratio (y) = 0.04833 0.36239
# Poissons Ratio (z) = 0.17904 0.29836
#
# Static dielectric constant tensor:
#      x y z
#    x 3.624330 0.000000 -0.076360 
#    y 0.000000 5.631610 0.000000 
#    z -0.076360 0.000000 4.247980 
# 
# 
# High freq. dielectric constant tensor:
#      x y z
#    x 1.805510 0.000000 0.004350 
#    y 0.000000 1.852620 0.000000 
#    z 0.004350 0.000000 1.868120 
# 
# From -- ./inp_files/209616.got.cif
#   From: 2010.06.25/outbox.cif.g09.slc.cpg/sg15_105_cif.got.tgz:209616.got - 2010.06.28 07:06:18.
