data_PCOD8149701
_publ_section_title
;
Structure prediction by ZEFSAII (Michael W. Deem and Ramdas Pophale) SiO2 
 PCOD8149701
Probable space group: C 2/C
;
_chemical_formula_sum "Si O2"
_cell_formula_units_Z 52
_cell_length_a 9.630970
_cell_length_b 15.124282
_cell_length_c 30.648812
_cell_angle_alpha 90.000000
_cell_angle_beta 142.918431
_cell_angle_gamma 90.000000
_cell_volume 2691.787309
_symmetry_space_group_name_H-M "C 2/C"
_symmetry_group_IT_number 15
_symmetry_cell_setting 'monoclinic'
loop_
_space_group_symop_operation_xyz
x,y,z
-x,y,1/2-z
-x,-y,-z
x,-y,1/2+z
1/2+x,1/2+y,z
1/2-x,1/2+y,1/2-z
1/2-x,1/2-y,-z
1/2+x,1/2-y,1/2+z
loop_
_atom_site_type_symbol
_atom_site_label
_atom_site_fract_x
_atom_site_fract_y
_atom_site_fract_z
Si Si1 0.217007 0.503116 0.475482
Si Si2 0.742470 0.478022 0.615788
Si Si3 0.457716 0.812523 0.540065
Si Si4 0.113302 0.711416 0.325614
Si Si5 0.750251 0.241861 0.191248
Si Si6 0.500000 0.910608 0.250000
Si Si7 0.455211 0.186344 0.538284
O O1 0.482513 0.511694 0.556409
O O2 0.182470 0.510868 0.415177
O O3 0.087769 0.584198 0.465120
O O4 0.101027 0.413700 0.463164
O O5 0.742428 0.377844 0.632452
O O6 0.927815 0.530937 0.690762
O O7 0.250000 0.750000 0.500000
O O8 0.660306 0.777694 0.620792
O O9 0.528235 0.797962 0.508585
O O10 0.297662 0.790003 0.378172
O O11 0.000000 0.720689 0.250000
O O12 0.911954 0.706566 0.311187
O O13 0.000000 0.194340 0.250000
O O14 0.783638 0.347385 0.208293
O O15 0.250000 0.250000 0.500000
#
# Coordination Sequence:
#
# PCOD8149701 Si02
#       7
#     8   8   8   8   8   4   8
#     4  11  25  42  69 103 131 175 229 281 340 394
#     4  11  22  43  69  98 133 176 229 274 333 408
#     4  12  23  47  71  96 138 176 231 279 334 405
#     4  12  25  46  66 101 139 176 220 280 340 404
#     4  10  25  43  67  97 131 182 222 266 341 398
#     4  10  24  40  70  92 128 184 222 268 328 408
#     4  12  27  43  69 105 135 178 224 288 339 396
#
# _framework density 19.318021000000002
#
# number of rings (size 3 to 8) (size 9 to 14) (size 15 to 20)
#    0.462    0.308    5.385    1.385    8.615    0.000 
#    0.000    0.769    0.000    0.000    0.000    0.000 
#    0.000    0.000    0.000    0.000    0.000    0.000 
#
# Total GULP energy -322343.394060 kJ/mol
# GULP energy per Si atom -12397.822848 kJ/mol
# Density = 1.927405 g / cm^3
# Si number density = 19.318021 Si / 1000 Ang^3
#
#
#
# Elastic Constant Matrix: (Units=GPa)
#
#
# Indices 1 2 3 4 5 6 
#
# 1 113.8851 34.7999 70.7792 0.0000 -11.2902 0.0000
# 2 34.7999 121.3315 49.3336 0.0000 -2.2339 0.0000
# 3 70.7792 49.3336 163.3556 0.0002 -17.5072 0.0001
# 4 0.0000 0.0000 0.0002 33.5383 0.0000 4.0731
# 5 -11.2902 -2.2339 -17.5072 0.0000 38.3285 0.0000
# 6 0.0000 0.0000 0.0001 4.0731 0.0000 32.1895
#
#
#
# Elastic Compliance Matrix: (Units=1/GPa)
#
#
# Indices 1 2 3 4 5 6 
#
# 1 0.012336 -0.001596 -0.004714 0.000000 0.001387 0.000000
# 2 -0.001596 0.009625 -0.002319 0.000000 -0.000968 0.000000
# 3 -0.004714 -0.002319 0.009149 0.000000 0.002655 0.000000
# 4 0.000000 0.000000 0.000000 0.030282 0.000000 -0.003832
# 5 0.001387 -0.000968 0.002655 0.000000 0.027655 0.000000
# 6 0.000000 0.000000 0.000000 -0.003832 0.000000 0.031551
#
#
# Mechanical properties :
#
#
# Convention : Reuss Voigt Hill
#
# Bulk Modulus (GPa) = 72.19431 78.71084 75.45257
# Shear Modulus (GPa) = 35.09434 37.05523 36.07478
#
# Velocity S-wave (km/s) = 4.26686 4.38444 4.32605
# Velocity P-wave (km/s) = 7.85668 8.15257 8.00599
#
# Compressibility (1/GPa) = 0.01385151
#
# Stress axis : x y z
#
# Youngs Moduli (GPa) = 81.06446 103.89977 109.29966
#
# Poissons Ratio (x) = 0.16580 0.51527
# Poissons Ratio (y) = 0.12936 0.25347
# Poissons Ratio (z) = 0.38216 0.24095
#
# Static dielectric constant tensor:
#      x y z
#    x 3.474290 0.000000 -0.036950 
#    y 0.000000 3.667740 0.000000 
#    z -0.036950 0.000000 3.683200 
# 
# 
# High freq. dielectric constant tensor:
#      x y z
#    x 1.751680 0.000000 -0.004380 
#    y 0.000000 1.759050 0.000000 
#    z -0.004380 0.000000 1.770590 
# 
# From -- ./inp_files/308338.got.cif
#   From: 2010.06.25/outbox.cif.g09.slc.cpg/sg15_155_cif.got.tgz:308338.got - 2010.06.28 07:06:18.
