data_PCOD8149693
_publ_section_title
;
Structure prediction by ZEFSAII (Michael W. Deem and Ramdas Pophale) SiO2 
 PCOD8149693
Probable space group: C 2/C
;
_chemical_formula_sum "Si O2"
_cell_formula_units_Z 56
_cell_length_a 11.339318
_cell_length_b 13.990849
_cell_length_c 17.663931
_cell_angle_alpha 90.000000
_cell_angle_beta 117.067389
_cell_angle_gamma 90.000000
_cell_volume 2495.390997
_symmetry_space_group_name_H-M "C 2/C"
_symmetry_group_IT_number 15
_symmetry_cell_setting 'monoclinic'
loop_
_space_group_symop_operation_xyz
x,y,z
-x,y,1/2-z
-x,-y,-z
x,-y,1/2+z
1/2+x,1/2+y,z
1/2-x,1/2+y,1/2-z
1/2-x,1/2-y,-z
1/2+x,1/2-y,1/2+z
loop_
_atom_site_type_symbol
_atom_site_label
_atom_site_fract_x
_atom_site_fract_y
_atom_site_fract_z
Si Si1 0.199712 0.081264 0.769201
Si Si2 0.000000 0.757879 0.250000
Si Si3 0.165151 0.596528 0.839908
Si Si4 0.842278 0.605787 0.120067
Si Si5 0.154903 0.478847 0.036671
Si Si6 0.600944 0.392220 0.665803
Si Si7 0.000000 0.755126 0.750000
Si Si8 0.312077 0.354570 0.516913
O O1 0.112855 0.176079 0.748567
O O2 0.314234 0.102786 0.743298
O O3 0.274342 0.062377 0.868891
O O4 0.109134 0.995505 0.708797
O O5 0.945520 0.690502 0.166462
O O6 0.092862 0.496594 0.838844
O O7 0.072682 0.687249 0.833087
O O8 0.301231 0.604563 0.927698
O O9 0.712188 0.622179 0.134330
O O10 0.814204 0.598493 0.021608
O O11 0.218363 0.581804 0.041985
O O12 0.000000 0.500000 0.000000
O O13 0.610757 0.317704 0.738342
O O14 0.461418 0.369692 0.586009
O O15 0.250000 0.250000 0.500000
#
# Coordination Sequence:
#
# PCOD8149693 Si02
#       8
#     8   4   8   8   8   8   4   8
#     4  11  26  44  68 103 141 193 233 296 359 438
#     4  12  24  44  70 100 144 186 240 284 366 428
#     4  10  24  40  69 100 136 182 235 289 357 424
#     4  10  26  45  68 102 140 193 232 304 353 432
#     4  11  27  46  72 103 148 192 243 300 368 433
#     4  11  24  45  73 104 147 180 240 296 368 431
#     4  12  20  38  72 102 134 184 232 292 348 436
#     4  11  23  44  70 110 138 184 239 303 363 436
#
# _framework density 22.441374
#
# number of rings (size 3 to 8) (size 9 to 14) (size 15 to 20)
#    0.000    1.143    1.429    3.429    8.000    9.143 
#    0.000    0.000    0.000    0.000    0.000    0.000 
#    0.000    0.000    0.000    0.000    0.000    0.000 
#
# Total GULP energy -346949.657548 kJ/mol
# GULP energy per Si atom -12391.059198 kJ/mol
# Density = 2.239030 g / cm^3
# Si number density = 22.441374 Si / 1000 Ang^3
#
#
#
# Elastic Constant Matrix: (Units=GPa)
#
#
# Indices 1 2 3 4 5 6 
#
# 1 91.5769 42.4666 56.6118 0.0000 -1.1847 0.0000
# 2 42.4666 148.2169 66.6595 0.0000 6.3717 0.0000
# 3 56.6118 66.6595 171.5908 0.0000 -1.5465 0.0000
# 4 0.0000 0.0000 0.0000 28.3887 0.0000 12.5734
# 5 -1.1847 6.3717 -1.5465 0.0000 44.6168 0.0000
# 6 0.0000 0.0000 0.0000 12.5734 0.0000 32.0381
#
#
#
# Elastic Compliance Matrix: (Units=1/GPa)
#
#
# Indices 1 2 3 4 5 6 
#
# 1 0.014410 -0.002446 -0.003799 0.000000 0.000600 0.000000
# 2 -0.002446 0.008664 -0.002571 0.000000 -0.001391 0.000000
# 3 -0.003799 -0.002571 0.008085 0.000000 0.000547 0.000000
# 4 0.000000 0.000000 0.000000 0.042636 0.000000 -0.016733
# 5 0.000600 -0.001391 0.000547 0.000000 0.022647 0.000000
# 6 0.000000 0.000000 0.000000 -0.016733 0.000000 0.037780
#
#
# Mechanical properties :
#
#
# Convention : Reuss Voigt Hill
#
# Bulk Modulus (GPa) = 73.92631 82.54006 78.23319
# Shear Modulus (GPa) = 31.97698 37.38515 34.68107
#
# Velocity S-wave (km/s) = 3.77890 4.08598 3.93543
# Velocity P-wave (km/s) = 7.21482 7.68898 7.45567
#
# Compressibility (1/GPa) = 0.01352698
#
# Stress axis : x y z
#
# Youngs Moduli (GPa) = 69.39565 115.42065 123.68813
#
# Poissons Ratio (x) = 0.28234 0.46983
# Poissons Ratio (y) = 0.16975 0.31803
# Poissons Ratio (z) = 0.26360 0.29678
#
# Static dielectric constant tensor:
#      x y z
#    x 4.120490 0.000000 -0.115900 
#    y 0.000000 4.442390 0.000000 
#    z -0.115900 0.000000 4.458980 
# 
# 
# High freq. dielectric constant tensor:
#      x y z
#    x 1.873360 0.000000 -0.001260 
#    y 0.000000 1.903170 0.000000 
#    z -0.001260 0.000000 1.899930 
# 
# From -- ./inp_files/198450.got.cif
#   From: 2010.06.25/outbox.cif.g09.slc.cpg/sg15_100_cif.got.tgz:198450.got - 2010.06.28 07:06:18.
