data_PCOD8149261
_publ_section_title
;
Structure prediction by ZEFSAII (Michael W. Deem and Ramdas Pophale) SiO2 
 PCOD8149261
Probable space group: C 2/C
;
_chemical_formula_sum "Si O2"
_cell_formula_units_Z 40
_cell_length_a 24.850906
_cell_length_b 10.262080
_cell_length_c 14.678011
_cell_angle_alpha 90.000000
_cell_angle_beta 152.319894
_cell_angle_gamma 90.000000
_cell_volume 1738.853100
_symmetry_space_group_name_H-M "C 2/C"
_symmetry_group_IT_number 15
_symmetry_cell_setting 'monoclinic'
loop_
_space_group_symop_operation_xyz
x,y,z
-x,y,1/2-z
-x,-y,-z
x,-y,1/2+z
1/2+x,1/2+y,z
1/2-x,1/2+y,1/2-z
1/2-x,1/2-y,-z
1/2+x,1/2-y,1/2+z
loop_
_atom_site_type_symbol
_atom_site_label
_atom_site_fract_x
_atom_site_fract_y
_atom_site_fract_z
Si Si1 0.253087 0.974318 0.327472
Si Si2 0.000000 0.555505 0.750000
Si Si3 0.159910 0.249808 0.143597
Si Si4 0.208508 0.101018 0.948506
Si Si5 0.915136 0.585366 0.812028
Si Si6 0.500000 0.670746 0.750000
O O1 0.386525 0.969651 0.561232
O O2 0.219506 0.109205 0.229887
O O3 0.243305 0.856646 0.240345
O O4 0.171131 0.946904 0.291453
O O5 0.027993 0.635149 0.698412
O O6 0.117446 0.283714 0.181764
O O7 0.053708 0.256338 0.912659
O O8 0.100557 0.084374 0.854827
O O9 0.250000 0.250000 0.000000
O O10 0.305692 0.006493 0.133009
O O11 0.000000 0.500000 0.000000
#
# Coordination Sequence:
#
# PCOD8149261 Si02
#       6
#     8   4   8   8   8   4
#     4  11  25  45  74 106 145 191 253 302 370 447
#     4  10  23  44  73 106 141 194 245 302 365 448
#     4  12  25  44  73 109 143 197 246 306 369 445
#     4  11  24  43  70 107 148 194 246 308 369 447
#     4  11  23  42  75 105 143 196 251 302 366 457
#     4  12  25  44  73 104 153 196 245 304 383 442
#
# _framework density 23.003667
#
# number of rings (size 3 to 8) (size 9 to 14) (size 15 to 20)
#    0.000    0.800    4.000    3.000    0.000    5.600 
#    0.000    7.000    0.000    0.000    0.000    0.000 
#    0.000    0.000    0.000    0.000    0.000    0.000 
#
# Total GULP energy -247851.725118 kJ/mol
# GULP energy per Si atom -12392.586256 kJ/mol
# Density = 2.295131 g / cm^3
# Si number density = 23.003667 Si / 1000 Ang^3
#
#
#
# Elastic Constant Matrix: (Units=GPa)
#
#
# Indices 1 2 3 4 5 6 
#
# 1 233.8665 58.9987 52.0887 0.0000 -5.2616 0.0000
# 2 58.9987 133.8251 41.0369 0.0000 -11.2703 0.0000
# 3 52.0887 41.0369 76.4148 0.0000 -3.7434 0.0000
# 4 0.0000 0.0000 0.0000 17.8896 0.0000 -5.6374
# 5 -5.2616 -11.2703 -3.7434 0.0000 39.1731 0.0000
# 6 0.0000 0.0000 0.0000 -5.6374 0.0000 45.4137
#
#
#
# Elastic Compliance Matrix: (Units=1/GPa)
#
#
# Indices 1 2 3 4 5 6 
#
# 1 0.005270 -0.001461 -0.002807 0.000000 0.000019 0.000000
# 2 -0.001461 0.009530 -0.004016 0.000000 0.002162 0.000000
# 3 -0.002807 -0.004016 0.017162 0.000000 0.000108 0.000000
# 4 0.000000 0.000000 0.000000 0.058174 0.000000 0.007221
# 5 0.000019 0.002162 0.000108 0.000000 0.026163 0.000000
# 6 0.000000 0.000000 0.000000 0.007221 0.000000 0.022916
#
#
# Mechanical properties :
#
#
# Convention : Reuss Voigt Hill
#
# Bulk Modulus (GPa) = 64.96019 83.15056 74.05538
# Shear Modulus (GPa) = 31.07247 39.96077 35.51662
#
# Velocity S-wave (km/s) = 3.67926 4.17243 3.93358
# Velocity P-wave (km/s) = 6.80806 7.70956 7.27279
#
# Compressibility (1/GPa) = 0.01539404
#
# Stress axis : x y z
#
# Youngs Moduli (GPa) = 189.74838 104.92999 58.26898
#
# Poissons Ratio (x) = 0.15331 0.16355
# Poissons Ratio (y) = 0.27724 0.23401
# Poissons Ratio (z) = 0.53259 0.42141
#
# Static dielectric constant tensor:
#      x y z
#    x 5.032190 0.000000 -0.334980 
#    y 0.000000 3.773310 0.000000 
#    z -0.334980 0.000000 4.766450 
# 
# 
# High freq. dielectric constant tensor:
#      x y z
#    x 1.939170 0.000000 -0.011530 
#    y 0.000000 1.882500 0.000000 
#    z -0.011530 0.000000 1.894770 
# 
# From -- ./inp_files/150809.got.cif
#   From: 2010.06.25/outbox.cif.g09.slc.cpg/sg15_76_cif.got.tgz:150809.got - 2010.06.28 07:06:18.
