data_PCOD8149094
_publ_section_title
;
Structure prediction by ZEFSAII (Michael W. Deem and Ramdas Pophale) SiO2 
 PCOD8149094
Probable space group: C 2/C
;
_chemical_formula_sum "Si O2"
_cell_formula_units_Z 24
_cell_length_a 11.702881
_cell_length_b 9.607819
_cell_length_c 10.834503
_cell_angle_alpha 90.000000
_cell_angle_beta 69.162853
_cell_angle_gamma 90.000000
_cell_volume 1138.544909
_symmetry_space_group_name_H-M "C 2/C"
_symmetry_group_IT_number 15
_symmetry_cell_setting 'monoclinic'
loop_
_space_group_symop_operation_xyz
x,y,z
-x,y,1/2-z
-x,-y,-z
x,-y,1/2+z
1/2+x,1/2+y,z
1/2-x,1/2+y,1/2-z
1/2-x,1/2-y,-z
1/2+x,1/2-y,1/2+z
loop_
_atom_site_type_symbol
_atom_site_label
_atom_site_fract_x
_atom_site_fract_y
_atom_site_fract_z
Si Si1 0.448210 0.782036 0.894229
Si Si2 0.709772 0.777918 0.878242
Si Si3 0.750739 0.592980 0.637713
O O1 0.500000 0.856617 0.750000
O O2 0.564639 0.746393 0.933499
O O3 0.374616 0.642518 0.881127
O O4 0.361567 0.887850 0.999372
O O5 0.775549 0.678918 0.753359
O O6 0.751657 0.932414 0.824214
O O7 0.750000 0.750000 0.000000
#
# Coordination Sequence:
#
# PCOD8149094 Si02
#       3
#     8   8   8
#     4   9  21  43  68  89 133 172 214 274 324 379
#     4  11  25  41  67 100 130 175 220 264 339 389
#     4  10  23  44  66  94 135 170 221 273 323 392
#
# _framework density 21.079536999999998
#
# number of rings (size 3 to 8) (size 9 to 14) (size 15 to 20)
#    0.000    2.000    0.000    1.000   14.000    2.667 
#   12.000    0.000    0.000    0.000    0.000    0.000 
#    0.000    0.000    0.000    0.000    0.000    0.000 
#
# Total GULP energy -148772.673023 kJ/mol
# GULP energy per Si atom -12397.722752 kJ/mol
# Density = 2.103156 g / cm^3
# Si number density = 21.079537 Si / 1000 Ang^3
#
#
#
# Elastic Constant Matrix: (Units=GPa)
#
#
# Indices 1 2 3 4 5 6 
#
# 1 136.0782 35.6230 69.9463 0.0000 23.8316 0.0000
# 2 35.6230 160.4293 73.5650 0.0000 9.5714 0.0000
# 3 69.9463 73.5650 163.1748 0.0000 8.7122 0.0000
# 4 0.0000 0.0000 0.0000 34.4450 0.0000 7.2336
# 5 23.8316 9.5714 8.7122 0.0000 40.1499 0.0000
# 6 0.0000 0.0000 0.0000 7.2336 0.0000 21.3765
#
#
#
# Elastic Compliance Matrix: (Units=1/GPa)
#
#
# Indices 1 2 3 4 5 6 
#
# 1 0.010427 -0.000101 -0.004143 0.000000 -0.005266 0.000000
# 2 -0.000101 0.007909 -0.003465 0.000000 -0.001073 0.000000
# 3 -0.004143 -0.003465 0.009400 0.000000 0.001245 0.000000
# 4 0.000000 0.000000 0.000000 0.031253 0.000000 -0.010576
# 5 -0.005266 -0.001073 0.001245 0.000000 0.028018 0.000000
# 6 0.000000 0.000000 0.000000 -0.010576 0.000000 0.050359
#
#
# Mechanical properties :
#
#
# Convention : Reuss Voigt Hill
#
# Bulk Modulus (GPa) = 81.18496 90.88343 86.03419
# Shear Modulus (GPa) = 31.86978 37.89749 34.88363
#
# Velocity S-wave (km/s) = 3.89251 4.24469 4.07241
# Velocity P-wave (km/s) = 7.66808 8.19947 7.93822
#
# Compressibility (1/GPa) = 0.01231755
#
# Stress axis : x y z
#
# Youngs Moduli (GPa) = 95.90564 126.44517 106.38631
#
# Poissons Ratio (x) = 0.01283 0.44072
# Poissons Ratio (y) = 0.00973 0.36859
# Poissons Ratio (z) = 0.39731 0.43809
#
# Static dielectric constant tensor:
#      x y z
#    x 4.144000 0.000000 -0.048890 
#    y 0.000000 3.620560 0.000000 
#    z -0.048890 0.000000 3.996090 
# 
# 
# High freq. dielectric constant tensor:
#      x y z
#    x 1.833940 0.000000 0.002260 
#    y 0.000000 1.803210 0.000000 
#    z 0.002260 0.000000 1.843230 
# 
# From -- ./inp_files/27057.got.cif
#   From: 2010.06.25/outbox.cif.g09.slc.cpg/sg15_14_cif.got.tgz:27057.got - 2010.06.28 07:06:18.
