data_PCOD8149461
_publ_section_title
;
Structure prediction by ZEFSAII (Michael W. Deem and Ramdas Pophale) SiO2 
 PCOD8149461
Probable space group: C 2/C
;
_chemical_formula_sum "Si O2"
_cell_formula_units_Z 32
_cell_length_a 13.797334
_cell_length_b 4.947509
_cell_length_c 22.360392
_cell_angle_alpha 90.000000
_cell_angle_beta 128.521448
_cell_angle_gamma 90.000000
_cell_volume 1194.197582
_symmetry_space_group_name_H-M "C 2/C"
_symmetry_group_IT_number 15
_symmetry_cell_setting 'monoclinic'
loop_
_space_group_symop_operation_xyz
x,y,z
-x,y,1/2-z
-x,-y,-z
x,-y,1/2+z
1/2+x,1/2+y,z
1/2-x,1/2+y,1/2-z
1/2-x,1/2-y,-z
1/2+x,1/2-y,1/2+z
loop_
_atom_site_type_symbol
_atom_site_label
_atom_site_fract_x
_atom_site_fract_y
_atom_site_fract_z
Si Si1 0.842749 0.279606 0.157881
Si Si2 0.666291 0.299976 0.717485
Si Si3 0.573478 0.073368 0.086768
Si Si4 0.867643 0.215307 0.587696
O O1 0.911763 0.245101 0.249747
O O2 0.698999 0.218971 0.116462
O O3 0.857357 0.582601 0.139746
O O4 0.884815 0.081385 0.121384
O O5 0.710461 0.608625 0.729107
O O6 0.593507 0.206722 0.630768
O O7 0.492177 0.265607 0.097600
O O8 0.500000 0.000000 0.000000
O O9 0.750000 0.250000 0.500000
#
# Coordination Sequence:
#
# PCOD8149461 Si02
#       4
#     8   8   8   8
#     4  11  25  48  70 101 149 179 240 297 347 429
#     4  10  23  46  72 103 141 191 236 292 360 420
#     4  11  25  46  76 105 143 191 236 293 362 419
#     4  12  26  44  74 108 138 187 238 293 356 421
#
# _framework density 26.796237999999999
#
# number of rings (size 3 to 8) (size 9 to 14) (size 15 to 20)
#    0.000    1.000    2.500    3.750    0.000    8.000 
#    0.000    7.500    0.000    0.000    0.000    0.000 
#    0.000    0.000    0.000    0.000    0.000    0.000 
#
# Total GULP energy -198452.445872 kJ/mol
# GULP energy per Si atom -12403.277867 kJ/mol
# Density = 2.673525 g / cm^3
# Si number density = 26.796238 Si / 1000 Ang^3
#
#
#
# Elastic Constant Matrix: (Units=GPa)
#
#
# Indices 1 2 3 4 5 6 
#
# 1 116.3989 15.5417 5.9669 0.0000 -37.5619 -0.0001
# 2 15.5417 64.4421 4.8973 0.0000 1.7129 -0.0001
# 3 5.9669 4.8973 183.2227 0.0000 -15.6893 0.0000
# 4 0.0000 0.0000 0.0000 41.4972 0.0000 -14.5103
# 5 -37.5619 1.7129 -15.6893 0.0000 38.5046 0.0000
# 6 -0.0001 -0.0001 0.0000 -14.5103 0.0000 49.5140
#
#
#
# Elastic Compliance Matrix: (Units=1/GPa)
#
#
# Indices 1 2 3 4 5 6 
#
# 1 0.013425 -0.003662 0.000825 0.000000 0.013595 0.000000
# 2 -0.003662 0.016578 -0.000718 0.000000 -0.004602 0.000000
# 3 0.000825 -0.000718 0.005721 0.000000 0.003168 0.000000
# 4 0.000000 0.000000 0.000000 0.026849 0.000000 0.007868
# 5 0.013595 -0.004602 0.003168 0.000000 0.040729 0.000000
# 6 0.000000 0.000000 0.000000 0.007868 0.000000 0.022502
#
#
# Mechanical properties :
#
#
# Convention : Reuss Voigt Hill
#
# Bulk Modulus (GPa) = 34.94739 46.31950 40.63345
# Shear Modulus (GPa) = 35.09940 48.41369 41.75655
#
# Velocity S-wave (km/s) = 3.62313 4.25518 3.95181
# Velocity P-wave (km/s) = 5.52928 6.43937 6.00160
#
# Compressibility (1/GPa) = 0.02861444
#
# Stress axis : x y z
#
# Youngs Moduli (GPa) = 74.48794 60.32159 174.78152
#
# Poissons Ratio (x) = 0.22089 -0.14417
# Poissons Ratio (y) = 0.27276 0.12548
# Poissons Ratio (z) = -0.06144 0.04331
#
# Static dielectric constant tensor:
#      x y z
#    x 5.098650 0.000000 0.050580 
#    y 0.000000 4.913000 0.000000 
#    z 0.050580 0.000000 5.022140 
# 
# 
# High freq. dielectric constant tensor:
#      x y z
#    x 2.111060 0.000000 -0.006460 
#    y 0.000000 2.073040 0.000000 
#    z -0.006460 0.000000 2.102730 
# 
# From -- ./inp_files/241246.got.cif
#   From: 2010.06.25/outbox.cif.g09.slc.cpg/sg15_121_cif.got.tgz:241246.got - 2010.06.28 07:06:18.
