data_PCOD8149807
_publ_section_title
;
Structure prediction by ZEFSAII (Michael W. Deem and Ramdas Pophale) SiO2 
 PCOD8149807
Probable space group: C 2/C
;
_chemical_formula_sum "Si O2"
_cell_formula_units_Z 44
_cell_length_a 36.556806
_cell_length_b 11.473274
_cell_length_c 4.831538
_cell_angle_alpha 90.000000
_cell_angle_beta 66.639340
_cell_angle_gamma 90.000000
_cell_volume 1860.357926
_symmetry_space_group_name_H-M "C 2/C"
_symmetry_group_IT_number 15
_symmetry_cell_setting 'monoclinic'
loop_
_space_group_symop_operation_xyz
x,y,z
-x,y,1/2-z
-x,-y,-z
x,-y,1/2+z
1/2+x,1/2+y,z
1/2-x,1/2+y,1/2-z
1/2-x,1/2-y,-z
1/2+x,1/2-y,1/2+z
loop_
_atom_site_type_symbol
_atom_site_label
_atom_site_fract_x
_atom_site_fract_y
_atom_site_fract_z
Si Si1 0.500000 0.249999 0.750000
Si Si2 0.630428 0.249994 0.358728
Si Si3 0.935580 0.919882 0.152496
Si Si4 0.564414 0.919883 0.266027
Si Si5 0.183647 0.749992 0.699065
Si Si6 0.750002 0.076026 0.319664
O O1 0.527165 0.333264 0.481194
O O2 0.472841 0.166734 0.644133
O O3 0.604821 0.353418 0.301489
O O4 0.604816 0.146580 0.569616
O O5 0.657108 0.301012 0.527954
O O6 0.657109 0.198969 0.029417
O O7 0.937469 0.963065 0.462343
O O8 0.562526 0.963063 0.587208
O O9 0.210158 0.646262 0.501420
O O10 0.210157 0.853724 0.737642
O O11 0.750004 0.956658 0.496436
#
# Coordination Sequence:
#
# PCOD8149807 Si02
#       6
#     4   8   8   8   8   8
#     4  10  24  42  64  90 124 160 204 252 296 356
#     4  11  24  40  62  91 124 158 200 251 300 356
#     4  11  24  41  63  91 122 161 203 247 302 357
#     4  11  24  41  63  91 122 161 203 247 302 357
#     4  11  24  42  62  91 124 156 202 251 296 360
#     4  11  24  41  64  90 120 161 202 245 302 358
#
# _framework density 23.651364000000001
#
# number of rings (size 3 to 8) (size 9 to 14) (size 15 to 20)
#    0.000    1.091    0.000    5.455    0.000   17.455 
#    0.000    0.000    0.000    0.000    0.000    0.000 
#    0.000    0.000    0.000    0.000    0.000    0.000 
#
# Total GULP energy -272954.540467 kJ/mol
# GULP energy per Si atom -12407.024567 kJ/mol
# Density = 2.359753 g / cm^3
# Si number density = 23.651364 Si / 1000 Ang^3
#
#
#
# Elastic Constant Matrix: (Units=GPa)
#
#
# Indices 1 2 3 4 5 6 
#
# 1 111.1662 24.1702 29.6426 0.0000 -23.8036 0.0000
# 2 24.1702 81.9631 -2.5028 0.0000 -11.3282 0.0000
# 3 29.6426 -2.5028 66.0574 0.0000 4.6446 0.0000
# 4 0.0000 0.0000 0.0000 33.7431 0.0000 6.5290
# 5 -23.8036 -11.3282 4.6446 0.0000 24.8303 0.0000
# 6 0.0000 0.0000 0.0000 6.5290 0.0000 18.3800
#
#
#
# Elastic Compliance Matrix: (Units=1/GPa)
#
#
# Indices 1 2 3 4 5 6 
#
# 1 0.014676 -0.002582 -0.007691 0.000000 0.014330 0.000000
# 2 -0.002582 0.013476 0.001430 0.000000 0.003405 0.000000
# 3 -0.007691 0.001430 0.019371 0.000000 -0.010344 0.000000
# 4 0.000000 0.000000 0.000000 0.031823 0.000000 -0.011304
# 5 0.014330 0.003405 -0.010344 0.000000 0.057500 0.000000
# 6 0.000000 0.000000 0.000000 -0.011304 0.000000 0.058422
#
#
# Mechanical properties :
#
#
# Convention : Reuss Voigt Hill
#
# Bulk Modulus (GPa) = 33.51564 40.20077 36.85821
# Shear Modulus (GPa) = 22.43140 29.24912 25.84026
#
# Velocity S-wave (km/s) = 3.08298 3.52046 3.30896
# Velocity P-wave (km/s) = 5.18406 5.79301 5.49697
#
# Compressibility (1/GPa) = 0.02983681
#
# Stress axis : x y z
#
# Youngs Moduli (GPa) = 68.13698 74.20371 51.62294
#
# Poissons Ratio (x) = 0.19161 0.39705
# Poissons Ratio (y) = 0.17594 -0.07382
# Poissons Ratio (z) = 0.52406 -0.10610
#
# Static dielectric constant tensor:
#      x y z
#    x 4.481760 0.000000 -0.093900 
#    y 0.000000 4.082050 0.000000 
#    z -0.093900 0.000000 4.260720 
# 
# 
# High freq. dielectric constant tensor:
#      x y z
#    x 1.954020 0.000000 -0.003540 
#    y 0.000000 1.934220 0.000000 
#    z -0.003540 0.000000 1.945690 
# 
# From -- ./inp_files/18033.got.cif
#   From: 2010.06.25/outbox.cif.g09.slc.cpg/sg15_10_cif.got.tgz:18033.got - 2010.06.28 07:06:18.
