data_PCOD8149189
_publ_section_title
;
Structure prediction by ZEFSAII (Michael W. Deem and Ramdas Pophale) SiO2 
 PCOD8149189
Probable space group: C 2/C
;
_chemical_formula_sum "Si O2"
_cell_formula_units_Z 48
_cell_length_a 5.502682
_cell_length_b 22.032869
_cell_length_c 23.139263
_cell_angle_alpha 90.000000
_cell_angle_beta 127.805880
_cell_angle_gamma 90.000000
_cell_volume 2216.525409
_symmetry_space_group_name_H-M "C 2/C"
_symmetry_group_IT_number 15
_symmetry_cell_setting 'monoclinic'
loop_
_space_group_symop_operation_xyz
x,y,z
-x,y,1/2-z
-x,-y,-z
x,-y,1/2+z
1/2+x,1/2+y,z
1/2-x,1/2+y,1/2-z
1/2-x,1/2-y,-z
1/2+x,1/2-y,1/2+z
loop_
_atom_site_type_symbol
_atom_site_label
_atom_site_fract_x
_atom_site_fract_y
_atom_site_fract_z
Si Si1 0.852193 0.984993 0.062166
Si Si2 0.693735 0.696462 0.671550
Si Si3 0.762564 0.661128 0.331956
Si Si4 0.674957 0.620107 0.558033
Si Si5 0.448792 0.618716 0.405879
Si Si6 0.347175 0.407806 0.169254
O O1 0.964469 0.952770 0.137228
O O2 0.926561 0.934530 0.024503
O O3 0.043287 0.046378 0.090031
O O4 0.500000 0.000000 0.000000
O O5 0.670381 0.768020 0.666737
O O6 0.655299 0.675133 0.599959
O O7 0.422722 0.663453 0.667846
O O8 0.000000 0.674614 0.750000
O O9 0.500000 0.638547 0.250000
O O10 0.629151 0.645204 0.376122
O O11 0.086267 0.632461 0.359833
O O12 0.637300 0.647054 0.487934
O O13 0.985410 0.584611 0.616847
O O14 0.500000 0.430941 0.250000
#
# Coordination Sequence:
#
# PCOD8149189 Si02
#       6
#     8   8   8   8   8   8
#     4  11  24  44  68  99 142 184 224 287 358 418
#     4  10  23  44  69  98 140 182 231 293 348 402
#     4  11  28  49  70 100 141 194 234 282 349 423
#     4  11  24  42  72 103 134 178 235 293 350 405
#     4  12  26  46  72 103 143 185 233 283 351 426
#     4  11  23  41  72 104 133 178 239 293 346 406
#
# _framework density 21.655515000000001
#
# number of rings (size 3 to 8) (size 9 to 14) (size 15 to 20)
#    0.000    1.000    3.333    2.000    7.000    2.000 
#    3.000    0.000    0.000    0.000    0.000    0.000 
#    0.000    0.000    0.000    0.000    0.000    0.000 
#
# Total GULP energy -297373.809003 kJ/mol
# GULP energy per Si atom -12390.575375 kJ/mol
# Density = 2.160623 g / cm^3
# Si number density = 21.655515 Si / 1000 Ang^3
#
#
#
# Elastic Constant Matrix: (Units=GPa)
#
#
# Indices 1 2 3 4 5 6 
#
# 1 129.9356 42.3210 58.9141 0.0000 6.2983 0.0000
# 2 42.3210 95.4790 53.5828 0.0000 0.7516 0.0000
# 3 58.9141 53.5828 153.3442 0.0000 -2.2362 0.0000
# 4 0.0000 0.0000 0.0000 20.8934 0.0000 24.8489
# 5 6.2983 0.7516 -2.2362 0.0000 43.5120 0.0000
# 6 0.0000 0.0000 0.0000 24.8489 0.0000 -15.8533
#
#
#
# Elastic Compliance Matrix: (Units=1/GPa)
#
#
# Indices 1 2 3 4 5 6 
#
# 1 0.009989 -0.002798 -0.002883 0.000000 -0.001546 0.000000
# 2 -0.002798 0.013821 -0.003755 0.000000 -0.000027 0.000000
# 3 -0.002883 -0.003755 0.008955 0.000000 0.000942 0.000000
# 4 0.000000 0.000000 0.000000 0.016711 0.000000 0.026193
# 5 -0.001546 -0.000027 0.000942 0.000000 0.023255 0.000000
# 6 0.000000 0.000000 0.000000 0.026193 0.000000 -0.022023
#
#
# Mechanical properties :
#
#
# Convention : Reuss Voigt Hill
#
# Bulk Modulus (GPa) = 71.97324 76.48829 74.23077
# Shear Modulus (GPa) = 67.37644 24.63980 46.00812
#
# Velocity S-wave (km/s) = 5.58394 3.37680 4.61428
# Velocity P-wave (km/s) = 8.65341 7.11343 7.92093
#
# Compressibility (1/GPa) = 0.01389405
#
# Stress axis : x y z
#
# Youngs Moduli (GPa) = 100.10612 72.35297 111.67359
#
# Poissons Ratio (x) = 0.20243 0.32193
# Poissons Ratio (y) = 0.28008 0.41933
# Poissons Ratio (z) = 0.28859 0.27168
#
# Static dielectric constant tensor:
#      x y z
#    x 4.410480 0.000000 -0.445320 
#    y 0.000000 3.967840 0.000000 
#    z -0.445320 0.000000 4.555850 
# 
# 
# High freq. dielectric constant tensor:
#      x y z
#    x 1.860270 0.000000 -0.006160 
#    y 0.000000 1.845960 0.000000 
#    z -0.006160 0.000000 1.870010 
# 
# From -- ./inp_files/228257.got.cif
#   From: 2010.06.25/outbox.cif.g09.slc.cpg/sg15_115_cif.got.tgz:228257.got - 2010.06.28 07:06:18.
