data_PCOD8149198
_publ_section_title
;
Structure prediction by ZEFSAII (Michael W. Deem and Ramdas Pophale) SiO2 
 PCOD8149198
Probable space group: C 2/C
;
_chemical_formula_sum "Si O2"
_cell_formula_units_Z 36
_cell_length_a 5.221396
_cell_length_b 18.802691
_cell_length_c 17.161932
_cell_angle_alpha 90.000000
_cell_angle_beta 119.512147
_cell_angle_gamma 90.000000
_cell_volume 1466.281951
_symmetry_space_group_name_H-M "C 2/C"
_symmetry_group_IT_number 15
_symmetry_cell_setting 'monoclinic'
loop_
_space_group_symop_operation_xyz
x,y,z
-x,y,1/2-z
-x,-y,-z
x,-y,1/2+z
1/2+x,1/2+y,z
1/2-x,1/2+y,1/2-z
1/2-x,1/2-y,-z
1/2+x,1/2-y,1/2+z
loop_
_atom_site_type_symbol
_atom_site_label
_atom_site_fract_x
_atom_site_fract_y
_atom_site_fract_z
Si Si1 0.222813 0.249216 0.152816
Si Si2 0.500000 0.663746 0.250000
Si Si3 0.415254 0.111944 0.111408
Si Si4 0.373048 0.902023 0.427390
Si Si5 0.255874 0.029487 0.649153
O O1 0.500000 0.263829 0.250000
O O2 0.277797 0.190556 0.094023
O O3 0.121163 0.319916 0.095752
O O4 0.972854 0.215520 0.170787
O O5 0.218549 0.612191 0.206449
O O6 0.210536 0.054537 0.125684
O O7 0.470920 0.089287 0.031133
O O8 0.624611 0.939265 0.414437
O O9 0.048939 0.935965 0.367981
O O10 0.500000 0.047274 0.750000
#
# Coordination Sequence:
#
# PCOD8149198 Si02
#       5
#     8   4   8   8   8
#     4  10  23  44  70 104 141 189 241 290 358 426
#     4  10  24  42  78 100 148 196 242 290 362 432
#     4  11  26  46  72 104 143 191 242 291 355 433
#     4  12  28  45  75 108 144 183 242 303 354 416
#     4  12  27  47  72 104 146 189 235 294 366 425
#
# _framework density 24.551893
#
# number of rings (size 3 to 8) (size 9 to 14) (size 15 to 20)
#    0.000    0.889    0.000    6.000   17.111    0.889 
#    0.000    0.000    0.000    0.000    0.000    0.000 
#    0.000    0.000    0.000    0.000    0.000    0.000 
#
# Total GULP energy -223220.374209 kJ/mol
# GULP energy per Si atom -12401.131901 kJ/mol
# Density = 2.449601 g / cm^3
# Si number density = 24.551893 Si / 1000 Ang^3
#
#
#
# Elastic Constant Matrix: (Units=GPa)
#
#
# Indices 1 2 3 4 5 6 
#
# 1 66.0460 11.3886 -15.7601 0.0000 -0.5974 0.0000
# 2 11.3886 114.8507 18.7583 0.0000 14.8833 0.0000
# 3 -15.7601 18.7583 70.7703 0.0000 -13.5521 0.0000
# 4 0.0000 0.0000 0.0000 37.8460 0.0000 -5.9275
# 5 -0.5974 14.8833 -13.5521 0.0000 31.3890 0.0000
# 6 0.0000 0.0000 0.0000 -5.9275 0.0000 19.7779
#
#
#
# Elastic Compliance Matrix: (Units=1/GPa)
#
#
# Indices 1 2 3 4 5 6 
#
# 1 0.017001 -0.003102 0.005398 0.000000 0.004125 0.000000
# 2 -0.003102 0.010768 -0.004942 0.000000 -0.007299 0.000000
# 3 0.005398 -0.004942 0.018653 0.000000 0.010500 0.000000
# 4 0.000000 0.000000 0.000000 0.027724 0.000000 0.008309
# 5 0.004125 -0.007299 0.010500 0.000000 0.039931 0.000000
# 6 0.000000 0.000000 0.000000 0.008309 0.000000 0.053052
#
#
# Mechanical properties :
#
#
# Convention : Reuss Voigt Hill
#
# Bulk Modulus (GPa) = 24.31354 31.16008 27.73681
# Shear Modulus (GPa) = 26.86278 33.62124 30.24201
#
# Velocity S-wave (km/s) = 3.31134 3.70455 3.51345
# Velocity P-wave (km/s) = 4.95423 5.56932 5.27075
#
# Compressibility (1/GPa) = 0.04112934
#
# Stress axis : x y z
#
# Youngs Moduli (GPa) = 58.81885 92.87110 53.61051
#
# Poissons Ratio (x) = 0.28810 -0.28940
# Poissons Ratio (y) = 0.18246 0.26497
# Poissons Ratio (z) = -0.31752 0.45902
#
# Static dielectric constant tensor:
#      x y z
#    x 4.391320 0.000000 -0.242450 
#    y 0.000000 4.559620 0.000000 
#    z -0.242450 0.000000 4.341970 
# 
# 
# High freq. dielectric constant tensor:
#      x y z
#    x 1.973150 0.000000 -0.017240 
#    y 0.000000 1.988810 0.000000 
#    z -0.017240 0.000000 1.980520 
# 
# From -- ./inp_files/128780.got.cif
#   From: 2010.06.25/outbox.cif.g09.slc.cpg/sg15_65_cif.got.tgz:128780.got - 2010.06.28 07:06:18.
