data_PCOD8149373
_publ_section_title
;
Structure prediction by ZEFSAII (Michael W. Deem and Ramdas Pophale) SiO2 
 PCOD8149373
Probable space group: C 2/C
;
_chemical_formula_sum "Si O2"
_cell_formula_units_Z 56
_cell_length_a 16.922679
_cell_length_b 8.586792
_cell_length_c 17.846844
_cell_angle_alpha 90.000000
_cell_angle_beta 112.451904
_cell_angle_gamma 90.000000
_cell_volume 2396.777174
_symmetry_space_group_name_H-M "C 2/C"
_symmetry_group_IT_number 15
_symmetry_cell_setting 'monoclinic'
loop_
_space_group_symop_operation_xyz
x,y,z
-x,y,1/2-z
-x,-y,-z
x,-y,1/2+z
1/2+x,1/2+y,z
1/2-x,1/2+y,1/2-z
1/2-x,1/2-y,-z
1/2+x,1/2-y,1/2+z
loop_
_atom_site_type_symbol
_atom_site_label
_atom_site_fract_x
_atom_site_fract_y
_atom_site_fract_z
Si Si1 0.136201 0.178385 0.496103
Si Si2 0.532689 0.832567 0.036938
Si Si3 0.809543 0.329870 0.133002
Si Si4 0.813891 0.684685 0.173676
Si Si5 0.117157 0.829577 0.443142
Si Si6 0.138511 0.800306 0.695170
Si Si7 0.550767 0.607273 0.698367
O O1 0.143206 0.295824 0.428188
O O2 0.209124 0.207817 0.584720
O O3 0.045179 0.210391 0.500847
O O4 0.146991 0.002772 0.472264
O O5 0.569646 0.822785 0.135582
O O6 0.613662 0.776350 0.016304
O O7 0.500000 0.000000 0.000000
O O8 0.828705 0.502907 0.167415
O O9 0.846660 0.220025 0.211164
O O10 0.814704 0.764246 0.091897
O O11 0.725814 0.720415 0.182238
O O12 0.888548 0.753412 0.252464
O O13 0.019834 0.816728 0.379950
O O14 0.103036 0.975603 0.672350
O O15 0.500000 0.529282 0.750000
#
# Coordination Sequence:
#
# PCOD8149373 Si02
#       7
#     8   8   8   8   8   8   8
#     4  11  25  48  73 102 142 196 237 290 370 439
#     4  12  28  43  71 105 142 190 244 300 356 431
#     4  11  26  43  72 106 145 182 237 305 356 425
#     4  11  25  43  70 109 139 185 235 300 352 423
#     4  11  24  47  71  97 143 189 242 286 361 438
#     4  12  26  44  72 105 143 189 235 296 366 427
#     4  10  23  45  72 102 139 193 240 294 362 437
#
# _framework density 23.364708
#
# number of rings (size 3 to 8) (size 9 to 14) (size 15 to 20)
#    0.000    0.857    1.429    4.714    6.000    5.714 
#    2.571    0.000    0.000    0.000    0.000    0.000 
#    0.000    0.000    0.000    0.000    0.000    0.000 
#
# Total GULP energy -347271.168102 kJ/mol
# GULP energy per Si atom -12402.541718 kJ/mol
# Density = 2.331153 g / cm^3
# Si number density = 23.364708 Si / 1000 Ang^3
#
#
#
# Elastic Constant Matrix: (Units=GPa)
#
#
# Indices 1 2 3 4 5 6 
#
# 1 94.6247 13.6266 21.2193 0.0000 -0.9376 0.0000
# 2 13.6266 97.8581 23.1714 0.0000 4.2393 0.0000
# 3 21.2193 23.1714 117.8626 0.0000 11.5703 0.0000
# 4 0.0000 0.0000 0.0000 39.9250 0.0000 -4.4426
# 5 -0.9376 4.2393 11.5703 0.0000 27.9530 0.0000
# 6 0.0000 0.0000 0.0000 -4.4426 0.0000 37.9386
#
#
#
# Elastic Compliance Matrix: (Units=1/GPa)
#
#
# Indices 1 2 3 4 5 6 
#
# 1 0.011178 -0.001161 -0.001916 0.000000 0.001344 0.000000
# 2 -0.001161 0.010855 -0.001834 0.000000 -0.000926 0.000000
# 3 -0.001916 -0.001834 0.009557 0.000000 -0.003742 0.000000
# 4 0.000000 0.000000 0.000000 0.025378 0.000000 0.002972
# 5 0.001344 -0.000926 -0.003742 0.000000 0.037509 0.000000
# 6 0.000000 0.000000 0.000000 0.002972 0.000000 0.026706
#
#
# Mechanical properties :
#
#
# Convention : Reuss Voigt Hill
#
# Bulk Modulus (GPa) = 45.93915 47.37553 46.65734
# Shear Modulus (GPa) = 36.16324 37.98522 37.07423
#
# Velocity S-wave (km/s) = 3.93844 4.03644 3.98774
# Velocity P-wave (km/s) = 6.35502 6.48416 6.41991
#
# Compressibility (1/GPa) = 0.02176793
#
# Stress axis : x y z
#
# Youngs Moduli (GPa) = 89.45923 92.12371 104.63136
#
# Poissons Ratio (x) = 0.10696 0.20049
# Poissons Ratio (y) = 0.10387 0.19191
# Poissons Ratio (z) = 0.17142 0.16897
#
# Static dielectric constant tensor:
#      x y z
#    x 4.335060 0.000000 -0.017060 
#    y 0.000000 3.961850 0.000000 
#    z -0.017060 0.000000 4.551700 
# 
# 
# High freq. dielectric constant tensor:
#      x y z
#    x 1.935120 0.000000 0.001820 
#    y 0.000000 1.912980 0.000000 
#    z 0.001820 0.000000 1.942990 
# 
# From -- ./inp_files/209649.got.cif
#   From: 2010.06.25/outbox.cif.g09.slc.cpg/sg15_105_cif.got.tgz:209649.got - 2010.06.28 07:06:18.
