data_PCOD8149150
_publ_section_title
;
Structure prediction by ZEFSAII (Michael W. Deem and Ramdas Pophale) SiO2 
 PCOD8149150
Probable space group: C 2/C
;
_chemical_formula_sum "Si O2"
_cell_formula_units_Z 44
_cell_length_a 10.531991
_cell_length_b 9.782865
_cell_length_c 27.297358
_cell_angle_alpha 90.000000
_cell_angle_beta 127.830596
_cell_angle_gamma 90.000000
_cell_volume 2221.413796
_symmetry_space_group_name_H-M "C 2/C"
_symmetry_group_IT_number 15
_symmetry_cell_setting 'monoclinic'
loop_
_space_group_symop_operation_xyz
x,y,z
-x,y,1/2-z
-x,-y,-z
x,-y,1/2+z
1/2+x,1/2+y,z
1/2-x,1/2+y,1/2-z
1/2-x,1/2-y,-z
1/2+x,1/2-y,1/2+z
loop_
_atom_site_type_symbol
_atom_site_label
_atom_site_fract_x
_atom_site_fract_y
_atom_site_fract_z
Si Si1 0.176715 0.306225 0.647977
Si Si2 0.155241 0.851982 0.572697
Si Si3 0.996249 0.409340 0.696023
Si Si4 0.428463 0.582632 0.552541
Si Si5 0.500000 0.832524 0.250000
Si Si6 0.346038 0.953823 0.433680
O O1 0.358841 0.260816 0.696582
O O2 0.179198 0.442644 0.616594
O O3 0.115014 0.334288 0.687783
O O4 0.068099 0.189631 0.598104
O O5 0.316732 0.912703 0.632935
O O6 0.170854 0.858638 0.517191
O O7 0.125131 0.696145 0.582141
O O8 0.004332 0.937429 0.556171
O O9 0.054542 0.566694 0.718251
O O10 0.000000 0.332465 0.750000
O O11 0.312016 0.553930 0.570156
O O12 0.500000 0.000000 0.500000
#
# Coordination Sequence:
#
# PCOD8149150 Si02
#       6
#     8   8   8   8   4   8
#     4  12  24  45  71  98 133 177 226 282 331 403
#     4  11  22  44  70  97 138 179 214 276 341 399
#     4  10  23  44  68  91 131 181 219 271 335 387
#     4  11  23  43  71 100 138 173 222 273 343 399
#     4  10  26  46  64  98 134 174 230 274 330 394
#     4  12  25  40  68 107 135 171 220 276 339 403
#
# _framework density 19.807206000000001
#
# number of rings (size 3 to 8) (size 9 to 14) (size 15 to 20)
#    0.545    0.364    5.455    1.636    0.000    6.545 
#    1.636    0.000    0.000    0.000    0.000    0.000 
#    0.000    0.000    0.000    0.000    0.000    0.000 
#
# Total GULP energy -272803.602850 kJ/mol
# GULP energy per Si atom -12400.163766 kJ/mol
# Density = 1.976212 g / cm^3
# Si number density = 19.807206 Si / 1000 Ang^3
#
#
#
# Elastic Constant Matrix: (Units=GPa)
#
#
# Indices 1 2 3 4 5 6 
#
# 1 67.0403 31.3428 34.8006 0.0000 -10.7255 0.0000
# 2 31.3428 132.1698 44.2633 0.0000 -10.3702 0.0000
# 3 34.8006 44.2633 129.5777 0.0000 -8.0488 0.0000
# 4 0.0000 0.0000 0.0000 32.8771 0.0000 -2.0623
# 5 -10.7255 -10.3702 -8.0488 0.0000 30.7129 0.0000
# 6 0.0000 0.0000 0.0000 -2.0623 0.0000 25.0135
#
#
#
# Elastic Compliance Matrix: (Units=1/GPa)
#
#
# Indices 1 2 3 4 5 6 
#
# 1 0.018987 -0.002852 -0.003835 0.000000 0.004662 0.000000
# 2 -0.002852 0.009115 -0.002255 0.000000 0.001491 0.000000
# 3 -0.003835 -0.002255 0.009543 0.000000 0.000400 0.000000
# 4 0.000000 0.000000 0.000000 0.030574 0.000000 0.002521
# 5 0.004662 0.001491 0.000400 0.000000 0.034796 0.000000
# 6 0.000000 0.000000 0.000000 0.002521 0.000000 0.040186
#
#
# Mechanical properties :
#
#
# Convention : Reuss Voigt Hill
#
# Bulk Modulus (GPa) = 50.61023 61.06678 55.83850
# Shear Modulus (GPa) = 29.82020 32.27943 31.04982
#
# Velocity S-wave (km/s) = 3.88432 4.04131 3.96359
# Velocity P-wave (km/s) = 6.76196 7.25767 7.01420
#
# Compressibility (1/GPa) = 0.01975885
#
# Stress axis : x y z
#
# Youngs Moduli (GPa) = 52.66834 109.71514 104.79397
#
# Poissons Ratio (x) = 0.31294 0.40192
# Poissons Ratio (y) = 0.15022 0.23630
# Poissons Ratio (z) = 0.20200 0.24739
#
# Static dielectric constant tensor:
#      x y z
#    x 3.480890 0.000000 -0.048390 
#    y 0.000000 3.778450 0.000000 
#    z -0.048390 0.000000 3.724990 
# 
# 
# High freq. dielectric constant tensor:
#      x y z
#    x 1.763990 0.000000 0.004100 
#    y 0.000000 1.782280 0.000000 
#    z 0.004100 0.000000 1.787100 
# 
# From -- ./inp_files/236136.got.cif
#   From: 2010.06.25/outbox.cif.g09.slc.cpg/sg15_119_cif.got.tgz:236136.got - 2010.06.28 07:06:18.
