data_PCOD8149823
_publ_section_title
;
Structure prediction by ZEFSAII (Michael W. Deem and Ramdas Pophale) SiO2 
 PCOD8149823
Probable space group: C 2/C
;
_chemical_formula_sum "Si O2"
_cell_formula_units_Z 64
_cell_length_a 11.767832
_cell_length_b 20.789209
_cell_length_c 21.783747
_cell_angle_alpha 90.000000
_cell_angle_beta 141.338016
_cell_angle_gamma 90.000000
_cell_volume 3329.321125
_symmetry_space_group_name_H-M "C 2/C"
_symmetry_group_IT_number 15
_symmetry_cell_setting 'monoclinic'
loop_
_space_group_symop_operation_xyz
x,y,z
-x,y,1/2-z
-x,-y,-z
x,-y,1/2+z
1/2+x,1/2+y,z
1/2-x,1/2+y,1/2-z
1/2-x,1/2-y,-z
1/2+x,1/2-y,1/2+z
loop_
_atom_site_type_symbol
_atom_site_label
_atom_site_fract_x
_atom_site_fract_y
_atom_site_fract_z
Si Si1 0.578007 0.547734 0.118720
Si Si2 0.592802 0.625363 0.353511
Si Si3 0.508215 0.594243 0.553200
Si Si4 0.433300 0.805825 0.973659
Si Si5 0.111336 0.365093 0.738634
Si Si6 0.806307 0.676239 0.017484
Si Si7 0.602221 0.264048 0.655781
Si Si8 0.202957 0.300668 0.310517
O O1 0.424324 0.570763 0.101510
O O2 0.565372 0.471570 0.109958
O O3 0.769066 0.572042 0.228883
O O4 0.562900 0.581363 0.045432
O O5 0.500000 0.605246 0.250000
O O6 0.809723 0.632592 0.437011
O O7 0.508154 0.692399 0.342023
O O8 0.358889 0.629907 0.532864
O O9 0.690412 0.635570 0.625200
O O10 0.623083 0.830361 0.023128
O O11 0.313675 0.761821 0.878285
O O12 0.469424 0.764137 0.049164
O O13 0.243745 0.306173 0.812861
O O14 0.000000 0.386589 0.750000
O O15 0.983577 0.342823 0.630309
O O16 0.750000 0.750000 0.000000
O O17 0.691417 0.205460 0.731639
O O18 0.000000 0.305338 0.250000
#
# Coordination Sequence:
#
# PCOD8149823 Si02
#       8
#     8   8   8   8   8   8   8   8
#     4  10  24  42  65  88 124 176 217 272 303 385
#     4  11  20  39  62  91 124 166 215 257 314 386
#     4  11  24  45  61  92 131 166 220 265 325 373
#     4  12  21  36  61  96 132 162 204 264 330 387
#     4  11  19  35  60  91 118 165 221 249 314 386
#     4  12  22  39  65  94 135 168 204 273 330 392
#     4  11  21  33  58  95 128 158 201 262 325 382
#     4  12  22  37  59  93 127 159 202 268 322 378
#
# _framework density 19.223137999999999
#
# number of rings (size 3 to 8) (size 9 to 14) (size 15 to 20)
#    0.000    0.750    6.250    3.375    1.750    0.500 
#    0.000    1.875    0.000    0.000    0.000    0.000 
#    0.000    0.000    0.000    0.000    0.000    0.000 
#
# Total GULP energy -396702.633263 kJ/mol
# GULP energy per Si atom -12396.957289 kJ/mol
# Density = 1.917939 g / cm^3
# Si number density = 19.223138 Si / 1000 Ang^3
#
#
#
# Elastic Constant Matrix: (Units=GPa)
#
#
# Indices 1 2 3 4 5 6 
#
# 1 121.8311 47.9358 24.9938 0.0000 8.1164 -0.0001
# 2 47.9358 100.0701 30.3223 0.0000 10.2924 0.0000
# 3 24.9938 30.3223 77.5161 -0.0002 7.0447 -0.0002
# 4 0.0000 0.0000 -0.0002 15.1392 -0.0001 -11.0167
# 5 8.1164 10.2924 7.0447 -0.0001 29.9233 -0.0001
# 6 -0.0001 0.0000 -0.0002 -11.0167 -0.0001 22.3693
#
#
#
# Elastic Compliance Matrix: (Units=1/GPa)
#
#
# Indices 1 2 3 4 5 6 
#
# 1 0.010306 -0.004379 -0.001526 0.000000 -0.000930 0.000000
# 2 -0.004379 0.013452 -0.003615 0.000000 -0.002588 0.000000
# 3 -0.001526 -0.003615 0.014976 0.000000 -0.001869 0.000000
# 4 0.000000 0.000000 0.000000 0.102949 0.000000 0.050701
# 5 -0.000930 -0.002588 -0.001869 0.000000 0.035001 0.000000
# 6 0.000000 0.000000 0.000000 0.050701 0.000000 0.069674
#
#
# Mechanical properties :
#
#
# Convention : Reuss Voigt Hill
#
# Bulk Modulus (GPa) = 50.77282 56.21344 53.49313
# Shear Modulus (GPa) = 18.38490 26.56407 22.47448
#
# Velocity S-wave (km/s) = 3.09592 3.72140 3.42297
# Velocity P-wave (km/s) = 6.26493 6.91167 6.59623
#
# Compressibility (1/GPa) = 0.01969558
#
# Stress axis : x y z
#
# Youngs Moduli (GPa) = 97.03161 74.33753 66.77194
#
# Poissons Ratio (x) = 0.32551 0.10186
# Poissons Ratio (y) = 0.42489 0.24138
# Poissons Ratio (z) = 0.14803 0.26873
#
# Static dielectric constant tensor:
#      x y z
#    x 4.154280 0.000000 -0.061200 
#    y 0.000000 3.332440 0.000000 
#    z -0.061200 0.000000 3.630300 
# 
# 
# High freq. dielectric constant tensor:
#      x y z
#    x 1.764580 0.000000 0.003210 
#    y 0.000000 1.718920 0.000000 
#    z 0.003210 0.000000 1.747400 
# 
# From -- ./inp_files/240425.got.cif
#   From: 2010.06.25/outbox.cif.g09.slc.cpg/sg15_121_cif.got.tgz:240425.got - 2010.06.28 07:06:18.
