data_PCOD8149668
_publ_section_title
;
Structure prediction by ZEFSAII (Michael W. Deem and Ramdas Pophale) SiO2 
 PCOD8149668
Probable space group: C 2/C
;
_chemical_formula_sum "Si O2"
_cell_formula_units_Z 36
_cell_length_a 8.981853
_cell_length_b 20.930481
_cell_length_c 8.870273
_cell_angle_alpha 90.000000
_cell_angle_beta 96.105070
_cell_angle_gamma 90.000000
_cell_volume 1658.105050
_symmetry_space_group_name_H-M "C 2/C"
_symmetry_group_IT_number 15
_symmetry_cell_setting 'monoclinic'
loop_
_space_group_symop_operation_xyz
x,y,z
-x,y,1/2-z
-x,-y,-z
x,-y,1/2+z
1/2+x,1/2+y,z
1/2-x,1/2+y,1/2-z
1/2-x,1/2-y,-z
1/2+x,1/2-y,1/2+z
loop_
_atom_site_type_symbol
_atom_site_label
_atom_site_fract_x
_atom_site_fract_y
_atom_site_fract_z
Si Si1 0.500000 0.507234 0.250000
Si Si2 0.358974 0.583647 0.497713
Si Si3 0.022293 0.568081 0.427864
Si Si4 0.605822 0.825111 0.401318
Si Si5 0.443218 0.704078 0.904931
O O1 0.396364 0.550983 0.342858
O O2 0.608398 0.463353 0.360417
O O3 0.183649 0.598573 0.482043
O O4 0.450743 0.648586 0.522279
O O5 0.000000 0.560114 0.250000
O O6 0.000000 0.500000 0.500000
O O7 0.900045 0.616892 0.480789
O O8 0.500000 0.840611 0.250000
O O9 0.551503 0.759956 0.472635
O O10 0.775858 0.821815 0.363273
O O11 0.500000 0.729933 0.750000
#
# Coordination Sequence:
#
# PCOD8149668 Si02
#       5
#     4   8   8   8   8
#     4  10  24  40  66 102 132 178 224 274 332 404
#     4  11  24  42  70  97 139 178 228 276 337 413
#     4  12  27  44  70 103 142 181 223 285 345 407
#     4  11  27  45  69 101 137 179 232 287 345 405
#     4  11  25  46  70  98 135 183 232 283 342 413
#
# _framework density 21.711534
#
# number of rings (size 3 to 8) (size 9 to 14) (size 15 to 20)
#    0.000    0.889    1.111    4.000   10.889    5.333 
#    0.000    0.000    0.000    0.000    0.000    0.000 
#    0.000    0.000    0.000    0.000    0.000    0.000 
#
# Total GULP energy -223358.977692 kJ/mol
# GULP energy per Si atom -12408.832094 kJ/mol
# Density = 2.166212 g / cm^3
# Si number density = 21.711534 Si / 1000 Ang^3
#
#
#
# Elastic Constant Matrix: (Units=GPa)
#
#
# Indices 1 2 3 4 5 6 
#
# 1 127.0539 35.8133 40.4031 0.0000 -6.1894 0.0000
# 2 35.8133 110.2404 32.5602 0.0000 -4.1058 0.0000
# 3 40.4031 32.5602 139.3695 0.0000 -6.6495 0.0000
# 4 0.0000 0.0000 0.0000 41.6902 0.0000 -11.0900
# 5 -6.1894 -4.1058 -6.6495 0.0000 33.4822 0.0000
# 6 0.0000 0.0000 0.0000 -11.0900 0.0000 38.1924
#
#
#
# Elastic Compliance Matrix: (Units=1/GPa)
#
#
# Indices 1 2 3 4 5 6 
#
# 1 0.009245 -0.002351 -0.002083 0.000000 0.001007 0.000000
# 2 -0.002351 0.010360 -0.001715 0.000000 0.000495 0.000000
# 3 -0.002083 -0.001715 0.008229 0.000000 0.001039 0.000000
# 4 0.000000 0.000000 0.000000 0.025994 0.000000 0.007548
# 5 0.001007 0.000495 0.001039 0.000000 0.030320 0.000000
# 6 0.000000 0.000000 0.000000 0.007548 0.000000 0.028375
#
#
# Mechanical properties :
#
#
# Convention : Reuss Voigt Hill
#
# Bulk Modulus (GPa) = 64.36501 66.02413 65.19457
# Shear Modulus (GPa) = 38.46188 40.53210 39.49699
#
# Velocity S-wave (km/s) = 4.21348 4.32539 4.26980
# Velocity P-wave (km/s) = 7.30624 7.44453 7.37571
#
# Compressibility (1/GPa) = 0.01553639
#
# Stress axis : x y z
#
# Youngs Moduli (GPa) = 108.17085 96.52735 121.51753
#
# Poissons Ratio (x) = 0.22690 0.25310
# Poissons Ratio (y) = 0.25426 0.20843
# Poissons Ratio (z) = 0.22530 0.16557
#
# Static dielectric constant tensor:
#      x y z
#    x 4.063870 0.000000 -0.070940 
#    y 0.000000 3.924540 0.000000 
#    z -0.070940 0.000000 3.586920 
# 
# 
# High freq. dielectric constant tensor:
#      x y z
#    x 1.864020 0.000000 -0.006560 
#    y 0.000000 1.861080 0.000000 
#    z -0.006560 0.000000 1.872270 
# 
# From -- ./inp_files/22531.got.cif
#   From: 2010.06.25/outbox.cif.g09.slc.cpg/sg15_12_cif.got.tgz:22531.got - 2010.06.28 07:06:18.
