data_PCOD8149222
_publ_section_title
;
Structure prediction by ZEFSAII (Michael W. Deem and Ramdas Pophale) SiO2 
 PCOD8149222
Probable space group: C 2/C
;
_chemical_formula_sum "Si O2"
_cell_formula_units_Z 36
_cell_length_a 12.626959
_cell_length_b 14.200784
_cell_length_c 10.341866
_cell_angle_alpha 90.000000
_cell_angle_beta 52.669914
_cell_angle_gamma 90.000000
_cell_volume 1474.558081
_symmetry_space_group_name_H-M "C 2/C"
_symmetry_group_IT_number 15
_symmetry_cell_setting 'monoclinic'
loop_
_space_group_symop_operation_xyz
x,y,z
-x,y,1/2-z
-x,-y,-z
x,-y,1/2+z
1/2+x,1/2+y,z
1/2-x,1/2+y,1/2-z
1/2-x,1/2-y,-z
1/2+x,1/2-y,1/2+z
loop_
_atom_site_type_symbol
_atom_site_label
_atom_site_fract_x
_atom_site_fract_y
_atom_site_fract_z
Si Si1 0.715591 0.511642 0.272714
Si Si2 0.377682 0.002653 0.409981
Si Si3 0.435339 0.695039 0.159777
Si Si4 0.833422 0.797915 0.202103
Si Si5 0.500000 0.179437 0.250000
O O1 0.764458 0.511216 0.384034
O O2 0.597776 0.586816 0.350744
O O3 0.665520 0.408688 0.269803
O O4 0.825525 0.543301 0.081978
O O5 0.500000 0.943986 0.250000
O O6 0.434932 0.107403 0.404329
O O7 0.500000 0.699460 0.250000
O O8 0.306985 0.762429 0.248482
O O9 0.547888 0.731617 0.980767
O O10 0.874096 0.742177 0.301019
#
# Coordination Sequence:
#
# PCOD8149222 Si02
#       5
#     8   8   8   8   4
#     4  12  25  44  74 107 146 192 245 303 365 426
#     4  10  23  44  71 105 148 189 246 292 362 439
#     4  12  27  49  69 111 148 193 243 297 371 437
#     4  12  27  45  77 104 151 192 242 303 362 436
#     4  10  24  46  74 102 146 186 254 284 372 418
#
# _framework density 24.414093999999999
#
# number of rings (size 3 to 8) (size 9 to 14) (size 15 to 20)
#    0.667    0.000    2.222    4.667    4.667    4.444 
#    0.000    0.000    0.000    0.000    0.000    0.000 
#    0.000    0.000    0.000    0.000    0.000    0.000 
#
# Total GULP energy -223066.760890 kJ/mol
# GULP energy per Si atom -12392.597827 kJ/mol
# Density = 2.435853 g / cm^3
# Si number density = 24.414094 Si / 1000 Ang^3
#
#
#
# Elastic Constant Matrix: (Units=GPa)
#
#
# Indices 1 2 3 4 5 6 
#
# 1 121.6405 10.3041 23.2958 0.0000 -11.8714 0.0000
# 2 10.3041 72.0009 5.3640 0.0000 -10.6637 0.0000
# 3 23.2958 5.3640 94.0487 0.0000 -17.9818 0.0000
# 4 0.0000 0.0000 0.0000 32.3096 0.0000 -9.2825
# 5 -11.8714 -10.6637 -17.9818 0.0000 38.3142 0.0000
# 6 0.0000 0.0000 0.0000 -9.2825 0.0000 31.1130
#
#
#
# Elastic Compliance Matrix: (Units=1/GPa)
#
#
# Indices 1 2 3 4 5 6 
#
# 1 0.008803 -0.000883 -0.001819 0.000000 0.001628 0.000000
# 2 -0.000883 0.014575 0.000122 0.000000 0.003840 0.000000
# 3 -0.001819 0.000122 0.012057 0.000000 0.005129 0.000000
# 4 0.000000 0.000000 0.000000 0.033852 0.000000 0.010100
# 5 0.001628 0.003840 0.005129 0.000000 0.030080 0.000000
# 6 0.000000 0.000000 0.000000 0.010100 0.000000 0.035154
#
#
# Mechanical properties :
#
#
# Convention : Reuss Voigt Hill
#
# Bulk Modulus (GPa) = 33.03150 40.62420 36.82785
# Shear Modulus (GPa) = 33.38378 36.92913 35.15645
#
# Velocity S-wave (km/s) = 3.70185 3.89345 3.79886
# Velocity P-wave (km/s) = 5.64186 6.07353 5.86167
#
# Compressibility (1/GPa) = 0.03027413
#
# Stress axis : x y z
#
# Youngs Moduli (GPa) = 113.59787 68.61182 82.93927
#
# Poissons Ratio (x) = 0.06060 0.15085
# Poissons Ratio (y) = 0.10033 -0.01009
# Poissons Ratio (z) = 0.20662 -0.00835
#
# Static dielectric constant tensor:
#      x y z
#    x 4.291950 0.000000 -0.282700 
#    y 0.000000 4.426050 0.000000 
#    z -0.282700 0.000000 4.329990 
# 
# 
# High freq. dielectric constant tensor:
#      x y z
#    x 1.973390 0.000000 -0.008800 
#    y 0.000000 1.970150 0.000000 
#    z -0.008800 0.000000 1.970690 
# 
# From -- ./inp_files/95489.got.cif
#   From: 2010.06.25/outbox.cif.g09.slc.cpg/sg15_48_cif.got.tgz:95489.got - 2010.06.28 07:06:18.
