data_PCOD8149151
_publ_section_title
;
Structure prediction by ZEFSAII (Michael W. Deem and Ramdas Pophale) SiO2 
 PCOD8149151
Probable space group: C 2/C
;
_chemical_formula_sum "Si O2"
_cell_formula_units_Z 64
_cell_length_a 13.056758
_cell_length_b 23.064979
_cell_length_c 15.142406
_cell_angle_alpha 90.000000
_cell_angle_beta 40.092275
_cell_angle_gamma 90.000000
_cell_volume 2936.858288
_symmetry_space_group_name_H-M "C 2/C"
_symmetry_group_IT_number 15
_symmetry_cell_setting 'monoclinic'
loop_
_space_group_symop_operation_xyz
x,y,z
-x,y,1/2-z
-x,-y,-z
x,-y,1/2+z
1/2+x,1/2+y,z
1/2-x,1/2+y,1/2-z
1/2-x,1/2-y,-z
1/2+x,1/2-y,1/2+z
loop_
_atom_site_type_symbol
_atom_site_label
_atom_site_fract_x
_atom_site_fract_y
_atom_site_fract_z
Si Si1 0.620057 0.121364 0.408786
Si Si2 0.394878 0.904604 0.892266
Si Si3 0.827237 0.279713 0.868595
Si Si4 0.067482 0.874715 0.470097
Si Si5 0.578526 0.842634 0.291420
Si Si6 0.949545 0.077747 0.873441
Si Si7 0.424631 0.547613 0.208720
Si Si8 0.350992 0.718060 0.188481
O O1 0.491195 0.112568 0.416422
O O2 0.527004 0.128003 0.562192
O O3 0.738854 0.066220 0.329427
O O4 0.726260 0.178838 0.325093
O O5 0.500000 0.939587 0.750000
O O6 0.334780 0.848401 0.877777
O O7 0.235893 0.941281 0.016861
O O8 0.732700 0.260391 0.844618
O O9 0.000000 0.251884 0.750000
O O10 0.750000 0.250000 0.000000
O O11 0.251206 0.873434 0.323683
O O12 0.970520 0.880226 0.442728
O O13 0.025814 0.928722 0.559730
O O14 0.010946 0.816903 0.558134
O O15 0.500000 0.855583 0.250000
O O16 0.596760 0.773608 0.290367
O O17 0.000000 0.111064 0.750000
O O18 0.062554 0.021571 0.807141
O O19 0.500000 0.571286 0.250000
#
# Coordination Sequence:
#
# PCOD8149151 Si02
#       8
#     8   8   8   8   8   8   8   8
#     4  11  22  43  66  92 133 172 218 273 327 391
#     4  11  20  40  64  96 130 169 210 265 335 387
#     4  11  22  36  59  93 132 168 211 255 324 393
#     4  11  23  43  66  92 129 167 219 273 324 389
#     4  12  27  42  62  94 130 173 226 277 320 373
#     4  11  23  42  68  99 129 168 217 271 338 398
#     4  10  23  44  68  92 125 174 224 267 334 395
#     4  11  23  40  63  92 126 175 215 257 323 398
#
# _framework density 21.791995
#
# number of rings (size 3 to 8) (size 9 to 14) (size 15 to 20)
#    0.000    1.000    3.750    4.125    1.750    4.500 
#    0.000   10.000    0.000    0.000    0.000    0.000 
#    0.000    0.000    0.000    0.000    0.000    0.000 
#
# Total GULP energy -396769.273361 kJ/mol
# GULP energy per Si atom -12399.039793 kJ/mol
# Density = 2.174240 g / cm^3
# Si number density = 21.791995 Si / 1000 Ang^3
#
#
#
# Elastic Constant Matrix: (Units=GPa)
#
#
# Indices 1 2 3 4 5 6 
#
# 1 113.4164 17.1877 59.1760 0.0008 8.9030 -0.0004
# 2 17.1877 44.8616 26.4931 -0.0004 -7.4643 0.0008
# 3 59.1760 26.4931 186.3435 0.0019 -1.7739 0.0006
# 4 0.0008 -0.0004 0.0019 22.2126 -0.0007 -10.8111
# 5 8.9030 -7.4643 -1.7739 -0.0007 46.7037 0.0001
# 6 -0.0004 0.0008 0.0006 -10.8111 0.0001 30.2248
#
#
#
# Elastic Compliance Matrix: (Units=1/GPa)
#
#
# Indices 1 2 3 4 5 6 
#
# 1 0.011101 -0.002842 -0.003147 0.000000 -0.002690 0.000000
# 2 -0.002842 0.025740 -0.002714 0.000001 0.004553 0.000000
# 3 -0.003147 -0.002714 0.006756 -0.000001 0.000423 0.000000
# 4 0.000000 0.000001 -0.000001 0.054509 0.000001 0.019497
# 5 -0.002690 0.004553 0.000423 0.000001 0.022668 0.000000
# 6 0.000000 0.000000 0.000000 0.019497 0.000000 0.040059
#
#
# Mechanical properties :
#
#
# Convention : Reuss Voigt Hill
#
# Bulk Modulus (GPa) = 38.18116 61.14834 49.66475
# Shear Modulus (GPa) = 26.74258 35.94586 31.34422
#
# Velocity S-wave (km/s) = 3.50691 4.06581 3.79666
# Velocity P-wave (km/s) = 5.82723 7.08251 6.48531
#
# Compressibility (1/GPa) = 0.02619093
#
# Stress axis : x y z
#
# Youngs Moduli (GPa) = 90.08375 38.85050 148.02662
#
# Poissons Ratio (x) = 0.11042 0.46580
# Poissons Ratio (y) = 0.25604 0.40168
# Poissons Ratio (z) = 0.28347 0.10542
#
# Static dielectric constant tensor:
#      x y z
#    x 3.966570 0.000010 0.045290 
#    y 0.000010 3.002640 0.000000 
#    z 0.045290 0.000000 4.355340 
# 
# 
# High freq. dielectric constant tensor:
#      x y z
#    x 1.865160 0.000000 0.002550 
#    y 0.000000 1.827390 0.000000 
#    z 0.002550 0.000000 1.884020 
# 
# From -- ./inp_files/148769.got.cif
#   From: 2010.06.25/outbox.cif.g09.slc.cpg/sg15_75_cif.got.tgz:148769.got - 2010.06.28 07:06:18.
