data_PCOD8149530
_publ_section_title
;
Structure prediction by ZEFSAII (Michael W. Deem and Ramdas Pophale) SiO2 
 PCOD8149530
Probable space group: C 2/C
;
_chemical_formula_sum "Si O2"
_cell_formula_units_Z 60
_cell_length_a 19.466040
_cell_length_b 8.560422
_cell_length_c 20.789921
_cell_angle_alpha 90.000000
_cell_angle_beta 51.010981
_cell_angle_gamma 90.000000
_cell_volume 2692.747357
_symmetry_space_group_name_H-M "C 2/C"
_symmetry_group_IT_number 15
_symmetry_cell_setting 'monoclinic'
loop_
_space_group_symop_operation_xyz
x,y,z
-x,y,1/2-z
-x,-y,-z
x,-y,1/2+z
1/2+x,1/2+y,z
1/2-x,1/2+y,1/2-z
1/2-x,1/2-y,-z
1/2+x,1/2-y,1/2+z
loop_
_atom_site_type_symbol
_atom_site_label
_atom_site_fract_x
_atom_site_fract_y
_atom_site_fract_z
Si Si1 0.000000 0.787226 0.750000
Si Si2 0.651361 0.642692 0.956744
Si Si3 0.098952 0.479295 0.966744
Si Si4 0.154930 0.565517 0.677816
Si Si5 0.441777 0.527748 0.881877
Si Si6 0.845369 0.331865 0.940935
Si Si7 0.371596 0.445318 0.164086
Si Si8 0.802366 0.398752 0.717797
O O1 0.928188 0.676238 0.758940
O O2 0.939315 0.899302 0.828412
O O3 0.755510 0.666322 0.881871
O O4 0.604093 0.554648 0.925343
O O5 0.607659 0.810570 0.995556
O O6 0.634818 0.526925 0.024938
O O7 0.159550 0.487839 0.867346
O O8 0.127688 0.606582 0.003436
O O9 0.000000 0.500000 0.000000
O O10 0.146251 0.466386 0.617193
O O11 0.157763 0.460266 0.739244
O O12 0.416255 0.702093 0.875759
O O13 0.540626 0.526270 0.848986
O O14 0.750000 0.250000 0.000000
O O15 0.303622 0.583279 0.221579
O O16 0.323533 0.282551 0.206210
#
# Coordination Sequence:
#
# PCOD8149530 Si02
#       8
#     4   8   8   8   8   8   8   8
#     4  12  32  42  74 100 146 196 234 300 362 454
#     4  10  23  48  72  99 144 185 247 290 362 439
#     4  11  26  45  75 105 141 200 252 306 366 448
#     4  11  27  50  71 107 145 197 240 302 376 436
#     4  12  27  45  69 109 142 188 239 301 367 442
#     4  12  27  46  77 111 148 192 246 312 374 443
#     4  10  24  42  71 103 140 188 235 305 359 433
#     4  10  25  44  73 102 145 190 243 302 366 439
#
# _framework density 22.282074999999999
#
# number of rings (size 3 to 8) (size 9 to 14) (size 15 to 20)
#    0.000    1.067    1.333    2.800   16.800    1.067 
#    0.000    0.000    0.000    0.000    0.000    0.000 
#    0.000    0.000    0.000    0.000    0.000    0.000 
#
# Total GULP energy -371945.910696 kJ/mol
# GULP energy per Si atom -12398.197023 kJ/mol
# Density = 2.223136 g / cm^3
# Si number density = 22.282075 Si / 1000 Ang^3
#
#
#
# Elastic Constant Matrix: (Units=GPa)
#
#
# Indices 1 2 3 4 5 6 
#
# 1 94.0175 9.2938 13.2048 -0.0002 6.3810 0.0003
# 2 9.2938 60.9723 34.9478 -0.0007 7.8228 0.0007
# 3 13.2048 34.9478 63.7519 0.0000 13.5634 0.0001
# 4 -0.0002 -0.0007 0.0000 51.8258 0.0001 -8.7235
# 5 6.3810 7.8228 13.5634 0.0001 34.8322 -0.0001
# 6 0.0003 0.0007 0.0001 -8.7235 -0.0001 37.4721
#
#
#
# Elastic Compliance Matrix: (Units=1/GPa)
#
#
# Indices 1 2 3 4 5 6 
#
# 1 0.011015 -0.000530 -0.001730 0.000000 -0.001225 0.000000
# 2 -0.000530 0.023943 -0.012966 0.000000 -0.000231 0.000000
# 3 -0.001730 -0.012966 0.024494 0.000000 -0.006309 0.000000
# 4 0.000000 0.000000 0.000000 0.020082 0.000000 0.004675
# 5 -0.001225 -0.000231 -0.006309 0.000000 0.031442 0.000000
# 6 0.000000 0.000000 0.000000 0.004675 0.000000 0.027775
#
#
# Mechanical properties :
#
#
# Convention : Reuss Voigt Hill
#
# Bulk Modulus (GPa) = 34.48375 37.07053 35.77714
# Shear Modulus (GPa) = 27.95296 35.57903 31.76600
#
# Velocity S-wave (km/s) = 3.54574 4.00028 3.77985
# Velocity P-wave (km/s) = 5.68090 6.16517 5.92798
#
# Compressibility (1/GPa) = 0.02899917
#
# Stress axis : x y z
#
# Youngs Moduli (GPa) = 90.78629 41.76524 40.82561
#
# Poissons Ratio (x) = 0.02214 0.07064
# Poissons Ratio (y) = 0.04812 0.52936
# Poissons Ratio (z) = 0.15709 0.54155
#
# Static dielectric constant tensor:
#      x y z
#    x 3.544480 0.000000 -0.744460 
#    y 0.000000 4.085830 0.000000 
#    z -0.744460 0.000000 2.895510 
# 
# 
# High freq. dielectric constant tensor:
#      x y z
#    x 1.889750 0.000000 -0.000840 
#    y 0.000000 1.884500 0.000000 
#    z -0.000840 0.000000 1.884840 
# 
# From -- ./inp_files/247810.got.cif
#   From: 2010.06.25/outbox.cif.g09.slc.cpg/sg15_124_cif.got.tgz:247810.got - 2010.06.28 07:06:18.
