data_PCOD8149970
_publ_section_title
;
Structure prediction by ZEFSAII (Michael W. Deem and Ramdas Pophale) SiO2 
 PCOD8149970
Probable space group: C 2/C
;
_chemical_formula_sum "Si O2"
_cell_formula_units_Z 32
_cell_length_a 15.316468
_cell_length_b 4.708285
_cell_length_c 16.081978
_cell_angle_alpha 90.000000
_cell_angle_beta 99.693612
_cell_angle_gamma 90.000000
_cell_volume 1143.182043
_symmetry_space_group_name_H-M "C 2/C"
_symmetry_group_IT_number 15
_symmetry_cell_setting 'monoclinic'
loop_
_space_group_symop_operation_xyz
x,y,z
-x,y,1/2-z
-x,-y,-z
x,-y,1/2+z
1/2+x,1/2+y,z
1/2-x,1/2+y,1/2-z
1/2-x,1/2-y,-z
1/2+x,1/2-y,1/2+z
loop_
_atom_site_type_symbol
_atom_site_label
_atom_site_fract_x
_atom_site_fract_y
_atom_site_fract_z
Si Si1 0.507319 0.490228 0.349863
Si Si2 0.659976 0.153008 0.943435
Si Si3 0.257998 0.411581 0.303432
Si Si4 0.590515 0.003996 0.101618
O O1 0.500000 0.485941 0.250000
O O2 0.602460 0.587024 0.398851
O O3 0.425530 0.680649 0.372461
O O4 0.499138 0.172023 0.385941
O O5 0.692835 0.979738 0.867078
O O6 0.604651 0.984055 0.004482
O O7 0.750000 0.250000 0.000000
O O8 0.295285 0.706272 0.270530
O O9 0.334332 0.189971 0.341238
#
# Coordination Sequence:
#
# PCOD8149970 Si02
#       4
#     8   8   8   8
#     4  12  24  43  67  95 127 168 213 261 313 375
#     4  10  24  43  66  95 130 168 210 261 318 375
#     4  11  23  42  65  94 129 168 211 260 315 376
#     4  11  24  42  65  94 128 168 212 260 315 376
#
# _framework density 27.992041
#
# number of rings (size 3 to 8) (size 9 to 14) (size 15 to 20)
#    0.000    1.000    0.000    6.750    0.000    4.000 
#    0.000   13.750    0.000    0.000    0.000    0.000 
#    0.000    0.000    0.000    0.000    0.000    0.000 
#
# Total GULP energy -198243.228395 kJ/mol
# GULP energy per Si atom -12390.201775 kJ/mol
# Density = 2.792833 g / cm^3
# Si number density = 27.992041 Si / 1000 Ang^3
#
#
#
# Elastic Constant Matrix: (Units=GPa)
#
#
# Indices 1 2 3 4 5 6 
#
# 1 118.2927 -0.4242 56.4930 0.0000 -53.0620 0.0000
# 2 -0.4242 103.7679 13.9399 0.0000 -35.0236 0.0000
# 3 56.4930 13.9399 119.9832 0.0000 -28.7024 0.0000
# 4 0.0000 0.0000 0.0000 24.5128 0.0000 -0.0812
# 5 -53.0620 -35.0236 -28.7024 0.0000 82.3227 0.0000
# 6 0.0000 0.0000 0.0000 -0.0812 0.0000 12.5228
#
#
#
# Elastic Compliance Matrix: (Units=1/GPa)
#
#
# Indices 1 2 3 4 5 6 
#
# 1 0.015456 0.004105 -0.005404 0.000000 0.009825 0.000000
# 2 0.004105 0.012347 -0.001612 0.000000 0.007337 0.000000
# 3 -0.005404 -0.001612 0.010985 0.000000 -0.000339 0.000000
# 4 0.000000 0.000000 0.000000 0.040796 0.000000 0.000265
# 5 0.009825 0.007337 -0.000339 0.000000 0.021483 0.000000
# 6 0.000000 0.000000 0.000000 0.000265 0.000000 0.079856
#
#
# Mechanical properties :
#
#
# Convention : Reuss Voigt Hill
#
# Bulk Modulus (GPa) = 30.33459 53.56237 41.94848
# Shear Modulus (GPa) = 25.28654 42.00734 33.64694
#
# Velocity S-wave (km/s) = 3.00883 3.87808 3.47077
# Velocity P-wave (km/s) = 4.78865 6.26331 5.57495
#
# Compressibility (1/GPa) = 0.03296566
#
# Stress axis : x y z
#
# Youngs Moduli (GPa) = 64.69878 80.99447 91.03199
#
# Poissons Ratio (x) = -0.33250 0.49194
# Poissons Ratio (y) = -0.26560 0.14677
# Poissons Ratio (z) = 0.34964 0.13058
#
# Static dielectric constant tensor:
#      x y z
#    x 5.622760 0.000000 -0.182190 
#    y 0.000000 4.806980 0.000000 
#    z -0.182190 0.000000 5.578150 
# 
# 
# High freq. dielectric constant tensor:
#      x y z
#    x 2.143700 0.000000 0.010910 
#    y 0.000000 2.117920 0.000000 
#    z 0.010910 0.000000 2.169330 
# 
# From -- ./inp_files/207819.got.cif
#   From: 2010.06.25/outbox.cif.g09.slc.cpg/sg15_104_cif.got.tgz:207819.got - 2010.06.28 07:06:18.
