data_PCOD8149195
_publ_section_title
;
Structure prediction by ZEFSAII (Michael W. Deem and Ramdas Pophale) SiO2 
 PCOD8149195
Probable space group: C 2/C
;
_chemical_formula_sum "Si O2"
_cell_formula_units_Z 36
_cell_length_a 16.538742
_cell_length_b 8.878306
_cell_length_c 11.556206
_cell_angle_alpha 90.000000
_cell_angle_beta 109.063819
_cell_angle_gamma 90.000000
_cell_volume 1603.803126
_symmetry_space_group_name_H-M "C 2/C"
_symmetry_group_IT_number 15
_symmetry_cell_setting 'monoclinic'
loop_
_space_group_symop_operation_xyz
x,y,z
-x,y,1/2-z
-x,-y,-z
x,-y,1/2+z
1/2+x,1/2+y,z
1/2-x,1/2+y,1/2-z
1/2-x,1/2-y,-z
1/2+x,1/2-y,1/2+z
loop_
_atom_site_type_symbol
_atom_site_label
_atom_site_fract_x
_atom_site_fract_y
_atom_site_fract_z
Si Si1 0.000000 0.207013 0.250000
Si Si2 0.651042 0.225631 0.438743
Si Si3 0.854969 0.888868 0.842253
Si Si4 0.421277 0.079004 0.524463
Si Si5 0.817986 0.775648 0.296568
O O1 0.069178 0.104180 0.216133
O O2 0.049596 0.308563 0.363743
O O3 0.750000 0.250000 0.500000
O O4 0.604972 0.325371 0.517532
O O5 0.627288 0.275879 0.297484
O O6 0.634647 0.049013 0.441684
O O7 0.779977 0.776581 0.765411
O O8 0.817243 0.054937 0.845656
O O9 0.363294 0.164472 0.405651
O O10 0.500000 0.000000 0.500000
#
# Coordination Sequence:
#
# PCOD8149195 Si02
#       5
#     4   8   8   8   8
#     4  12  28  44  70 106 146 180 246 290 356 416
#     4  10  23  44  70 103 140 179 238 283 346 420
#     4  11  26  47  72 106 141 187 237 291 352 423
#     4  12  25  46  73 105 144 189 232 295 356 417
#     4  11  26  46  76 101 144 188 237 290 353 420
#
# _framework density 22.446646999999999
#
# number of rings (size 3 to 8) (size 9 to 14) (size 15 to 20)
#    0.000    0.889    2.222    4.000    9.333    3.556 
#    0.000    0.000    0.000    0.000    0.000    0.000 
#    0.000    0.000    0.000    0.000    0.000    0.000 
#
# Total GULP energy -223227.142693 kJ/mol
# GULP energy per Si atom -12401.507927 kJ/mol
# Density = 2.239556 g / cm^3
# Si number density = 22.446647 Si / 1000 Ang^3
#
#
#
# Elastic Constant Matrix: (Units=GPa)
#
#
# Indices 1 2 3 4 5 6 
#
# 1 97.4130 14.4245 7.2063 0.0000 -13.4384 0.0000
# 2 14.4245 112.1927 8.4549 0.0000 3.0467 0.0000
# 3 7.2063 8.4549 113.6268 0.0000 -9.5522 0.0000
# 4 0.0000 0.0000 0.0000 -13.4420 0.0000 5.8595
# 5 -13.4384 3.0467 -9.5522 0.0000 31.1218 0.0000
# 6 0.0000 0.0000 0.0000 5.8595 0.0000 39.0451
#
#
#
# Elastic Compliance Matrix: (Units=1/GPa)
#
#
# Indices 1 2 3 4 5 6 
#
# 1 0.011190 -0.001559 -0.000179 0.000000 0.004929 0.000000
# 2 -0.001559 0.009218 -0.000739 0.000000 -0.001802 0.000000
# 3 -0.000179 -0.000739 0.009101 0.000000 0.002788 0.000000
# 4 0.000000 0.000000 0.000000 -0.069826 0.000000 0.010479
# 5 0.004929 -0.001802 0.002788 0.000000 0.035293 0.000000
# 6 0.000000 0.000000 0.000000 0.010479 0.000000 0.024039
#
#
# Mechanical properties :
#
#
# Convention : Reuss Voigt Hill
#
# Bulk Modulus (GPa) = 40.72358 42.60042 41.66200
# Shear Modulus (GPa) = 155.50107 30.88809 93.19458
#
# Velocity S-wave (km/s) = 8.33224 3.71356 6.45046
# Velocity P-wave (km/s) = 10.52379 6.11614 8.60689
#
# Compressibility (1/GPa) = 0.02455580
#
# Stress axis : x y z
#
# Youngs Moduli (GPa) = 89.36793 108.48015 109.87231
#
# Poissons Ratio (x) = 0.16912 0.01970
# Poissons Ratio (y) = 0.13932 0.08115
# Poissons Ratio (z) = 0.01602 0.08012
#
# Static dielectric constant tensor:
#      x y z
#    x 4.301570 0.000000 -0.625890 
#    y 0.000000 3.969680 0.000000 
#    z -0.625890 0.000000 5.054240 
# 
# 
# High freq. dielectric constant tensor:
#      x y z
#    x 1.883720 0.000000 -0.010830 
#    y 0.000000 1.893170 0.000000 
#    z -0.010830 0.000000 1.899390 
# 
# From -- ./inp_files/102524.got.cif
#   From: 2010.06.25/outbox.cif.g09.slc.cpg/sg15_52_cif.got.tgz:102524.got - 2010.06.28 07:06:18.
