data_PCOD8149599
_publ_section_title
;
Structure prediction by ZEFSAII (Michael W. Deem and Ramdas Pophale) SiO2 
 PCOD8149599
Probable space group: C 2/C
;
_chemical_formula_sum "Si O2"
_cell_formula_units_Z 44
_cell_length_a 22.851667
_cell_length_b 15.026727
_cell_length_c 17.237061
_cell_angle_alpha 90.000000
_cell_angle_beta 161.434999
_cell_angle_gamma 90.000000
_cell_volume 1884.480725
_symmetry_space_group_name_H-M "C 2/C"
_symmetry_group_IT_number 15
_symmetry_cell_setting 'monoclinic'
loop_
_space_group_symop_operation_xyz
x,y,z
-x,y,1/2-z
-x,-y,-z
x,-y,1/2+z
1/2+x,1/2+y,z
1/2-x,1/2+y,1/2-z
1/2-x,1/2-y,-z
1/2+x,1/2-y,1/2+z
loop_
_atom_site_type_symbol
_atom_site_label
_atom_site_fract_x
_atom_site_fract_y
_atom_site_fract_z
Si Si1 0.759552 0.004047 0.632345
Si Si2 0.178564 0.640944 0.825545
Si Si3 0.058163 0.136225 0.051406
Si Si4 0.000000 0.727299 0.750000
Si Si5 0.877624 0.455269 0.708171
Si Si6 0.632642 0.184409 0.176323
O O1 0.688609 0.043896 0.462994
O O2 0.596541 0.023762 0.489009
O O3 0.816350 0.897755 0.716009
O O4 0.950777 0.051199 0.887475
O O5 0.077948 0.664141 0.780594
O O6 0.239426 0.537670 0.902713
O O7 0.044562 0.641328 0.584590
O O8 0.345190 0.708118 0.018827
O O9 0.183764 0.172061 0.140781
O O10 0.904268 0.210274 0.873099
O O11 0.837506 0.362009 0.701630
#
# Coordination Sequence:
#
# PCOD8149599 Si02
#       6
#     8   8   8   4   8   8
#     4  10  24  46  71  99 140 183 232 287 348 411
#     4  11  23  40  62 100 137 183 223 292 340 426
#     4  11  25  45  72 104 140 184 233 287 348 415
#     4  10  24  38  64  98 142 186 236 280 362 406
#     4  11  24  45  69 101 140 182 229 291 348 419
#     4  12  25  43  71 102 141 182 232 287 350 419
#
# _framework density 23.348606
#
# number of rings (size 3 to 8) (size 9 to 14) (size 15 to 20)
#    0.000    1.091    1.818    3.818    5.091    2.909 
#    0.000    0.000    0.000    0.000    0.000    0.000 
#    0.000    0.000    0.000    0.000    0.000    0.000 
#
# Total GULP energy -272557.552001 kJ/mol
# GULP energy per Si atom -12388.979636 kJ/mol
# Density = 2.329546 g / cm^3
# Si number density = 23.348606 Si / 1000 Ang^3
#
#
#
# Elastic Constant Matrix: (Units=GPa)
#
#
# Indices 1 2 3 4 5 6 
#
# 1 83.7050 44.1574 36.6810 -0.0001 -9.5596 -0.0008
# 2 44.1574 112.6520 31.4126 0.0031 -5.0420 0.0005
# 3 36.6810 31.4126 88.2504 0.0044 5.1311 0.0014
# 4 -0.0001 0.0031 0.0044 46.8404 0.0015 -9.8560
# 5 -9.5596 -5.0420 5.1311 0.0015 29.4957 0.0003
# 6 -0.0008 0.0005 0.0014 -9.8560 0.0003 35.6483
#
#
#
# Elastic Compliance Matrix: (Units=1/GPa)
#
#
# Indices 1 2 3 4 5 6 
#
# 1 0.017945 -0.005095 -0.005993 0.000001 0.005988 0.000001
# 2 -0.005095 0.011461 -0.002000 -0.000001 0.000656 0.000000
# 3 -0.005993 -0.002000 0.014817 -0.000001 -0.004862 -0.000001
# 4 0.000001 -0.000001 -0.000001 0.022668 -0.000001 0.006267
# 5 0.005988 0.000656 -0.004862 -0.000001 0.036802 0.000000
# 6 0.000001 0.000000 -0.000001 0.006267 0.000000 0.029785
#
#
# Mechanical properties :
#
#
# Convention : Reuss Voigt Hill
#
# Bulk Modulus (GPa) = 55.41234 56.56772 55.99003
# Shear Modulus (GPa) = 30.18078 33.88729 32.03404
#
# Velocity S-wave (km/s) = 3.59920 3.81381 3.70806
# Velocity P-wave (km/s) = 6.40753 6.60860 6.50884
#
# Compressibility (1/GPa) = 0.01804652
#
# Stress axis : x y z
#
# Youngs Moduli (GPa) = 55.72722 87.25248 67.48974
#
# Poissons Ratio (x) = 0.44453 0.40448
# Poissons Ratio (y) = 0.28392 0.13498
# Poissons Ratio (z) = 0.33399 0.17451
#
# Static dielectric constant tensor:
#      x y z
#    x 4.438690 0.000000 -0.030570 
#    y 0.000000 4.439370 0.000000 
#    z -0.030570 0.000000 4.550200 
# 
# 
# High freq. dielectric constant tensor:
#      x y z
#    x 1.906250 0.000000 0.001960 
#    y 0.000000 1.931560 0.000000 
#    z 0.001960 0.000000 1.932940 
# 
# From -- ./inp_files/219667.got.cif
#   From: 2010.06.25/outbox.cif.g09.slc.cpg/sg15_110_cif.got.tgz:219667.got - 2010.06.28 07:06:18.
