data_PCOD8149734
_publ_section_title
;
Structure prediction by ZEFSAII (Michael W. Deem and Ramdas Pophale) SiO2 
 PCOD8149734
Probable space group: C 2/C
;
_chemical_formula_sum "Si O2"
_cell_formula_units_Z 64
_cell_length_a 18.573548
_cell_length_b 12.053711
_cell_length_c 14.720752
_cell_angle_alpha 90.000000
_cell_angle_beta 75.150617
_cell_angle_gamma 90.000000
_cell_volume 3185.618171
_symmetry_space_group_name_H-M "C 2/C"
_symmetry_group_IT_number 15
_symmetry_cell_setting 'monoclinic'
loop_
_space_group_symop_operation_xyz
x,y,z
-x,y,1/2-z
-x,-y,-z
x,-y,1/2+z
1/2+x,1/2+y,z
1/2-x,1/2+y,1/2-z
1/2-x,1/2-y,-z
1/2+x,1/2-y,1/2+z
loop_
_atom_site_type_symbol
_atom_site_label
_atom_site_fract_x
_atom_site_fract_y
_atom_site_fract_z
Si Si1 0.776183 0.553985 0.679910
Si Si2 0.625285 0.317393 0.206349
Si Si3 0.346556 0.273921 0.694650
Si Si4 0.153810 0.221152 0.097852
Si Si5 0.501317 0.635727 0.403828
Si Si6 0.502615 0.376993 0.385255
Si Si7 0.781395 0.428983 0.500520
Si Si8 0.280303 0.095284 0.343850
O O1 0.689335 0.590116 0.699823
O O2 0.829258 0.658811 0.650891
O O3 0.797661 0.463440 0.598056
O O4 0.799227 0.502861 0.768659
O O5 0.570557 0.317241 0.310985
O O6 0.577294 0.347077 0.132635
O O7 0.660834 0.195705 0.182316
O O8 0.316752 0.275317 0.807995
O O9 0.433622 0.293839 0.662328
O O10 0.303316 0.367230 0.651941
O O11 0.203524 0.138142 0.020563
O O12 0.071203 0.175535 0.124621
O O13 0.155006 0.345126 0.055469
O O14 0.515573 0.507941 0.377094
O O15 0.496499 0.663771 0.511834
O O16 0.779294 0.542792 0.444240
#
# Coordination Sequence:
#
# PCOD8149734 Si02
#       8
#     8   8   8   8   8   8   8   8
#     4  11  23  41  67  94 127 167 210 265 317 377
#     4  10  24  41  64  91 130 160 210 256 324 369
#     4  11  24  41  64  96 129 164 213 261 321 376
#     4  11  24  42  65  95 129 165 215 263 311 389
#     4  11  25  39  67  90 128 161 216 257 318 365
#     4  10  24  42  62  94 124 167 205 265 312 379
#     4  11  25  41  68  94 126 170 216 257 324 374
#     4  11  24  41  67  93 130 165 210 265 316 380
#
# _framework density 20.090292000000002
#
# number of rings (size 3 to 8) (size 9 to 14) (size 15 to 20)
#    0.000    1.250    2.500    1.875   14.000    1.000 
#    0.000    3.125    0.000    0.000    0.000    0.000 
#    0.000    0.000    0.000    0.000    0.000    0.000 
#
# Total GULP energy -396923.386889 kJ/mol
# GULP energy per Si atom -12403.855840 kJ/mol
# Density = 2.004457 g / cm^3
# Si number density = 20.090292 Si / 1000 Ang^3
#
#
#
# Elastic Constant Matrix: (Units=GPa)
#
#
# Indices 1 2 3 4 5 6 
#
# 1 77.0391 27.2267 17.1407 0.0000 -4.7007 0.0000
# 2 27.2267 85.6983 27.4544 0.0000 -6.6214 0.0000
# 3 17.1407 27.4544 78.9331 0.0000 -0.4568 0.0000
# 4 0.0000 0.0000 0.0000 41.2806 0.0000 0.5358
# 5 -4.7007 -6.6214 -0.4568 0.0000 27.9141 0.0000
# 6 0.0000 0.0000 0.0000 0.5358 0.0000 27.8656
#
#
#
# Elastic Compliance Matrix: (Units=1/GPa)
#
#
# Indices 1 2 3 4 5 6 
#
# 1 0.014905 -0.004033 -0.001825 0.000000 0.001523 0.000000
# 2 -0.004033 0.014487 -0.004147 0.000000 0.002689 0.000000
# 3 -0.001825 -0.004147 0.014502 0.000000 -0.001054 0.000000
# 4 0.000000 0.000000 0.000000 0.024230 0.000000 -0.000466
# 5 0.001523 0.002689 -0.001054 0.000000 0.036701 0.000000
# 6 0.000000 0.000000 0.000000 -0.000466 0.000000 0.035896
#
#
# Mechanical properties :
#
#
# Convention : Reuss Voigt Hill
#
# Bulk Modulus (GPa) = 41.87206 42.81268 42.34237
# Shear Modulus (GPa) = 29.63986 30.73533 30.18759
#
# Velocity S-wave (km/s) = 3.84517 3.91559 3.88054
# Velocity P-wave (km/s) = 6.37189 6.46520 6.41871
#
# Compressibility (1/GPa) = 0.02388227
#
# Stress axis : x y z
#
# Youngs Moduli (GPa) = 67.09282 69.02962 68.95735
#
# Poissons Ratio (x) = 0.27839 0.12585
# Poissons Ratio (y) = 0.27058 0.28599
# Poissons Ratio (z) = 0.12245 0.28629
#
# Static dielectric constant tensor:
#      x y z
#    x 3.499880 0.000000 0.042400 
#    y 0.000000 3.660380 0.000000 
#    z 0.042400 0.000000 3.700250 
# 
# 
# High freq. dielectric constant tensor:
#      x y z
#    x 1.773110 0.000000 0.003100 
#    y 0.000000 1.788960 0.000000 
#    z 0.003100 0.000000 1.796610 
# 
# From -- ./inp_files/161358.got.cif
#   From: 2010.06.25/outbox.cif.g09.slc.cpg/sg15_81_cif.got.tgz:161358.got - 2010.06.28 07:06:18.
