data_PCOD8149260
_publ_section_title
;
Structure prediction by ZEFSAII (Michael W. Deem and Ramdas Pophale) SiO2 
 PCOD8149260
Probable space group: C 2/C
;
_chemical_formula_sum "Si O2"
_cell_formula_units_Z 32
_cell_length_a 10.824379
_cell_length_b 23.179430
_cell_length_c 5.510657
_cell_angle_alpha 90.000000
_cell_angle_beta 67.217741
_cell_angle_gamma 90.000000
_cell_volume 1274.770725
_symmetry_space_group_name_H-M "C 2/C"
_symmetry_group_IT_number 15
_symmetry_cell_setting 'monoclinic'
loop_
_space_group_symop_operation_xyz
x,y,z
-x,y,1/2-z
-x,-y,-z
x,-y,1/2+z
1/2+x,1/2+y,z
1/2-x,1/2+y,1/2-z
1/2-x,1/2-y,-z
1/2+x,1/2-y,1/2+z
loop_
_atom_site_type_symbol
_atom_site_label
_atom_site_fract_x
_atom_site_fract_y
_atom_site_fract_z
Si Si1 0.788715 0.970310 0.001497
Si Si2 0.500000 0.931552 0.250000
Si Si3 0.384561 0.359673 0.166838
Si Si4 0.000000 0.236932 0.250000
Si Si5 0.101575 0.330942 0.476453
O O1 0.627448 0.972042 0.100424
O O2 0.843477 0.905071 0.987388
O O3 0.841225 0.004139 0.204563
O O4 0.531302 0.890504 0.452720
O O5 0.500000 0.385820 0.250000
O O6 0.254529 0.345805 0.435473
O O7 0.434185 0.301336 0.007656
O O8 0.886185 0.280514 0.234171
O O9 0.000000 0.304493 0.750000
#
# Coordination Sequence:
#
# PCOD8149260 Si02
#       5
#     8   4   8   4   8
#     4  11  26  45  72 104 144 191 246 299 358 424
#     4   9  22  40  72 106 140 182 234 303 358 428
#     4  11  27  44  71 102 145 189 235 295 362 435
#     4  11  24  44  68 102 142 188 240 289 364 422
#     4  10  23  44  73 106 140 180 237 299 359 434
#
# _framework density 25.102554000000001
#
# number of rings (size 3 to 8) (size 9 to 14) (size 15 to 20)
#    0.000    1.500    0.000    2.250   10.500    9.000 
#    0.000    0.000    0.000    0.000    0.000    0.000 
#    0.000    0.000    0.000    0.000    0.000    0.000 
#
# Total GULP energy -198328.352693 kJ/mol
# GULP energy per Si atom -12395.522043 kJ/mol
# Density = 2.504542 g / cm^3
# Si number density = 25.102554 Si / 1000 Ang^3
#
#
#
# Elastic Constant Matrix: (Units=GPa)
#
#
# Indices 1 2 3 4 5 6 
#
# 1 149.7286 20.0261 40.5528 0.0000 -3.8718 0.0000
# 2 20.0261 89.8375 18.0311 0.0000 0.4347 0.0000
# 3 40.5528 18.0311 92.9883 0.0000 1.3897 0.0000
# 4 0.0000 0.0000 0.0000 20.5048 0.0000 1.7501
# 5 -3.8718 0.4347 1.3897 0.0000 28.8845 0.0000
# 6 0.0000 0.0000 0.0000 1.7501 0.0000 16.1021
#
#
#
# Elastic Compliance Matrix: (Units=1/GPa)
#
#
# Indices 1 2 3 4 5 6 
#
# 1 0.007714 -0.001089 -0.003171 0.000000 0.001203 0.000000
# 2 -0.001089 0.011736 -0.001797 0.000000 -0.000236 0.000000
# 3 -0.003171 -0.001797 0.012500 0.000000 -0.000999 0.000000
# 4 0.000000 0.000000 0.000000 0.049226 0.000000 -0.005350
# 5 0.001203 -0.000236 -0.000999 0.000000 0.034834 0.000000
# 6 0.000000 0.000000 0.000000 -0.005350 0.000000 0.062685
#
#
# Mechanical properties :
#
#
# Convention : Reuss Voigt Hill
#
# Bulk Modulus (GPa) = 50.41345 54.41938 52.41642
# Shear Modulus (GPa) = 25.32652 30.02792 27.67722
#
# Velocity S-wave (km/s) = 3.17980 3.46238 3.32409
# Velocity P-wave (km/s) = 5.79725 6.14084 5.97152
#
# Compressibility (1/GPa) = 0.01983597
#
# Stress axis : x y z
#
# Youngs Moduli (GPa) = 129.62798 85.20916 79.99736
#
# Poissons Ratio (x) = 0.09279 0.25368
# Poissons Ratio (y) = 0.14117 0.14377
# Poissons Ratio (z) = 0.41106 0.15314
#
# Static dielectric constant tensor:
#      x y z
#    x 4.659210 0.000000 0.012650 
#    y 0.000000 4.424410 0.000000 
#    z 0.012650 0.000000 4.183300 
# 
# 
# High freq. dielectric constant tensor:
#      x y z
#    x 2.003960 0.000000 -0.001230 
#    y 0.000000 2.012330 0.000000 
#    z -0.001230 0.000000 1.977060 
# 
# From -- ./inp_files/4010.got.cif
#   From: 2010.06.25/outbox.cif.g09.slc.cpg/sg15_3_cif.got.tgz:4010.got - 2010.06.28 07:06:18.
