data_PCOD8149852
_publ_section_title
;
Structure prediction by ZEFSAII (Michael W. Deem and Ramdas Pophale) SiO2 
 PCOD8149852
Probable space group: C 2/C
;
_chemical_formula_sum "Si O2"
_cell_formula_units_Z 40
_cell_length_a 22.362371
_cell_length_b 8.317229
_cell_length_c 17.510258
_cell_angle_alpha 90.000000
_cell_angle_beta 148.309980
_cell_angle_gamma 90.000000
_cell_volume 1710.865374
_symmetry_space_group_name_H-M "C 2/C"
_symmetry_group_IT_number 15
_symmetry_cell_setting 'monoclinic'
loop_
_space_group_symop_operation_xyz
x,y,z
-x,y,1/2-z
-x,-y,-z
x,-y,1/2+z
1/2+x,1/2+y,z
1/2-x,1/2+y,1/2-z
1/2-x,1/2-y,-z
1/2+x,1/2-y,1/2+z
loop_
_atom_site_type_symbol
_atom_site_label
_atom_site_fract_x
_atom_site_fract_y
_atom_site_fract_z
Si Si1 0.855475 0.432033 0.918747
Si Si2 0.358630 0.490498 0.239669
Si Si3 0.061134 0.853611 0.894096
Si Si4 0.430843 0.133544 0.330732
Si Si5 0.257661 0.567020 0.480415
O O1 0.723347 0.492390 0.775842
O O2 0.882839 0.384117 0.863128
O O3 0.862852 0.284042 0.985485
O O4 0.938899 0.576992 0.035202
O O5 0.464574 0.611988 0.353839
O O6 0.417442 0.318028 0.293869
O O7 0.273453 0.532032 0.075911
O O8 0.000000 0.794092 0.750000
O O9 0.135147 0.015060 0.956760
O O10 0.356666 0.025269 0.191050
O O11 0.250000 0.750000 0.500000
#
# Coordination Sequence:
#
# PCOD8149852 Si02
#       5
#     8   8   8   8   8
#     4  11  26  41  66 100 135 174 221 280 334 391
#     4  10  24  43  68  92 130 177 221 269 334 402
#     4  10  24  42  66  98 131 168 226 279 336 389
#     4  10  25  43  63  97 134 174 225 270 337 400
#     4   9  21  43  69  92 125 173 220 272 325 404
#
# _framework density 23.379981999999998
#
# number of rings (size 3 to 8) (size 9 to 14) (size 15 to 20)
#    0.000    2.000    0.000    0.000   14.000    4.000 
#    0.000    0.000    0.000    0.000    0.000    0.000 
#    0.000    0.000    0.000    0.000    0.000    0.000 
#
# Total GULP energy -247800.175440 kJ/mol
# GULP energy per Si atom -12390.008772 kJ/mol
# Density = 2.332677 g / cm^3
# Si number density = 23.379982 Si / 1000 Ang^3
#
#
#
# Elastic Constant Matrix: (Units=GPa)
#
#
# Indices 1 2 3 4 5 6 
#
# 1 107.0321 40.1802 14.3166 0.0000 34.1359 0.0000
# 2 40.1802 83.8472 24.6915 0.0000 9.8899 0.0000
# 3 14.3166 24.6915 57.6440 0.0000 1.6752 0.0000
# 4 0.0000 0.0000 0.0000 18.2656 0.0000 12.2926
# 5 34.1359 9.8899 1.6752 0.0000 40.0847 0.0000
# 6 0.0000 0.0000 0.0000 12.2926 0.0000 25.9711
#
#
#
# Elastic Compliance Matrix: (Units=1/GPa)
#
#
# Indices 1 2 3 4 5 6 
#
# 1 0.015304 -0.005660 -0.001040 0.000000 -0.011593 0.000000
# 2 -0.005660 0.016145 -0.005541 0.000000 0.001069 0.000000
# 3 -0.001040 -0.005541 0.019938 0.000000 0.001419 0.000000
# 4 0.000000 0.000000 0.000000 0.080339 0.000000 -0.038026
# 5 -0.011593 0.001069 0.001419 0.000000 0.034497 0.000000
# 6 0.000000 0.000000 0.000000 -0.038026 0.000000 0.056503
#
#
# Mechanical properties :
#
#
# Convention : Reuss Voigt Hill
#
# Bulk Modulus (GPa) = 37.16662 45.21109 41.18886
# Shear Modulus (GPa) = 19.51792 28.15328 23.83560
#
# Velocity S-wave (km/s) = 2.89245 3.47387 3.19641
# Velocity P-wave (km/s) = 5.20445 5.95566 5.59268
#
# Compressibility (1/GPa) = 0.02690586
#
# Stress axis : x y z
#
# Youngs Moduli (GPa) = 65.34072 61.94040 50.15519
#
# Poissons Ratio (x) = 0.35061 0.05214
# Poissons Ratio (y) = 0.36986 0.27789
# Poissons Ratio (z) = 0.06792 0.34319
#
# Static dielectric constant tensor:
#      x y z
#    x 4.148960 0.000000 -0.041370 
#    y 0.000000 3.871410 0.000000 
#    z -0.041370 0.000000 4.629510 
# 
# 
# High freq. dielectric constant tensor:
#      x y z
#    x 1.928360 0.000000 0.001510 
#    y 0.000000 1.908350 0.000000 
#    z 0.001510 0.000000 1.930340 
# 
# From -- ./inp_files/218836.got.cif
#   From: 2010.06.25/outbox.cif.g09.slc.cpg/sg15_110_cif.got.tgz:218836.got - 2010.06.28 07:06:18.
