data_PCOD8149081
_publ_section_title
;
Structure prediction by ZEFSAII (Michael W. Deem and Ramdas Pophale) SiO2 
 PCOD8149081
Probable space group: C 2/C
;
_chemical_formula_sum "Si O2"
_cell_formula_units_Z 56
_cell_length_a 17.232479
_cell_length_b 15.178216
_cell_length_c 11.109637
_cell_angle_alpha 90.000000
_cell_angle_beta 113.080889
_cell_angle_gamma 90.000000
_cell_volume 2673.213650
_symmetry_space_group_name_H-M "C 2/C"
_symmetry_group_IT_number 15
_symmetry_cell_setting 'monoclinic'
loop_
_space_group_symop_operation_xyz
x,y,z
-x,y,1/2-z
-x,-y,-z
x,-y,1/2+z
1/2+x,1/2+y,z
1/2-x,1/2+y,1/2-z
1/2-x,1/2-y,-z
1/2+x,1/2-y,1/2+z
loop_
_atom_site_type_symbol
_atom_site_label
_atom_site_fract_x
_atom_site_fract_y
_atom_site_fract_z
Si Si1 0.596101 0.373348 0.949697
Si Si2 0.000000 0.005118 0.750000
Si Si3 0.078450 0.317175 0.374343
Si Si4 0.206505 0.429285 0.158980
Si Si5 0.974980 0.398946 0.499485
Si Si6 0.117942 0.152027 0.734977
Si Si7 0.775650 0.450627 0.063587
Si Si8 0.000000 0.300448 0.750000
O O1 0.521013 0.441516 0.875157
O O2 0.591167 0.286904 0.862704
O O3 0.586497 0.343179 0.079963
O O4 0.682857 0.421095 0.972822
O O5 0.918581 0.063737 0.727535
O O6 0.165124 0.365334 0.397507
O O7 0.000000 0.354516 0.250000
O O8 0.049457 0.338416 0.492150
O O9 0.280494 0.355835 0.192471
O O10 0.222141 0.486013 0.293981
O O11 0.116307 0.380917 0.117955
O O12 0.197605 0.483675 0.027706
O O13 0.000000 0.500000 0.500000
O O14 0.969658 0.368836 0.632547
O O15 0.082094 0.239268 0.776415
#
# Coordination Sequence:
#
# PCOD8149081 Si02
#       8
#     8   4   8   8   8   8   8   4
#     4  11  22  41  65  96 133 174 228 274 338 395
#     4  11  20  38  69  92 128 182 219 282 334 407
#     4  12  23  41  64  97 132 175 223 277 325 406
#     4  11  24  42  68  99 135 179 226 274 337 405
#     4  12  26  42  70  96 132 179 221 274 336 404
#     4  10  23  44  65  98 135 170 224 284 336 400
#     4  11  24  42  66 100 136 176 223 282 335 398
#     4  11  26  46  71  98 132 176 223 282 338 397
#
# _framework density 20.948568000000002
#
# number of rings (size 3 to 8) (size 9 to 14) (size 15 to 20)
#    0.000    0.857    6.429    0.857    3.000    0.571 
#    0.000    1.429    3.143    0.000    0.000    0.000 
#    0.000    0.000    0.000    0.000    0.000    0.000 
#
# Total GULP energy -347033.781534 kJ/mol
# GULP energy per Si atom -12394.063626 kJ/mol
# Density = 2.090089 g / cm^3
# Si number density = 20.948568 Si / 1000 Ang^3
#
#
#
# Elastic Constant Matrix: (Units=GPa)
#
#
# Indices 1 2 3 4 5 6 
#
# 1 84.1432 25.4128 30.6991 0.0000 4.0055 0.0000
# 2 25.4128 100.7683 39.0601 0.0000 2.9230 0.0000
# 3 30.6991 39.0601 107.7840 0.0000 -0.1061 0.0000
# 4 0.0000 0.0000 0.0000 31.1363 0.0000 -1.9897
# 5 4.0055 2.9230 -0.1061 0.0000 35.6947 0.0000
# 6 0.0000 0.0000 0.0000 -1.9897 0.0000 15.8483
#
#
#
# Elastic Compliance Matrix: (Units=1/GPa)
#
#
# Indices 1 2 3 4 5 6 
#
# 1 0.013757 -0.002223 -0.003114 0.000000 -0.001371 0.000000
# 2 -0.002223 0.011937 -0.003694 0.000000 -0.000739 0.000000
# 3 -0.003114 -0.003694 0.011504 0.000000 0.000686 0.000000
# 4 0.000000 0.000000 0.000000 0.032377 0.000000 0.004065
# 5 -0.001371 -0.000739 0.000686 0.000000 0.028232 0.000000
# 6 0.000000 0.000000 0.000000 0.004065 0.000000 0.063608
#
#
# Mechanical properties :
#
#
# Convention : Reuss Voigt Hill
#
# Bulk Modulus (GPa) = 52.25284 53.67104 52.96194
# Shear Modulus (GPa) = 26.90257 29.70411 28.30334
#
# Velocity S-wave (km/s) = 3.58749 3.76966 3.67970
# Velocity P-wave (km/s) = 6.49289 6.68005 6.58714
#
# Compressibility (1/GPa) = 0.01913772
#
# Stress axis : x y z
#
# Youngs Moduli (GPa) = 72.68909 83.76982 86.92565
#
# Poissons Ratio (x) = 0.18618 0.27071
# Poissons Ratio (y) = 0.16155 0.32108
# Poissons Ratio (z) = 0.22637 0.30943
#
# Static dielectric constant tensor:
#      x y z
#    x 4.052750 0.000000 -0.026660 
#    y 0.000000 3.506720 0.000000 
#    z -0.026660 0.000000 3.917890 
# 
# 
# High freq. dielectric constant tensor:
#      x y z
#    x 1.833600 0.000000 0.000140 
#    y 0.000000 1.800530 0.000000 
#    z 0.000140 0.000000 1.831340 
# 
# From -- ./inp_files/105666.got.cif
#   From: 2010.06.25/outbox.cif.g09.slc.cpg/sg15_53_cif.got.tgz:105666.got - 2010.06.28 07:06:18.
