data_PCOD8149315
_publ_section_title
;
Structure prediction by ZEFSAII (Michael W. Deem and Ramdas Pophale) SiO2 
 PCOD8149315
Probable space group: C 2/C
;
_chemical_formula_sum "Si O2"
_cell_formula_units_Z 32
_cell_length_a 26.295577
_cell_length_b 6.806678
_cell_length_c 11.754008
_cell_angle_alpha 90.000000
_cell_angle_beta 42.992831
_cell_angle_gamma 90.000000
_cell_volume 1434.593780
_symmetry_space_group_name_H-M "C 2/C"
_symmetry_group_IT_number 15
_symmetry_cell_setting 'monoclinic'
loop_
_space_group_symop_operation_xyz
x,y,z
-x,y,1/2-z
-x,-y,-z
x,-y,1/2+z
1/2+x,1/2+y,z
1/2-x,1/2+y,1/2-z
1/2-x,1/2-y,-z
1/2+x,1/2-y,1/2+z
loop_
_atom_site_type_symbol
_atom_site_label
_atom_site_fract_x
_atom_site_fract_y
_atom_site_fract_z
Si Si1 0.895526 0.527364 0.267447
Si Si2 0.659998 0.730154 0.445683
Si Si3 0.244490 0.595151 0.613087
Si Si4 0.532123 0.705007 0.477603
O O1 0.863713 0.575776 0.444166
O O2 0.826595 0.547459 0.292171
O O3 0.927646 0.305463 0.198047
O O4 0.961754 0.672427 0.132401
O O5 0.683364 0.546518 0.489257
O O6 0.731102 0.784463 0.251393
O O7 0.589574 0.670690 0.485696
O O8 0.250000 0.750000 0.500000
O O9 0.500000 0.500000 0.500000
#
# Coordination Sequence:
#
# PCOD8149315 Si02
#       4
#     8   8   8   8
#     4  10  23  45  67 101 140 172 236 283 343 411
#     4  11  24  43  69 102 134 187 233 280 363 405
#     4  11  25  43  70 102 140 184 232 292 348 414
#     4  10  24  45  71 101 138 183 231 287 340 419
#
# _framework density 22.305968
#
# number of rings (size 3 to 8) (size 9 to 14) (size 15 to 20)
#    0.000    1.500    0.000    3.000   10.500    0.000 
#    9.000    0.000    0.000    0.000    0.000    0.000 
#    0.000    0.000    0.000    0.000    0.000    0.000 
#
# Total GULP energy -198286.352861 kJ/mol
# GULP energy per Si atom -12392.897054 kJ/mol
# Density = 2.225520 g / cm^3
# Si number density = 22.305968 Si / 1000 Ang^3
#
#
#
# Elastic Constant Matrix: (Units=GPa)
#
#
# Indices 1 2 3 4 5 6 
#
# 1 136.0680 89.4878 52.4841 0.0000 -15.3701 0.0000
# 2 89.4878 151.4786 68.6929 -0.0001 3.5560 -0.0001
# 3 52.4841 68.6929 128.0279 0.0000 14.9840 0.0000
# 4 0.0000 -0.0001 0.0000 29.7048 0.0000 0.1176
# 5 -15.3701 3.5560 14.9840 0.0000 46.0908 0.0000
# 6 0.0000 -0.0001 0.0000 0.1176 0.0000 52.9047
#
#
#
# Elastic Compliance Matrix: (Units=1/GPa)
#
#
# Indices 1 2 3 4 5 6 
#
# 1 0.013612 -0.007052 -0.002486 0.000000 0.005891 0.000000
# 2 -0.007052 0.012413 -0.003515 0.000000 -0.002167 0.000000
# 3 -0.002486 -0.003515 0.011208 0.000000 -0.004201 0.000000
# 4 0.000000 0.000000 0.000000 0.033665 0.000000 -0.000075
# 5 0.005891 -0.002167 -0.004201 0.000000 0.025194 0.000000
# 6 0.000000 0.000000 0.000000 -0.000075 0.000000 0.018902
#
#
# Mechanical properties :
#
#
# Convention : Reuss Voigt Hill
#
# Bulk Modulus (GPa) = 89.88447 92.98934 91.43691
# Shear Modulus (GPa) = 34.52842 39.40069 36.96456
#
# Velocity S-wave (km/s) = 3.93866 4.20739 4.07524
# Velocity P-wave (km/s) = 7.81458 8.08588 7.95139
#
# Compressibility (1/GPa) = 0.01112539
#
# Stress axis : x y z
#
# Youngs Moduli (GPa) = 73.46678 80.56119 89.22479
#
# Poissons Ratio (x) = 0.56815 0.22177
# Poissons Ratio (y) = 0.51811 0.31367
# Poissons Ratio (z) = 0.18261 0.28321
#
# Static dielectric constant tensor:
#      x y z
#    x 4.194400 0.000000 -0.149660 
#    y 0.000000 3.943790 0.000000 
#    z -0.149660 0.000000 4.308580 
# 
# 
# High freq. dielectric constant tensor:
#      x y z
#    x 1.884350 0.000000 -0.014970 
#    y 0.000000 1.873420 0.000000 
#    z -0.014970 0.000000 1.887710 
# 
# From -- ./inp_files/121034.got.cif
#   From: 2010.06.25/outbox.cif.g09.slc.cpg/sg15_61_cif.got.tgz:121034.got - 2010.06.28 07:06:18.
