data_PCOD8149186
_publ_section_title
;
Structure prediction by ZEFSAII (Michael W. Deem and Ramdas Pophale) SiO2 
 PCOD8149186
Probable space group: C 2/C
;
_chemical_formula_sum "Si O2"
_cell_formula_units_Z 48
_cell_length_a 11.627145
_cell_length_b 10.611844
_cell_length_c 20.139703
_cell_angle_alpha 90.000000
_cell_angle_beta 123.569662
_cell_angle_gamma 90.000000
_cell_volume 2070.492400
_symmetry_space_group_name_H-M "C 2/C"
_symmetry_group_IT_number 15
_symmetry_cell_setting 'monoclinic'
loop_
_space_group_symop_operation_xyz
x,y,z
-x,y,1/2-z
-x,-y,-z
x,-y,1/2+z
1/2+x,1/2+y,z
1/2-x,1/2+y,1/2-z
1/2-x,1/2-y,-z
1/2+x,1/2-y,1/2+z
loop_
_atom_site_type_symbol
_atom_site_label
_atom_site_fract_x
_atom_site_fract_y
_atom_site_fract_z
Si Si1 0.207645 0.434648 0.160028
Si Si2 0.731658 0.189706 0.102457
Si Si3 0.084793 0.925337 0.581282
Si Si4 0.091128 0.844759 0.167671
Si Si5 0.065296 0.678188 0.921857
Si Si6 0.293617 0.245111 0.089009
O O1 0.266386 0.575087 0.164758
O O2 0.295185 0.346643 0.238212
O O3 0.211544 0.363348 0.091798
O O4 0.045464 0.432906 0.130849
O O5 0.631763 0.279765 0.111713
O O6 0.859991 0.278581 0.122430
O O7 0.668396 0.133144 0.013642
O O8 0.240515 0.887851 0.605064
O O9 0.011011 0.796650 0.572501
O O10 0.078663 0.006902 0.646632
O O11 0.000000 0.000000 0.500000
O O12 0.956444 0.772192 0.151731
O O13 0.250000 0.250000 0.000000
#
# Coordination Sequence:
#
# PCOD8149186 Si02
#       6
#     8   8   8   8   8   8
#     4  11  26  43  65 100 142 177 224 293 357 410
#     4  11  24  43  71  97 135 183 229 285 343 427
#     4  11  21  42  71  97 133 180 230 288 333 411
#     4  12  25  43  64 105 137 179 230 286 359 412
#     4  10  23  44  69  98 130 179 240 277 345 418
#     4  11  23  42  71  97 130 181 235 276 338 421
#
# _framework density 23.182891000000001
#
# number of rings (size 3 to 8) (size 9 to 14) (size 15 to 20)
#    0.000    1.000    3.333    3.000    4.667    2.000 
#    0.000    0.000    0.000    0.000    0.000    0.000 
#    0.000    0.000    0.000    0.000    0.000    0.000 
#
# Total GULP energy -297362.504858 kJ/mol
# GULP energy per Si atom -12390.104369 kJ/mol
# Density = 2.313013 g / cm^3
# Si number density = 23.182891 Si / 1000 Ang^3
#
#
#
# Elastic Constant Matrix: (Units=GPa)
#
#
# Indices 1 2 3 4 5 6 
#
# 1 148.1273 40.1134 21.3588 0.0000 11.3338 0.0000
# 2 40.1134 81.5743 19.4134 0.0000 -5.0313 0.0000
# 3 21.3588 19.4134 65.8112 0.0000 15.8894 0.0000
# 4 0.0000 0.0000 0.0000 24.9726 0.0000 2.4702
# 5 11.3338 -5.0313 15.8894 0.0000 28.7219 0.0000
# 6 0.0000 0.0000 0.0000 2.4702 0.0000 38.2053
#
#
#
# Elastic Compliance Matrix: (Units=1/GPa)
#
#
# Indices 1 2 3 4 5 6 
#
# 1 0.008234 -0.004140 -0.000567 0.000000 -0.003660 0.000000
# 2 -0.004140 0.015960 -0.005117 0.000000 0.007260 0.000000
# 3 -0.000567 -0.005117 0.019680 0.000000 -0.011560 0.000000
# 4 0.000000 0.000000 0.000000 0.040302 0.000000 -0.002606
# 5 -0.003660 0.007260 -0.011560 0.000000 0.043928 0.000000
# 6 0.000000 0.000000 0.000000 -0.002606 0.000000 0.026343
#
#
# Mechanical properties :
#
#
# Convention : Reuss Voigt Hill
#
# Bulk Modulus (GPa) = 41.28021 50.80932 46.04476
# Shear Modulus (GPa) = 27.44696 32.68844 30.06770
#
# Velocity S-wave (km/s) = 3.44456 3.75910 3.60527
# Velocity P-wave (km/s) = 5.80216 6.38791 6.10207
#
# Compressibility (1/GPa) = 0.02422469
#
# Stress axis : x y z
#
# Youngs Moduli (GPa) = 121.44963 62.65644 50.81402
#
# Poissons Ratio (x) = 0.25938 0.02883
# Poissons Ratio (y) = 0.50276 0.26004
# Poissons Ratio (z) = 0.06891 0.32064
#
# Static dielectric constant tensor:
#      x y z
#    x 4.942480 0.000000 0.419000 
#    y 0.000000 4.334570 0.000000 
#    z 0.419000 0.000000 1.759450 
# 
# 
# High freq. dielectric constant tensor:
#      x y z
#    x 1.927580 0.000000 -0.008800 
#    y 0.000000 1.913190 0.000000 
#    z -0.008800 0.000000 1.901610 
# 
# From -- ./inp_files/237224.got.cif
#   From: 2010.06.25/outbox.cif.g09.slc.cpg/sg15_119_cif.got.tgz:237224.got - 2010.06.28 07:06:18.
