data_PCOD8149968
_publ_section_title
;
Structure prediction by ZEFSAII (Michael W. Deem and Ramdas Pophale) SiO2 
 PCOD8149968
Probable space group: C 2/C
;
_chemical_formula_sum "Si O2"
_cell_formula_units_Z 56
_cell_length_a 17.044969
_cell_length_b 29.590902
_cell_length_c 9.472195
_cell_angle_alpha 90.000000
_cell_angle_beta 145.083429
_cell_angle_gamma 90.000000
_cell_volume 2734.587448
_symmetry_space_group_name_H-M "C 2/C"
_symmetry_group_IT_number 15
_symmetry_cell_setting 'monoclinic'
loop_
_space_group_symop_operation_xyz
x,y,z
-x,y,1/2-z
-x,-y,-z
x,-y,1/2+z
1/2+x,1/2+y,z
1/2-x,1/2+y,1/2-z
1/2-x,1/2-y,-z
1/2+x,1/2-y,1/2+z
loop_
_atom_site_type_symbol
_atom_site_label
_atom_site_fract_x
_atom_site_fract_y
_atom_site_fract_z
Si Si1 0.098262 0.985877 0.017035
Si Si2 0.399539 0.801936 0.714022
Si Si3 0.730077 0.427245 0.741592
Si Si4 0.000000 0.825727 0.750000
Si Si5 0.016803 0.629980 0.932285
Si Si6 0.217317 0.098708 0.541843
Si Si7 0.000000 0.128988 0.750000
Si Si8 0.090652 0.795932 0.174826
O O1 0.159630 0.935036 0.081129
O O2 0.228425 0.019278 0.208783
O O3 0.000000 0.000209 0.750000
O O4 0.000000 0.000000 0.000000
O O5 0.500000 0.825139 0.750000
O O6 0.253218 0.800845 0.423977
O O7 0.454352 0.751423 0.824138
O O8 0.405374 0.831501 0.864246
O O9 0.627465 0.401690 0.483677
O O10 0.884004 0.412883 0.935460
O O11 0.688726 0.421414 0.844883
O O12 0.864554 0.855110 0.570407
O O13 0.968647 0.793990 0.570619
O O14 0.000000 0.650545 0.750000
O O15 0.876999 0.611761 0.797214
O O16 0.027590 0.160752 0.657421
#
# Coordination Sequence:
#
# PCOD8149968 Si02
#       8
#     8   8   8   4   8   8   4   8
#     4  12  23  40  66  95 125 164 212 274 324 377
#     4  11  23  45  60  94 133 171 216 276 324 386
#     4  11  22  40  67  94 126 165 214 266 327 388
#     4  12  22  41  66  96 128 170 220 269 320 382
#     4  10  24  43  66  92 130 175 215 265 333 395
#     4  11  23  42  63  95 132 163 215 275 321 388
#     4  12  20  41  66  94 124 166 220 263 322 384
#     4  11  25  39  67  94 129 171 219 273 323 384
#
# _framework density 20.478408000000002
#
# number of rings (size 3 to 8) (size 9 to 14) (size 15 to 20)
#    0.000    0.857    6.429    0.857    1.000    0.571 
#    2.571    1.429    0.000    0.000    0.000    0.000 
#    0.000    0.000    0.000    0.000    0.000    0.000 
#
# Total GULP energy -347003.762760 kJ/mol
# GULP energy per Si atom -12392.991527 kJ/mol
# Density = 2.043180 g / cm^3
# Si number density = 20.478408 Si / 1000 Ang^3
#
#
#
# Elastic Constant Matrix: (Units=GPa)
#
#
# Indices 1 2 3 4 5 6 
#
# 1 104.8396 25.1699 40.1855 0.0000 4.0808 0.0000
# 2 25.1699 75.5318 29.4050 0.0000 -1.1458 0.0000
# 3 40.1855 29.4050 104.2431 0.0000 -9.9126 0.0000
# 4 0.0000 0.0000 0.0000 5.6774 0.0000 -0.1519
# 5 4.0808 -1.1458 -9.9126 0.0000 35.3309 0.0000
# 6 0.0000 0.0000 0.0000 -0.1519 0.0000 27.4430
#
#
#
# Elastic Compliance Matrix: (Units=1/GPa)
#
#
# Indices 1 2 3 4 5 6 
#
# 1 0.011787 -0.002362 -0.004125 0.000000 -0.002595 0.000000
# 2 -0.002362 0.015363 -0.003442 0.000000 -0.000195 0.000000
# 3 -0.004125 -0.003442 0.012523 0.000000 0.003878 0.000000
# 4 0.000000 0.000000 0.000000 0.176165 0.000000 0.000975
# 5 -0.002595 -0.000195 0.003878 0.000000 0.029685 0.000000
# 6 0.000000 0.000000 0.000000 0.000975 0.000000 0.036445
#
#
# Mechanical properties :
#
#
# Convention : Reuss Voigt Hill
#
# Bulk Modulus (GPa) = 50.46102 52.68172 51.57137
# Shear Modulus (GPa) = 16.21115 26.34719 21.27917
#
# Velocity S-wave (km/s) = 2.81663 3.59079 3.22701
# Velocity P-wave (km/s) = 5.93906 6.55538 6.25482
#
# Compressibility (1/GPa) = 0.01981728
#
# Stress axis : x y z
#
# Youngs Moduli (GPa) = 84.83662 65.08980 79.85527
#
# Poissons Ratio (x) = 0.15372 0.32937
# Poissons Ratio (y) = 0.20035 0.27485
# Poissons Ratio (z) = 0.34992 0.22403
#
# Static dielectric constant tensor:
#      x y z
#    x 3.715450 0.000000 -0.079070 
#    y 0.000000 3.719210 0.000000 
#    z -0.079070 0.000000 3.880480 
# 
# 
# High freq. dielectric constant tensor:
#      x y z
#    x 1.803440 0.000000 -0.002540 
#    y 0.000000 1.796570 0.000000 
#    z -0.002540 0.000000 1.810250 
# 
# From -- ./inp_files/52694.got.cif
#   From: 2010.06.25/outbox.cif.g09.slc.cpg/sg15_27_cif.got.tgz:52694.got - 2010.06.28 07:06:18.
