data_PCOD8149491
_publ_section_title
;
Structure prediction by ZEFSAII (Michael W. Deem and Ramdas Pophale) SiO2 
 PCOD8149491
Probable space group: C 2/C
;
_chemical_formula_sum "Si O2"
_cell_formula_units_Z 56
_cell_length_a 7.188523
_cell_length_b 16.845617
_cell_length_c 24.452350
_cell_angle_alpha 90.000000
_cell_angle_beta 51.237239
_cell_angle_gamma 90.000000
_cell_volume 2308.871819
_symmetry_space_group_name_H-M "C 2/C"
_symmetry_group_IT_number 15
_symmetry_cell_setting 'monoclinic'
loop_
_space_group_symop_operation_xyz
x,y,z
-x,y,1/2-z
-x,-y,-z
x,-y,1/2+z
1/2+x,1/2+y,z
1/2-x,1/2+y,1/2-z
1/2-x,1/2-y,-z
1/2+x,1/2-y,1/2+z
loop_
_atom_site_type_symbol
_atom_site_label
_atom_site_fract_x
_atom_site_fract_y
_atom_site_fract_z
Si Si1 0.061351 0.463254 0.431589
Si Si2 0.381139 0.206967 0.155910
Si Si3 0.392202 0.636072 0.597638
Si Si4 0.944426 0.706408 0.926377
Si Si5 0.443506 0.479656 0.635290
Si Si6 0.773801 0.921440 0.558798
Si Si7 0.885381 0.819210 0.688745
O O1 0.323041 0.498342 0.372681
O O2 0.000000 0.500000 0.500000
O O3 0.069756 0.366871 0.434729
O O4 0.872578 0.496125 0.422090
O O5 0.486124 0.291661 0.117799
O O6 0.592822 0.144756 0.112825
O O7 0.158823 0.180507 0.159155
O O8 0.297480 0.216800 0.234136
O O9 0.168408 0.666205 0.605716
O O10 0.304954 0.563019 0.652423
O O11 0.608019 0.607626 0.519119
O O12 0.129274 0.770782 0.866636
O O13 0.750000 0.750000 0.000000
O O14 0.476865 0.441209 0.567238
O O15 0.306177 0.411297 0.694193
#
# Coordination Sequence:
#
# PCOD8149491 Si02
#       7
#     8   8   8   8   8   8   8
#     4  12  23  40  68 103 141 174 222 288 348 399
#     4  10  24  45  68 100 136 187 228 285 346 417
#     4  11  23  40  68 104 137 171 235 286 336 415
#     4  11  24  42  71 103 141 184 224 289 349 404
#     4  12  24  42  69 103 135 178 229 285 344 417
#     4  12  23  42  70 102 139 175 231 285 351 408
#     4  10  23  47  68  97 142 182 234 281 350 422
#
# _framework density 24.254270000000002
#
# number of rings (size 3 to 8) (size 9 to 14) (size 15 to 20)
#    0.000    0.857    4.286    3.429    2.000    2.857 
#    2.571    1.429    0.000    0.000    0.000    0.000 
#    0.000    0.000    0.000    0.000    0.000    0.000 
#
# Total GULP energy -346978.915285 kJ/mol
# GULP energy per Si atom -12392.104117 kJ/mol
# Density = 2.419907 g / cm^3
# Si number density = 24.254270 Si / 1000 Ang^3
#
#
#
# Elastic Constant Matrix: (Units=GPa)
#
#
# Indices 1 2 3 4 5 6 
#
# 1 49.7069 22.4035 16.4388 -0.0010 -1.5051 -0.0021
# 2 22.4035 188.3893 56.3238 -0.0038 -0.6372 0.0004
# 3 16.4388 56.3238 90.2582 -0.0122 3.5270 0.0018
# 4 -0.0010 -0.0038 -0.0122 28.3813 0.0024 7.4053
# 5 -1.5051 -0.6372 3.5270 0.0024 25.4765 0.0024
# 6 -0.0021 0.0004 0.0018 7.4053 0.0024 47.6812
#
#
#
# Elastic Compliance Matrix: (Units=1/GPa)
#
#
# Indices 1 2 3 4 5 6 
#
# 1 0.021928 -0.001707 -0.002994 -0.000001 0.001667 0.000001
# 2 -0.001707 0.006672 -0.003876 -0.000001 0.000603 0.000000
# 3 -0.002994 -0.003876 0.014131 0.000006 -0.002230 -0.000001
# 4 -0.000001 -0.000001 0.000006 0.036723 -0.000004 -0.005703
# 5 0.001667 0.000603 -0.002230 -0.000004 0.039674 -0.000001
# 6 0.000001 0.000000 -0.000001 -0.005703 -0.000001 0.021858
#
#
# Mechanical properties :
#
#
# Convention : Reuss Voigt Hill
#
# Bulk Modulus (GPa) = 39.09807 57.63186 48.36497
# Shear Modulus (GPa) = 30.00026 35.85366 32.92696
#
# Velocity S-wave (km/s) = 3.52078 3.84896 3.68852
# Velocity P-wave (km/s) = 5.71690 6.60044 6.17449
#
# Compressibility (1/GPa) = 0.02557671
#
# Stress axis : x y z
#
# Youngs Moduli (GPa) = 45.60411 149.87782 70.76842
#
# Poissons Ratio (x) = 0.25585 0.21186
# Poissons Ratio (y) = 0.07785 0.27432
# Poissons Ratio (z) = 0.13652 0.58096
#
# Static dielectric constant tensor:
#      x y z
#    x 0.107950 -0.000140 1.506760 
#    y -0.000140 5.089640 0.000060 
#    z 1.506760 0.000060 3.630230 
# 
# 
# High freq. dielectric constant tensor:
#      x y z
#    x 1.971260 0.000000 0.014980 
#    y 0.000000 1.993370 0.000000 
#    z 0.014980 0.000000 1.920090 
# 
# From -- ./inp_files/289391.got.cif
#   From: 2010.06.25/outbox.cif.g09.slc.cpg/sg15_145_cif.got.tgz:289391.got - 2010.06.28 07:06:18.
