data_PCOD8149454
_publ_section_title
;
Structure prediction by ZEFSAII (Michael W. Deem and Ramdas Pophale) SiO2 
 PCOD8149454
Probable space group: C 2/C
;
_chemical_formula_sum "Si O2"
_cell_formula_units_Z 60
_cell_length_a 29.917475
_cell_length_b 10.641072
_cell_length_c 8.965077
_cell_angle_alpha 90.000000
_cell_angle_beta 70.418500
_cell_angle_gamma 90.000000
_cell_volume 2689.005184
_symmetry_space_group_name_H-M "C 2/C"
_symmetry_group_IT_number 15
_symmetry_cell_setting 'monoclinic'
loop_
_space_group_symop_operation_xyz
x,y,z
-x,y,1/2-z
-x,-y,-z
x,-y,1/2+z
1/2+x,1/2+y,z
1/2-x,1/2+y,1/2-z
1/2-x,1/2-y,-z
1/2+x,1/2-y,1/2+z
loop_
_atom_site_type_symbol
_atom_site_label
_atom_site_fract_x
_atom_site_fract_y
_atom_site_fract_z
Si Si1 0.910666 0.446665 0.762744
Si Si2 0.733759 0.143029 0.723435
Si Si3 0.727931 0.580281 0.131645
Si Si4 0.118651 0.879752 0.708602
Si Si5 0.000000 0.444158 0.250000
Si Si6 0.373165 0.850232 0.116782
Si Si7 0.533343 0.568444 0.849856
Si Si8 0.924075 0.724688 0.003235
O O1 0.887077 0.581405 0.756963
O O2 0.891415 0.362535 0.646394
O O3 0.967799 0.465220 0.682539
O O4 0.900038 0.394861 0.938924
O O5 0.742402 0.295756 0.715196
O O6 0.738870 0.089209 0.550894
O O7 0.681724 0.125056 0.847345
O O8 0.765781 0.054313 0.793604
O O9 0.673123 0.576752 0.140357
O O10 0.113315 0.794681 0.863858
O O11 0.109385 0.805050 0.565873
O O12 0.080889 0.991565 0.755585
O O13 0.963004 0.356059 0.375112
O O14 0.500000 0.600016 0.750000
O O15 0.500000 0.500000 0.000000
O O16 0.548032 0.696664 0.906344
#
# Coordination Sequence:
#
# PCOD8149454 Si02
#       8
#     8   8   8   8   4   8   8   8
#     4  12  25  39  69 101 134 185 230 287 343 422
#     4  10  23  46  71 106 141 185 231 297 362 425
#     4  10  24  45  76 103 144 184 237 298 356 436
#     4  11  25  47  67 100 141 187 234 291 347 415
#     4  12  24  44  64 102 142 178 236 284 350 400
#     4  11  23  44  69 101 144 179 231 288 356 416
#     4  12  27  44  66  94 135 188 234 282 341 405
#     4  12  26  43  69  96 138 185 228 293 343 409
#
# _framework density 22.313082999999999
#
# number of rings (size 3 to 8) (size 9 to 14) (size 15 to 20)
#    0.000    0.800    4.000    2.000    4.667    2.667 
#    2.400    0.000    0.000    0.000    0.000    0.000 
#    0.000    0.000    0.000    0.000    0.000    0.000 
#
# Total GULP energy -371707.967314 kJ/mol
# GULP energy per Si atom -12390.265577 kJ/mol
# Density = 2.226230 g / cm^3
# Si number density = 22.313083 Si / 1000 Ang^3
#
#
#
# Elastic Constant Matrix: (Units=GPa)
#
#
# Indices 1 2 3 4 5 6 
#
# 1 110.8987 37.5818 32.5926 0.0000 6.8477 0.0000
# 2 37.5818 67.3834 23.7869 0.0000 2.1982 0.0000
# 3 32.5926 23.7869 80.0861 0.0000 9.6343 0.0000
# 4 0.0000 0.0000 0.0000 50.0308 0.0000 17.9622
# 5 6.8477 2.1982 9.6343 0.0000 30.4589 0.0000
# 6 0.0000 0.0000 0.0000 17.9622 0.0000 37.5285
#
#
#
# Elastic Compliance Matrix: (Units=1/GPa)
#
#
# Indices 1 2 3 4 5 6 
#
# 1 0.011852 -0.005497 -0.003033 0.000000 -0.001308 0.000000
# 2 -0.005497 0.019132 -0.003564 0.000000 0.000982 0.000000
# 3 -0.003033 -0.003564 0.015247 0.000000 -0.003883 0.000000
# 4 0.000000 0.000000 0.000000 0.024135 0.000000 -0.011552
# 5 -0.001308 0.000982 -0.003883 0.000000 0.034283 0.000000
# 6 0.000000 0.000000 0.000000 -0.011552 0.000000 0.032175
#
#
# Mechanical properties :
#
#
# Convention : Reuss Voigt Hill
#
# Bulk Modulus (GPa) = 45.36545 49.58787 47.47666
# Shear Modulus (GPa) = 29.69823 34.56411 32.13117
#
# Velocity S-wave (km/s) = 3.65222 3.94007 3.79887
# Velocity P-wave (km/s) = 6.17741 6.55521 6.36911
#
# Compressibility (1/GPa) = 0.02204321
#
# Stress axis : x y z
#
# Youngs Moduli (GPa) = 84.37132 52.26791 65.58784
#
# Poissons Ratio (x) = 0.28731 0.19896
# Poissons Ratio (y) = 0.46378 0.23373
# Poissons Ratio (z) = 0.25594 0.18626
#
# Static dielectric constant tensor:
#      x y z
#    x 4.055870 0.000000 0.051390 
#    y 0.000000 4.353000 0.000000 
#    z 0.051390 0.000000 3.994160 
# 
# 
# High freq. dielectric constant tensor:
#      x y z
#    x 1.879700 0.000000 0.003720 
#    y 0.000000 1.891050 0.000000 
#    z 0.003720 0.000000 1.882300 
# 
# From -- ./inp_files/69360.got.cif
#   From: 2010.06.25/outbox.cif.g09.slc.cpg/sg15_35_cif.got.tgz:69360.got - 2010.06.28 07:06:18.
