data_PCOD8149328
_publ_section_title
;
Structure prediction by ZEFSAII (Michael W. Deem and Ramdas Pophale) SiO2 
 PCOD8149328
Probable space group: C 2/C
;
_chemical_formula_sum "Si O2"
_cell_formula_units_Z 48
_cell_length_a 14.210218
_cell_length_b 11.563997
_cell_length_c 14.638141
_cell_angle_alpha 90.000000
_cell_angle_beta 82.150091
_cell_angle_gamma 90.000000
_cell_volume 2382.899808
_symmetry_space_group_name_H-M "C 2/C"
_symmetry_group_IT_number 15
_symmetry_cell_setting 'monoclinic'
loop_
_space_group_symop_operation_xyz
x,y,z
-x,y,1/2-z
-x,-y,-z
x,-y,1/2+z
1/2+x,1/2+y,z
1/2-x,1/2+y,1/2-z
1/2-x,1/2-y,-z
1/2+x,1/2-y,1/2+z
loop_
_atom_site_type_symbol
_atom_site_label
_atom_site_fract_x
_atom_site_fract_y
_atom_site_fract_z
Si Si1 0.079925 0.501943 0.417191
Si Si2 0.000000 0.011421 0.750000
Si Si3 0.000000 0.596422 0.250000
Si Si4 0.809892 0.267086 0.083092
Si Si5 0.656996 0.757426 0.951932
Si Si6 0.851594 0.208841 0.752739
Si Si7 0.508861 0.612071 0.436692
O O1 0.025676 0.510426 0.328186
O O2 0.140352 0.389083 0.421941
O O3 0.147256 0.609476 0.427388
O O4 0.000000 0.500000 0.500000
O O5 0.007292 0.925190 0.664472
O O6 0.906282 0.091108 0.771301
O O7 0.088670 0.680742 0.220964
O O8 0.746804 0.271313 0.182521
O O9 0.885692 0.163956 0.072756
O O10 0.750000 0.250000 0.000000
O O11 0.667226 0.694220 0.853042
O O12 0.750000 0.750000 0.000000
O O13 0.567388 0.707327 0.019841
O O14 0.500000 0.500000 0.500000
#
# Coordination Sequence:
#
# PCOD8149328 Si02
#       7
#     8   4   4   8   8   8   8
#     4  11  23  44  68  95 133 178 221 282 337 394
#     4  11  24  41  76  96 148 175 231 278 350 412
#     4   9  22  43  68  92 134 177 223 274 338 400
#     4  12  27  42  71 102 137 176 237 277 346 409
#     4  11  26  45  70 100 140 178 232 280 344 404
#     4  10  23  45  68 100 134 184 224 280 344 411
#     4  12  26  47  70 102 138 188 226 285 342 412
#
# _framework density 20.143525
#
# number of rings (size 3 to 8) (size 9 to 14) (size 15 to 20)
#    0.000    1.000    3.333    2.000    9.333    3.333 
#    0.000    0.000    0.000    0.000    0.000    0.000 
#    0.000    0.000    0.000    0.000    0.000    0.000 
#
# Total GULP energy -297543.587841 kJ/mol
# GULP energy per Si atom -12397.649493 kJ/mol
# Density = 2.009768 g / cm^3
# Si number density = 20.143525 Si / 1000 Ang^3
#
#
#
# Elastic Constant Matrix: (Units=GPa)
#
#
# Indices 1 2 3 4 5 6 
#
# 1 149.9397 57.2586 85.1041 0.0000 2.7926 0.0000
# 2 57.2586 118.2641 67.3738 0.0000 9.6126 0.0000
# 3 85.1041 67.3738 169.0524 0.0000 8.9042 0.0000
# 4 0.0000 0.0000 0.0000 37.1335 0.0000 6.8182
# 5 2.7926 9.6126 8.9042 0.0000 54.1600 0.0000
# 6 0.0000 0.0000 0.0000 6.8182 0.0000 36.5388
#
#
#
# Elastic Compliance Matrix: (Units=1/GPa)
#
#
# Indices 1 2 3 4 5 6 
#
# 1 0.009907 -0.002570 -0.003995 0.000000 0.000602 0.000000
# 2 -0.002570 0.011688 -0.003291 0.000000 -0.001401 0.000000
# 3 -0.003995 -0.003291 0.009277 0.000000 -0.000735 0.000000
# 4 0.000000 0.000000 0.000000 0.027885 0.000000 -0.005203
# 5 0.000602 -0.001401 -0.000735 0.000000 0.018802 0.000000
# 6 0.000000 0.000000 0.000000 -0.005203 0.000000 0.028339
#
#
# Mechanical properties :
#
#
# Convention : Reuss Voigt Hill
#
# Bulk Modulus (GPa) = 89.59643 95.19214 92.39428
# Shear Modulus (GPa) = 38.66081 40.73444 39.69762
#
# Velocity S-wave (km/s) = 4.38570 4.50178 4.44412
# Velocity P-wave (km/s) = 8.37982 8.62443 8.50301
#
# Compressibility (1/GPa) = 0.01116116
#
# Stress axis : x y z
#
# Youngs Moduli (GPa) = 100.93997 85.55497 107.79666
#
# Poissons Ratio (x) = 0.21984 0.43064
# Poissons Ratio (y) = 0.25937 0.35475
# Poissons Ratio (z) = 0.40325 0.28155
#
# Static dielectric constant tensor:
#      x y z
#    x 3.879700 0.000000 -0.311260 
#    y 0.000000 4.035090 0.000000 
#    z -0.311260 0.000000 4.357850 
# 
# 
# High freq. dielectric constant tensor:
#      x y z
#    x 1.793520 0.000000 0.000850 
#    y 0.000000 1.796800 0.000000 
#    z 0.000850 0.000000 1.804600 
# 
# From -- ./inp_files/151982.got.cif
#   From: 2010.06.25/outbox.cif.g09.slc.cpg/sg15_76_cif.got.tgz:151982.got - 2010.06.28 07:06:18.
