data_PCOD8149571
_publ_section_title
;
Structure prediction by ZEFSAII (Michael W. Deem and Ramdas Pophale) SiO2 
 PCOD8149571
Probable space group: C 2/C
;
_chemical_formula_sum "Si O2"
_cell_formula_units_Z 36
_cell_length_a 16.039647
_cell_length_b 12.220723
_cell_length_c 9.190007
_cell_angle_alpha 90.000000
_cell_angle_beta 113.330930
_cell_angle_gamma 90.000000
_cell_volume 1654.094482
_symmetry_space_group_name_H-M "C 2/C"
_symmetry_group_IT_number 15
_symmetry_cell_setting 'monoclinic'
loop_
_space_group_symop_operation_xyz
x,y,z
-x,y,1/2-z
-x,-y,-z
x,-y,1/2+z
1/2+x,1/2+y,z
1/2-x,1/2+y,1/2-z
1/2-x,1/2-y,-z
1/2+x,1/2-y,1/2+z
loop_
_atom_site_type_symbol
_atom_site_label
_atom_site_fract_x
_atom_site_fract_y
_atom_site_fract_z
Si Si1 0.661655 0.818018 0.768217
Si Si2 0.859853 0.247772 0.421047
Si Si3 0.000000 0.987442 0.750000
Si Si4 0.451582 0.642658 0.961217
Si Si5 0.065934 0.541746 0.667617
O O1 0.767789 0.810300 0.804298
O O2 0.606271 0.752822 0.604062
O O3 0.632407 0.943664 0.759121
O O4 0.639306 0.764058 0.906076
O O5 0.869614 0.361243 0.341443
O O6 0.942231 0.168315 0.443576
O O7 0.929597 0.916117 0.600808
O O8 0.938208 0.061723 0.814761
O O9 0.000000 0.582855 0.750000
O O10 0.000000 0.500000 0.500000
#
# Coordination Sequence:
#
# PCOD8149571 Si02
#       5
#     8   8   4   8   8
#     4  11  23  44  69  99 135 178 229 282 340 405
#     4  11  24  42  71  99 134 179 229 281 343 403
#     4  10  24  36  70  88 130 174 216 264 348 390
#     4  11  21  45  63  96 131 180 217 280 332 408
#     4  12  23  43  74 100 135 184 227 276 343 412
#
# _framework density 21.764174000000001
#
# number of rings (size 3 to 8) (size 9 to 14) (size 15 to 20)
#    0.000    0.889    6.667    0.000    1.556    3.556 
#    0.000    4.444    0.000    0.000    0.000    0.000 
#    0.000    0.000    0.000    0.000    0.000    0.000 
#
# Total GULP energy -223201.634100 kJ/mol
# GULP energy per Si atom -12400.090783 kJ/mol
# Density = 2.171464 g / cm^3
# Si number density = 21.764174 Si / 1000 Ang^3
#
#
#
# Elastic Constant Matrix: (Units=GPa)
#
#
# Indices 1 2 3 4 5 6 
#
# 1 105.9915 33.7759 33.7837 0.0000 23.7042 0.0000
# 2 33.7759 90.1419 19.3260 0.0000 7.6696 0.0000
# 3 33.7837 19.3260 95.6233 0.0000 -5.7553 0.0000
# 4 0.0000 0.0000 0.0000 28.7505 0.0000 -6.5473
# 5 23.7042 7.6696 -5.7553 0.0000 28.4001 0.0000
# 6 0.0000 0.0000 0.0000 -6.5473 0.0000 32.1554
#
#
#
# Elastic Compliance Matrix: (Units=1/GPa)
#
#
# Indices 1 2 3 4 5 6 
#
# 1 0.015108 -0.003412 -0.005418 0.000000 -0.012787 0.000000
# 2 -0.003412 0.012753 -0.001425 0.000000 -0.000885 0.000000
# 3 -0.005418 -0.001425 0.013115 0.000000 0.007565 0.000000
# 4 0.000000 0.000000 0.000000 0.036473 0.000000 0.007426
# 5 -0.012787 -0.000885 0.007565 0.000000 0.047656 0.000000
# 6 0.000000 0.000000 0.000000 0.007426 0.000000 0.032611
#
#
# Mechanical properties :
#
#
# Convention : Reuss Voigt Hill
#
# Bulk Modulus (GPa) = 48.85968 51.72531 50.29250
# Shear Modulus (GPa) = 27.01987 31.51927 29.26957
#
# Velocity S-wave (km/s) = 3.52729 3.80967 3.67120
# Velocity P-wave (km/s) = 6.25199 6.57034 6.41314
#
# Compressibility (1/GPa) = 0.02046677
#
# Stress axis : x y z
#
# Youngs Moduli (GPa) = 66.18797 78.41382 76.24707
#
# Poissons Ratio (x) = 0.26751 0.41310
# Poissons Ratio (y) = 0.22580 0.10868
# Poissons Ratio (z) = 0.35860 0.11177
#
# Static dielectric constant tensor:
#      x y z
#    x 3.721160 0.000000 -0.052220 
#    y 0.000000 -11.049420 0.000000 
#    z -0.052220 0.000000 4.189970 
# 
# 
# High freq. dielectric constant tensor:
#      x y z
#    x 1.827940 0.000000 -0.004980 
#    y 0.000000 1.868670 0.000000 
#    z -0.004980 0.000000 1.864220 
# 
# From -- ./inp_files/46012.got.cif
#   From: 2010.06.25/outbox.cif.g09.slc.cpg/sg15_24_cif.got.tgz:46012.got - 2010.06.28 07:06:18.
