data_PCOD8149435
_publ_section_title
;
Structure prediction by ZEFSAII (Michael W. Deem and Ramdas Pophale) SiO2 
 PCOD8149435
Probable space group: C 2/C
;
_chemical_formula_sum "Si O2"
_cell_formula_units_Z 60
_cell_length_a 14.195834
_cell_length_b 9.314553
_cell_length_c 23.704369
_cell_angle_alpha 90.000000
_cell_angle_beta 115.009384
_cell_angle_gamma 90.000000
_cell_volume 2840.493931
_symmetry_space_group_name_H-M "C 2/C"
_symmetry_group_IT_number 15
_symmetry_cell_setting 'monoclinic'
loop_
_space_group_symop_operation_xyz
x,y,z
-x,y,1/2-z
-x,-y,-z
x,-y,1/2+z
1/2+x,1/2+y,z
1/2-x,1/2+y,1/2-z
1/2-x,1/2-y,-z
1/2+x,1/2-y,1/2+z
loop_
_atom_site_type_symbol
_atom_site_label
_atom_site_fract_x
_atom_site_fract_y
_atom_site_fract_z
Si Si1 0.517074 0.390321 0.552764
Si Si2 0.500000 0.218545 0.750000
Si Si3 0.244235 0.187786 0.133959
Si Si4 0.955176 0.281538 0.636216
Si Si5 0.371481 0.963615 0.760347
Si Si6 0.037792 0.642782 0.037663
Si Si7 0.277933 0.010014 0.356348
Si Si8 0.055806 0.956061 0.846754
O O1 0.500000 0.500000 0.500000
O O2 0.640344 0.404584 0.598102
O O3 0.471244 0.243391 0.518375
O O4 0.443735 0.424492 0.587049
O O5 0.491672 0.326413 0.801592
O O6 0.400251 0.111945 0.734275
O O7 0.333261 0.176808 0.108819
O O8 0.302571 0.143696 0.205876
O O9 0.200165 0.348058 0.120349
O O10 0.020816 0.391584 0.691284
O O11 0.972859 0.295768 0.574009
O O12 0.982440 0.122183 0.668041
O O13 0.297940 0.988489 0.794949
O O14 0.153064 0.621198 0.090731
O O15 0.000000 0.500000 0.000000
O O16 0.163375 0.059919 0.341674
#
# Coordination Sequence:
#
# PCOD8149435 Si02
#       8
#     8   4   8   8   8   8   8   8
#     4  12  26  45  68 103 141 179 234 292 346 406
#     4  12  26  42  68 106 142 172 224 304 344 400
#     4  11  23  42  72  95 134 187 229 279 344 418
#     4  10  23  46  69 100 135 187 230 276 353 423
#     4  11  24  44  69 103 139 179 232 287 347 417
#     4  11  23  45  72  97 139 180 234 288 334 414
#     4  10  25  43  69 100 132 187 229 278 350 412
#     4  11  27  44  68 103 141 180 228 288 352 414
#
# _framework density 21.123086000000001
#
# number of rings (size 3 to 8) (size 9 to 14) (size 15 to 20)
#    0.000    1.067    4.000    0.800    9.333    3.200 
#    0.000    0.000    0.000    0.000    0.000    0.000 
#    0.000    0.000    0.000    0.000    0.000    0.000 
#
# Total GULP energy -371674.516027 kJ/mol
# GULP energy per Si atom -12389.150534 kJ/mol
# Density = 2.107501 g / cm^3
# Si number density = 21.123086 Si / 1000 Ang^3
#
#
#
# Elastic Constant Matrix: (Units=GPa)
#
#
# Indices 1 2 3 4 5 6 
#
# 1 116.2970 49.0594 41.5395 0.0000 -14.8005 0.0000
# 2 49.0594 91.4432 24.6889 0.0000 -14.2662 0.0000
# 3 41.5395 24.6889 85.6084 0.0000 -17.2215 0.0000
# 4 0.0000 0.0000 0.0000 49.1756 0.0000 -1.8485
# 5 -14.8005 -14.2662 -17.2215 0.0000 29.7577 0.0000
# 6 0.0000 0.0000 0.0000 -1.8485 0.0000 29.0262
#
#
#
# Elastic Compliance Matrix: (Units=1/GPa)
#
#
# Indices 1 2 3 4 5 6 
#
# 1 0.012560 -0.005394 -0.004303 0.000000 0.001171 0.000000
# 2 -0.005394 0.014657 -0.000833 0.000000 0.003862 0.000000
# 3 -0.004303 -0.000833 0.015277 0.000000 0.006302 0.000000
# 4 0.000000 0.000000 0.000000 0.020384 0.000000 0.001298
# 5 0.001171 0.003862 0.006302 0.000000 0.039685 0.000000
# 6 0.000000 0.000000 0.000000 0.001298 0.000000 0.034534
#
#
# Mechanical properties :
#
#
# Convention : Reuss Voigt Hill
#
# Bulk Modulus (GPa) = 46.65536 58.21378 52.43457
# Shear Modulus (GPa) = 30.24747 33.46263 31.85505
#
# Velocity S-wave (km/s) = 3.78823 3.98449 3.88760
# Velocity P-wave (km/s) = 6.42414 6.98479 6.71032
#
# Compressibility (1/GPa) = 0.02143377
#
# Stress axis : x y z
#
# Youngs Moduli (GPa) = 79.61629 68.22670 65.45751
#
# Poissons Ratio (x) = 0.36802 0.28170
# Poissons Ratio (y) = 0.42946 0.05451
# Poissons Ratio (z) = 0.34263 0.05682
#
# Static dielectric constant tensor:
#      x y z
#    x 3.549830 0.000000 -0.663280 
#    y 0.000000 3.855180 0.000000 
#    z -0.663280 0.000000 2.873520 
# 
# 
# High freq. dielectric constant tensor:
#      x y z
#    x 1.832720 0.000000 -0.016280 
#    y 0.000000 1.843260 0.000000 
#    z -0.016280 0.000000 1.826360 
# 
# From -- ./inp_files/273227.got.cif
#   From: 2010.06.25/outbox.cif.g09.slc.cpg/sg15_137_cif.got.tgz:273227.got - 2010.06.28 07:06:18.
