data_PCOD8149831
_publ_section_title
;
Structure prediction by ZEFSAII (Michael W. Deem and Ramdas Pophale) SiO2 
 PCOD8149831
Probable space group: C 2/C
;
_chemical_formula_sum "Si O2"
_cell_formula_units_Z 64
_cell_length_a 14.334734
_cell_length_b 15.313397
_cell_length_c 17.793758
_cell_angle_alpha 90.000000
_cell_angle_beta 48.815288
_cell_angle_gamma 90.000000
_cell_volume 2939.596159
_symmetry_space_group_name_H-M "C 2/C"
_symmetry_group_IT_number 15
_symmetry_cell_setting 'monoclinic'
loop_
_space_group_symop_operation_xyz
x,y,z
-x,y,1/2-z
-x,-y,-z
x,-y,1/2+z
1/2+x,1/2+y,z
1/2-x,1/2+y,1/2-z
1/2-x,1/2-y,-z
1/2+x,1/2-y,1/2+z
loop_
_atom_site_type_symbol
_atom_site_label
_atom_site_fract_x
_atom_site_fract_y
_atom_site_fract_z
Si Si1 0.998234 0.461657 0.085341
Si Si2 0.048972 0.367118 0.641499
Si Si3 0.093173 0.075008 0.137328
Si Si4 0.984986 0.188201 0.059248
Si Si5 0.702506 0.390741 0.059947
Si Si6 0.974944 0.194382 0.621069
Si Si7 0.709369 0.164965 0.825949
Si Si8 0.190646 0.684555 0.472760
O O1 0.872962 0.409274 0.169142
O O2 0.000207 0.538430 0.144321
O O3 0.112774 0.397843 0.044882
O O4 0.000000 0.500000 0.000000
O O5 0.199945 0.364263 0.557681
O O6 0.000000 0.343357 0.750000
O O7 0.987451 0.299198 0.615333
O O8 0.021306 0.120545 0.105298
O O9 0.000000 0.041740 0.250000
O O10 0.172218 0.993089 0.067143
O O11 0.186389 0.142766 0.130488
O O12 0.096037 0.256448 0.975972
O O13 0.859903 0.241119 0.145719
O O14 0.976120 0.145408 0.981356
O O15 0.574625 0.337916 0.129516
O O16 0.774093 0.365145 0.097549
O O17 0.837361 0.164973 0.713633
O O18 0.250000 0.750000 0.500000
#
# Coordination Sequence:
#
# PCOD8149831 Si02
#       8
#     8   8   8   8   8   8   8   8
#     4  11  20  43  70  94 127 180 229 284 333 411
#     4  12  25  42  70 100 132 182 237 279 339 415
#     4  11  23  41  69 101 135 181 226 279 356 417
#     4  10  24  42  66 101 137 174 226 291 333 412
#     4  12  24  46  68  94 139 183 228 288 343 414
#     4  12  26  43  68  99 140 180 226 285 349 407
#     4  11  23  44  68  97 134 183 227 274 356 418
#     4   9  19  40  63  90 132 170 213 276 344 396
#
# _framework density 21.771699000000002
#
# number of rings (size 3 to 8) (size 9 to 14) (size 15 to 20)
#    0.000    1.000    3.750    3.000    3.500    1.500 
#    2.250    1.250    0.000    0.000    0.000    0.000 
#    0.000    0.000    0.000    0.000    0.000    0.000 
#
# Total GULP energy -396447.676072 kJ/mol
# GULP energy per Si atom -12388.989877 kJ/mol
# Density = 2.172215 g / cm^3
# Si number density = 21.771699 Si / 1000 Ang^3
#
#
#
# Elastic Constant Matrix: (Units=GPa)
#
#
# Indices 1 2 3 4 5 6 
#
# 1 91.8722 35.9300 32.2809 0.0000 -15.5116 0.0000
# 2 35.9300 98.9085 23.8359 0.0000 -5.5163 0.0000
# 3 32.2809 23.8359 118.2987 0.0000 -17.8779 0.0000
# 4 0.0000 0.0000 0.0000 27.4472 0.0000 -7.2615
# 5 -15.5116 -5.5163 -17.8779 0.0000 42.9758 0.0000
# 6 0.0000 0.0000 0.0000 -7.2615 0.0000 44.6107
#
#
#
# Elastic Compliance Matrix: (Units=1/GPa)
#
#
# Indices 1 2 3 4 5 6 
#
# 1 0.014013 -0.004311 -0.002427 0.000000 0.003495 0.000000
# 2 -0.004311 0.011963 -0.001320 0.000000 -0.000570 0.000000
# 3 -0.002427 -0.001320 0.009842 0.000000 0.003049 0.000000
# 4 0.000000 0.000000 0.000000 0.038073 0.000000 0.006197
# 5 0.003495 -0.000570 0.003049 0.000000 0.025726 0.000000
# 6 0.000000 0.000000 0.000000 0.006197 0.000000 0.023425
#
#
# Mechanical properties :
#
#
# Convention : Reuss Voigt Hill
#
# Bulk Modulus (GPa) = 50.75564 54.79701 52.77632
# Shear Modulus (GPa) = 34.31103 37.47558 35.89331
#
# Velocity S-wave (km/s) = 3.97413 4.15335 4.06473
# Velocity P-wave (km/s) = 6.66495 6.94435 6.80608
#
# Compressibility (1/GPa) = 0.01970225
#
# Stress axis : x y z
#
# Youngs Moduli (GPa) = 71.35978 83.59332 101.60276
#
# Poissons Ratio (x) = 0.36035 0.24661
# Poissons Ratio (y) = 0.30762 0.13413
# Poissons Ratio (z) = 0.17320 0.11035
#
# Static dielectric constant tensor:
#      x y z
#    x 4.285710 0.000000 -0.334530 
#    y 0.000000 4.145040 0.000000 
#    z -0.334530 0.000000 3.657020 
# 
# 
# High freq. dielectric constant tensor:
#      x y z
#    x 1.869810 0.000000 -0.025040 
#    y 0.000000 1.865480 0.000000 
#    z -0.025040 0.000000 1.836680 
# 
# From -- ./inp_files/205692.got.cif
#   From: 2010.06.25/outbox.cif.g09.slc.cpg/sg15_103_cif.got.tgz:205692.got - 2010.06.28 07:06:18.
