data_PCOD8149372
_publ_section_title
;
Structure prediction by ZEFSAII (Michael W. Deem and Ramdas Pophale) SiO2 
 PCOD8149372
Probable space group: C 2/C
;
_chemical_formula_sum "Si O2"
_cell_formula_units_Z 56
_cell_length_a 17.627373
_cell_length_b 7.702591
_cell_length_c 23.246127
_cell_angle_alpha 90.000000
_cell_angle_beta 127.136453
_cell_angle_gamma 90.000000
_cell_volume 2516.183579
_symmetry_space_group_name_H-M "C 2/C"
_symmetry_group_IT_number 15
_symmetry_cell_setting 'monoclinic'
loop_
_space_group_symop_operation_xyz
x,y,z
-x,y,1/2-z
-x,-y,-z
x,-y,1/2+z
1/2+x,1/2+y,z
1/2-x,1/2+y,1/2-z
1/2-x,1/2-y,-z
1/2+x,1/2-y,1/2+z
loop_
_atom_site_type_symbol
_atom_site_label
_atom_site_fract_x
_atom_site_fract_y
_atom_site_fract_z
Si Si1 0.472434 0.401878 0.626868
Si Si2 0.989278 0.703275 0.141372
Si Si3 0.155793 0.326877 0.021994
Si Si4 0.344058 0.263905 0.850486
Si Si5 0.773908 0.022773 0.992248
Si Si6 0.609875 0.892286 0.344146
Si Si7 0.169886 0.503106 0.252307
O O1 0.482944 0.595299 0.658038
O O2 0.558340 0.354587 0.623974
O O3 0.375893 0.388459 0.545733
O O4 0.465669 0.258483 0.674322
O O5 0.927721 0.584073 0.156032
O O6 0.098748 0.646210 0.193117
O O7 0.946213 0.680242 0.057452
O O8 0.137738 0.339264 0.081830
O O9 0.217093 0.155946 0.038087
O O10 0.220094 0.487454 0.028668
O O11 0.264585 0.411239 0.821091
O O12 0.303605 0.129114 0.785798
O O13 0.708580 0.148139 0.923023
O O14 0.621318 0.892545 0.281026
#
# Coordination Sequence:
#
# PCOD8149372 Si02
#       7
#     8   8   8   8   8   8   8
#     4  11  24  42  72 108 131 177 238 285 346 417
#     4  10  23  45  72 101 135 181 237 286 343 407
#     4   9  20  42  72  99 138 182 232 290 346 412
#     4  12  26  45  66 104 146 181 231 293 359 411
#     4   9  19  41  72 103 130 180 235 284 343 412
#     4  11  22  47  71 101 138 184 231 291 338 426
#     4  12  26  47  66  99 152 190 226 294 356 422
#
# _framework density 22.255927
#
# number of rings (size 3 to 8) (size 9 to 14) (size 15 to 20)
#    0.000    1.429    2.857    2.571    0.000    4.000 
#    7.714    0.000    0.000    0.000    0.000    0.000 
#    0.000    0.000    0.000    0.000    0.000    0.000 
#
# Total GULP energy -347199.994448 kJ/mol
# GULP energy per Si atom -12399.999802 kJ/mol
# Density = 2.220527 g / cm^3
# Si number density = 22.255927 Si / 1000 Ang^3
#
#
#
# Elastic Constant Matrix: (Units=GPa)
#
#
# Indices 1 2 3 4 5 6 
#
# 1 108.4675 34.6746 71.0432 0.0000 -4.1998 0.0000
# 2 34.6746 86.5043 31.1712 0.0000 -6.3050 0.0000
# 3 71.0432 31.1712 111.0200 0.0000 -2.1038 0.0000
# 4 0.0000 0.0000 0.0000 22.9131 0.0000 5.9914
# 5 -4.1998 -6.3050 -2.1038 0.0000 54.3734 0.0000
# 6 0.0000 0.0000 0.0000 5.9914 0.0000 29.3814
#
#
#
# Elastic Compliance Matrix: (Units=1/GPa)
#
#
# Indices 1 2 3 4 5 6 
#
# 1 0.016623 -0.003109 -0.009754 0.000000 0.000546 0.000000
# 2 -0.003109 0.013543 -0.001789 0.000000 0.001261 0.000000
# 3 -0.009754 -0.001789 0.015745 0.000000 -0.000352 0.000000
# 4 0.000000 0.000000 0.000000 0.046101 0.000000 -0.009401
# 5 0.000546 0.001261 -0.000352 0.000000 0.018566 0.000000
# 6 0.000000 0.000000 0.000000 -0.009401 0.000000 0.035952
#
#
# Mechanical properties :
#
#
# Convention : Reuss Voigt Hill
#
# Bulk Modulus (GPa) = 60.21669 64.41887 62.31778
# Shear Modulus (GPa) = 27.56802 32.60711 30.08756
#
# Velocity S-wave (km/s) = 3.52331 3.83181 3.68079
# Velocity P-wave (km/s) = 6.60809 6.97026 6.79159
#
# Compressibility (1/GPa) = 0.01660669
#
# Stress axis : x y z
#
# Youngs Moduli (GPa) = 60.15809 73.83974 63.51275
#
# Poissons Ratio (x) = 0.22953 0.61951
# Poissons Ratio (y) = 0.18700 0.11365
# Poissons Ratio (z) = 0.58679 0.13212
#
# Static dielectric constant tensor:
#      x y z
#    x 3.901220 0.000000 0.188700 
#    y 0.000000 4.014200 0.000000 
#    z 0.188700 0.000000 4.031090 
# 
# 
# High freq. dielectric constant tensor:
#      x y z
#    x 1.867420 0.000000 0.017910 
#    y 0.000000 1.874160 0.000000 
#    z 0.017910 0.000000 1.882740 
# 
# From -- ./inp_files/273262.got.cif
#   From: 2010.06.25/outbox.cif.g09.slc.cpg/sg15_137_cif.got.tgz:273262.got - 2010.06.28 07:06:18.
