data_PCOD8149813
_publ_section_title
;
Structure prediction by ZEFSAII (Michael W. Deem and Ramdas Pophale) SiO2 
 PCOD8149813
Probable space group: C 2/C
;
_chemical_formula_sum "Si O2"
_cell_formula_units_Z 48
_cell_length_a 18.951662
_cell_length_b 19.371526
_cell_length_c 9.216254
_cell_angle_alpha 90.000000
_cell_angle_beta 138.729036
_cell_angle_gamma 90.000000
_cell_volume 2231.824056
_symmetry_space_group_name_H-M "C 2/C"
_symmetry_group_IT_number 15
_symmetry_cell_setting 'monoclinic'
loop_
_space_group_symop_operation_xyz
x,y,z
-x,y,1/2-z
-x,-y,-z
x,-y,1/2+z
1/2+x,1/2+y,z
1/2-x,1/2+y,1/2-z
1/2-x,1/2-y,-z
1/2+x,1/2-y,1/2+z
loop_
_atom_site_type_symbol
_atom_site_label
_atom_site_fract_x
_atom_site_fract_y
_atom_site_fract_z
Si Si1 0.767601 0.327409 0.879748
Si Si2 0.055248 0.635108 0.048545
Si Si3 0.342683 0.807390 0.315444
Si Si4 0.000000 0.475433 0.250000
Si Si5 0.500000 0.484325 0.750000
Si Si6 0.811454 0.424335 0.490391
Si Si7 0.141551 0.038478 0.217466
O O1 0.883270 0.321929 0.980722
O O2 0.686358 0.271199 0.683890
O O3 0.723451 0.404048 0.790393
O O4 0.782692 0.317877 0.072632
O O5 0.147008 0.605944 0.294464
O O6 0.986136 0.572615 0.871084
O O7 0.971515 0.683855 0.004258
O O8 0.293315 0.861273 0.352592
O O9 0.101785 0.522688 0.438543
O O10 0.441393 0.532381 0.542192
O O11 0.416992 0.439555 0.720635
O O12 0.700660 0.465295 0.338376
#
# Coordination Sequence:
#
# PCOD8149813 Si02
#       7
#     8   8   8   4   4   8   8
#     4  11  24  42  67  88 134 179 220 264 323 398
#     4  12  22  42  66 101 130 170 217 274 332 392
#     4  11  24  43  59  99 133 176 215 265 332 391
#     4  12  22  36  72 104 130 164 208 280 342 390
#     4  10  24  42  64  92 130 164 226 268 320 378
#     4  12  24  39  73 101 134 161 217 284 336 385
#     4  11  22  44  65  98 123 173 219 272 321 387
#
# _framework density 21.507071
#
# number of rings (size 3 to 8) (size 9 to 14) (size 15 to 20)
#    0.000    0.667    5.000    2.500    2.333    0.667 
#   15.000    0.000    0.000    0.000    0.000    0.000 
#    0.000    0.000    0.000    0.000    0.000    0.000 
#
# Total GULP energy -297598.025406 kJ/mol
# GULP energy per Si atom -12399.917725 kJ/mol
# Density = 2.145812 g / cm^3
# Si number density = 21.507071 Si / 1000 Ang^3
#
#
#
# Elastic Constant Matrix: (Units=GPa)
#
#
# Indices 1 2 3 4 5 6 
#
# 1 93.9359 36.3034 20.9413 0.0000 -0.3247 0.0000
# 2 36.3034 109.1781 38.8447 0.0000 -2.6427 0.0000
# 3 20.9413 38.8447 99.3454 0.0000 -4.4673 0.0000
# 4 0.0000 0.0000 0.0000 36.0462 0.0000 3.8995
# 5 -0.3247 -2.6427 -4.4673 0.0000 30.3199 0.0000
# 6 0.0000 0.0000 0.0000 3.8995 0.0000 24.4784
#
#
#
# Elastic Compliance Matrix: (Units=1/GPa)
#
#
# Indices 1 2 3 4 5 6 
#
# 1 0.012333 -0.003693 -0.001172 0.000000 -0.000362 0.000000
# 2 -0.003693 0.011748 -0.003796 0.000000 0.000425 0.000000
# 3 -0.001172 -0.003796 0.011860 0.000000 0.001404 0.000000
# 4 0.000000 0.000000 0.000000 0.028229 0.000000 -0.004497
# 5 -0.000362 0.000425 0.001404 0.000000 0.033222 0.000000
# 6 0.000000 0.000000 0.000000 -0.004497 0.000000 0.041569
#
#
# Mechanical properties :
#
#
# Convention : Reuss Voigt Hill
#
# Bulk Modulus (GPa) = 53.70681 54.95980 54.33330
# Shear Modulus (GPa) = 30.77142 31.92688 31.34915
#
# Velocity S-wave (km/s) = 3.78664 3.85708 3.82202
# Velocity P-wave (km/s) = 6.64410 6.74135 6.69290
#
# Compressibility (1/GPa) = 0.01861961
#
# Stress axis : x y z
#
# Youngs Moduli (GPa) = 81.08548 85.12024 84.31410
#
# Poissons Ratio (x) = 0.31431 0.09883
# Poissons Ratio (y) = 0.29941 0.32007
# Poissons Ratio (z) = 0.09504 0.32313
#
# Static dielectric constant tensor:
#      x y z
#    x 4.069210 0.000000 0.009740 
#    y 0.000000 3.925080 0.000000 
#    z 0.009740 0.000000 3.923100 
# 
# 
# High freq. dielectric constant tensor:
#      x y z
#    x 1.850560 0.000000 -0.003790 
#    y 0.000000 1.822260 0.000000 
#    z -0.003790 0.000000 1.850700 
# 
# From -- ./inp_files/58014.got.cif
#   From: 2010.06.25/outbox.cif.g09.slc.cpg/sg15_30_cif.got.tgz:58014.got - 2010.06.28 07:06:18.
