data_PCOD8149641
_publ_section_title
;
Structure prediction by ZEFSAII (Michael W. Deem and Ramdas Pophale) SiO2 
 PCOD8149641
Probable space group: C 2/C
;
_chemical_formula_sum "Si O2"
_cell_formula_units_Z 56
_cell_length_a 14.142266
_cell_length_b 8.788131
_cell_length_c 20.269520
_cell_angle_alpha 90.000000
_cell_angle_beta 82.681545
_cell_angle_gamma 90.000000
_cell_volume 2498.656190
_symmetry_space_group_name_H-M "C 2/C"
_symmetry_group_IT_number 15
_symmetry_cell_setting 'monoclinic'
loop_
_space_group_symop_operation_xyz
x,y,z
-x,y,1/2-z
-x,-y,-z
x,-y,1/2+z
1/2+x,1/2+y,z
1/2-x,1/2+y,1/2-z
1/2-x,1/2-y,-z
1/2+x,1/2-y,1/2+z
loop_
_atom_site_type_symbol
_atom_site_label
_atom_site_fract_x
_atom_site_fract_y
_atom_site_fract_z
Si Si1 0.899342 0.575788 0.995921
Si Si2 0.575441 0.597721 0.953526
Si Si3 0.944524 0.936252 0.349753
Si Si4 0.500000 0.195065 0.250000
Si Si5 0.752646 0.452866 0.617517
Si Si6 0.773724 0.408059 0.384370
Si Si7 0.647787 0.956691 0.261914
Si Si8 0.000000 0.801875 0.750000
O O1 0.862327 0.551760 0.924582
O O2 0.904844 0.755397 0.004640
O O3 0.827560 0.501555 0.054862
O O4 0.000000 0.500000 0.000000
O O5 0.525336 0.634285 0.889016
O O6 0.677773 0.521376 0.926317
O O7 0.500000 0.500000 0.000000
O O8 0.930318 0.802565 0.298362
O O9 0.846504 0.970810 0.396740
O O10 0.976396 0.095674 0.315072
O O11 0.571133 0.088292 0.284902
O O12 0.743144 0.271559 0.624952
O O13 0.778427 0.534172 0.684511
O O14 0.795863 0.484825 0.311853
O O15 0.592329 0.796770 0.261777
#
# Coordination Sequence:
#
# PCOD8149641 Si02
#       8
#     8   8   8   4   8   8   8   4
#     4  11  26  47  71  97 137 185 233 283 346 409
#     4  11  24  43  69  96 134 181 230 281 341 404
#     4  11  23  42  67  97 139 177 226 277 344 405
#     4  10  24  40  62  96 142 168 222 280 338 396
#     4  11  24  43  71 101 136 180 230 277 344 408
#     4  11  24  45  72  98 138 181 230 282 344 408
#     4  11  25  41  70 102 137 177 231 280 345 411
#     4  10  24  42  68  94 142 180 220 276 358 402
#
# _framework density 22.412049
#
# number of rings (size 3 to 8) (size 9 to 14) (size 15 to 20)
#    0.000    1.143    1.429    5.143   12.000    0.000 
#    2.571    1.429    0.000    0.000    0.000    0.000 
#    0.000    0.000    0.000    0.000    0.000    0.000 
#
# Total GULP energy -347171.567111 kJ/mol
# GULP energy per Si atom -12398.984540 kJ/mol
# Density = 2.236104 g / cm^3
# Si number density = 22.412049 Si / 1000 Ang^3
#
#
#
# Elastic Constant Matrix: (Units=GPa)
#
#
# Indices 1 2 3 4 5 6 
#
# 1 133.5175 18.3133 37.5318 0.0000 -12.6232 0.0000
# 2 18.3133 57.8334 15.9925 0.0000 -11.2054 0.0000
# 3 37.5318 15.9925 114.1115 0.0000 -0.2439 0.0000
# 4 0.0000 0.0000 0.0000 25.9211 0.0000 1.8544
# 5 -12.6232 -11.2054 -0.2439 0.0000 53.5189 0.0000
# 6 0.0000 0.0000 0.0000 1.8544 0.0000 33.8827
#
#
#
# Elastic Compliance Matrix: (Units=1/GPa)
#
#
# Indices 1 2 3 4 5 6 
#
# 1 0.008607 -0.001686 -0.002591 0.000000 0.001665 0.000000
# 2 -0.001686 0.019106 -0.002115 0.000000 0.003593 0.000000
# 3 -0.002591 -0.002115 0.009910 0.000000 -0.001009 0.000000
# 4 0.000000 0.000000 0.000000 0.038730 0.000000 -0.002120
# 5 0.001665 0.003593 -0.001009 0.000000 0.019825 0.000000
# 6 0.000000 0.000000 0.000000 -0.002120 0.000000 0.029630
#
#
# Mechanical properties :
#
#
# Convention : Reuss Voigt Hill
#
# Bulk Modulus (GPa) = 40.26164 49.90415 45.08290
# Shear Modulus (GPa) = 34.04320 38.23952 36.14136
#
# Velocity S-wave (km/s) = 3.90162 4.13510 4.02006
# Velocity P-wave (km/s) = 6.18871 6.71668 6.45809
#
# Compressibility (1/GPa) = 0.02483754
#
# Stress axis : x y z
#
# Youngs Moduli (GPa) = 116.18895 52.33921 100.90996
#
# Poissons Ratio (x) = 0.08826 0.26145
# Poissons Ratio (y) = 0.19593 0.21346
# Poissons Ratio (z) = 0.30103 0.11072
#
# Static dielectric constant tensor:
#      x y z
#    x 4.597120 0.000000 0.045030 
#    y 0.000000 3.900470 0.000000 
#    z 0.045030 0.000000 4.230490 
# 
# 
# High freq. dielectric constant tensor:
#      x y z
#    x 1.900620 0.000000 -0.004300 
#    y 0.000000 1.865090 0.000000 
#    z -0.004300 0.000000 1.888790 
# 
# From -- ./inp_files/242858.got.cif
#   From: 2010.06.25/outbox.cif.g09.slc.cpg/sg15_122_cif.got.tgz:242858.got - 2010.06.28 07:06:18.
