data_PCOD8149322
_publ_section_title
;
Structure prediction by ZEFSAII (Michael W. Deem and Ramdas Pophale) SiO2 
 PCOD8149322
Probable space group: C 2/C
;
_chemical_formula_sum "Si O2"
_cell_formula_units_Z 40
_cell_length_a 18.932887
_cell_length_b 8.316095
_cell_length_c 13.848915
_cell_angle_alpha 90.000000
_cell_angle_beta 122.645479
_cell_angle_gamma 90.000000
_cell_volume 1836.017225
_symmetry_space_group_name_H-M "C 2/C"
_symmetry_group_IT_number 15
_symmetry_cell_setting 'monoclinic'
loop_
_space_group_symop_operation_xyz
x,y,z
-x,y,1/2-z
-x,-y,-z
x,-y,1/2+z
1/2+x,1/2+y,z
1/2-x,1/2+y,1/2-z
1/2-x,1/2-y,-z
1/2+x,1/2-y,1/2+z
loop_
_atom_site_type_symbol
_atom_site_label
_atom_site_fract_x
_atom_site_fract_y
_atom_site_fract_z
Si Si1 0.784173 0.567763 0.746240
Si Si2 0.070332 0.366673 0.570756
Si Si3 0.000267 0.912807 0.144480
Si Si4 0.654702 0.630270 0.492610
Si Si5 0.661184 0.392461 0.777314
O O1 0.859354 0.438436 0.805483
O O2 0.734185 0.560311 0.608735
O O3 0.720455 0.540816 0.788906
O O4 0.822300 0.746138 0.784368
O O5 0.024509 0.217122 0.584361
O O6 0.117747 0.297259 0.510383
O O7 0.000000 0.500000 0.500000
O O8 0.000000 0.830509 0.250000
O O9 0.064696 0.061403 0.195326
O O10 0.911552 0.985808 0.050354
O O11 0.682036 0.662353 0.402193
#
# Coordination Sequence:
#
# PCOD8149322 Si02
#       5
#     8   8   8   8   8
#     4  12  24  41  69  97 133 171 219 274 321 396
#     4  12  26  41  67  99 133 173 220 270 327 393
#     4  10  23  45  67  94 131 174 218 268 328 392
#     4  11  24  44  72  91 135 178 216 272 333 385
#     4  11  23  45  68  98 132 174 219 271 335 382
#
# _framework density 21.786287000000002
#
# number of rings (size 3 to 8) (size 9 to 14) (size 15 to 20)
#    0.000    0.800    4.000    2.400    2.800    1.600 
#    0.000    3.000    0.000    0.000    0.000    0.000 
#    0.000    0.000    0.000    0.000    0.000    0.000 
#
# Total GULP energy -248012.707590 kJ/mol
# GULP energy per Si atom -12400.635379 kJ/mol
# Density = 2.173670 g / cm^3
# Si number density = 21.786287 Si / 1000 Ang^3
#
#
#
# Elastic Constant Matrix: (Units=GPa)
#
#
# Indices 1 2 3 4 5 6 
#
# 1 89.6297 36.7473 32.6778 0.0000 -17.7943 0.0000
# 2 36.7473 89.2758 45.4208 0.0000 -17.9262 0.0000
# 3 32.6778 45.4208 100.3723 0.0000 5.9451 0.0000
# 4 0.0000 0.0000 0.0000 21.6094 0.0000 -2.0185
# 5 -17.7943 -17.9262 5.9451 0.0000 42.9785 0.0000
# 6 0.0000 0.0000 0.0000 -2.0185 0.0000 30.3200
#
#
#
# Elastic Compliance Matrix: (Units=1/GPa)
#
#
# Indices 1 2 3 4 5 6 
#
# 1 0.014873 -0.003144 -0.003737 0.000000 0.005364 0.000000
# 2 -0.003144 0.017686 -0.007400 0.000000 0.007099 0.000000
# 3 -0.003737 -0.007400 0.014925 0.000000 -0.006699 0.000000
# 4 0.000000 0.000000 0.000000 0.046566 0.000000 0.003100
# 5 0.005364 0.007099 -0.006699 0.000000 0.029376 0.000000
# 6 0.000000 0.000000 0.000000 0.003100 0.000000 0.033188
#
#
# Mechanical properties :
#
#
# Convention : Reuss Voigt Hill
#
# Bulk Modulus (GPa) = 52.84909 56.55216 54.70063
# Shear Modulus (GPa) = 26.11201 29.94372 28.02786
#
# Velocity S-wave (km/s) = 3.46577 3.71135 3.59066
# Velocity P-wave (km/s) = 6.35028 6.66180 6.50790
#
# Compressibility (1/GPa) = 0.01892180
#
# Stress axis : x y z
#
# Youngs Moduli (GPa) = 67.23434 56.54336 67.00097
#
# Poissons Ratio (x) = 0.17775 0.25041
# Poissons Ratio (y) = 0.21136 0.49582
# Poissons Ratio (z) = 0.25128 0.41843
#
# Static dielectric constant tensor:
#      x y z
#    x 4.311690 0.000000 0.079420 
#    y 0.000000 3.911160 0.000000 
#    z 0.079420 0.000000 4.033060 
# 
# 
# High freq. dielectric constant tensor:
#      x y z
#    x 1.872230 0.000000 0.013620 
#    y 0.000000 1.849550 0.000000 
#    z 0.013620 0.000000 1.860520 
# 
# From -- ./inp_files/159504.got.cif
#   From: 2010.06.25/outbox.cif.g09.slc.cpg/sg15_80_cif.got.tgz:159504.got - 2010.06.28 07:06:18.
