data_PCOD8149137
_publ_section_title
;
Structure prediction by ZEFSAII (Michael W. Deem and Ramdas Pophale) SiO2 
 PCOD8149137
Probable space group: C 2/C
;
_chemical_formula_sum "Si O2"
_cell_formula_units_Z 32
_cell_length_a 23.933688
_cell_length_b 9.434417
_cell_length_c 9.349846
_cell_angle_alpha 90.000000
_cell_angle_beta 139.546187
_cell_angle_gamma 90.000000
_cell_volume 1369.819449
_symmetry_space_group_name_H-M "C 2/C"
_symmetry_group_IT_number 15
_symmetry_cell_setting 'monoclinic'
loop_
_space_group_symop_operation_xyz
x,y,z
-x,y,1/2-z
-x,-y,-z
x,-y,1/2+z
1/2+x,1/2+y,z
1/2-x,1/2+y,1/2-z
1/2-x,1/2-y,-z
1/2+x,1/2-y,1/2+z
loop_
_atom_site_type_symbol
_atom_site_label
_atom_site_fract_x
_atom_site_fract_y
_atom_site_fract_z
Si Si1 0.561926 0.525277 0.990884
Si Si2 0.310431 0.718194 0.751134
Si Si3 0.597381 0.954397 0.702360
Si Si4 0.348060 0.817211 0.390807
O O1 0.650716 0.439199 0.177324
O O2 0.586593 0.688126 0.008740
O O3 0.500000 0.463787 0.750000
O O4 0.500000 0.500000 0.000000
O O5 0.250000 0.750000 0.500000
O O6 0.388118 0.829922 0.887704
O O7 0.250422 0.735219 0.774983
O O8 0.500000 0.000000 0.500000
O O9 0.654297 0.086931 0.756686
O O10 0.621068 0.907605 0.909526
#
# Coordination Sequence:
#
# PCOD8149137 Si02
#       4
#     8   8   8   8
#     4  12  25  45  72 104 141 185 234 287 347 418
#     4  10  23  44  67  98 140 184 229 286 345 409
#     4  11  22  41  68  99 136 178 228 286 340 403
#     4  11  24  44  67  99 139 183 230 283 344 414
#
# _framework density 23.360741000000001
#
# number of rings (size 3 to 8) (size 9 to 14) (size 15 to 20)
#    0.000    1.000    0.000    8.250    0.000    6.000 
#    0.000    7.500    0.000    0.000    0.000    0.000 
#    0.000    0.000    0.000    0.000    0.000    0.000 
#
# Total GULP energy -198265.966782 kJ/mol
# GULP energy per Si atom -12391.622924 kJ/mol
# Density = 2.330757 g / cm^3
# Si number density = 23.360741 Si / 1000 Ang^3
#
#
#
# Elastic Constant Matrix: (Units=GPa)
#
#
# Indices 1 2 3 4 5 6 
#
# 1 202.2016 77.0973 46.8725 0.0000 12.5201 0.0000
# 2 77.0973 139.7455 57.6816 0.0000 1.2425 0.0000
# 3 46.8725 57.6816 87.3087 0.0000 -3.9248 0.0000
# 4 0.0000 0.0000 0.0000 44.2236 0.0000 6.1389
# 5 12.5201 1.2425 -3.9248 0.0000 31.3936 0.0000
# 6 0.0000 0.0000 0.0000 6.1389 0.0000 72.9194
#
#
#
# Elastic Compliance Matrix: (Units=1/GPa)
#
#
# Indices 1 2 3 4 5 6 
#
# 1 0.006633 -0.002907 -0.001764 0.000000 -0.002751 0.000000
# 2 -0.002907 0.011159 -0.005812 0.000000 -0.000009 0.000000
# 3 -0.001764 -0.005812 0.016374 0.000000 0.002981 0.000000
# 4 0.000000 0.000000 0.000000 0.022880 0.000000 -0.001926
# 5 -0.002751 -0.000009 0.002981 0.000000 0.033324 0.000000
# 6 0.000000 0.000000 0.000000 -0.001926 0.000000 0.013876
#
#
# Mechanical properties :
#
#
# Convention : Reuss Voigt Hill
#
# Bulk Modulus (GPa) = 75.75654 88.06206 81.90930
# Shear Modulus (GPa) = 38.57671 46.21428 42.39550
#
# Velocity S-wave (km/s) = 4.06809 4.45262 4.26469
# Velocity P-wave (km/s) = 7.38682 8.01329 7.70643
#
# Compressibility (1/GPa) = 0.01320018
#
# Stress axis : x y z
#
# Youngs Moduli (GPa) = 150.75604 89.61734 61.07057
#
# Poissons Ratio (x) = 0.26050 0.10775
# Poissons Ratio (y) = 0.43822 0.35493
# Poissons Ratio (z) = 0.26599 0.52084
#
# Static dielectric constant tensor:
#      x y z
#    x 5.091300 0.000000 0.252120 
#    y 0.000000 7.247830 0.000000 
#    z 0.252120 0.000000 4.015100 
# 
# 
# High freq. dielectric constant tensor:
#      x y z
#    x 1.957540 0.000000 0.012940 
#    y 0.000000 1.931290 0.000000 
#    z 0.012940 0.000000 1.902320 
# 
# From -- ./inp_files/60788.got.cif
#   From: 2010.06.25/outbox.cif.g09.slc.cpg/sg15_31_cif.got.tgz:60788.got - 2010.06.28 07:06:18.
