data_PCOD8149020
_publ_section_title
;
Structure prediction by ZEFSAII (Michael W. Deem and Ramdas Pophale) SiO2 
 PCOD8149020
Probable space group: C 2/C
;
_chemical_formula_sum "Si O2"
_cell_formula_units_Z 32
_cell_length_a 12.631614
_cell_length_b 12.890933
_cell_length_c 20.732176
_cell_angle_alpha 90.000000
_cell_angle_beta 155.314485
_cell_angle_gamma 90.000000
_cell_volume 1409.897194
_symmetry_space_group_name_H-M "C 2/C"
_symmetry_group_IT_number 15
_symmetry_cell_setting 'monoclinic'
loop_
_space_group_symop_operation_xyz
x,y,z
-x,y,1/2-z
-x,-y,-z
x,-y,1/2+z
1/2+x,1/2+y,z
1/2-x,1/2+y,1/2-z
1/2-x,1/2-y,-z
1/2+x,1/2-y,1/2+z
loop_
_atom_site_type_symbol
_atom_site_label
_atom_site_fract_x
_atom_site_fract_y
_atom_site_fract_z
Si Si1 0.731335 0.627722 0.622078
Si Si2 0.425722 0.786052 0.538775
Si Si3 0.731381 0.448153 0.341989
Si Si4 0.304952 0.546821 0.305430
O O1 0.595031 0.696663 0.600884
O O2 0.558264 0.612238 0.462600
O O3 0.788864 0.512944 0.682605
O O4 0.000000 0.678475 0.750000
O O5 0.250000 0.750000 0.500000
O O6 0.253635 0.832611 0.384962
O O7 0.598979 0.874981 0.664701
O O8 0.500000 0.507641 0.250000
O O9 0.649840 0.454701 0.222075
O O10 0.000000 0.500000 0.500000
#
# Coordination Sequence:
#
# PCOD8149020 Si02
#       4
#     8   8   8   8
#     4  11  27  45  70 104 142 189 235 300 357 426
#     4  11  26  45  75 106 140 186 241 291 358 435
#     4  10  23  43  72 104 138 186 232 292 358 428
#     4  10  26  47  69 102 143 183 235 295 361 424
#
# _framework density 22.696688999999999
#
# number of rings (size 3 to 8) (size 9 to 14) (size 15 to 20)
#    0.000    1.500    0.000    1.500   21.000    5.000 
#    0.000    0.000    0.000    0.000    0.000    0.000 
#    0.000    0.000    0.000    0.000    0.000    0.000 
#
# Total GULP energy -198235.841327 kJ/mol
# GULP energy per Si atom -12389.740083 kJ/mol
# Density = 2.264503 g / cm^3
# Si number density = 22.696689 Si / 1000 Ang^3
#
#
#
# Elastic Constant Matrix: (Units=GPa)
#
#
# Indices 1 2 3 4 5 6 
#
# 1 147.4888 56.3339 81.1044 -0.0008 14.2103 -0.0003
# 2 56.3339 94.0156 54.5549 0.0053 -6.0555 0.0003
# 3 81.1044 54.5549 130.2699 0.0155 14.7274 -0.0041
# 4 -0.0008 0.0053 0.0155 39.2536 -0.0001 -12.8869
# 5 14.2103 -6.0555 14.7274 -0.0001 51.3795 0.0005
# 6 -0.0003 0.0003 -0.0041 -12.8869 0.0005 42.3782
#
#
#
# Elastic Compliance Matrix: (Units=1/GPa)
#
#
# Indices 1 2 3 4 5 6 
#
# 1 0.011324 -0.003922 -0.005169 0.000003 -0.002113 0.000001
# 2 -0.003922 0.016029 -0.004761 -0.000001 0.004339 -0.000001
# 3 -0.005169 -0.004761 0.013219 -0.000005 -0.002921 0.000000
# 4 0.000003 -0.000001 -0.000005 0.028301 0.000000 0.008606
# 5 -0.002113 0.004339 -0.002921 0.000000 0.021396 0.000000
# 6 0.000001 -0.000001 0.000000 0.008606 0.000000 0.026214
#
#
# Mechanical properties :
#
#
# Convention : Reuss Voigt Hill
#
# Bulk Modulus (GPa) = 77.71785 83.97342 80.84563
# Shear Modulus (GPa) = 33.67543 38.58766 36.13154
#
# Velocity S-wave (km/s) = 3.85608 4.12775 3.99423
# Velocity P-wave (km/s) = 7.35813 7.73280 7.54779
#
# Compressibility (1/GPa) = 0.01286706
#
# Stress axis : x y z
#
# Youngs Moduli (GPa) = 88.30647 62.38711 75.65076
#
# Poissons Ratio (x) = 0.24469 0.39104
# Poissons Ratio (y) = 0.34635 0.36020
# Poissons Ratio (z) = 0.45645 0.29705
#
# Static dielectric constant tensor:
#      x y z
#    x 4.361230 -0.000010 -0.300970 
#    y -0.000010 4.203820 -0.000010 
#    z -0.300970 -0.000010 4.464730 
# 
# 
# High freq. dielectric constant tensor:
#      x y z
#    x 1.901710 0.000000 -0.007720 
#    y 0.000000 1.879860 0.000000 
#    z -0.007720 0.000000 1.916690 
# 
# From -- ./inp_files/85323.got.cif
#   From: 2010.06.25/outbox.cif.g09.slc.cpg/sg15_43_cif.got.tgz:85323.got - 2010.06.28 07:06:18.
