data_PCOD8149493
_publ_section_title
;
Structure prediction by ZEFSAII (Michael W. Deem and Ramdas Pophale) SiO2 
 PCOD8149493
Probable space group: C 2/C
;
_chemical_formula_sum "Si O2"
_cell_formula_units_Z 40
_cell_length_a 17.715983
_cell_length_b 11.382233
_cell_length_c 14.185431
_cell_angle_alpha 90.000000
_cell_angle_beta 141.482743
_cell_angle_gamma 90.000000
_cell_volume 1781.349859
_symmetry_space_group_name_H-M "C 2/C"
_symmetry_group_IT_number 15
_symmetry_cell_setting 'monoclinic'
loop_
_space_group_symop_operation_xyz
x,y,z
-x,y,1/2-z
-x,-y,-z
x,-y,1/2+z
1/2+x,1/2+y,z
1/2-x,1/2+y,1/2-z
1/2-x,1/2-y,-z
1/2+x,1/2-y,1/2+z
loop_
_atom_site_type_symbol
_atom_site_label
_atom_site_fract_x
_atom_site_fract_y
_atom_site_fract_z
Si Si1 0.550610 0.462013 0.700694
Si Si2 0.879161 0.517393 0.441559
Si Si3 0.249124 0.384093 0.032371
Si Si4 0.752019 0.281240 0.893608
Si Si5 0.209357 0.974775 0.113068
O O1 0.500000 0.414359 0.750000
O O2 0.625870 0.582983 0.791467
O O3 0.636075 0.357584 0.747373
O O4 0.436443 0.489024 0.521343
O O5 0.859986 0.412324 0.500107
O O6 0.874292 0.641854 0.492220
O O7 0.766560 0.533678 0.260066
O O8 0.000000 0.500000 0.500000
O O9 0.250000 0.250000 0.000000
O O10 0.236403 0.468585 0.929207
O O11 0.753396 0.160879 0.838126
O O12 0.750000 0.250000 0.000000
#
# Coordination Sequence:
#
# PCOD8149493 Si02
#       5
#     8   8   8   8   8
#     4   9  19  40  69 100 129 183 237 278 345 421
#     4  11  27  46  67 110 142 185 238 296 361 414
#     4  10  23  47  69 102 142 185 237 287 361 426
#     4  11  21  43  71 100 141 187 234 285 350 428
#     4  11  24  44  71 102 143 184 238 296 353 420
#
# _framework density 22.454879999999999
#
# number of rings (size 3 to 8) (size 9 to 14) (size 15 to 20)
#    0.000    1.600    6.000    0.000    5.600    4.000 
#   10.800    0.000    0.000    0.000    0.000    0.000 
#    0.000    0.000    0.000    0.000    0.000    0.000 
#
# Total GULP energy -247831.857515 kJ/mol
# GULP energy per Si atom -12391.592876 kJ/mol
# Density = 2.240377 g / cm^3
# Si number density = 22.454880 Si / 1000 Ang^3
#
#
#
# Elastic Constant Matrix: (Units=GPa)
#
#
# Indices 1 2 3 4 5 6 
#
# 1 176.2937 75.3422 31.3246 0.0000 8.5789 0.0000
# 2 75.3422 164.6997 50.2352 0.0000 16.9479 0.0000
# 3 31.3246 50.2352 103.3498 0.0000 1.3155 0.0000
# 4 0.0000 0.0000 0.0000 21.3548 0.0000 -1.4157
# 5 8.5789 16.9479 1.3155 0.0000 24.3461 0.0000
# 6 0.0000 0.0000 0.0000 -1.4157 0.0000 40.8600
#
#
#
# Elastic Compliance Matrix: (Units=1/GPa)
#
#
# Indices 1 2 3 4 5 6 
#
# 1 0.007094 -0.002996 -0.000689 0.000000 -0.000377 0.000000
# 2 -0.002996 0.008996 -0.003401 0.000000 -0.005023 0.000000
# 3 -0.000689 -0.003401 0.011512 0.000000 0.001988 0.000000
# 4 0.000000 0.000000 0.000000 0.046936 0.000000 0.001626
# 5 -0.000377 -0.005023 0.001988 0.000000 0.044596 0.000000
# 6 0.000000 0.000000 0.000000 0.001626 0.000000 0.024530
#
#
# Mechanical properties :
#
#
# Convention : Reuss Voigt Hill
#
# Bulk Modulus (GPa) = 74.45628 84.23859 79.34743
# Shear Modulus (GPa) = 30.80468 36.47494 33.63981
#
# Velocity S-wave (km/s) = 3.70786 4.03471 3.87474
# Velocity P-wave (km/s) = 7.18061 7.70073 7.44521
#
# Compressibility (1/GPa) = 0.01343070
#
# Stress axis : x y z
#
# Youngs Moduli (GPa) = 140.97401 111.15572 86.86262
#
# Poissons Ratio (x) = 0.33303 0.05984
# Poissons Ratio (y) = 0.42236 0.29541
# Poissons Ratio (z) = 0.09712 0.37802
#
# Static dielectric constant tensor:
#      x y z
#    x 4.577280 0.000000 0.208040 
#    y 0.000000 4.521030 0.000000 
#    z 0.208040 0.000000 4.230550 
# 
# 
# High freq. dielectric constant tensor:
#      x y z
#    x 1.907230 0.000000 -0.006100 
#    y 0.000000 1.877130 0.000000 
#    z -0.006100 0.000000 1.865740 
# 
# From -- ./inp_files/161147.got.cif
#   From: 2010.06.25/outbox.cif.g09.slc.cpg/sg15_81_cif.got.tgz:161147.got - 2010.06.28 07:06:18.
