data_PCOD8149538
_publ_section_title
;
Structure prediction by ZEFSAII (Michael W. Deem and Ramdas Pophale) SiO2 
 PCOD8149538
Probable space group: C 2/C
;
_chemical_formula_sum "Si O2"
_cell_formula_units_Z 40
_cell_length_a 18.399631
_cell_length_b 9.959749
_cell_length_c 9.080670
_cell_angle_alpha 90.000000
_cell_angle_beta 104.463517
_cell_angle_gamma 90.000000
_cell_volume 1611.344552
_symmetry_space_group_name_H-M "C 2/C"
_symmetry_group_IT_number 15
_symmetry_cell_setting 'monoclinic'
loop_
_space_group_symop_operation_xyz
x,y,z
-x,y,1/2-z
-x,-y,-z
x,-y,1/2+z
1/2+x,1/2+y,z
1/2-x,1/2+y,1/2-z
1/2-x,1/2-y,-z
1/2+x,1/2-y,1/2+z
loop_
_atom_site_type_symbol
_atom_site_label
_atom_site_fract_x
_atom_site_fract_y
_atom_site_fract_z
Si Si1 0.291883 0.921948 0.790129
Si Si2 0.130686 0.079305 0.123756
Si Si3 0.500000 0.811123 0.750000
Si Si4 0.000000 0.176014 0.250000
Si Si5 0.360621 0.138001 0.020979
Si Si6 0.899254 0.788626 0.451149
O O1 0.202670 0.930476 0.769379
O O2 0.302770 0.896608 0.621694
O O3 0.324212 0.799691 0.903082
O O4 0.335720 0.056403 0.863360
O O5 0.054980 0.085865 0.179753
O O6 0.139400 0.204018 0.016906
O O7 0.124329 0.941890 0.027877
O O8 0.445067 0.901194 0.618776
O O9 0.554123 0.720039 0.676974
O O10 0.050649 0.265720 0.386359
#
# Coordination Sequence:
#
# PCOD8149538 Si02
#       6
#     8   8   4   4   8   8
#     4  11  28  47  74 103 148 188 234 292 358 422
#     4  12  26  47  74 108 143 183 243 291 358 414
#     4  10  23  49  72 106 145 183 238 292 359 413
#     4  12  27  41  80 104 141 183 246 290 351 421
#     4  11  26  47  73 105 144 190 232 297 351 423
#     4  11  26  45  75 104 143 187 235 297 350 419
#
# _framework density 24.823988
#
# number of rings (size 3 to 8) (size 9 to 14) (size 15 to 20)
#    0.000    0.800    2.000    3.000   11.200    4.800 
#    0.000    0.000    0.000    0.000    0.000    0.000 
#    0.000    0.000    0.000    0.000    0.000    0.000 
#
# Total GULP energy -247969.021986 kJ/mol
# GULP energy per Si atom -12398.451099 kJ/mol
# Density = 2.476749 g / cm^3
# Si number density = 24.823988 Si / 1000 Ang^3
#
#
#
# Elastic Constant Matrix: (Units=GPa)
#
#
# Indices 1 2 3 4 5 6 
#
# 1 113.2406 29.7378 43.7576 0.0000 33.6360 0.0000
# 2 29.7378 106.1848 38.1600 0.0000 -5.1883 0.0000
# 3 43.7576 38.1600 137.3069 0.0000 26.7322 0.0000
# 4 0.0000 0.0000 0.0000 24.6257 0.0000 8.1284
# 5 33.6360 -5.1883 26.7322 0.0000 46.3588 0.0000
# 6 0.0000 0.0000 0.0000 8.1284 0.0000 19.0492
#
#
#
# Elastic Compliance Matrix: (Units=1/GPa)
#
#
# Indices 1 2 3 4 5 6 
#
# 1 0.012987 -0.003580 -0.001387 0.000000 -0.009024 0.000000
# 2 -0.003580 0.011890 -0.003299 0.000000 0.005830 0.000000
# 3 -0.001387 -0.003299 0.009595 0.000000 -0.004896 0.000000
# 4 0.000000 0.000000 0.000000 0.047265 0.000000 -0.020168
# 5 -0.009024 0.005830 -0.004896 0.000000 0.031593 0.000000
# 6 0.000000 0.000000 0.000000 -0.020168 0.000000 0.061102
#
#
# Mechanical properties :
#
#
# Convention : Reuss Voigt Hill
#
# Bulk Modulus (GPa) = 55.73735 64.44924 60.09330
# Shear Modulus (GPa) = 25.38792 34.34520 29.86656
#
# Velocity S-wave (km/s) = 3.20146 3.72364 3.47238
# Velocity P-wave (km/s) = 6.01395 6.67130 6.35113
#
# Compressibility (1/GPa) = 0.01794129
#
# Stress axis : x y z
#
# Youngs Moduli (GPa) = 76.99966 84.10138 104.22145
#
# Poissons Ratio (x) = 0.30104 0.14457
# Poissons Ratio (y) = 0.27562 0.34381
# Poissons Ratio (z) = 0.10681 0.27744
#
# Static dielectric constant tensor:
#      x y z
#    x 4.594190 0.000000 0.387100 
#    y 0.000000 4.094030 0.000000 
#    z 0.387100 0.000000 4.661520 
# 
# 
# High freq. dielectric constant tensor:
#      x y z
#    x 1.998450 0.000000 0.021610 
#    y 0.000000 1.961430 0.000000 
#    z 0.021610 0.000000 2.001520 
# 
# From -- ./inp_files/54257.got.cif
#   From: 2010.06.25/outbox.cif.g09.slc.cpg/sg15_28_cif.got.tgz:54257.got - 2010.06.28 07:06:18.
