data_PCOD8149833
_publ_section_title
;
Structure prediction by ZEFSAII (Michael W. Deem and Ramdas Pophale) SiO2 
 PCOD8149833
Probable space group: C 2/C
;
_chemical_formula_sum "Si O2"
_cell_formula_units_Z 60
_cell_length_a 17.962805
_cell_length_b 26.801628
_cell_length_c 12.009519
_cell_angle_alpha 90.000000
_cell_angle_beta 28.567633
_cell_angle_gamma 90.000000
_cell_volume 2764.818972
_symmetry_space_group_name_H-M "C 2/C"
_symmetry_group_IT_number 15
_symmetry_cell_setting 'monoclinic'
loop_
_space_group_symop_operation_xyz
x,y,z
-x,y,1/2-z
-x,-y,-z
x,-y,1/2+z
1/2+x,1/2+y,z
1/2-x,1/2+y,1/2-z
1/2-x,1/2-y,-z
1/2+x,1/2-y,1/2+z
loop_
_atom_site_type_symbol
_atom_site_label
_atom_site_fract_x
_atom_site_fract_y
_atom_site_fract_z
Si Si1 0.833977 0.862624 0.263411
Si Si2 0.167377 0.743194 0.238217
Si Si3 0.365821 0.899680 0.169121
Si Si4 0.437877 0.826073 0.450579
Si Si5 0.500000 0.751340 0.750000
Si Si6 0.175932 0.572246 0.148386
Si Si7 0.828098 0.463979 0.429795
Si Si8 0.676114 0.594795 0.316943
O O1 0.837180 0.802841 0.264654
O O2 0.775268 0.880697 0.220555
O O3 0.724702 0.881084 0.507898
O O4 0.002133 0.886414 0.057173
O O5 0.102095 0.726864 0.441809
O O6 0.058831 0.718450 0.282524
O O7 0.343641 0.720972 0.991350
O O8 0.430668 0.852586 0.150317
O O9 0.304866 0.939934 0.338555
O O10 0.495170 0.923961 0.918969
O O11 0.500000 0.811693 0.250000
O O12 0.283713 0.858633 0.645235
O O13 0.198751 0.522724 0.045720
O O14 0.277764 0.569811 0.126679
O O15 0.698820 0.445065 0.687428
O O16 0.000000 0.449744 0.250000
#
# Coordination Sequence:
#
# PCOD8149833 Si02
#       8
#     8   8   8   8   4   8   8   8
#     4  12  27  43  63 107 142 180 224 287 347 412
#     4  11  25  42  72  98 140 179 232 279 355 403
#     4  11  23  44  71 102 132 176 238 287 332 414
#     4  11  22  49  73  98 132 187 238 284 337 415
#     4  10  24  42  66 102 128 180 224 290 332 418
#     4  11  26  42  75  97 134 181 233 279 348 411
#     4  12  22  47  74  98 131 187 232 287 341 414
#     4  11  25  46  69  99 144 179 226 288 346 408
#
# _framework density 21.701239999999999
#
# number of rings (size 3 to 8) (size 9 to 14) (size 15 to 20)
#    0.000    0.800    4.000    3.600   13.067    1.067 
#    4.800    2.000    0.000    0.000    0.000    0.000 
#    0.000    0.000    0.000    0.000    0.000    0.000 
#
# Total GULP energy -371937.518118 kJ/mol
# GULP energy per Si atom -12397.917271 kJ/mol
# Density = 2.165185 g / cm^3
# Si number density = 21.701240 Si / 1000 Ang^3
#
#
#
# Elastic Constant Matrix: (Units=GPa)
#
#
# Indices 1 2 3 4 5 6 
#
# 1 120.1019 30.9129 50.7056 -0.0002 4.5017 0.0216
# 2 30.9129 113.0869 27.8299 0.0006 22.5123 0.0008
# 3 50.7056 27.8299 73.3917 -0.0026 14.3312 0.0058
# 4 -0.0002 0.0006 -0.0026 26.4778 0.0006 9.1890
# 5 4.5017 22.5123 14.3312 0.0006 52.0626 -0.0096
# 6 0.0216 0.0008 0.0058 9.1890 -0.0096 23.4186
#
#
#
# Elastic Compliance Matrix: (Units=1/GPa)
#
#
# Indices 1 2 3 4 5 6 
#
# 1 0.012110 -0.001699 -0.008097 0.000003 0.001916 -0.000009
# 2 -0.001699 0.010589 -0.002088 0.000000 -0.003857 0.000000
# 3 -0.008097 -0.002088 0.020817 0.000002 -0.004127 0.000000
# 4 0.000003 0.000000 0.000002 0.043721 -0.000004 -0.017155
# 5 0.001916 -0.003857 -0.004127 -0.000004 0.021846 0.000010
# 6 -0.000009 0.000000 0.000000 -0.017155 0.000010 0.049432
#
#
# Mechanical properties :
#
#
# Convention : Reuss Voigt Hill
#
# Bulk Modulus (GPa) = 50.63764 58.38635 54.51200
# Shear Modulus (GPa) = 26.47374 33.53394 30.00384
#
# Velocity S-wave (km/s) = 3.49652 3.93524 3.72235
# Velocity P-wave (km/s) = 6.29965 6.90008 6.60669
#
# Compressibility (1/GPa) = 0.01974816
#
# Stress axis : x y z
#
# Youngs Moduli (GPa) = 82.57568 94.43789 48.03752
#
# Poissons Ratio (x) = 0.16048 0.38894
# Poissons Ratio (y) = 0.14033 0.10031
# Poissons Ratio (z) = 0.66858 0.19719
#
# Static dielectric constant tensor:
#      x y z
#    x 4.170570 -0.000020 0.079670 
#    y -0.000020 3.711510 0.000010 
#    z 0.079670 0.000010 3.972940 
# 
# 
# High freq. dielectric constant tensor:
#      x y z
#    x 1.869960 0.000000 0.010440 
#    y 0.000000 1.841520 0.000000 
#    z 0.010440 0.000000 1.852070 
# 
# From -- ./inp_files/108417.got.cif
#   From: 2010.06.25/outbox.cif.g09.slc.cpg/sg15_55_cif.got.tgz:108417.got - 2010.06.28 07:06:18.
