data_PCOD8149955
_publ_section_title
;
Structure prediction by ZEFSAII (Michael W. Deem and Ramdas Pophale) SiO2 
 PCOD8149955
Probable space group: C 2/C
;
_chemical_formula_sum "Si O2"
_cell_formula_units_Z 44
_cell_length_a 7.135870
_cell_length_b 12.032741
_cell_length_c 27.775890
_cell_angle_alpha 90.000000
_cell_angle_beta 64.814923
_cell_angle_gamma 90.000000
_cell_volume 2158.232699
_symmetry_space_group_name_H-M "C 2/C"
_symmetry_group_IT_number 15
_symmetry_cell_setting 'monoclinic'
loop_
_space_group_symop_operation_xyz
x,y,z
-x,y,1/2-z
-x,-y,-z
x,-y,1/2+z
1/2+x,1/2+y,z
1/2-x,1/2+y,1/2-z
1/2-x,1/2-y,-z
1/2+x,1/2-y,1/2+z
loop_
_atom_site_type_symbol
_atom_site_label
_atom_site_fract_x
_atom_site_fract_y
_atom_site_fract_z
Si Si1 0.526974 0.016087 0.153723
Si Si2 0.239827 0.668952 0.385224
Si Si3 0.000000 0.337889 0.750000
Si Si4 0.415234 0.790063 0.207580
Si Si5 0.620655 0.398739 0.435294
Si Si6 0.233295 0.458502 0.980841
O O1 0.405417 0.900310 0.175845
O O2 0.757514 0.989610 0.109977
O O3 0.404561 0.083259 0.126845
O O4 0.550659 0.086423 0.199134
O O5 0.444226 0.694761 0.331979
O O6 0.113149 0.781696 0.408721
O O7 0.306438 0.616158 0.428408
O O8 0.189243 0.257676 0.740617
O O9 0.500000 0.825945 0.250000
O O10 0.739703 0.386839 0.473389
O O11 0.383288 0.434718 0.468259
O O12 0.000000 0.500000 0.000000
#
# Coordination Sequence:
#
# PCOD8149955 Si02
#       6
#     8   8   4   8   8   8
#     4  11  23  43  64  93 128 166 212 264 312 378
#     4  11  23  43  66  92 129 168 209 261 321 371
#     4  12  24  40  66  90 122 172 210 258 326 368
#     4  11  24  42  62  91 125 164 214 260 313 378
#     4  10  24  43  65  94 132 165 208 264 313 378
#     4  11  22  43  67  96 128 167 211 260 316 379
#
# _framework density 20.387051
#
# number of rings (size 3 to 8) (size 9 to 14) (size 15 to 20)
#    0.000    1.091    4.545    1.636    0.000    3.636 
#    3.273    0.000    0.000    0.000    0.000    0.000 
#    0.000    0.000    0.000    0.000    0.000    0.000 
#
# Total GULP energy -272918.164216 kJ/mol
# GULP energy per Si atom -12405.371101 kJ/mol
# Density = 2.034065 g / cm^3
# Si number density = 20.387051 Si / 1000 Ang^3
#
#
#
# Elastic Constant Matrix: (Units=GPa)
#
#
# Indices 1 2 3 4 5 6 
#
# 1 119.2560 53.6340 44.5011 0.0000 -1.1594 0.0000
# 2 53.6340 103.2666 41.3990 0.0000 4.9497 0.0000
# 3 44.5011 41.3990 121.5627 0.0000 10.6388 0.0000
# 4 0.0000 0.0000 0.0000 39.8950 0.0000 9.1241
# 5 -1.1594 4.9497 10.6388 0.0000 25.8760 0.0000
# 6 0.0000 0.0000 0.0000 9.1241 0.0000 24.3484
#
#
#
# Elastic Compliance Matrix: (Units=1/GPa)
#
#
# Indices 1 2 3 4 5 6 
#
# 1 0.011752 -0.005111 -0.002794 0.000000 0.002653 0.000000
# 2 -0.005111 0.013446 -0.002555 0.000000 -0.001751 0.000000
# 3 -0.002794 -0.002555 0.010464 0.000000 -0.003939 0.000000
# 4 0.000000 0.000000 0.000000 0.027415 0.000000 -0.010273
# 5 0.002653 -0.001751 -0.003939 0.000000 0.040719 0.000000
# 6 0.000000 0.000000 0.000000 -0.010273 0.000000 0.044920
#
#
# Mechanical properties :
#
#
# Convention : Reuss Voigt Hill
#
# Bulk Modulus (GPa) = 67.82981 69.23928 68.53454
# Shear Modulus (GPa) = 28.64497 31.66062 30.15279
#
# Velocity S-wave (km/s) = 3.75248 3.94506 3.84997
# Velocity P-wave (km/s) = 7.21928 7.40185 7.31114
#
# Compressibility (1/GPa) = 0.01474278
#
# Stress axis : x y z
#
# Youngs Moduli (GPa) = 85.09032 74.36953 95.56772
#
# Poissons Ratio (x) = 0.38010 0.26700
# Poissons Ratio (y) = 0.43489 0.24418
# Poissons Ratio (z) = 0.23773 0.19002
#
# Static dielectric constant tensor:
#      x y z
#    x 3.466530 0.000000 0.037470 
#    y 0.000000 3.662410 0.000000 
#    z 0.037470 0.000000 4.071120 
# 
# 
# High freq. dielectric constant tensor:
#      x y z
#    x 1.788250 0.000000 0.000950 
#    y 0.000000 1.799030 0.000000 
#    z 0.000950 0.000000 1.822610 
# 
# From -- ./inp_files/304941.got.cif
#   From: 2010.06.25/outbox.cif.g09.slc.cpg/sg15_153_cif.got.tgz:304941.got - 2010.06.28 07:06:18.
