data_PCOD8149601
_publ_section_title
;
Structure prediction by ZEFSAII (Michael W. Deem and Ramdas Pophale) SiO2 
 PCOD8149601
Probable space group: C 2/C
;
_chemical_formula_sum "Si O2"
_cell_formula_units_Z 64
_cell_length_a 23.833003
_cell_length_b 14.569540
_cell_length_c 15.988630
_cell_angle_alpha 90.000000
_cell_angle_beta 146.067391
_cell_angle_gamma 90.000000
_cell_volume 3099.126013
_symmetry_space_group_name_H-M "C 2/C"
_symmetry_group_IT_number 15
_symmetry_cell_setting 'monoclinic'
loop_
_space_group_symop_operation_xyz
x,y,z
-x,y,1/2-z
-x,-y,-z
x,-y,1/2+z
1/2+x,1/2+y,z
1/2-x,1/2+y,1/2-z
1/2-x,1/2-y,-z
1/2+x,1/2-y,1/2+z
loop_
_atom_site_type_symbol
_atom_site_label
_atom_site_fract_x
_atom_site_fract_y
_atom_site_fract_z
Si Si1 0.153069 0.181409 0.116550
Si Si2 0.937486 0.334462 0.597506
Si Si3 0.134986 0.755208 0.144424
Si Si4 0.716778 0.393987 0.373556
Si Si5 0.707588 0.463260 0.547191
Si Si6 0.933057 0.568405 0.365349
Si Si7 0.916903 0.047344 0.342563
Si Si8 0.941745 0.123041 0.102501
O O1 0.258142 0.230220 0.262593
O O2 0.159056 0.097757 0.059297
O O3 0.111848 0.145663 0.153876
O O4 0.074927 0.256149 0.986967
O O5 0.833203 0.375745 0.501652
O O6 0.000000 0.289417 0.750000
O O7 0.005699 0.415451 0.644276
O O8 0.150113 0.812444 0.249796
O O9 0.076625 0.662672 0.094503
O O10 0.081430 0.811356 0.004310
O O11 0.694237 0.405975 0.444348
O O12 0.685026 0.487917 0.288211
O O13 0.825929 0.477416 0.711305
O O14 0.654371 0.563365 0.485027
O O15 0.000000 0.500000 0.500000
O O16 0.967747 0.055948 0.314740
O O17 0.000000 0.000000 0.500000
O O18 0.000000 0.176793 0.250000
#
# Coordination Sequence:
#
# PCOD8149601 Si02
#       8
#     8   8   8   8   8   8   8   8
#     4  10  24  38  65  92 131 169 212 267 329 386
#     4  11  24  40  62  94 129 170 216 267 327 393
#     4  10  24  43  66  94 135 170 216 273 330 389
#     4  11  23  40  66  98 135 162 215 276 324 390
#     4  11  23  41  64 103 130 167 216 274 324 388
#     4  11  26  43  67  91 133 179 223 264 330 397
#     4  12  22  39  66  96 129 171 217 262 331 390
#     4  12  24  42  66  97 131 173 219 268 322 394
#
# _framework density 20.650983
#
# number of rings (size 3 to 8) (size 9 to 14) (size 15 to 20)
#    0.000    1.000    5.000    0.750    8.750    2.000 
#    0.000    2.500    0.000    0.000    0.000    0.000 
#    0.000    0.000    0.000    0.000    0.000    0.000 
#
# Total GULP energy -396661.353224 kJ/mol
# GULP energy per Si atom -12395.667288 kJ/mol
# Density = 2.060398 g / cm^3
# Si number density = 20.650983 Si / 1000 Ang^3
#
#
#
# Elastic Constant Matrix: (Units=GPa)
#
#
# Indices 1 2 3 4 5 6 
#
# 1 77.3396 29.8775 37.2902 0.0000 5.8340 0.0000
# 2 29.8775 87.4711 55.3783 0.0000 7.4705 0.0000
# 3 37.2902 55.3783 139.3779 0.0000 1.7311 0.0000
# 4 0.0000 0.0000 0.0000 20.8164 0.0000 3.1777
# 5 5.8340 7.4705 1.7311 0.0000 27.4170 0.0000
# 6 0.0000 0.0000 0.0000 3.1777 0.0000 34.6048
#
#
#
# Elastic Compliance Matrix: (Units=1/GPa)
#
#
# Indices 1 2 3 4 5 6 
#
# 1 0.015784 -0.003398 -0.002845 0.000000 -0.002253 0.000000
# 2 -0.003398 0.016408 -0.005568 0.000000 -0.003396 0.000000
# 3 -0.002845 -0.005568 0.010130 0.000000 0.001483 0.000000
# 4 0.000000 0.000000 0.000000 0.048722 0.000000 -0.004474
# 5 -0.002253 -0.003396 0.001483 0.000000 0.037785 0.000000
# 6 0.000000 0.000000 0.000000 -0.004474 0.000000 0.029309
#
#
# Mechanical properties :
#
#
# Convention : Reuss Voigt Hill
#
# Bulk Modulus (GPa) = 53.47464 61.03118 57.25291
# Shear Modulus (GPa) = 26.59669 28.67715 27.63692
#
# Velocity S-wave (km/s) = 3.59264 3.73051 3.66223
# Velocity P-wave (km/s) = 6.56964 6.94071 6.75772
#
# Compressibility (1/GPa) = 0.01870045
#
# Stress axis : x y z
#
# Youngs Moduli (GPa) = 63.35388 60.94515 98.71806
#
# Poissons Ratio (x) = 0.20708 0.28086
# Poissons Ratio (y) = 0.21526 0.54967
# Poissons Ratio (z) = 0.18025 0.33935
#
# Static dielectric constant tensor:
#      x y z
#    x 4.301360 0.000000 -0.079770 
#    y 0.000000 4.268370 0.000000 
#    z -0.079770 0.000000 3.927510 
# 
# 
# High freq. dielectric constant tensor:
#      x y z
#    x 1.819950 0.000000 0.008000 
#    y 0.000000 1.787860 0.000000 
#    z 0.008000 0.000000 1.819630 
# 
# From -- ./inp_files/173691.got.cif
#   From: 2010.06.25/outbox.cif.g09.slc.cpg/sg15_87_cif.got.tgz:173691.got - 2010.06.28 07:06:18.
