data_PCOD8149683
_publ_section_title
;
Structure prediction by ZEFSAII (Michael W. Deem and Ramdas Pophale) SiO2 
 PCOD8149683
Probable space group: C 2/C
;
_chemical_formula_sum "Si O2"
_cell_formula_units_Z 36
_cell_length_a 13.898933
_cell_length_b 21.318171
_cell_length_c 8.972139
_cell_angle_alpha 90.000000
_cell_angle_beta 143.485702
_cell_angle_gamma 90.000000
_cell_volume 1581.835866
_symmetry_space_group_name_H-M "C 2/C"
_symmetry_group_IT_number 15
_symmetry_cell_setting 'monoclinic'
loop_
_space_group_symop_operation_xyz
x,y,z
-x,y,1/2-z
-x,-y,-z
x,-y,1/2+z
1/2+x,1/2+y,z
1/2-x,1/2+y,1/2-z
1/2-x,1/2-y,-z
1/2+x,1/2-y,1/2+z
loop_
_atom_site_type_symbol
_atom_site_label
_atom_site_fract_x
_atom_site_fract_y
_atom_site_fract_z
Si Si1 0.187589 0.318423 0.961322
Si Si2 0.500000 0.765992 0.250000
Si Si3 0.266796 0.166847 0.653372
Si Si4 0.814494 0.935403 0.967845
Si Si5 0.809080 0.448867 0.015507
O O1 0.000000 0.313452 0.750000
O O2 0.250000 0.250000 0.000000
O O3 0.250400 0.347968 0.194216
O O4 0.245765 0.365490 0.905562
O O5 0.555147 0.809669 0.178994
O O6 0.647605 0.724115 0.481880
O O7 0.220140 0.104427 0.503883
O O8 0.000000 0.940224 0.250000
O O9 0.784123 0.950220 0.757205
O O10 0.709653 0.983659 0.932971
O O11 0.000000 0.434482 0.250000
#
# Coordination Sequence:
#
# PCOD8149683 Si02
#       5
#     8   4   8   8   8
#     4  12  26  44  70 102 145 182 228 284 351 414
#     4  10  24  40  68 100 138 176 228 276 344 402
#     4  11  24  42  70  99 138 180 230 279 344 411
#     4  12  28  46  71 104 139 184 235 288 353 413
#     4  12  25  47  73  99 140 184 238 288 349 415
#
# _framework density 22.758367
#
# number of rings (size 3 to 8) (size 9 to 14) (size 15 to 20)
#    0.000    0.444    1.111    6.667   10.889    0.000 
#    0.000    0.000    0.000    0.000    0.000    0.000 
#    0.000    0.000    0.000    0.000    0.000    0.000 
#
# Total GULP energy -223203.309093 kJ/mol
# GULP energy per Si atom -12400.183839 kJ/mol
# Density = 2.270657 g / cm^3
# Si number density = 22.758367 Si / 1000 Ang^3
#
#
#
# Elastic Constant Matrix: (Units=GPa)
#
#
# Indices 1 2 3 4 5 6 
#
# 1 86.2390 37.7029 39.1486 0.0000 -17.0234 0.0000
# 2 37.7029 145.7647 24.5667 0.0000 -18.1133 0.0000
# 3 39.1486 24.5667 128.7543 0.0000 -17.3820 0.0000
# 4 0.0000 0.0000 0.0000 32.0646 0.0000 3.5486
# 5 -17.0234 -18.1133 -17.3820 0.0000 51.0062 0.0000
# 6 0.0000 0.0000 0.0000 3.5486 0.0000 103.6033
#
#
#
# Elastic Compliance Matrix: (Units=1/GPa)
#
#
# Indices 1 2 3 4 5 6 
#
# 1 0.015083 -0.002945 -0.003654 0.000000 0.002743 0.000000
# 2 -0.002945 0.007897 -0.000383 0.000000 0.001691 0.000000
# 3 -0.003654 -0.000383 0.009191 0.000000 0.001776 0.000000
# 4 0.000000 0.000000 0.000000 0.031306 0.000000 -0.001072
# 5 0.002743 0.001691 0.001776 0.000000 0.021727 0.000000
# 6 0.000000 0.000000 0.000000 -0.001072 0.000000 0.009689
#
#
# Mechanical properties :
#
#
# Convention : Reuss Voigt Hill
#
# Bulk Modulus (GPa) = 54.92343 62.62160 58.77251
# Shear Modulus (GPa) = 43.50673 54.62415 49.06544
#
# Velocity S-wave (km/s) = 4.37702 4.90448 4.64824
# Velocity P-wave (km/s) = 7.05196 7.72318 7.39519
#
# Compressibility (1/GPa) = 0.01820717
#
# Stress axis : x y z
#
# Youngs Moduli (GPa) = 66.29841 126.63487 108.80604
#
# Poissons Ratio (x) = 0.37290 0.39758
# Poissons Ratio (y) = 0.19523 0.04168
# Poissons Ratio (z) = 0.24225 0.04851
#
# Static dielectric constant tensor:
#      x y z
#    x 4.514950 0.000000 0.168250 
#    y 0.000000 4.166170 0.000000 
#    z 0.168250 0.000000 3.866060 
# 
# 
# High freq. dielectric constant tensor:
#      x y z
#    x 1.910400 0.000000 -0.003600 
#    y 0.000000 1.917470 0.000000 
#    z -0.003600 0.000000 1.898880 
# 
# From -- ./inp_files/32353.got.cif
#   From: 2010.06.25/outbox.cif.g09.slc.cpg/sg15_17_cif.got.tgz:32353.got - 2010.06.28 07:06:18.
