data_PCOD8149775
_publ_section_title
;
Structure prediction by ZEFSAII (Michael W. Deem and Ramdas Pophale) SiO2 
 PCOD8149775
Probable space group: C 2/C
;
_chemical_formula_sum "Si O2"
_cell_formula_units_Z 36
_cell_length_a 20.547260
_cell_length_b 16.839309
_cell_length_c 8.989588
_cell_angle_alpha 90.000000
_cell_angle_beta 28.146105
_cell_angle_gamma 90.000000
_cell_volume 1467.248583
_symmetry_space_group_name_H-M "C 2/C"
_symmetry_group_IT_number 15
_symmetry_cell_setting 'monoclinic'
loop_
_space_group_symop_operation_xyz
x,y,z
-x,y,1/2-z
-x,-y,-z
x,-y,1/2+z
1/2+x,1/2+y,z
1/2-x,1/2+y,1/2-z
1/2-x,1/2-y,-z
1/2+x,1/2-y,1/2+z
loop_
_atom_site_type_symbol
_atom_site_label
_atom_site_fract_x
_atom_site_fract_y
_atom_site_fract_z
Si Si1 0.590714 0.180337 0.841666
Si Si2 0.273784 0.242711 0.203115
Si Si3 0.813023 0.043441 0.379704
Si Si4 0.500000 0.489366 0.250000
Si Si5 0.278865 0.864900 0.958836
O O1 0.599003 0.226141 0.666332
O O2 0.638208 0.239037 0.877213
O O3 0.689988 0.104542 0.636473
O O4 0.437897 0.150690 0.179339
O O5 0.243051 0.164695 0.364754
O O6 0.310799 0.315447 0.239861
O O7 0.894707 0.045390 0.370595
O O8 0.752375 0.956868 0.466467
O O9 0.917490 0.065651 0.034561
#
# Coordination Sequence:
#
# PCOD8149775 Si02
#       5
#     8   8   8   4   8
#     4  11  23  46  70 100 131 177 230 280 332 395
#     4  10  24  42  58 106 136 170 216 262 356 394
#     4  11  23  46  70 100 131 177 230 280 332 395
#     4  10  24  42  58 106 136 170 216 262 356 394
#     4  11  23  46  70 100 131 177 230 280 332 395
#
# _framework density 24.535720000000001
#
# number of rings (size 3 to 8) (size 9 to 14) (size 15 to 20)
#    0.000    1.333    0.000    4.667    0.000    0.000 
#   80.000    6.667    0.000    0.000    0.000    0.000 
#    0.000    0.000    0.000    0.000    0.000    0.000 
#
# Total GULP energy -223209.977988 kJ/mol
# GULP energy per Si atom -12400.554333 kJ/mol
# Density = 2.447988 g / cm^3
# Si number density = 24.535720 Si / 1000 Ang^3
#
#
#
# Elastic Constant Matrix: (Units=GPa)
#
#
# Indices 1 2 3 4 5 6 
#
# 1 98.8703 0.2461 -4.4394 -0.0001 17.5417 0.0003
# 2 0.2461 71.9652 10.1447 -0.0001 -12.3954 0.0000
# 3 -4.4394 10.1447 51.4360 -0.0003 2.7390 0.0001
# 4 -0.0001 -0.0001 -0.0003 23.1024 0.0001 -10.3598
# 5 17.5417 -12.3954 2.7390 0.0001 41.3534 -0.0003
# 6 0.0003 0.0000 0.0001 -10.3598 -0.0003 -20.1680
#
#
#
# Elastic Compliance Matrix: (Units=1/GPa)
#
#
# Indices 1 2 3 4 5 6 
#
# 1 0.011094 -0.001128 0.001454 0.000000 -0.005141 0.000000
# 2 -0.001128 0.015288 -0.003394 0.000000 0.005286 0.000000
# 3 0.001454 -0.003394 0.020395 0.000000 -0.002985 0.000000
# 4 0.000000 0.000000 0.000000 0.035181 0.000000 -0.018072
# 5 -0.005141 0.005286 -0.002985 0.000000 0.028145 0.000000
# 6 0.000000 0.000000 0.000000 -0.018072 0.000000 -0.040300
#
#
# Mechanical properties :
#
#
# Convention : Reuss Voigt Hill
#
# Bulk Modulus (GPa) = 24.60571 26.01935 25.31253
# Shear Modulus (GPa) = 55.87321 23.27890 39.57605
#
# Velocity S-wave (km/s) = 4.77720 3.08356 4.02057
# Velocity P-wave (km/s) = 6.36232 4.82758 5.64733
#
# Compressibility (1/GPa) = 0.04064097
#
# Stress axis : x y z
#
# Youngs Moduli (GPa) = 90.13549 65.40903 49.03046
#
# Poissons Ratio (x) = 0.07380 -0.07128
# Poissons Ratio (y) = 0.10170 0.16642
# Poissons Ratio (z) = -0.13104 0.22201
#
# Static dielectric constant tensor:
#      x y z
#    x 4.673860 0.000000 0.333560 
#    y 0.000000 4.158700 0.000000 
#    z 0.333560 0.000000 4.430200 
# 
# 
# High freq. dielectric constant tensor:
#      x y z
#    x 1.997560 0.000000 0.017740 
#    y 0.000000 1.963830 0.000000 
#    z 0.017740 0.000000 1.977500 
# 
# From -- ./inp_files/50535.got.cif
#   From: 2010.06.25/outbox.cif.g09.slc.cpg/sg15_26_cif.got.tgz:50535.got - 2010.06.28 07:06:18.
