data_PCOD8149109
_publ_section_title
;
Structure prediction by ZEFSAII (Michael W. Deem and Ramdas Pophale) SiO2 
 PCOD8149109
Probable space group: C 2/C
;
_chemical_formula_sum "Si O2"
_cell_formula_units_Z 60
_cell_length_a 18.701582
_cell_length_b 24.221839
_cell_length_c 8.093822
_cell_angle_alpha 90.000000
_cell_angle_beta 137.889010
_cell_angle_gamma 90.000000
_cell_volume 2458.569744
_symmetry_space_group_name_H-M "C 2/C"
_symmetry_group_IT_number 15
_symmetry_cell_setting 'monoclinic'
loop_
_space_group_symop_operation_xyz
x,y,z
-x,y,1/2-z
-x,-y,-z
x,-y,1/2+z
1/2+x,1/2+y,z
1/2-x,1/2+y,1/2-z
1/2-x,1/2-y,-z
1/2+x,1/2-y,1/2+z
loop_
_atom_site_type_symbol
_atom_site_label
_atom_site_fract_x
_atom_site_fract_y
_atom_site_fract_z
Si Si1 0.887285 0.561458 0.472442
Si Si2 0.879002 0.321959 0.050757
Si Si3 0.980919 0.845054 0.901091
Si Si4 0.000000 0.228429 0.750000
Si Si5 0.227509 0.513558 0.929673
Si Si6 0.059015 0.950194 0.183658
Si Si7 0.229134 0.268102 0.148185
Si Si8 0.744863 0.632050 0.597399
O O1 0.869392 0.626740 0.404179
O O2 0.789827 0.539117 0.419648
O O3 0.877874 0.522504 0.296200
O O4 0.000000 0.552718 0.750000
O O5 0.851366 0.347505 0.183383
O O6 0.000000 0.298659 0.250000
O O7 0.795682 0.273272 0.877734
O O8 0.855461 0.859407 0.698874
O O9 0.000000 0.819876 0.750000
O O10 0.018975 0.805586 0.114076
O O11 0.053450 0.899873 0.044091
O O12 0.897052 0.265384 0.536217
O O13 0.245515 0.566990 0.839401
O O14 0.321683 0.469333 0.077507
O O15 0.000000 0.931018 0.250000
O O16 0.000000 0.000000 0.000000
O O17 0.266436 0.330570 0.255638
O O18 0.250000 0.250000 0.000000
#
# Coordination Sequence:
#
# PCOD8149109 Si02
#       8
#     8   8   8   4   8   8   8   8
#     4  10  23  44  67 100 134 179 242 289 358 422
#     4  10  24  46  74  98 133 188 235 290 359 431
#     4  12  26  45  74 108 153 193 237 301 374 442
#     4  12  28  50  76 114 148 186 252 314 370 440
#     4  11  24  39  71  99 140 188 228 293 354 435
#     4  12  24  40  65 108 150 189 237 291 361 444
#     4  12  28  47  73 107 140 185 245 306 363 435
#     4  11  25  48  68 102 142 191 237 287 373 433
#
# _framework density 24.404433999999998
#
# number of rings (size 3 to 8) (size 9 to 14) (size 15 to 20)
#    0.000    0.800    3.333    2.800    7.467    1.600 
#    1.200    0.000    0.000    0.000    0.000    0.000 
#    0.000    0.000    0.000    0.000    0.000    0.000 
#
# Total GULP energy -371920.483846 kJ/mol
# GULP energy per Si atom -12397.349462 kJ/mol
# Density = 2.434889 g / cm^3
# Si number density = 24.404434 Si / 1000 Ang^3
#
#
#
# Elastic Constant Matrix: (Units=GPa)
#
#
# Indices 1 2 3 4 5 6 
#
# 1 75.8467 6.0362 19.6156 0.0000 5.7015 0.0000
# 2 6.0362 123.0871 55.2677 0.0000 3.6314 0.0000
# 3 19.6156 55.2677 109.8662 0.0000 17.5169 0.0000
# 4 0.0000 0.0000 0.0000 34.6442 0.0000 1.4054
# 5 5.7015 3.6314 17.5169 0.0000 52.8149 0.0000
# 6 0.0000 0.0000 0.0000 1.4054 0.0000 26.2079
#
#
#
# Elastic Compliance Matrix: (Units=1/GPa)
#
#
# Indices 1 2 3 4 5 6 
#
# 1 0.013874 0.000522 -0.002634 0.000000 -0.000660 0.000000
# 2 0.000522 0.010574 -0.005583 0.000000 0.001068 0.000000
# 3 -0.002634 -0.005583 0.012959 0.000000 -0.003630 0.000000
# 4 0.000000 0.000000 0.000000 0.028928 0.000000 -0.001551
# 5 -0.000660 0.001068 -0.003630 0.000000 0.020136 0.000000
# 6 0.000000 0.000000 0.000000 -0.001551 0.000000 0.038240
#
#
# Mechanical properties :
#
#
# Convention : Reuss Voigt Hill
#
# Bulk Modulus (GPa) = 45.41951 52.29324 48.85638
# Shear Modulus (GPa) = 33.91218 37.92542 35.91880
#
# Velocity S-wave (km/s) = 3.73177 3.94641 3.84059
# Velocity P-wave (km/s) = 6.10079 6.49921 6.30315
#
# Compressibility (1/GPa) = 0.02201697
#
# Stress axis : x y z
#
# Youngs Moduli (GPa) = 72.07794 94.57245 77.16390
#
# Poissons Ratio (x) = -0.04937 0.20328
# Poissons Ratio (y) = -0.03762 0.43078
# Poissons Ratio (z) = 0.18988 0.52797
#
# Static dielectric constant tensor:
#      x y z
#    x 4.110400 0.000000 -0.108880 
#    y 0.000000 4.236600 0.000000 
#    z -0.108880 0.000000 4.380670 
# 
# 
# High freq. dielectric constant tensor:
#      x y z
#    x 1.965940 0.000000 0.015590 
#    y 0.000000 1.977660 0.000000 
#    z 0.015590 0.000000 1.966250 
# 
# From -- ./inp_files/58763.got.cif
#   From: 2010.06.25/outbox.cif.g09.slc.cpg/sg15_30_cif.got.tgz:58763.got - 2010.06.28 07:06:18.
