data_PCOD8149740
_publ_section_title
;
Structure prediction by ZEFSAII (Michael W. Deem and Ramdas Pophale) SiO2 
 PCOD8149740
Probable space group: C 2/C
;
_chemical_formula_sum "Si O2"
_cell_formula_units_Z 36
_cell_length_a 7.261730
_cell_length_b 7.384597
_cell_length_c 30.165226
_cell_angle_alpha 90.000000
_cell_angle_beta 69.326909
_cell_angle_gamma 90.000000
_cell_volume 1513.450796
_symmetry_space_group_name_H-M "C 2/C"
_symmetry_group_IT_number 15
_symmetry_cell_setting 'monoclinic'
loop_
_space_group_symop_operation_xyz
x,y,z
-x,y,1/2-z
-x,-y,-z
x,-y,1/2+z
1/2+x,1/2+y,z
1/2-x,1/2+y,1/2-z
1/2-x,1/2-y,-z
1/2+x,1/2-y,1/2+z
loop_
_atom_site_type_symbol
_atom_site_label
_atom_site_fract_x
_atom_site_fract_y
_atom_site_fract_z
Si Si1 0.983388 0.338234 0.967354
Si Si2 0.129777 0.213555 0.104853
Si Si3 0.080506 0.738141 0.788690
Si Si4 0.146174 0.033038 0.444958
Si Si5 0.500000 0.107706 0.250000
O O1 0.154134 0.380127 0.916346
O O2 0.765918 0.320274 0.964259
O O3 0.464852 0.366210 0.017051
O O4 0.000000 0.500000 0.000000
O O5 0.170388 0.427951 0.094448
O O6 0.034218 0.173371 0.160442
O O7 0.991177 0.132573 0.078302
O O8 0.312826 0.767015 0.775218
O O9 0.000000 0.831028 0.750000
O O10 0.041152 0.521797 0.789140
#
# Coordination Sequence:
#
# PCOD8149740 Si02
#       5
#     8   8   8   8   4
#     4  10  24  44  67  96 129 168 211 260 316 380
#     4  10  24  42  66  95 131 168 211 263 314 376
#     4  10  24  44  65  95 128 170 214 261 317 374
#     4  10  24  41  65  96 126 168 210 262 312 374
#     4  10  24  42  64  92 122 168 214 262 312 370
#
# _framework density 23.786698999999999
#
# number of rings (size 3 to 8) (size 9 to 14) (size 15 to 20)
#    2.000    0.000    0.000    2.000    4.667    5.333 
#    0.000    0.000    0.000    0.000    0.000    0.000 
#    0.000    0.000    0.000    0.000    0.000    0.000 
#
# Total GULP energy -223022.443016 kJ/mol
# GULP energy per Si atom -12390.135723 kJ/mol
# Density = 2.373256 g / cm^3
# Si number density = 23.786699 Si / 1000 Ang^3
#
#
#
# Elastic Constant Matrix: (Units=GPa)
#
#
# Indices 1 2 3 4 5 6 
#
# 1 212.3442 63.6363 74.1213 0.0000 -6.8977 0.0000
# 2 63.6363 105.3505 45.0351 0.0000 5.7117 0.0000
# 3 74.1213 45.0351 133.6996 0.0000 -8.7648 0.0000
# 4 0.0000 0.0000 0.0000 17.7513 0.0000 3.8054
# 5 -6.8977 5.7117 -8.7648 0.0000 37.3875 0.0000
# 6 0.0000 0.0000 0.0000 3.8054 0.0000 47.7892
#
#
#
# Elastic Compliance Matrix: (Units=1/GPa)
#
#
# Indices 1 2 3 4 5 6 
#
# 1 0.006504 -0.002889 -0.002564 0.000000 0.001040 0.000000
# 2 -0.002889 0.012628 -0.002858 0.000000 -0.003132 0.000000
# 3 -0.002564 -0.002858 0.010015 0.000000 0.002311 0.000000
# 4 0.000000 0.000000 0.000000 0.057312 0.000000 -0.004564
# 5 0.001040 -0.003132 0.002311 0.000000 0.027959 0.000000
# 6 0.000000 0.000000 0.000000 -0.004564 0.000000 0.021289
#
#
# Mechanical properties :
#
#
# Convention : Reuss Voigt Hill
#
# Bulk Modulus (GPa) = 79.83417 90.77552 85.30485
# Shear Modulus (GPa) = 31.94788 38.49237 35.22013
#
# Velocity S-wave (km/s) = 3.66881 4.02709 3.85212
# Velocity P-wave (km/s) = 7.18208 7.73747 7.46494
#
# Compressibility (1/GPa) = 0.01252596
#
# Stress axis : x y z
#
# Youngs Moduli (GPa) = 153.75085 79.18629 99.84802
#
# Poissons Ratio (x) = 0.22876 0.25606
# Poissons Ratio (y) = 0.44416 0.28532
# Poissons Ratio (z) = 0.39429 0.22628
#
# Static dielectric constant tensor:
#      x y z
#    x 4.500270 0.000000 -0.288770 
#    y 0.000000 4.277160 0.000000 
#    z -0.288770 0.000000 4.123090 
# 
# 
# High freq. dielectric constant tensor:
#      x y z
#    x 1.972290 0.000000 -0.025660 
#    y 0.000000 1.945240 0.000000 
#    z -0.025660 0.000000 1.927440 
# 
# From -- ./inp_files/259868.got.cif
#   From: 2010.06.25/outbox.cif.g09.slc.cpg/sg15_130_cif.got.tgz:259868.got - 2010.06.28 07:06:18.
