data_PCOD8149943
_publ_section_title
;
Structure prediction by ZEFSAII (Michael W. Deem and Ramdas Pophale) SiO2 
 PCOD8149943
Probable space group: C 2/C
;
_chemical_formula_sum "Si O2"
_cell_formula_units_Z 48
_cell_length_a 8.551154
_cell_length_b 11.510879
_cell_length_c 25.985166
_cell_angle_alpha 90.000000
_cell_angle_beta 61.121130
_cell_angle_gamma 90.000000
_cell_volume 2239.678297
_symmetry_space_group_name_H-M "C 2/C"
_symmetry_group_IT_number 15
_symmetry_cell_setting 'monoclinic'
loop_
_space_group_symop_operation_xyz
x,y,z
-x,y,1/2-z
-x,-y,-z
x,-y,1/2+z
1/2+x,1/2+y,z
1/2-x,1/2+y,1/2-z
1/2-x,1/2-y,-z
1/2+x,1/2-y,1/2+z
loop_
_atom_site_type_symbol
_atom_site_label
_atom_site_fract_x
_atom_site_fract_y
_atom_site_fract_z
Si Si1 0.768274 0.594317 0.836803
Si Si2 0.824247 0.356236 0.212196
Si Si3 0.753170 0.510449 0.130913
Si Si4 0.489271 0.779357 0.577192
Si Si5 0.595072 0.361925 0.856413
Si Si6 0.631283 0.789721 0.445552
O O1 0.741358 0.625477 0.781174
O O2 0.623990 0.664991 0.892262
O O3 0.736285 0.458510 0.851252
O O4 0.965175 0.620127 0.824845
O O5 0.719774 0.440493 0.189322
O O6 0.802735 0.220695 0.200782
O O7 0.900768 0.608339 0.116903
O O8 0.573927 0.574192 0.141556
O O9 0.824363 0.421850 0.076579
O O10 0.493861 0.790913 0.514644
O O11 0.686438 0.774386 0.568579
O O12 0.538532 0.281973 0.913970
#
# Coordination Sequence:
#
# PCOD8149943 Si02
#       6
#     8   8   8   8   8   8
#     4  11  23  42  64  94 121 172 207 258 323 369
#     4  10  25  42  63  91 129 161 212 262 314 378
#     4  11  22  43  66  93 126 169 206 264 316 374
#     4  11  22  42  66  91 130 167 212 261 317 374
#     4  11  23  43  64  93 129 163 214 258 319 378
#     4  10  24  43  62  95 128 167 212 260 315 381
#
# _framework density 21.431647999999999
#
# number of rings (size 3 to 8) (size 9 to 14) (size 15 to 20)
#    0.000    1.333    3.333    1.500    2.333    2.000 
#    3.000    0.000    0.000    0.000    0.000    0.000 
#    0.000    0.000    0.000    0.000    0.000    0.000 
#
# Total GULP energy -297698.227116 kJ/mol
# GULP energy per Si atom -12404.092796 kJ/mol
# Density = 2.138287 g / cm^3
# Si number density = 21.431648 Si / 1000 Ang^3
#
#
#
# Elastic Constant Matrix: (Units=GPa)
#
#
# Indices 1 2 3 4 5 6 
#
# 1 55.6957 9.5357 -0.9008 0.0000 11.8622 0.0000
# 2 9.5357 138.4479 16.7160 0.0000 8.2648 0.0000
# 3 -0.9008 16.7160 61.8458 0.0000 9.6322 0.0000
# 4 0.0000 0.0000 0.0000 18.4293 0.0000 7.2756
# 5 11.8622 8.2648 9.6322 0.0000 28.1137 0.0000
# 6 0.0000 0.0000 0.0000 7.2756 0.0000 42.6119
#
#
#
# Elastic Compliance Matrix: (Units=1/GPa)
#
#
# Indices 1 2 3 4 5 6 
#
# 1 0.020050 -0.001092 0.001959 0.000000 -0.008810 0.000000
# 2 -0.001092 0.007594 -0.001893 0.000000 -0.001123 0.000000
# 3 0.001959 -0.001893 0.017696 0.000000 -0.006333 0.000000
# 4 0.000000 0.000000 0.000000 0.058183 0.000000 -0.009934
# 5 -0.008810 -0.001123 -0.006333 0.000000 0.041787 0.000000
# 6 0.000000 0.000000 0.000000 -0.009934 0.000000 0.025164
#
#
# Mechanical properties :
#
#
# Convention : Reuss Voigt Hill
#
# Bulk Modulus (GPa) = 23.10128 34.07680 28.58904
# Shear Modulus (GPa) = 26.74449 33.20688 29.97568
#
# Velocity S-wave (km/s) = 3.53639 3.94055 3.74393
# Velocity P-wave (km/s) = 5.24187 6.05299 5.66197
#
# Compressibility (1/GPa) = 0.04328764
#
# Stress axis : x y z
#
# Youngs Moduli (GPa) = 49.87608 131.68683 56.51039
#
# Poissons Ratio (x) = 0.14374 -0.11071
# Poissons Ratio (y) = 0.05444 0.10700
# Poissons Ratio (z) = -0.09772 0.24935
#
# Static dielectric constant tensor:
#      x y z
#    x 3.806220 0.000000 0.137160 
#    y 0.000000 4.110190 0.000000 
#    z 0.137160 0.000000 3.859390 
# 
# 
# High freq. dielectric constant tensor:
#      x y z
#    x 1.841330 0.000000 0.009170 
#    y 0.000000 1.859690 0.000000 
#    z 0.009170 0.000000 1.835950 
# 
# From -- ./inp_files/263255.got.cif
#   From: 2010.06.25/outbox.cif.g09.slc.cpg/sg15_132_cif.got.tgz:263255.got - 2010.06.28 07:06:18.
