data_PCOD8149177
_publ_section_title
;
Structure prediction by ZEFSAII (Michael W. Deem and Ramdas Pophale) SiO2 
 PCOD8149177
Probable space group: C 2/C
;
_chemical_formula_sum "Si O2"
_cell_formula_units_Z 48
_cell_length_a 29.488741
_cell_length_b 8.649709
_cell_length_c 19.406805
_cell_angle_alpha 90.000000
_cell_angle_beta 23.161972
_cell_angle_gamma 90.000000
_cell_volume 1947.021770
_symmetry_space_group_name_H-M "C 2/C"
_symmetry_group_IT_number 15
_symmetry_cell_setting 'monoclinic'
loop_
_space_group_symop_operation_xyz
x,y,z
-x,y,1/2-z
-x,-y,-z
x,-y,1/2+z
1/2+x,1/2+y,z
1/2-x,1/2+y,1/2-z
1/2-x,1/2-y,-z
1/2+x,1/2-y,1/2+z
loop_
_atom_site_type_symbol
_atom_site_label
_atom_site_fract_x
_atom_site_fract_y
_atom_site_fract_z
Si Si1 0.847549 0.547932 0.995410
Si Si2 0.645317 0.562920 0.859440
Si Si3 0.996938 0.760081 0.464372
Si Si4 0.828090 0.699005 0.812607
Si Si5 0.658304 0.113479 0.133319
Si Si6 0.512311 0.697326 0.157792
O O1 0.777314 0.475187 0.157542
O O2 0.782079 0.696961 0.052537
O O3 0.873753 0.421785 0.900917
O O4 0.966164 0.617654 0.860361
O O5 0.605934 0.686626 0.857356
O O6 0.568182 0.411208 0.969811
O O7 0.628843 0.632479 0.958781
O O8 0.042204 0.666219 0.335116
O O9 0.908312 0.659565 0.634462
O O10 0.789122 0.537855 0.901604
O O11 0.901199 0.810501 0.763300
O O12 0.750000 0.250000 0.000000
O O13 0.500000 0.614406 0.250000
#
# Coordination Sequence:
#
# PCOD8149177 Si02
#       6
#     8   8   8   8   8   8
#     4  11  23  45  66  97 134 171 221 271 324 392
#     4   9  20  42  62  93 127 170 212 273 321 384
#     4   9  19  39  68  93 126 166 220 264 327 386
#     4  10  23  44  69  90 132 180 214 264 332 389
#     4  12  22  35  67 104 125 164 221 273 320 386
#     4  11  23  41  68  91 131 174 218 259 330 395
#
# _framework density 24.653037999999999
#
# number of rings (size 3 to 8) (size 9 to 14) (size 15 to 20)
#    0.000    1.667    3.333    2.000    0.000    0.000 
#   12.000    1.667    3.667    0.000    0.000    0.000 
#    0.000    0.000    0.000    0.000    0.000    0.000 
#
# Total GULP energy -297489.697637 kJ/mol
# GULP energy per Si atom -12395.404068 kJ/mol
# Density = 2.459693 g / cm^3
# Si number density = 24.653038 Si / 1000 Ang^3
#
#
#
# Elastic Constant Matrix: (Units=GPa)
#
#
# Indices 1 2 3 4 5 6 
#
# 1 56.6724 5.1255 18.5084 0.0001 24.5073 0.0001
# 2 5.1255 68.0606 22.8117 0.0016 22.9846 -0.0003
# 3 18.5084 22.8117 105.6033 0.0012 51.9861 -0.0002
# 4 0.0001 0.0016 0.0012 53.6734 -0.0001 12.6557
# 5 24.5073 22.9846 51.9861 -0.0001 52.7897 -0.0001
# 6 0.0001 -0.0003 -0.0002 12.6557 -0.0001 30.9301
#
#
#
# Elastic Compliance Matrix: (Units=1/GPa)
#
#
# Indices 1 2 3 4 5 6 
#
# 1 0.022631 0.002154 0.002333 0.000000 -0.013742 0.000000
# 2 0.002154 0.017431 0.000166 -0.000001 -0.008753 0.000000
# 3 0.002333 0.000166 0.018620 -0.000001 -0.019492 0.000000
# 4 0.000000 -0.000001 -0.000001 0.020621 0.000001 -0.008437
# 5 -0.013742 -0.008753 -0.019492 0.000001 0.048329 0.000000
# 6 0.000000 0.000000 0.000000 -0.008437 0.000000 0.035783
#
#
# Mechanical properties :
#
#
# Convention : Reuss Voigt Hill
#
# Bulk Modulus (GPa) = 14.70820 35.91416 25.31118
# Shear Modulus (GPa) = 28.28516 39.73803 34.01159
#
# Velocity S-wave (km/s) = 3.39090 4.01919 3.71834
# Velocity P-wave (km/s) = 4.61627 6.01149 5.35948
#
# Compressibility (1/GPa) = 0.06798930
#
# Stress axis : x y z
#
# Youngs Moduli (GPa) = 44.18722 57.36947 53.70511
#
# Poissons Ratio (x) = -0.12360 -0.12530
# Poissons Ratio (y) = -0.09520 -0.00892
# Poissons Ratio (z) = -0.10309 -0.00953
#
# Static dielectric constant tensor:
#      x y z
#    x 4.236610 0.000000 0.396880 
#    y 0.000000 4.335520 0.000000 
#    z 0.396880 0.000000 4.849400 
# 
# 
# High freq. dielectric constant tensor:
#      x y z
#    x 1.961930 0.000000 0.020370 
#    y 0.000000 1.960420 0.000000 
#    z 0.020370 0.000000 2.013160 
# 
# From -- ./inp_files/208959.got.cif
#   From: 2010.06.25/outbox.cif.g09.slc.cpg/sg15_105_cif.got.tgz:208959.got - 2010.06.28 07:06:18.
