data_PCOD8149498
_publ_section_title
;
Structure prediction by ZEFSAII (Michael W. Deem and Ramdas Pophale) SiO2 
 PCOD8149498
Probable space group: C 2/C
;
_chemical_formula_sum "Si O2"
_cell_formula_units_Z 64
_cell_length_a 16.293831
_cell_length_b 26.119070
_cell_length_c 12.592893
_cell_angle_alpha 90.000000
_cell_angle_beta 33.293515
_cell_angle_gamma 90.000000
_cell_volume 2941.859879
_symmetry_space_group_name_H-M "C 2/C"
_symmetry_group_IT_number 15
_symmetry_cell_setting 'monoclinic'
loop_
_space_group_symop_operation_xyz
x,y,z
-x,y,1/2-z
-x,-y,-z
x,-y,1/2+z
1/2+x,1/2+y,z
1/2-x,1/2+y,1/2-z
1/2-x,1/2-y,-z
1/2+x,1/2-y,1/2+z
loop_
_atom_site_type_symbol
_atom_site_label
_atom_site_fract_x
_atom_site_fract_y
_atom_site_fract_z
Si Si1 0.580218 0.934189 0.969696
Si Si2 0.295654 0.356783 0.826858
Si Si3 0.094753 0.455476 0.542810
Si Si4 0.861718 0.359104 0.280124
Si Si5 0.398849 0.662036 0.574971
Si Si6 0.652657 0.797461 0.647062
Si Si7 0.600986 0.219969 0.444768
Si Si8 0.146535 0.117212 0.656363
O O1 0.455523 0.911647 0.185321
O O2 0.630107 0.991195 0.945321
O O3 0.725296 0.899129 0.825002
O O4 0.513365 0.925847 0.923090
O O5 0.471614 0.366923 0.629919
O O6 0.240180 0.357436 0.006721
O O7 0.259706 0.300599 0.817151
O O8 0.252754 0.428419 0.401756
O O9 0.000000 0.465522 0.750000
O O10 0.758149 0.362165 0.288639
O O11 0.971940 0.310352 0.149319
O O12 0.406950 0.720229 0.526720
O O13 0.414614 0.654401 0.684059
O O14 0.500000 0.804757 0.750000
O O15 0.750000 0.750000 0.500000
O O16 0.750499 0.848930 0.532208
O O17 0.594201 0.790447 0.828134
O O18 0.000000 0.096512 0.750000
#
# Coordination Sequence:
#
# PCOD8149498 Si02
#       8
#     8   8   8   8   8   8   8   8
#     4  10  23  47  70  97 131 165 226 275 341 400
#     4  11  25  41  67  92 133 179 221 284 333 393
#     4  11  24  44  75 101 124 173 222 282 331 405
#     4  11  23  43  66  95 131 178 227 280 331 397
#     4  12  24  40  62  98 140 179 223 275 332 393
#     4  12  25  40  65  96 137 188 221 270 340 399
#     4  11  24  39  64  93 134 180 231 271 321 398
#     4  12  26  43  65 101 143 176 222 275 339 403
#
# _framework density 21.754946
#
# number of rings (size 3 to 8) (size 9 to 14) (size 15 to 20)
#    0.000    0.750    2.500    5.625    8.750    3.000 
#    0.000    3.125    0.000    0.000    0.000    0.000 
#    0.000    0.000    0.000    0.000    0.000    0.000 
#
# Total GULP energy -396704.810415 kJ/mol
# GULP energy per Si atom -12397.025325 kJ/mol
# Density = 2.170543 g / cm^3
# Si number density = 21.754946 Si / 1000 Ang^3
#
#
#
# Elastic Constant Matrix: (Units=GPa)
#
#
# Indices 1 2 3 4 5 6 
#
# 1 110.5107 35.0908 13.3298 0.0046 -17.3462 -0.0015
# 2 35.0908 99.0482 17.4919 0.0008 -18.7842 -0.0008
# 3 13.3298 17.4919 68.7804 0.0037 -13.8623 -0.0041
# 4 0.0046 0.0008 0.0037 10.4648 -0.0051 2.3785
# 5 -17.3462 -18.7842 -13.8623 -0.0051 42.9250 0.0024
# 6 -0.0015 -0.0008 -0.0041 2.3785 0.0024 28.5936
#
#
#
# Elastic Compliance Matrix: (Units=1/GPa)
#
#
# Indices 1 2 3 4 5 6 
#
# 1 0.010539 -0.003101 -0.000716 -0.000003 0.002671 0.000000
# 2 -0.003101 0.012174 -0.001790 0.000003 0.003496 -0.000001
# 3 -0.000716 -0.001790 0.015955 -0.000004 0.004080 0.000002
# 4 -0.000003 0.000003 -0.000004 0.097400 0.000011 -0.008102
# 5 0.002671 0.003496 0.004080 0.000011 0.027223 -0.000002
# 6 0.000000 -0.000001 0.000002 -0.008102 -0.000002 0.035647
#
#
# Mechanical properties :
#
#
# Convention : Reuss Voigt Hill
#
# Bulk Modulus (GPa) = 36.42397 45.57379 40.99888
# Shear Modulus (GPa) = 22.79940 30.55845 26.67893
#
# Velocity S-wave (km/s) = 3.24081 3.75195 3.50571
# Velocity P-wave (km/s) = 5.54824 6.30585 5.93914
#
# Compressibility (1/GPa) = 0.02745445
#
# Stress axis : x y z
#
# Youngs Moduli (GPa) = 94.88503 82.14300 62.67491
#
# Poissons Ratio (x) = 0.25472 0.04485
# Poissons Ratio (y) = 0.29423 0.11221
# Poissons Ratio (z) = 0.06790 0.14707
#
# Static dielectric constant tensor:
#      x y z
#    x 4.173020 -0.000030 -0.111840 
#    y -0.000030 4.305820 0.000010 
#    z -0.111840 0.000010 3.903150 
# 
# 
# High freq. dielectric constant tensor:
#      x y z
#    x 1.873200 0.000000 0.002220 
#    y 0.000000 1.840640 0.000000 
#    z 0.002220 0.000000 1.857960 
# 
# From -- ./inp_files/101312.got.cif
#   From: 2010.06.25/outbox.cif.g09.slc.cpg/sg15_51_cif.got.tgz:101312.got - 2010.06.28 07:06:18.
