data_PCOD8149522
_publ_section_title
;
Structure prediction by ZEFSAII (Michael W. Deem and Ramdas Pophale) SiO2 
 PCOD8149522
Probable space group: C 2/C
;
_chemical_formula_sum "Si O2"
_cell_formula_units_Z 36
_cell_length_a 4.844399
_cell_length_b 18.564004
_cell_length_c 17.006143
_cell_angle_alpha 90.000000
_cell_angle_beta 68.256295
_cell_angle_gamma 90.000000
_cell_volume 1420.571484
_symmetry_space_group_name_H-M "C 2/C"
_symmetry_group_IT_number 15
_symmetry_cell_setting 'monoclinic'
loop_
_space_group_symop_operation_xyz
x,y,z
-x,y,1/2-z
-x,-y,-z
x,-y,1/2+z
1/2+x,1/2+y,z
1/2-x,1/2+y,1/2-z
1/2-x,1/2-y,-z
1/2+x,1/2-y,1/2+z
loop_
_atom_site_type_symbol
_atom_site_label
_atom_site_fract_x
_atom_site_fract_y
_atom_site_fract_z
Si Si1 0.645131 0.110365 0.918964
Si Si2 0.500000 0.460442 0.750000
Si Si3 0.820668 0.749235 0.690084
Si Si4 0.690072 0.519755 0.880924
Si Si5 0.637753 0.381632 0.591064
O O1 0.696681 0.174699 0.854017
O O2 0.502109 0.040858 0.888436
O O3 0.962525 0.086178 0.919183
O O4 0.439584 0.134429 0.013055
O O5 0.714625 0.508613 0.783121
O O6 0.707980 0.409048 0.673087
O O7 0.500000 0.777020 0.750000
O O8 0.000000 0.735461 0.750000
O O9 0.956778 0.807615 0.616009
O O10 0.554360 0.445321 0.932420
#
# Coordination Sequence:
#
# PCOD8149522 Si02
#       5
#     8   4   8   8   8
#     4  12  25  44  70 103 137 170 227 281 337 382
#     4   8  22  42  70 100 134 180 218 274 330 402
#     4  12  27  45  68  99 136 179 225 275 336 396
#     4  10  24  43  68 102 129 177 221 277 329 400
#     4  10  23  48  68 100 134 186 219 274 329 415
#
# _framework density 25.341912000000001
#
# number of rings (size 3 to 8) (size 9 to 14) (size 15 to 20)
#    1.333    0.000    1.111    3.333    4.667    5.333 
#    0.000    4.444    0.000    0.000    0.000    0.000 
#    0.000    0.000    0.000    0.000    0.000    0.000 
#
# Total GULP energy -223161.679487 kJ/mol
# GULP energy per Si atom -12397.871083 kJ/mol
# Density = 2.528423 g / cm^3
# Si number density = 25.341912 Si / 1000 Ang^3
#
#
#
# Elastic Constant Matrix: (Units=GPa)
#
#
# Indices 1 2 3 4 5 6 
#
# 1 54.1373 -6.7797 8.1788 0.0000 7.2352 0.0000
# 2 -6.7797 119.1984 10.9576 0.0000 -0.1378 0.0000
# 3 8.1788 10.9576 103.6093 0.0000 1.2568 0.0000
# 4 0.0000 0.0000 0.0000 47.2468 0.0000 -17.5593
# 5 7.2352 -0.1378 1.2568 0.0000 19.6860 0.0000
# 6 0.0000 0.0000 0.0000 -17.5593 0.0000 15.6659
#
#
#
# Elastic Compliance Matrix: (Units=1/GPa)
#
#
# Indices 1 2 3 4 5 6 
#
# 1 0.019833 0.001268 -0.001613 0.000000 -0.007177 0.000000
# 2 0.001268 0.008553 -0.001001 0.000000 -0.000342 0.000000
# 3 -0.001613 -0.001001 0.009885 0.000000 -0.000045 0.000000
# 4 0.000000 0.000000 0.000000 0.036278 0.000000 0.040662
# 5 -0.007177 -0.000342 -0.000045 0.000000 0.053436 0.000000
# 6 0.000000 0.000000 0.000000 0.040662 0.000000 0.109410
#
#
# Mechanical properties :
#
#
# Convention : Reuss Voigt Hill
#
# Bulk Modulus (GPa) = 28.10465 33.51758 30.81111
# Shear Modulus (GPa) = 19.84556 34.15897 27.00226
#
# Velocity S-wave (km/s) = 2.80145 3.67539 3.26777
# Velocity P-wave (km/s) = 4.64526 5.59162 5.14026
#
# Compressibility (1/GPa) = 0.03558130
#
# Stress axis : x y z
#
# Youngs Moduli (GPa) = 50.42052 116.91700 101.16019
#
# Poissons Ratio (x) = -0.14825 0.16314
# Poissons Ratio (y) = -0.06393 0.10121
# Poissons Ratio (z) = 0.08131 0.11698
#
# Static dielectric constant tensor:
#      x y z
#    x 4.118140 0.000000 0.028200 
#    y 0.000000 4.440630 0.000000 
#    z 0.028200 0.000000 4.661080 
# 
# 
# High freq. dielectric constant tensor:
#      x y z
#    x 1.992510 0.000000 0.000440 
#    y 0.000000 2.006240 0.000000 
#    z 0.000440 0.000000 2.035680 
# 
# From -- ./inp_files/184598.got.cif
#   From: 2010.06.25/outbox.cif.g09.slc.cpg/sg15_93_cif.got.tgz:184598.got - 2010.06.28 07:06:18.
