data_PCOD8149741
_publ_section_title
;
Structure prediction by ZEFSAII (Michael W. Deem and Ramdas Pophale) SiO2 
 PCOD8149741
Probable space group: C 2/C
;
_chemical_formula_sum "Si O2"
_cell_formula_units_Z 56
_cell_length_a 21.415605
_cell_length_b 18.371294
_cell_length_c 16.456387
_cell_angle_alpha 90.000000
_cell_angle_beta 25.885299
_cell_angle_gamma 90.000000
_cell_volume 2826.567985
_symmetry_space_group_name_H-M "C 2/C"
_symmetry_group_IT_number 15
_symmetry_cell_setting 'monoclinic'
loop_
_space_group_symop_operation_xyz
x,y,z
-x,y,1/2-z
-x,-y,-z
x,-y,1/2+z
1/2+x,1/2+y,z
1/2-x,1/2+y,1/2-z
1/2-x,1/2-y,-z
1/2+x,1/2-y,1/2+z
loop_
_atom_site_type_symbol
_atom_site_label
_atom_site_fract_x
_atom_site_fract_y
_atom_site_fract_z
Si Si1 0.830582 0.599943 0.353051
Si Si2 0.285507 0.224317 0.280624
Si Si3 0.136790 0.187368 0.141106
Si Si4 0.850567 0.960189 0.960695
Si Si5 0.557886 0.699627 0.418650
Si Si6 0.333842 0.879768 0.032993
Si Si7 0.394514 0.437972 0.096908
O O1 0.764386 0.663593 0.374734
O O2 0.771279 0.521477 0.394183
O O3 0.779847 0.610136 0.504428
O O4 0.000486 0.602717 0.149100
O O5 0.207532 0.199478 0.289796
O O6 0.202125 0.296710 0.404163
O O7 0.454402 0.231534 0.060075
O O8 0.196996 0.109353 0.038545
O O9 0.091911 0.184883 0.286109
O O10 0.000000 0.210480 0.250000
O O11 0.250000 0.250000 0.000000
O O12 0.000000 0.991603 0.750000
O O13 0.875211 0.932168 0.023166
O O14 0.462161 0.632804 0.559244
O O15 0.259174 0.940234 0.178563
O O16 0.500000 0.500000 0.000000
#
# Coordination Sequence:
#
# PCOD8149741 Si02
#       7
#     8   8   8   8   8   8   8
#     4  11  23  44  64  97 140 176 224 282 346 401
#     4  11  22  41  67  99 132 178 222 273 342 402
#     4  11  23  43  66  96 130 172 221 279 333 394
#     4  11  23  43  67  96 135 176 228 278 338 407
#     4  11  22  39  67  95 131 170 221 276 325 405
#     4  10  24  41  65  96 139 176 222 284 333 410
#     4  11  22  41  65  95 130 176 226 277 333 404
#
# _framework density 19.812013
#
# number of rings (size 3 to 8) (size 9 to 14) (size 15 to 20)
#    0.000    1.143    4.286    3.000    2.000    1.714 
#    5.143    1.429    0.000    0.000    0.000    0.000 
#    0.000    0.000    0.000    0.000    0.000    0.000 
#
# Total GULP energy -347084.641481 kJ/mol
# GULP energy per Si atom -12395.880053 kJ/mol
# Density = 1.976692 g / cm^3
# Si number density = 19.812013 Si / 1000 Ang^3
#
#
#
# Elastic Constant Matrix: (Units=GPa)
#
#
# Indices 1 2 3 4 5 6 
#
# 1 131.3356 45.5668 51.2003 -0.0069 6.8550 0.0039
# 2 45.5668 120.9068 50.6992 -0.0037 -7.1487 0.0028
# 3 51.2003 50.6992 109.6003 -0.0101 10.7820 0.0084
# 4 -0.0069 -0.0037 -0.0101 31.1365 0.0078 -7.6310
# 5 6.8550 -7.1487 10.7820 0.0078 36.3662 -0.0045
# 6 0.0039 0.0028 0.0084 -7.6310 -0.0045 26.2386
#
#
#
# Elastic Compliance Matrix: (Units=1/GPa)
#
#
# Indices 1 2 3 4 5 6 
#
# 1 0.009814 -0.002368 -0.003360 0.000001 -0.001319 0.000000
# 2 -0.002368 0.011292 -0.004511 -0.000001 0.004003 0.000001
# 3 -0.003360 -0.004511 0.013190 0.000003 -0.004164 -0.000003
# 4 0.000001 -0.000001 0.000003 0.034582 -0.000008 0.010057
# 5 -0.001319 0.004003 -0.004164 -0.000008 0.029768 0.000004
# 6 0.000000 0.000001 -0.000003 0.010057 0.000004 0.041037
#
#
# Mechanical properties :
#
#
# Convention : Reuss Voigt Hill
#
# Bulk Modulus (GPa) = 72.36602 72.97504 72.67053
# Shear Modulus (GPa) = 30.34620 33.04001 31.69310
#
# Velocity S-wave (km/s) = 3.91795 4.08815 4.00395
# Velocity P-wave (km/s) = 7.55465 7.69400 7.62464
#
# Compressibility (1/GPa) = 0.01381864
#
# Stress axis : x y z
#
# Youngs Moduli (GPa) = 101.89290 88.56214 75.81622
#
# Poissons Ratio (x) = 0.20972 0.25471
# Poissons Ratio (y) = 0.24128 0.34200
# Poissons Ratio (z) = 0.34232 0.39949
#
# Static dielectric constant tensor:
#      x y z
#    x 3.696620 0.000000 -0.064080 
#    y 0.000000 3.558970 0.000020 
#    z -0.064080 0.000020 3.780720 
# 
# 
# High freq. dielectric constant tensor:
#      x y z
#    x 1.784990 0.000000 0.007230 
#    y 0.000000 1.769290 0.000000 
#    z 0.007230 0.000000 1.781350 
# 
# From -- ./inp_files/169114.got.cif
#   From: 2010.06.25/outbox.cif.g09.slc.cpg/sg15_85_cif.got.tgz:169114.got - 2010.06.28 07:06:18.
