data_PCOD8149749
_publ_section_title
;
Structure prediction by ZEFSAII (Michael W. Deem and Ramdas Pophale) SiO2 
 PCOD8149749
Probable space group: C 2/C
;
_chemical_formula_sum "Si O2"
_cell_formula_units_Z 40
_cell_length_a 22.047164
_cell_length_b 16.420789
_cell_length_c 15.552828
_cell_angle_alpha 90.000000
_cell_angle_beta 159.936073
_cell_angle_gamma 90.000000
_cell_volume 1931.687252
_symmetry_space_group_name_H-M "C 2/C"
_symmetry_group_IT_number 15
_symmetry_cell_setting 'monoclinic'
loop_
_space_group_symop_operation_xyz
x,y,z
-x,y,1/2-z
-x,-y,-z
x,-y,1/2+z
1/2+x,1/2+y,z
1/2-x,1/2+y,1/2-z
1/2-x,1/2-y,-z
1/2+x,1/2-y,1/2+z
loop_
_atom_site_type_symbol
_atom_site_label
_atom_site_fract_x
_atom_site_fract_y
_atom_site_fract_z
Si Si1 0.840816 0.777920 0.708998
Si Si2 0.028077 0.048983 0.125826
Si Si3 0.108915 0.348861 0.543949
Si Si4 0.331047 0.428716 0.974720
Si Si5 0.897828 0.500834 0.192242
O O1 0.750000 0.750000 0.500000
O O2 0.981433 0.853469 0.894260
O O3 0.681577 0.795009 0.562200
O O4 0.960785 0.701704 0.898261
O O5 0.224563 0.038737 0.422429
O O6 0.000000 0.000000 0.000000
O O7 0.886885 0.015790 0.007302
O O8 0.275502 0.365963 0.827328
O O9 0.029379 0.433001 0.403970
O O10 0.160443 0.438650 0.809341
O O11 0.500000 0.391702 0.250000
O O12 0.000000 0.547179 0.250000
#
# Coordination Sequence:
#
# PCOD8149749 Si02
#       5
#     8   8   8   8   8
#     4  12  24  39  66  96 136 173 215 276 344 390
#     4  11  21  40  66  93 133 178 216 268 337 405
#     4  12  24  43  61  97 137 169 221 282 337 402
#     4  10  24  41  67  91 128 176 228 271 334 407
#     4  11  20  39  65  93 129 164 221 281 326 399
#
# _framework density 20.707286
#
# number of rings (size 3 to 8) (size 9 to 14) (size 15 to 20)
#    0.000    0.800    6.000    1.200    2.800    1.600 
#    0.000    1.000    0.000    0.000    0.000    0.000 
#    0.000    0.000    0.000    0.000    0.000    0.000 
#
# Total GULP energy -247897.156848 kJ/mol
# GULP energy per Si atom -12394.857842 kJ/mol
# Density = 2.066016 g / cm^3
# Si number density = 20.707286 Si / 1000 Ang^3
#
#
#
# Elastic Constant Matrix: (Units=GPa)
#
#
# Indices 1 2 3 4 5 6 
#
# 1 129.7413 30.8414 46.9349 0.0000 7.8276 0.0000
# 2 30.8414 65.9449 39.1648 0.0000 -11.1648 0.0000
# 3 46.9349 39.1648 107.9721 -0.0001 -13.8781 -0.0001
# 4 0.0000 0.0000 -0.0001 35.2893 0.0000 -1.7537
# 5 7.8276 -11.1648 -13.8781 0.0000 43.2141 0.0000
# 6 0.0000 0.0000 -0.0001 -1.7537 0.0000 32.5577
#
#
#
# Elastic Compliance Matrix: (Units=1/GPa)
#
#
# Indices 1 2 3 4 5 6 
#
# 1 0.010025 -0.003129 -0.003713 0.000000 -0.003817 0.000000
# 2 -0.003129 0.020650 -0.005603 0.000000 0.004103 0.000000
# 3 -0.003713 -0.005603 0.013360 0.000000 0.003516 0.000000
# 4 0.000000 0.000000 0.000000 0.028413 0.000000 0.001530
# 5 -0.003817 0.004103 0.003516 0.000000 0.026021 0.000000
# 6 0.000000 0.000000 0.000000 0.001530 0.000000 0.030797
#
#
# Mechanical properties :
#
#
# Convention : Reuss Voigt Hill
#
# Bulk Modulus (GPa) = 52.23559 59.72673 55.98116
# Shear Modulus (GPa) = 31.14516 34.66004 32.90260
#
# Velocity S-wave (km/s) = 3.88244 4.09566 3.99047
# Velocity P-wave (km/s) = 6.73634 7.16044 6.95162
#
# Compressibility (1/GPa) = 0.01914403
#
# Stress axis : x y z
#
# Youngs Moduli (GPa) = 99.74867 48.42662 74.85063
#
# Poissons Ratio (x) = 0.15155 0.27795
# Poissons Ratio (y) = 0.31216 0.41936
# Poissons Ratio (z) = 0.37040 0.27132
#
# Static dielectric constant tensor:
#      x y z
#    x 4.383330 0.000000 0.079240 
#    y 0.000000 3.599530 0.000000 
#    z 0.079240 0.000000 3.973980 
# 
# 
# High freq. dielectric constant tensor:
#      x y z
#    x 1.823140 0.000000 0.003630 
#    y 0.000000 1.772130 0.000000 
#    z 0.003630 0.000000 1.822110 
# 
# From -- ./inp_files/62854.got.cif
#   From: 2010.06.25/outbox.cif.g09.slc.cpg/sg15_32_cif.got.tgz:62854.got - 2010.06.28 07:06:18.
