data_PCOD8149265
_publ_section_title
;
Structure prediction by ZEFSAII (Michael W. Deem and Ramdas Pophale) SiO2 
 PCOD8149265
Probable space group: C 2/C
;
_chemical_formula_sum "Si O2"
_cell_formula_units_Z 60
_cell_length_a 16.089798
_cell_length_b 8.498989
_cell_length_c 18.784896
_cell_angle_alpha 90.000000
_cell_angle_beta 84.409966
_cell_angle_gamma 90.000000
_cell_volume 2556.562288
_symmetry_space_group_name_H-M "C 2/C"
_symmetry_group_IT_number 15
_symmetry_cell_setting 'monoclinic'
loop_
_space_group_symop_operation_xyz
x,y,z
-x,y,1/2-z
-x,-y,-z
x,-y,1/2+z
1/2+x,1/2+y,z
1/2-x,1/2+y,1/2-z
1/2-x,1/2-y,-z
1/2+x,1/2-y,1/2+z
loop_
_atom_site_type_symbol
_atom_site_label
_atom_site_fract_x
_atom_site_fract_y
_atom_site_fract_z
Si Si1 0.269444 0.217795 0.660882
Si Si2 0.260502 0.855657 0.696335
Si Si3 0.597153 0.144514 0.121047
Si Si4 0.582583 0.397747 0.491576
Si Si5 0.112730 0.275294 0.131439
Si Si6 0.430573 0.693031 0.665853
Si Si7 0.000000 0.918460 0.750000
Si Si8 0.341310 0.712304 0.015366
O O1 0.291536 0.325529 0.726832
O O2 0.178549 0.260541 0.638428
O O3 0.345975 0.244729 0.598930
O O4 0.269910 0.037921 0.682989
O O5 0.209673 0.772717 0.636199
O O6 0.351733 0.783257 0.705152
O O7 0.516404 0.209542 0.169179
O O8 0.604696 0.961900 0.137606
O O9 0.590818 0.186763 0.036361
O O10 0.500000 0.500000 0.500000
O O11 0.584836 0.271489 0.554470
O O12 0.591779 0.314840 0.415434
O O13 0.654951 0.525217 0.497075
O O14 0.056108 0.190383 0.194925
O O15 0.441653 0.526194 0.704097
O O16 0.250000 0.750000 0.000000
#
# Coordination Sequence:
#
# PCOD8149265 Si02
#       8
#     8   8   8   8   8   8   4   8
#     4  11  26  47  72 106 148 192 246 298 370 433
#     4  12  27  45  73 107 147 191 242 302 365 434
#     4  11  25  49  73 108 147 192 241 302 362 440
#     4  12  25  48  74 107 140 193 245 299 365 439
#     4  12  28  46  75 110 149 189 250 298 368 436
#     4  12  27  47  77 105 148 192 242 302 368 435
#     4  12  26  50  76 106 150 200 238 308 370 438
#     4  10  23  44  73  97 142 188 236 298 358 426
#
# _framework density 23.469014999999999
#
# number of rings (size 3 to 8) (size 9 to 14) (size 15 to 20)
#    0.000    0.533    2.667    4.800    9.333    4.800 
#    0.000    0.000    0.000    0.000    0.000    0.000 
#    0.000    0.000    0.000    0.000    0.000    0.000 
#
# Total GULP energy -371996.039365 kJ/mol
# GULP energy per Si atom -12399.867979 kJ/mol
# Density = 2.341560 g / cm^3
# Si number density = 23.469015 Si / 1000 Ang^3
#
#
#
# Elastic Constant Matrix: (Units=GPa)
#
#
# Indices 1 2 3 4 5 6 
#
# 1 73.5366 24.6814 4.2393 0.0000 -1.9013 0.0000
# 2 24.6814 125.5379 18.9559 0.0000 -22.9671 0.0000
# 3 4.2393 18.9559 118.2746 0.0000 -16.7916 0.0000
# 4 0.0000 0.0000 0.0000 39.7083 0.0000 4.0695
# 5 -1.9013 -22.9671 -16.7916 0.0000 30.5419 0.0000
# 6 0.0000 0.0000 0.0000 4.0695 0.0000 38.3342
#
#
#
# Elastic Compliance Matrix: (Units=1/GPa)
#
#
# Indices 1 2 3 4 5 6 
#
# 1 0.014621 -0.003126 -0.000247 0.000000 -0.001576 0.000000
# 2 -0.003126 0.009936 -0.000485 0.000000 0.007010 0.000000
# 3 -0.000247 -0.000485 0.009206 0.000000 0.004681 0.000000
# 4 0.000000 0.000000 0.000000 0.025461 0.000000 -0.002703
# 5 -0.001576 0.007010 0.004681 0.000000 0.040489 0.000000
# 6 0.000000 0.000000 0.000000 -0.002703 0.000000 0.026373
#
#
# Mechanical properties :
#
#
# Convention : Reuss Voigt Hill
#
# Bulk Modulus (GPa) = 38.39051 45.90023 42.14537
# Shear Modulus (GPa) = 35.09150 39.68172 37.38661
#
# Velocity S-wave (km/s) = 3.87101 4.11641 3.99560
# Velocity P-wave (km/s) = 6.03101 6.49564 6.26763
#
# Compressibility (1/GPa) = 0.02604811
#
# Stress axis : x y z
#
# Youngs Moduli (GPa) = 68.39366 100.64355 108.62359
#
# Poissons Ratio (x) = 0.31458 0.02681
# Poissons Ratio (y) = 0.21377 0.05270
# Poissons Ratio (z) = 0.01688 0.04883
#
# Static dielectric constant tensor:
#      x y z
#    x 3.951290 0.000000 1.459580 
#    y 0.000000 4.032820 0.000000 
#    z 1.459580 0.000000 -1.649730 
# 
# 
# High freq. dielectric constant tensor:
#      x y z
#    x 1.929860 0.000000 -0.003850 
#    y 0.000000 1.928820 0.000000 
#    z -0.003850 0.000000 1.952480 
# 
# From -- ./inp_files/209605.got.cif
#   From: 2010.06.25/outbox.cif.g09.slc.cpg/sg15_105_cif.got.tgz:209605.got - 2010.06.28 07:06:18.
