data_PCOD8149404
_publ_section_title
;
Structure prediction by ZEFSAII (Michael W. Deem and Ramdas Pophale) SiO2 
 PCOD8149404
Probable space group: C 2/C
;
_chemical_formula_sum "Si O2"
_cell_formula_units_Z 48
_cell_length_a 11.865967
_cell_length_b 16.605739
_cell_length_c 11.284035
_cell_angle_alpha 90.000000
_cell_angle_beta 77.866010
_cell_angle_gamma 90.000000
_cell_volume 2173.767256
_symmetry_space_group_name_H-M "C 2/C"
_symmetry_group_IT_number 15
_symmetry_cell_setting 'monoclinic'
loop_
_space_group_symop_operation_xyz
x,y,z
-x,y,1/2-z
-x,-y,-z
x,-y,1/2+z
1/2+x,1/2+y,z
1/2-x,1/2+y,1/2-z
1/2-x,1/2-y,-z
1/2+x,1/2-y,1/2+z
loop_
_atom_site_type_symbol
_atom_site_label
_atom_site_fract_x
_atom_site_fract_y
_atom_site_fract_z
Si Si1 0.062791 0.918701 0.970275
Si Si2 0.064494 0.649996 0.947973
Si Si3 0.317249 0.914220 0.858289
Si Si4 0.000000 0.462416 0.250000
Si Si5 0.500000 0.327369 0.750000
Si Si6 0.774209 0.752046 0.739385
Si Si7 0.959107 0.220380 0.629701
O O1 0.195652 0.943735 0.935036
O O2 0.017498 0.880924 0.859842
O O3 0.033007 0.859663 0.085858
O O4 0.000000 0.000000 0.000000
O O5 0.000756 0.596122 0.863868
O O6 0.179615 0.696499 0.877701
O O7 0.099113 0.594405 0.048901
O O8 0.977439 0.716459 0.019345
O O9 0.293002 0.831863 0.791899
O O10 0.383549 0.982783 0.767332
O O11 0.386135 0.272607 0.794581
O O12 0.678840 0.703000 0.835596
O O13 0.000000 0.252430 0.750000
#
# Coordination Sequence:
#
# PCOD8149404 Si02
#       7
#     8   8   8   4   4   8   8
#     4  11  27  43  68 101 143 184 242 290 357 429
#     4  12  24  47  71 109 141 180 245 296 352 429
#     4  11  23  47  67 100 143 186 229 293 349 437
#     4  12  29  42  76 109 144 190 232 304 377 404
#     4  10  23  46  62 101 144 180 228 306 353 404
#     4  11  23  44  76  98 145 185 240 292 359 425
#     4  12  24  43  77 105 131 194 242 288 359 433
#
# _framework density 22.081482000000001
#
# number of rings (size 3 to 8) (size 9 to 14) (size 15 to 20)
#    0.000    0.667    5.000    3.500    3.500    4.667 
#    0.000    0.000    0.000    0.000    0.000    0.000 
#    0.000    0.000    0.000    0.000    0.000    0.000 
#
# Total GULP energy -297513.443301 kJ/mol
# GULP energy per Si atom -12396.393471 kJ/mol
# Density = 2.203122 g / cm^3
# Si number density = 22.081482 Si / 1000 Ang^3
#
#
#
# Elastic Constant Matrix: (Units=GPa)
#
#
# Indices 1 2 3 4 5 6 
#
# 1 142.3870 34.3617 38.0008 0.0000 -29.5764 0.0000
# 2 34.3617 96.6731 30.6763 0.0000 -13.3897 0.0000
# 3 38.0008 30.6763 83.3589 0.0000 -16.2251 0.0000
# 4 0.0000 0.0000 0.0000 4.9440 0.0000 0.1739
# 5 -29.5764 -13.3897 -16.2251 0.0000 55.9967 0.0000
# 6 0.0000 0.0000 0.0000 0.1739 0.0000 40.0719
#
#
#
# Elastic Compliance Matrix: (Units=1/GPa)
#
#
# Indices 1 2 3 4 5 6 
#
# 1 0.008911 -0.001824 -0.002713 0.000000 0.003484 0.000000
# 2 -0.001824 0.012230 -0.003484 0.000000 0.000952 0.000000
# 3 -0.002713 -0.003484 0.014915 0.000000 0.002056 0.000000
# 4 0.000000 0.000000 0.000000 0.202298 0.000000 -0.000878
# 5 0.003484 0.000952 0.002056 0.000000 0.020522 0.000000
# 6 0.000000 0.000000 0.000000 -0.000878 0.000000 0.024959
#
#
# Mechanical properties :
#
#
# Convention : Reuss Voigt Hill
#
# Bulk Modulus (GPa) = 49.96327 58.72185 54.34256
# Shear Modulus (GPa) = 16.31066 34.82785 25.56925
#
# Velocity S-wave (km/s) = 2.72077 3.97576 3.40656
# Velocity P-wave (km/s) = 5.70491 6.90844 6.33532
#
# Compressibility (1/GPa) = 0.02001470
#
# Stress axis : x y z
#
# Youngs Moduli (GPa) = 112.21986 81.76792 67.04542
#
# Poissons Ratio (x) = 0.14914 0.18189
# Poissons Ratio (y) = 0.20468 0.23358
# Poissons Ratio (z) = 0.30444 0.28487
#
# Static dielectric constant tensor:
#      x y z
#    x 4.366770 0.000000 -0.304150 
#    y 0.000000 4.078700 0.000000 
#    z -0.304150 0.000000 4.411350 
# 
# 
# High freq. dielectric constant tensor:
#      x y z
#    x 1.879160 0.000000 -0.012010 
#    y 0.000000 1.864990 0.000000 
#    z -0.012010 0.000000 1.871130 
# 
# From -- ./inp_files/87299.got.cif
#   From: 2010.06.25/outbox.cif.g09.slc.cpg/sg15_44_cif.got.tgz:87299.got - 2010.06.28 07:06:18.
