data_PCOD8149780
_publ_section_title
;
Structure prediction by ZEFSAII (Michael W. Deem and Ramdas Pophale) SiO2 
 PCOD8149780
Probable space group: C 2/C
;
_chemical_formula_sum "Si O2"
_cell_formula_units_Z 44
_cell_length_a 19.557269
_cell_length_b 6.628655
_cell_length_c 16.241170
_cell_angle_alpha 90.000000
_cell_angle_beta 95.671736
_cell_angle_gamma 90.000000
_cell_volume 2095.171621
_symmetry_space_group_name_H-M "C 2/C"
_symmetry_group_IT_number 15
_symmetry_cell_setting 'monoclinic'
loop_
_space_group_symop_operation_xyz
x,y,z
-x,y,1/2-z
-x,-y,-z
x,-y,1/2+z
1/2+x,1/2+y,z
1/2-x,1/2+y,1/2-z
1/2-x,1/2-y,-z
1/2+x,1/2-y,1/2+z
loop_
_atom_site_type_symbol
_atom_site_label
_atom_site_fract_x
_atom_site_fract_y
_atom_site_fract_z
Si Si1 0.060597 0.991151 0.391373
Si Si2 0.106581 0.484253 0.175803
Si Si3 0.832157 0.774300 0.189604
Si Si4 0.584571 0.664943 0.565935
Si Si5 0.500000 0.257508 0.750000
Si Si6 0.691674 0.593825 0.177366
O O1 0.079117 0.142259 0.467466
O O2 0.056685 0.108972 0.303885
O O3 0.123827 0.835806 0.386071
O O4 0.987936 0.884292 0.399272
O O5 0.116161 0.652538 0.246234
O O6 0.103236 0.602052 0.087928
O O7 0.166321 0.321621 0.186131
O O8 0.034517 0.374217 0.182784
O O9 0.769658 0.628070 0.154486
O O10 0.805296 0.970963 0.236610
O O11 0.644758 0.517065 0.604455
#
# Coordination Sequence:
#
# PCOD8149780 Si02
#       6
#     8   8   8   8   4   8
#     4  11  22  42  63  93 128 161 209 263 312 379
#     4  11  21  38  64  91 119 164 207 259 307 366
#     4  11  22  39  66  92 123 165 214 261 306 374
#     4  10  24  42  60  91 134 162 200 265 322 368
#     4  12  20  38  70  92 116 166 222 254 306 374
#     4  11  21  39  63  91 124 164 210 255 307 374
#
# _framework density 21.000667
#
# number of rings (size 3 to 8) (size 9 to 14) (size 15 to 20)
#    0.000    1.091    5.455    2.182    0.000    1.455 
#    3.273    0.909    0.000    0.000    0.000    0.000 
#    0.000    0.000    0.000    0.000    0.000    0.000 
#
# Total GULP energy -272772.465288 kJ/mol
# GULP energy per Si atom -12398.748422 kJ/mol
# Density = 2.095287 g / cm^3
# Si number density = 21.000667 Si / 1000 Ang^3
#
#
#
# Elastic Constant Matrix: (Units=GPa)
#
#
# Indices 1 2 3 4 5 6 
#
# 1 125.4674 24.0124 28.3632 0.0000 3.8862 0.0000
# 2 24.0124 81.6720 20.9931 0.0000 -0.3542 0.0000
# 3 28.3632 20.9931 84.1766 0.0000 2.5984 0.0000
# 4 0.0000 0.0000 0.0000 14.6932 0.0000 -6.7036
# 5 3.8862 -0.3542 2.5984 0.0000 18.2578 0.0000
# 6 0.0000 0.0000 0.0000 -6.7036 0.0000 32.7715
#
#
#
# Elastic Compliance Matrix: (Units=1/GPa)
#
#
# Indices 1 2 3 4 5 6 
#
# 1 0.008962 -0.002007 -0.002470 0.000000 -0.001595 0.000000
# 2 -0.002007 0.013542 -0.002734 0.000000 0.001079 0.000000
# 3 -0.002470 -0.002734 0.013438 0.000000 -0.001440 0.000000
# 4 0.000000 0.000000 0.000000 0.075064 0.000000 0.015355
# 5 -0.001595 0.001079 -0.001440 0.000000 0.055336 0.000000
# 6 0.000000 0.000000 0.000000 0.015355 0.000000 0.033655
#
#
# Mechanical properties :
#
#
# Convention : Reuss Voigt Hill
#
# Bulk Modulus (GPa) = 46.46910 48.67260 47.57085
# Shear Modulus (GPa) = 22.56385 27.67434 25.11909
#
# Velocity S-wave (km/s) = 3.28141 3.63407 3.46223
# Velocity P-wave (km/s) = 6.04420 6.39027 6.21965
#
# Compressibility (1/GPa) = 0.02151967
#
# Stress axis : x y z
#
# Youngs Moduli (GPa) = 111.58138 73.84616 74.41360
#
# Poissons Ratio (x) = 0.14821 0.18380
# Poissons Ratio (y) = 0.22394 0.20347
# Poissons Ratio (z) = 0.27561 0.20192
#
# Static dielectric constant tensor:
#      x y z
#    x 3.853340 0.000000 0.100720 
#    y 0.000000 3.934720 0.000000 
#    z 0.100720 0.000000 3.523600 
# 
# 
# High freq. dielectric constant tensor:
#      x y z
#    x 1.831170 0.000000 0.011120 
#    y 0.000000 1.828560 0.000000 
#    z 0.011120 0.000000 1.794730 
# 
# From -- ./inp_files/170867.got.cif
#   From: 2010.06.25/outbox.cif.g09.slc.cpg/sg15_86_cif.got.tgz:170867.got - 2010.06.28 07:06:18.
