data_PCOD8149723
_publ_section_title
;
Structure prediction by ZEFSAII (Michael W. Deem and Ramdas Pophale) SiO2 
 PCOD8149723
Probable space group: C 2/C
;
_chemical_formula_sum "Si O2"
_cell_formula_units_Z 40
_cell_length_a 15.903513
_cell_length_b 16.485499
_cell_length_c 8.725137
_cell_angle_alpha 90.000000
_cell_angle_beta 129.195872
_cell_angle_gamma 90.000000
_cell_volume 1772.815466
_symmetry_space_group_name_H-M "C 2/C"
_symmetry_group_IT_number 15
_symmetry_cell_setting 'monoclinic'
loop_
_space_group_symop_operation_xyz
x,y,z
-x,y,1/2-z
-x,-y,-z
x,-y,1/2+z
1/2+x,1/2+y,z
1/2-x,1/2+y,1/2-z
1/2-x,1/2-y,-z
1/2+x,1/2-y,1/2+z
loop_
_atom_site_type_symbol
_atom_site_label
_atom_site_fract_x
_atom_site_fract_y
_atom_site_fract_z
Si Si1 0.779159 0.106916 0.759906
Si Si2 0.124705 0.733436 0.012882
Si Si3 0.053653 0.313959 0.973702
Si Si4 0.855835 0.824661 0.766345
Si Si5 0.380673 0.486864 0.657272
O O1 0.842325 0.192232 0.837801
O O2 0.649761 0.121502 0.614062
O O3 0.812858 0.062657 0.641996
O O4 0.811992 0.051235 0.940673
O O5 0.226333 0.674170 0.100504
O O6 0.035280 0.677772 0.993270
O O7 0.089919 0.771100 0.808707
O O8 0.000000 0.332232 0.750000
O O9 0.102634 0.221503 0.033181
O O10 0.897353 0.917126 0.807827
O O11 0.500000 0.517209 0.750000
#
# Coordination Sequence:
#
# PCOD8149723 Si02
#       5
#     8   8   8   8   8
#     4  10  24  41  62  94 123 161 209 249 307 374
#     4   9  19  39  62  87 120 158 205 256 301 356
#     4  11  23  39  61  94 130 163 202 253 309 363
#     4   9  19  37  64  90 113 157 213 252 299 360
#     4  11  22  41  66  90 122 158 202 261 313 363
#
# _framework density 22.562981000000001
#
# number of rings (size 3 to 8) (size 9 to 14) (size 15 to 20)
#    0.000    2.000    0.000    4.800    0.000    7.200 
#    0.000    4.000    0.000    0.000    0.000    0.000 
#    0.000    0.000    0.000    0.000    0.000    0.000 
#
# Total GULP energy -247942.443445 kJ/mol
# GULP energy per Si atom -12397.122172 kJ/mol
# Density = 2.251163 g / cm^3
# Si number density = 22.562981 Si / 1000 Ang^3
#
#
#
# Elastic Constant Matrix: (Units=GPa)
#
#
# Indices 1 2 3 4 5 6 
#
# 1 173.7385 64.3602 41.6712 0.0000 16.6676 0.0000
# 2 64.3602 61.0543 23.3537 0.0000 -0.5190 0.0000
# 3 41.6712 23.3537 108.8120 0.0000 12.9542 0.0000
# 4 0.0000 0.0000 0.0000 16.9442 0.0000 0.7825
# 5 16.6676 -0.5190 12.9542 0.0000 19.8380 0.0000
# 6 0.0000 0.0000 0.0000 0.7825 0.0000 48.1344
#
#
#
# Elastic Compliance Matrix: (Units=1/GPa)
#
#
# Indices 1 2 3 4 5 6 
#
# 1 0.011037 -0.011451 -0.000683 0.000000 -0.009127 0.000000
# 2 -0.011451 0.029916 -0.003550 0.000000 0.012722 0.000000
# 3 -0.000683 -0.003550 0.011012 0.000000 -0.006711 0.000000
# 4 0.000000 0.000000 0.000000 0.059062 0.000000 -0.000960
# 5 -0.009127 0.012722 -0.006711 0.000000 0.062792 0.000000
# 6 0.000000 0.000000 0.000000 -0.000960 0.000000 0.020791
#
#
# Mechanical properties :
#
#
# Convention : Reuss Voigt Hill
#
# Bulk Modulus (GPa) = 48.54759 66.93054 57.73906
# Shear Modulus (GPa) = 21.47368 31.26462 26.36915
#
# Velocity S-wave (km/s) = 3.08835 3.72648 3.42232
# Velocity P-wave (km/s) = 5.85494 6.94578 6.42356
#
# Compressibility (1/GPa) = 0.02059835
#
# Stress axis : x y z
#
# Youngs Moduli (GPa) = 90.60322 33.42670 90.80732
#
# Poissons Ratio (x) = 0.38278 0.06198
# Poissons Ratio (y) = 1.03752 0.32235
# Poissons Ratio (z) = 0.06184 0.11866
#
# Static dielectric constant tensor:
#      x y z
#    x 4.208270 0.000000 0.104530 
#    y 0.000000 3.879070 0.000000 
#    z 0.104530 0.000000 4.029540 
# 
# 
# High freq. dielectric constant tensor:
#      x y z
#    x 1.901770 0.000000 0.013010 
#    y 0.000000 1.857260 0.000000 
#    z 0.013010 0.000000 1.887840 
# 
# From -- ./inp_files/39394.got.cif
#   From: 2010.06.25/outbox.cif.g09.slc.cpg/sg15_20_cif.got.tgz:39394.got - 2010.06.28 07:06:18.
