data_PCOD8149362
_publ_section_title
;
Structure prediction by ZEFSAII (Michael W. Deem and Ramdas Pophale) SiO2 
 PCOD8149362
Probable space group: C 2/C
;
_chemical_formula_sum "Si O2"
_cell_formula_units_Z 48
_cell_length_a 19.053765
_cell_length_b 11.464177
_cell_length_c 18.906285
_cell_angle_alpha 90.000000
_cell_angle_beta 29.480990
_cell_angle_gamma 90.000000
_cell_volume 2032.422193
_symmetry_space_group_name_H-M "C 2/C"
_symmetry_group_IT_number 15
_symmetry_cell_setting 'monoclinic'
loop_
_space_group_symop_operation_xyz
x,y,z
-x,y,1/2-z
-x,-y,-z
x,-y,1/2+z
1/2+x,1/2+y,z
1/2-x,1/2+y,1/2-z
1/2-x,1/2-y,-z
1/2+x,1/2-y,1/2+z
loop_
_atom_site_type_symbol
_atom_site_label
_atom_site_fract_x
_atom_site_fract_y
_atom_site_fract_z
Si Si1 0.993659 0.773112 0.536193
Si Si2 0.845382 0.296806 0.853791
Si Si3 0.211329 0.834823 0.235791
Si Si4 0.150440 0.556307 0.443064
Si Si5 0.903103 0.794893 0.765363
Si Si6 0.413567 0.963961 0.257183
O O1 0.828908 0.758639 0.658041
O O2 0.996795 0.826417 0.613104
O O3 0.079929 0.853268 0.405216
O O4 0.074290 0.649497 0.459625
O O5 0.847787 0.205217 0.788241
O O6 0.802200 0.428478 0.865242
O O7 0.000000 0.312494 0.750000
O O8 0.750000 0.250000 0.000000
O O9 0.278606 0.962472 0.170309
O O10 0.268065 0.619429 0.390468
O O11 0.029750 0.495781 0.596907
O O12 0.842867 0.662438 0.801607
O O13 0.000000 0.809305 0.750000
O O14 0.500000 0.931158 0.250000
#
# Coordination Sequence:
#
# PCOD8149362 Si02
#       6
#     8   8   8   8   8   8
#     4  11  24  46  67 103 136 187 238 286 358 418
#     4  11  23  44  71 105 140 184 238 284 350 417
#     4  12  24  43  71  98 141 184 234 292 351 426
#     4  11  23  44  68 100 141 182 238 282 362 416
#     4  10  23  45  71 103 142 180 237 297 346 418
#     4   9  20  40  69  98 132 184 224 282 348 410
#
# _framework density 23.617139000000002
#
# number of rings (size 3 to 8) (size 9 to 14) (size 15 to 20)
#    0.000    1.333    1.667    4.500    0.000    8.667 
#    0.000    8.333    0.000    0.000    0.000    0.000 
#    0.000    0.000    0.000    0.000    0.000    0.000 
#
# Total GULP energy -297508.225137 kJ/mol
# GULP energy per Si atom -12396.176047 kJ/mol
# Density = 2.356339 g / cm^3
# Si number density = 23.617139 Si / 1000 Ang^3
#
#
#
# Elastic Constant Matrix: (Units=GPa)
#
#
# Indices 1 2 3 4 5 6 
#
# 1 90.1653 10.0930 38.3920 0.0011 15.8123 0.0000
# 2 10.0930 70.1910 43.4933 0.0008 11.4380 0.0001
# 3 38.3920 43.4933 124.7936 0.0034 24.9536 -0.0010
# 4 0.0011 0.0008 0.0034 53.1561 -0.0014 -22.9966
# 5 15.8123 11.4380 24.9536 -0.0014 45.2098 0.0006
# 6 0.0000 0.0001 -0.0010 -22.9966 0.0006 102.7514
#
#
#
# Elastic Compliance Matrix: (Units=1/GPa)
#
#
# Indices 1 2 3 4 5 6 
#
# 1 0.013082 0.000916 -0.003802 0.000000 -0.002709 0.000000
# 2 0.000916 0.018297 -0.006372 0.000000 -0.001432 0.000000
# 3 -0.003802 -0.006372 0.012157 -0.000001 -0.003768 0.000000
# 4 0.000000 0.000000 -0.000001 0.020829 0.000001 0.004662
# 5 -0.002709 -0.001432 -0.003768 0.000001 0.025509 0.000000
# 6 0.000000 0.000000 0.000000 0.004662 0.000000 0.010776
#
#
# Mechanical properties :
#
#
# Convention : Reuss Voigt Hill
#
# Bulk Modulus (GPa) = 39.96833 52.12295 46.04564
# Shear Modulus (GPa) = 39.21343 53.10156 46.15750
#
# Velocity S-wave (km/s) = 4.07920 4.74691 4.42566
# Velocity P-wave (km/s) = 6.25673 7.22233 6.75680
#
# Compressibility (1/GPa) = 0.02501981
#
# Stress axis : x y z
#
# Youngs Moduli (GPa) = 76.43952 54.65338 82.25409
#
# Poissons Ratio (x) = -0.05008 0.31277
# Poissons Ratio (y) = -0.07005 0.52416
# Poissons Ratio (z) = 0.29066 0.34828
#
# Static dielectric constant tensor:
#      x y z
#    x 4.288230 0.000000 0.224990 
#    y 0.000000 4.328530 0.000000 
#    z 0.224990 0.000000 4.369660 
# 
# 
# High freq. dielectric constant tensor:
#      x y z
#    x 1.937190 0.000000 0.017320 
#    y 0.000000 1.926110 0.000000 
#    z 0.017320 0.000000 1.933640 
# 
# From -- ./inp_files/252518.got.cif
#   From: 2010.06.25/outbox.cif.g09.slc.cpg/sg15_127_cif.got.tgz:252518.got - 2010.06.28 07:06:18.
