data_PCOD8149439
_publ_section_title
;
Structure prediction by ZEFSAII (Michael W. Deem and Ramdas Pophale) SiO2 
 PCOD8149439
Probable space group: C 2/C
;
_chemical_formula_sum "Si O2"
_cell_formula_units_Z 44
_cell_length_a 14.117491
_cell_length_b 11.047046
_cell_length_c 13.808338
_cell_angle_alpha 90.000000
_cell_angle_beta 58.315884
_cell_angle_gamma 90.000000
_cell_volume 1832.536273
_symmetry_space_group_name_H-M "C 2/C"
_symmetry_group_IT_number 15
_symmetry_cell_setting 'monoclinic'
loop_
_space_group_symop_operation_xyz
x,y,z
-x,y,1/2-z
-x,-y,-z
x,-y,1/2+z
1/2+x,1/2+y,z
1/2-x,1/2+y,1/2-z
1/2-x,1/2-y,-z
1/2+x,1/2-y,1/2+z
loop_
_atom_site_type_symbol
_atom_site_label
_atom_site_fract_x
_atom_site_fract_y
_atom_site_fract_z
Si Si1 0.654432 0.341722 0.019783
Si Si2 0.000000 0.491250 0.750000
Si Si3 0.810359 0.791187 0.713282
Si Si4 0.930490 0.294743 0.646962
Si Si5 0.119178 0.920722 0.646306
Si Si6 0.041112 0.684680 0.588426
O O1 0.533371 0.292049 0.117767
O O2 0.676174 0.470338 0.057721
O O3 0.750000 0.250000 0.000000
O O4 0.655959 0.359585 0.903711
O O5 0.922758 0.408100 0.723891
O O6 0.921670 0.572918 0.863168
O O7 0.688614 0.726796 0.773022
O O8 0.802249 0.888367 0.805040
O O9 0.908716 0.696777 0.683704
O O10 0.940721 0.346113 0.532927
O O11 0.107559 0.806231 0.580328
O O12 0.000000 0.961530 0.750000
#
# Coordination Sequence:
#
# PCOD8149439 Si02
#       6
#     8   4   8   8   8   8
#     4  11  26  47  69 106 144 177 235 288 351 419
#     4  12  22  46  66 100 146 180 222 296 350 412
#     4  10  23  46  70 103 129 186 229 288 337 416
#     4  11  26  42  71 103 138 185 223 295 359 403
#     4  10  23  47  74  99 137 185 230 290 340 419
#     4  10  23  49  69  99 139 181 240 282 343 427
#
# _framework density 24.010439000000002
#
# number of rings (size 3 to 8) (size 9 to 14) (size 15 to 20)
#    0.000    1.455    2.727    1.636    3.818   13.091 
#    9.818    0.000    0.000    0.000    0.000    0.000 
#    0.000    0.000    0.000    0.000    0.000    0.000 
#
# Total GULP energy -272767.739343 kJ/mol
# GULP energy per Si atom -12398.533607 kJ/mol
# Density = 2.395579 g / cm^3
# Si number density = 24.010439 Si / 1000 Ang^3
#
#
#
# Elastic Constant Matrix: (Units=GPa)
#
#
# Indices 1 2 3 4 5 6 
#
# 1 123.8833 62.9503 55.8130 0.0000 -8.0461 0.0000
# 2 62.9503 103.4417 44.0870 0.0000 14.1576 0.0000
# 3 55.8130 44.0870 88.6864 0.0000 17.1817 0.0000
# 4 0.0000 0.0000 0.0000 43.1623 0.0000 6.4903
# 5 -8.0461 14.1576 17.1817 0.0000 62.4810 0.0000
# 6 0.0000 0.0000 0.0000 6.4903 0.0000 17.8075
#
#
#
# Elastic Compliance Matrix: (Units=1/GPa)
#
#
# Indices 1 2 3 4 5 6 
#
# 1 0.015187 -0.006937 -0.007175 0.000000 0.005501 0.000000
# 2 -0.006937 0.015516 -0.002633 0.000000 -0.003685 0.000000
# 3 -0.007175 -0.002633 0.018129 0.000000 -0.005313 0.000000
# 4 0.000000 0.000000 0.000000 0.024512 0.000000 -0.008934
# 5 0.005501 -0.003685 -0.005313 0.000000 0.019009 0.000000
# 6 0.000000 0.000000 0.000000 -0.008934 0.000000 0.059412
#
#
# Mechanical properties :
#
#
# Convention : Reuss Voigt Hill
#
# Bulk Modulus (GPa) = 65.18306 71.30132 68.24219
# Shear Modulus (GPa) = 26.26484 34.90089 30.58287
#
# Velocity S-wave (km/s) = 3.31099 3.81671 3.57281
# Velocity P-wave (km/s) = 6.46712 7.01309 6.74563
#
# Compressibility (1/GPa) = 0.01534141
#
# Stress axis : x y z
#
# Youngs Moduli (GPa) = 65.84696 64.45156 55.15958
#
# Poissons Ratio (x) = 0.44710 0.39575
# Poissons Ratio (y) = 0.45678 0.14526
# Poissons Ratio (z) = 0.47243 0.16973
#
# Static dielectric constant tensor:
#      x y z
#    x 4.473430 0.000000 0.235000 
#    y 0.000000 3.945760 0.000000 
#    z 0.235000 0.000000 4.500560 
# 
# 
# High freq. dielectric constant tensor:
#      x y z
#    x 1.960380 0.000000 0.018210 
#    y 0.000000 1.920390 0.000000 
#    z 0.018210 0.000000 1.970470 
# 
# From -- ./inp_files/151768.got.cif
#   From: 2010.06.25/outbox.cif.g09.slc.cpg/sg15_76_cif.got.tgz:151768.got - 2010.06.28 07:06:18.
