data_PCOD8149822
_publ_section_title
;
Structure prediction by ZEFSAII (Michael W. Deem and Ramdas Pophale) SiO2 
 PCOD8149822
Probable space group: C 2/C
;
_chemical_formula_sum "Si O2"
_cell_formula_units_Z 40
_cell_length_a 19.280714
_cell_length_b 8.461396
_cell_length_c 13.325960
_cell_angle_alpha 90.000000
_cell_angle_beta 51.817784
_cell_angle_gamma 90.000000
_cell_volume 1708.886226
_symmetry_space_group_name_H-M "C 2/C"
_symmetry_group_IT_number 15
_symmetry_cell_setting 'monoclinic'
loop_
_space_group_symop_operation_xyz
x,y,z
-x,y,1/2-z
-x,-y,-z
x,-y,1/2+z
1/2+x,1/2+y,z
1/2-x,1/2+y,1/2-z
1/2-x,1/2-y,-z
1/2+x,1/2-y,1/2+z
loop_
_atom_site_type_symbol
_atom_site_label
_atom_site_fract_x
_atom_site_fract_y
_atom_site_fract_z
Si Si1 0.143173 0.925555 0.375868
Si Si2 0.520131 0.373935 0.121277
Si Si3 0.237062 0.148561 0.142755
Si Si4 0.002317 0.527756 0.381903
Si Si5 0.630476 0.106679 0.634044
O O1 0.100354 0.027616 0.503463
O O2 0.214071 0.029734 0.251975
O O3 0.193894 0.778510 0.378232
O O4 0.067108 0.870642 0.368859
O O5 0.500000 0.441341 0.250000
O O6 0.547683 0.189557 0.102461
O O7 0.148494 0.229965 0.177855
O O8 0.282266 0.057595 0.007555
O O9 0.948873 0.383039 0.376961
O O10 0.000000 0.500000 0.500000
O O11 0.101748 0.520613 0.246143
#
# Coordination Sequence:
#
# PCOD8149822 Si02
#       5
#     8   8   8   8   8
#     4  11  28  46  72 101 150 178 242 285 356 416
#     4  11  25  46  68 103 135 188 231 291 339 421
#     4  11  26  46  69 106 142 189 222 302 351 410
#     4  11  22  43  73  99 135 186 233 280 342 432
#     4  10  24  42  65 107 139 174 237 284 353 407
#
# _framework density 23.407057999999999
#
# number of rings (size 3 to 8) (size 9 to 14) (size 15 to 20)
#    0.000    1.200    2.000    2.400   14.000    4.800 
#    0.000    3.000    0.000    0.000    0.000    0.000 
#    0.000    0.000    0.000    0.000    0.000    0.000 
#
# Total GULP energy -247852.168563 kJ/mol
# GULP energy per Si atom -12392.608428 kJ/mol
# Density = 2.335378 g / cm^3
# Si number density = 23.407058 Si / 1000 Ang^3
#
#
#
# Elastic Constant Matrix: (Units=GPa)
#
#
# Indices 1 2 3 4 5 6 
#
# 1 98.3018 22.8943 34.9771 -0.0001 10.0867 0.0001
# 2 22.8943 67.2509 46.9937 -0.0005 -8.9262 0.0006
# 3 34.9771 46.9937 193.0752 -0.0001 25.5937 0.0001
# 4 -0.0001 -0.0005 -0.0001 43.3230 0.0000 -3.9806
# 5 10.0867 -8.9262 25.5937 0.0000 40.9763 -0.0001
# 6 0.0001 0.0006 0.0001 -3.9806 -0.0001 27.5026
#
#
#
# Elastic Compliance Matrix: (Units=1/GPa)
#
#
# Indices 1 2 3 4 5 6 
#
# 1 0.011676 -0.003895 -0.000735 0.000000 -0.003264 0.000000
# 2 -0.003895 0.021419 -0.005728 0.000000 0.009202 0.000000
# 3 -0.000735 -0.005728 0.007466 0.000000 -0.005730 0.000000
# 4 0.000000 0.000000 0.000000 0.023394 0.000000 0.003386
# 5 -0.003264 0.009202 -0.005730 0.000000 0.030791 0.000000
# 6 0.000000 0.000000 0.000000 0.003386 0.000000 0.036850
#
#
# Mechanical properties :
#
#
# Convention : Reuss Voigt Hill
#
# Bulk Modulus (GPa) = 50.38418 63.15091 56.76754
# Shear Modulus (GPa) = 31.46105 39.27787 35.36946
#
# Velocity S-wave (km/s) = 3.67015 4.10083 3.89145
# Velocity P-wave (km/s) = 6.28744 7.03281 6.67054
#
# Compressibility (1/GPa) = 0.01984750
#
# Stress axis : x y z
#
# Youngs Moduli (GPa) = 85.64481 46.68670 133.93925
#
# Poissons Ratio (x) = 0.18184 0.09839
# Poissons Ratio (y) = 0.33357 0.76716
# Poissons Ratio (z) = 0.06291 0.26740
#
# Static dielectric constant tensor:
#      x y z
#    x 4.220560 0.000000 0.081350 
#    y 0.000000 4.111290 0.000000 
#    z 0.081350 0.000000 4.664100 
# 
# 
# High freq. dielectric constant tensor:
#      x y z
#    x 1.925460 0.000000 0.016680 
#    y 0.000000 1.903890 0.000000 
#    z 0.016680 0.000000 1.955970 
# 
# From -- ./inp_files/166024.got.cif
#   From: 2010.06.25/outbox.cif.g09.slc.cpg/sg15_84_cif.got.tgz:166024.got - 2010.06.28 07:06:18.
