data_PCOD8149680
_publ_section_title
;
Structure prediction by ZEFSAII (Michael W. Deem and Ramdas Pophale) SiO2 
 PCOD8149680
Probable space group: C 2/C
;
_chemical_formula_sum "Si O2"
_cell_formula_units_Z 52
_cell_length_a 19.214661
_cell_length_b 12.793928
_cell_length_c 19.517917
_cell_angle_alpha 90.000000
_cell_angle_beta 31.299692
_cell_angle_gamma 90.000000
_cell_volume 2492.687208
_symmetry_space_group_name_H-M "C 2/C"
_symmetry_group_IT_number 15
_symmetry_cell_setting 'monoclinic'
loop_
_space_group_symop_operation_xyz
x,y,z
-x,y,1/2-z
-x,-y,-z
x,-y,1/2+z
1/2+x,1/2+y,z
1/2-x,1/2+y,1/2-z
1/2-x,1/2-y,-z
1/2+x,1/2-y,1/2+z
loop_
_atom_site_type_symbol
_atom_site_label
_atom_site_fract_x
_atom_site_fract_y
_atom_site_fract_z
Si Si1 0.149562 0.615066 0.828360
Si Si2 0.545068 0.322036 0.286975
Si Si3 0.584818 0.498257 0.360384
Si Si4 0.150797 0.334823 0.475813
Si Si5 0.327701 0.696054 0.284929
Si Si6 0.000000 0.312233 0.250000
Si Si7 0.396285 0.934957 0.459219
O O1 0.262922 0.530569 0.749732
O O2 0.090670 0.659122 0.949573
O O3 0.210801 0.710420 0.733645
O O4 0.037832 0.555039 0.878799
O O5 0.500000 0.359680 0.250000
O O6 0.523620 0.416613 0.357810
O O7 0.700214 0.284177 0.153020
O O8 0.450408 0.227396 0.390677
O O9 0.500000 0.500000 0.500000
O O10 0.578030 0.612997 0.333094
O O11 0.169735 0.451164 0.491230
O O12 0.405932 0.738135 0.284741
O O13 0.190897 0.643648 0.422745
O O14 0.090511 0.387757 0.127416
#
# Coordination Sequence:
#
# PCOD8149680 Si02
#       7
#     8   8   8   8   8   4   8
#     4  10  24  40  67 100 126 177 216 283 327 400
#     4  11  25  45  64  99 131 181 221 279 337 402
#     4  11  25  43  66 101 131 174 224 275 342 396
#     4  11  24  43  70  94 138 172 229 272 340 403
#     4  11  23  43  70  95 137 170 223 276 337 395
#     4  10  26  42  66 104 130 182 218 282 330 408
#     4  11  23  44  67  97 133 175 224 269 342 396
#
# _framework density 20.86102
#
# number of rings (size 3 to 8) (size 9 to 14) (size 15 to 20)
#    0.000    1.231    3.077    2.308   10.769    1.231 
#    5.538    0.000    0.000    0.000    0.000    0.000 
#    0.000    0.000    0.000    0.000    0.000    0.000 
#
# Total GULP energy -322513.985554 kJ/mol
# GULP energy per Si atom -12404.384060 kJ/mol
# Density = 2.081354 g / cm^3
# Si number density = 20.861020 Si / 1000 Ang^3
#
#
#
# Elastic Constant Matrix: (Units=GPa)
#
#
# Indices 1 2 3 4 5 6 
#
# 1 120.8929 49.3519 46.2111 -0.0001 21.8773 0.0000
# 2 49.3519 90.2723 46.5425 -0.0002 6.2686 0.0001
# 3 46.2111 46.5425 127.7174 -0.0002 17.3972 0.0002
# 4 -0.0001 -0.0002 -0.0002 42.6681 0.0001 11.7211
# 5 21.8773 6.2686 17.3972 0.0001 33.0289 -0.0001
# 6 0.0000 0.0001 0.0002 11.7211 -0.0001 30.1354
#
#
#
# Elastic Compliance Matrix: (Units=1/GPa)
#
#
# Indices 1 2 3 4 5 6 
#
# 1 0.012225 -0.005427 -0.001597 0.000000 -0.006226 0.000000
# 2 -0.005427 0.016050 -0.004266 0.000000 0.002796 0.000000
# 3 -0.001597 -0.004266 0.010458 0.000000 -0.003641 0.000000
# 4 0.000000 0.000000 0.000000 0.026240 0.000000 -0.010206
# 5 -0.006226 0.002796 -0.003641 0.000000 0.035787 0.000000
# 6 0.000000 0.000000 0.000000 -0.010206 0.000000 0.037153
#
#
# Mechanical properties :
#
#
# Convention : Reuss Voigt Hill
#
# Bulk Modulus (GPa) = 61.91307 69.23262 65.57285
# Shear Modulus (GPa) = 30.14241 34.28494 32.21368
#
# Velocity S-wave (km/s) = 3.80533 4.05840 3.93390
# Velocity P-wave (km/s) = 7.00362 7.43104 7.22049
#
# Compressibility (1/GPa) = 0.01615168
#
# Stress axis : x y z
#
# Youngs Moduli (GPa) = 81.80240 62.30505 95.61786
#
# Poissons Ratio (x) = 0.33815 0.15273
# Poissons Ratio (y) = 0.44397 0.40791
# Poissons Ratio (z) = 0.13066 0.26579
#
# Static dielectric constant tensor:
#      x y z
#    x 3.863090 0.000000 0.246180 
#    y 0.000000 3.779170 0.000000 
#    z 0.246180 0.000000 3.897950 
# 
# 
# High freq. dielectric constant tensor:
#      x y z
#    x 1.822720 0.000000 0.013490 
#    y 0.000000 1.817970 0.000000 
#    z 0.013490 0.000000 1.826060 
# 
# From -- ./inp_files/110957.got.cif
#   From: 2010.06.25/outbox.cif.g09.slc.cpg/sg15_56_cif.got.tgz:110957.got - 2010.06.28 07:06:18.
