data_PCOD8149135
_publ_section_title
;
Structure prediction by ZEFSAII (Michael W. Deem and Ramdas Pophale) SiO2 
 PCOD8149135
Probable space group: C 2/C
;
_chemical_formula_sum "Si O2"
_cell_formula_units_Z 48
_cell_length_a 25.393521
_cell_length_b 10.931875
_cell_length_c 22.264737
_cell_angle_alpha 90.000000
_cell_angle_beta 159.831381
_cell_angle_gamma 90.000000
_cell_volume 2130.994952
_symmetry_space_group_name_H-M "C 2/C"
_symmetry_group_IT_number 15
_symmetry_cell_setting 'monoclinic'
loop_
_space_group_symop_operation_xyz
x,y,z
-x,y,1/2-z
-x,-y,-z
x,-y,1/2+z
1/2+x,1/2+y,z
1/2-x,1/2+y,1/2-z
1/2-x,1/2-y,-z
1/2+x,1/2-y,1/2+z
loop_
_atom_site_type_symbol
_atom_site_label
_atom_site_fract_x
_atom_site_fract_y
_atom_site_fract_z
Si Si1 0.376433 0.998605 0.067994
Si Si2 0.223618 0.192083 0.323707
Si Si3 0.988053 0.318228 0.587889
Si Si4 0.592176 0.579601 0.487628
Si Si5 0.069192 0.110442 0.762771
Si Si6 0.243987 0.863334 0.712348
O O1 0.500000 0.964310 0.250000
O O2 0.442128 0.074285 0.083042
O O3 0.308794 0.873918 0.969450
O O4 0.243827 0.073153 0.960089
O O5 0.262082 0.335971 0.372514
O O6 0.041919 0.168275 0.131485
O O7 0.286223 0.141337 0.327415
O O8 0.842037 0.262199 0.397612
O O9 0.072720 0.212984 0.715795
O O10 0.101754 0.374332 0.660630
O O11 0.535413 0.505011 0.368554
O O12 0.639376 0.482639 0.589291
O O13 0.000000 0.165198 0.750000
#
# Coordination Sequence:
#
# PCOD8149135 Si02
#       6
#     8   8   8   8   8   8
#     4  11  26  41  65  99 136 178 227 276 331 401
#     4  11  25  45  67  96 138 180 226 277 336 402
#     4  11  23  41  68 103 133 174 222 280 346 395
#     4  10  25  43  66  98 132 177 229 275 334 400
#     4  10  23  44  67  97 137 178 221 280 335 399
#     4  11  24  42  71  99 139 172 224 282 345 400
#
# _framework density 22.524688999999999
#
# number of rings (size 3 to 8) (size 9 to 14) (size 15 to 20)
#    0.000    1.333    1.667    2.000    9.333    2.667 
#    0.000    3.333    0.000    0.000    0.000    0.000 
#    0.000    0.000    0.000    0.000    0.000    0.000 
#
# Total GULP energy -297717.779471 kJ/mol
# GULP energy per Si atom -12404.907478 kJ/mol
# Density = 2.247342 g / cm^3
# Si number density = 22.524689 Si / 1000 Ang^3
#
#
#
# Elastic Constant Matrix: (Units=GPa)
#
#
# Indices 1 2 3 4 5 6 
#
# 1 80.5601 -12.2524 10.2085 0.0006 9.1376 0.0001
# 2 -12.2524 62.8435 6.3311 0.0009 4.8728 0.0005
# 3 10.2085 6.3311 69.7111 0.0019 0.5950 0.0013
# 4 0.0006 0.0009 0.0019 35.9193 0.0013 9.6486
# 5 9.1376 4.8728 0.5950 0.0013 35.1626 0.0012
# 6 0.0001 0.0005 0.0013 9.6486 0.0012 28.7188
#
#
#
# Elastic Compliance Matrix: (Units=1/GPa)
#
#
# Indices 1 2 3 4 5 6 
#
# 1 0.013631 0.003191 -0.002252 0.000000 -0.003946 0.000000
# 2 0.003191 0.016978 -0.001982 0.000000 -0.003148 0.000000
# 3 -0.002252 -0.001982 0.014850 -0.000001 0.000609 0.000000
# 4 0.000000 0.000000 -0.000001 0.030602 -0.000001 -0.010281
# 5 -0.003946 -0.003148 0.000609 -0.000001 0.029891 -0.000001
# 6 0.000000 0.000000 0.000000 -0.010281 -0.000001 0.038275
#
#
# Mechanical properties :
#
#
# Convention : Reuss Voigt Hill
#
# Bulk Modulus (GPa) = 23.05670 24.63212 23.84441
# Shear Modulus (GPa) = 31.09998 33.88199 32.49099
#
# Velocity S-wave (km/s) = 3.71982 3.88263 3.80209
# Velocity P-wave (km/s) = 5.35797 5.57307 5.46658
#
# Compressibility (1/GPa) = 0.04337134
#
# Stress axis : x y z
#
# Youngs Moduli (GPa) = 73.36025 58.89826 67.34204
#
# Poissons Ratio (x) = -0.18792 0.15167
# Poissons Ratio (y) = -0.23406 0.13349
# Poissons Ratio (z) = 0.16523 0.11676
#
# Static dielectric constant tensor:
#      x y z
#    x 3.880230 0.000000 0.021930 
#    y 0.000000 3.999110 0.000000 
#    z 0.021930 0.000000 4.132240 
# 
# 
# High freq. dielectric constant tensor:
#      x y z
#    x 1.882800 0.000000 0.001000 
#    y 0.000000 1.886370 0.000000 
#    z 0.001000 0.000000 1.896410 
# 
# From -- ./inp_files/283554.got.cif
#   From: 2010.06.25/outbox.cif.g09.slc.cpg/sg15_142_cif.got.tgz:283554.got - 2010.06.28 07:06:18.
