data_PCOD8149774
_publ_section_title
;
Structure prediction by ZEFSAII (Michael W. Deem and Ramdas Pophale) SiO2 
 PCOD8149774
Probable space group: C 2/C
;
_chemical_formula_sum "Si O2"
_cell_formula_units_Z 48
_cell_length_a 29.217575
_cell_length_b 15.944163
_cell_length_c 8.948241
_cell_angle_alpha 90.000000
_cell_angle_beta 150.944931
_cell_angle_gamma 90.000000
_cell_volume 2024.449651
_symmetry_space_group_name_H-M "C 2/C"
_symmetry_group_IT_number 15
_symmetry_cell_setting 'monoclinic'
loop_
_space_group_symop_operation_xyz
x,y,z
-x,y,1/2-z
-x,-y,-z
x,-y,1/2+z
1/2+x,1/2+y,z
1/2-x,1/2+y,1/2-z
1/2-x,1/2-y,-z
1/2+x,1/2-y,1/2+z
loop_
_atom_site_type_symbol
_atom_site_label
_atom_site_fract_x
_atom_site_fract_y
_atom_site_fract_z
Si Si1 0.127843 0.504020 0.612016
Si Si2 0.243992 0.230658 0.808415
Si Si3 0.468841 0.724160 0.330346
Si Si4 0.953381 0.927061 0.275792
Si Si5 0.575299 0.881749 0.707948
Si Si6 0.256163 0.087256 0.304989
O O1 0.068315 0.436358 0.536862
O O2 0.060622 0.557929 0.309343
O O3 0.204152 0.453153 0.733042
O O4 0.178120 0.568462 0.866879
O O5 0.139978 0.196704 0.468707
O O6 0.258537 0.313711 0.753269
O O7 0.250000 0.250000 0.000000
O O8 0.321708 0.161806 0.986124
O O9 0.500000 0.728468 0.250000
O O10 0.536080 0.659420 0.605072
O O11 0.488842 0.816059 0.459029
O O12 0.000000 0.916080 0.250000
O O13 0.845038 0.952388 0.948528
O O14 0.000000 0.000000 0.500000
#
# Coordination Sequence:
#
# PCOD8149774 Si02
#       6
#     8   8   8   8   8   8
#     4  10  24  41  75  97 138 187 238 293 349 422
#     4  12  23  43  73  98 139 181 231 288 357 425
#     4  12  25  45  72 103 141 189 234 290 358 425
#     4  12  27  42  65 104 143 183 237 294 356 426
#     4  11  24  48  71 108 140 188 242 294 359 422
#     4  11  22  44  65 100 135 186 228 288 356 420
#
# _framework density 23.710149000000001
#
# number of rings (size 3 to 8) (size 9 to 14) (size 15 to 20)
#    0.000    0.667    5.000    1.500    7.000    2.000 
#    0.000    9.167    0.000    0.000    0.000    0.000 
#    0.000    0.000    0.000    0.000    0.000    0.000 
#
# Total GULP energy -297732.439884 kJ/mol
# GULP energy per Si atom -12405.518328 kJ/mol
# Density = 2.365618 g / cm^3
# Si number density = 23.710149 Si / 1000 Ang^3
#
#
#
# Elastic Constant Matrix: (Units=GPa)
#
#
# Indices 1 2 3 4 5 6 
#
# 1 57.9331 39.8439 22.8837 0.0000 -20.9570 0.0000
# 2 39.8439 127.0644 26.7663 0.0000 -25.9129 0.0000
# 3 22.8837 26.7663 105.3777 0.0000 -5.8704 0.0000
# 4 0.0000 0.0000 0.0000 51.4333 0.0000 -2.6320
# 5 -20.9570 -25.9129 -5.8704 0.0000 35.8893 0.0000
# 6 0.0000 0.0000 0.0000 -2.6320 0.0000 31.4613
#
#
#
# Elastic Compliance Matrix: (Units=1/GPa)
#
#
# Indices 1 2 3 4 5 6 
#
# 1 0.026313 -0.005216 -0.003778 0.000000 0.010981 0.000000
# 2 -0.005216 0.010696 -0.001336 0.000000 0.004459 0.000000
# 3 -0.003778 -0.001336 0.010569 0.000000 -0.001442 0.000000
# 4 0.000000 0.000000 0.000000 0.019526 0.000000 0.001634
# 5 0.010981 0.004459 -0.001442 0.000000 0.037259 0.000000
# 6 0.000000 0.000000 0.000000 0.001634 0.000000 0.031922
#
#
# Mechanical properties :
#
#
# Convention : Reuss Voigt Hill
#
# Bulk Modulus (GPa) = 37.14728 52.15146 44.64937
# Shear Modulus (GPa) = 30.13549 37.14887 33.64218
#
# Velocity S-wave (km/s) = 3.56897 3.96257 3.77091
# Velocity P-wave (km/s) = 5.71705 6.55584 6.15076
#
# Compressibility (1/GPa) = 0.02691987
#
# Stress axis : x y z
#
# Youngs Moduli (GPa) = 38.00394 93.49062 94.61637
#
# Poissons Ratio (x) = 0.48763 0.35742
# Poissons Ratio (y) = 0.19822 0.12639
# Poissons Ratio (z) = 0.14356 0.12489
#
# Static dielectric constant tensor:
#      x y z
#    x 4.313880 0.000000 0.085140 
#    y 0.000000 4.551400 0.000000 
#    z 0.085140 0.000000 4.996700 
# 
# 
# High freq. dielectric constant tensor:
#      x y z
#    x 1.941940 0.000000 0.002030 
#    y 0.000000 1.950300 0.000000 
#    z 0.002030 0.000000 1.959690 
# 
# From -- ./inp_files/70649.got.cif
#   From: 2010.06.25/outbox.cif.g09.slc.cpg/sg15_36_cif.got.tgz:70649.got - 2010.06.28 07:06:18.
