data_PCOD8149549
_publ_section_title
;
Structure prediction by ZEFSAII (Michael W. Deem and Ramdas Pophale) SiO2 
 PCOD8149549
Probable space group: C 2/C
;
_chemical_formula_sum "Si O2"
_cell_formula_units_Z 48
_cell_length_a 11.243134
_cell_length_b 8.880976
_cell_length_c 25.011326
_cell_angle_alpha 90.000000
_cell_angle_beta 64.952194
_cell_angle_gamma 90.000000
_cell_volume 2262.514414
_symmetry_space_group_name_H-M "C 2/C"
_symmetry_group_IT_number 15
_symmetry_cell_setting 'monoclinic'
loop_
_space_group_symop_operation_xyz
x,y,z
-x,y,1/2-z
-x,-y,-z
x,-y,1/2+z
1/2+x,1/2+y,z
1/2-x,1/2+y,1/2-z
1/2-x,1/2-y,-z
1/2+x,1/2-y,1/2+z
loop_
_atom_site_type_symbol
_atom_site_label
_atom_site_fract_x
_atom_site_fract_y
_atom_site_fract_z
Si Si1 0.969333 0.579447 0.668927
Si Si2 0.000000 0.173778 0.250000
Si Si3 0.391337 0.087141 0.959805
Si Si4 0.180380 0.927020 0.057966
Si Si5 0.685580 0.570026 0.678144
Si Si6 0.500000 0.827015 0.750000
Si Si7 0.938776 0.280263 0.993564
O O1 0.841641 0.576971 0.655271
O O2 0.968845 0.725652 0.705096
O O3 0.098437 0.600865 0.606304
O O4 0.972658 0.428501 0.703273
O O5 0.870867 0.071029 0.278733
O O6 0.459495 0.231706 0.976205
O O7 0.243878 0.067966 0.012341
O O8 0.476534 0.934785 0.955406
O O9 0.288219 0.791888 0.043548
O O10 0.140130 0.965962 0.125761
O O11 0.055353 0.863027 0.047936
O O12 0.625413 0.724632 0.712410
#
# Coordination Sequence:
#
# PCOD8149549 Si02
#       7
#     8   4   8   8   8   4   8
#     4  11  20  38  57  78 109 143 181 227 265 317
#     4  10  26  38  52  82 112 142 186 224 264 312
#     4   9  15  27  50  77 101 133 170 212 270 315
#     4   9  16  27  51  78 103 133 172 217 266 318
#     4  11  20  39  56  77 111 145 178 225 269 316
#     4  10  24  32  56  82  98 148 196 210 260 328
#     4   8  14  25  44  84 100 127 172 209 264 317
#
# _framework density 21.215335
#
# number of rings (size 3 to 8) (size 9 to 14) (size 15 to 20)
#    1.000    1.333    1.667    2.000    0.000    0.000 
#    0.000    0.833    0.000    1.000    0.000    0.000 
#    0.000    0.000    0.000    0.000    0.000    0.000 
#
# Total GULP energy -297338.335549 kJ/mol
# GULP energy per Si atom -12389.097315 kJ/mol
# Density = 2.116705 g / cm^3
# Si number density = 21.215335 Si / 1000 Ang^3
#
#
#
# Elastic Constant Matrix: (Units=GPa)
#
#
# Indices 1 2 3 4 5 6 
#
# 1 62.5640 35.4379 32.5496 0.0000 10.0144 0.0000
# 2 35.4379 84.6700 45.7761 0.0000 13.2120 0.0000
# 3 32.5496 45.7761 143.1481 0.0000 27.9497 0.0000
# 4 0.0000 0.0000 0.0000 1.3905 0.0000 2.8846
# 5 10.0144 13.2120 27.9497 0.0000 15.3440 0.0000
# 6 0.0000 0.0000 0.0000 2.8846 0.0000 22.1057
#
#
#
# Elastic Compliance Matrix: (Units=1/GPa)
#
#
# Indices 1 2 3 4 5 6 
#
# 1 0.021860 -0.007517 -0.001622 0.000000 -0.004840 0.000000
# 2 -0.007517 0.017251 -0.002894 0.000000 -0.004676 0.000000
# 3 -0.001622 -0.002894 0.011774 0.000000 -0.017897 0.000000
# 4 0.000000 0.000000 0.000000 0.986113 0.000000 -0.128681
# 5 -0.004840 -0.004676 -0.017897 0.000000 0.104958 0.000000
# 6 0.000000 0.000000 0.000000 -0.128681 0.000000 0.062029
#
#
# Mechanical properties :
#
#
# Convention : Reuss Voigt Hill
#
# Bulk Modulus (GPa) = 37.28662 57.54549 47.41605
# Shear Modulus (GPa) = 4.04206 19.54261 11.79234
#
# Velocity S-wave (km/s) = 1.38181 3.03835 2.36018
# Velocity P-wave (km/s) = 4.48991 6.28427 5.46129
#
# Compressibility (1/GPa) = 0.02681927
#
# Stress axis : x y z
#
# Youngs Moduli (GPa) = 45.74539 57.96662 84.92932
#
# Poissons Ratio (x) = 0.43575 0.13773
# Poissons Ratio (y) = 0.34388 0.24582
# Poissons Ratio (z) = 0.07418 0.16778
#
# Static dielectric constant tensor:
#      x y z
#    x 3.405100 0.000000 0.137370 
#    y 0.000000 3.627220 0.000000 
#    z 0.137370 0.000000 3.907710 
# 
# 
# High freq. dielectric constant tensor:
#      x y z
#    x 1.800970 0.000000 0.010360 
#    y 0.000000 1.817990 0.000000 
#    z 0.010360 0.000000 1.837500 
# 
# From -- ./inp_files/268041.got.cif
#   From: 2010.06.25/outbox.cif.g09.slc.cpg/sg15_135_cif.got.tgz:268041.got - 2010.06.28 07:06:18.
