data_PCOD8149533
_publ_section_title
;
Structure prediction by ZEFSAII (Michael W. Deem and Ramdas Pophale) SiO2 
 PCOD8149533
Probable space group: C 2/C
;
_chemical_formula_sum "Si O2"
_cell_formula_units_Z 44
_cell_length_a 21.532207
_cell_length_b 8.358098
_cell_length_c 9.928558
_cell_angle_alpha 90.000000
_cell_angle_beta 113.937777
_cell_angle_gamma 90.000000
_cell_volume 1633.134776
_symmetry_space_group_name_H-M "C 2/C"
_symmetry_group_IT_number 15
_symmetry_cell_setting 'monoclinic'
loop_
_space_group_symop_operation_xyz
x,y,z
-x,y,1/2-z
-x,-y,-z
x,-y,1/2+z
1/2+x,1/2+y,z
1/2-x,1/2+y,1/2-z
1/2-x,1/2-y,-z
1/2+x,1/2-y,1/2+z
loop_
_atom_site_type_symbol
_atom_site_label
_atom_site_fract_x
_atom_site_fract_y
_atom_site_fract_z
Si Si1 0.393888 0.667342 0.297353
Si Si2 0.487239 0.179466 0.090519
Si Si3 0.233253 0.352209 0.281775
Si Si4 0.879144 0.199596 0.797238
Si Si5 0.000000 0.371459 0.250000
Si Si6 0.198814 0.606029 0.465840
O O1 0.423313 0.733660 0.465295
O O2 0.312889 0.697805 0.225995
O O3 0.399726 0.480142 0.274577
O O4 0.433248 0.763783 0.215185
O O5 0.500000 0.257646 0.250000
O O6 0.555802 0.229334 0.066092
O O7 0.483831 0.984027 0.104438
O O8 0.310767 0.297352 0.326145
O O9 0.230328 0.462508 0.409066
O O10 0.197401 0.442628 0.122184
O O11 0.871128 0.322886 0.659799
O O12 0.250000 0.750000 0.500000
#
# Coordination Sequence:
#
# PCOD8149533 Si02
#       6
#     8   8   8   8   4   8
#     4  12  25  46  73 111 147 197 261 297 383 448
#     4  10  24  46  74 101 149 203 242 310 374 444
#     4  11  25  48  78 112 151 202 248 311 381 455
#     4  11  23  46  74 112 147 192 249 322 367 437
#     4  10  26  44  70 102 146 202 244 296 374 454
#     4  10  23  48  75 109 155 194 247 306 382 441
#
# _framework density 26.942053000000001
#
# number of rings (size 3 to 8) (size 9 to 14) (size 15 to 20)
#    0.545    0.727    0.000    5.455    3.818    1.455 
#    9.818   10.909    0.000    0.000    0.000    0.000 
#    0.000    0.000    0.000    0.000    0.000    0.000 
#
# Total GULP energy -272634.374194 kJ/mol
# GULP energy per Si atom -12392.471554 kJ/mol
# Density = 2.688073 g / cm^3
# Si number density = 26.942053 Si / 1000 Ang^3
#
#
#
# Elastic Constant Matrix: (Units=GPa)
#
#
# Indices 1 2 3 4 5 6 
#
# 1 132.2805 46.2371 34.6304 0.0000 7.1664 0.0000
# 2 46.2371 119.6977 12.1577 0.0000 2.7806 0.0000
# 3 34.6304 12.1577 49.4426 0.0000 -10.3523 0.0000
# 4 0.0000 0.0000 0.0000 28.7088 0.0000 4.2311
# 5 7.1664 2.7806 -10.3523 0.0000 42.8147 0.0000
# 6 0.0000 0.0000 0.0000 4.2311 0.0000 36.9869
#
#
#
# Elastic Compliance Matrix: (Units=1/GPa)
#
#
# Indices 1 2 3 4 5 6 
#
# 1 0.010888 -0.003363 -0.007516 0.000000 -0.003421 0.000000
# 2 -0.003363 0.009659 -0.000035 0.000000 -0.000073 0.000000
# 3 -0.007516 -0.000035 0.027136 0.000000 0.007821 0.000000
# 4 0.000000 0.000000 0.000000 0.035430 0.000000 -0.004053
# 5 -0.003421 -0.000073 0.007821 0.000000 0.025825 0.000000
# 6 0.000000 0.000000 0.000000 -0.004053 0.000000 0.027500
#
#
# Mechanical properties :
#
#
# Convention : Reuss Voigt Hill
#
# Bulk Modulus (GPa) = 38.67609 54.16347 46.41978
# Shear Modulus (GPa) = 29.96110 35.59512 32.77811
#
# Velocity S-wave (km/s) = 3.33837 3.63874 3.49179
# Velocity P-wave (km/s) = 5.40796 6.14827 5.78996
#
# Compressibility (1/GPa) = 0.02585576
#
# Stress axis : x y z
#
# Youngs Moduli (GPa) = 91.84336 103.53379 36.85178
#
# Poissons Ratio (x) = 0.34819 0.27696
# Poissons Ratio (y) = 0.30887 0.00128
# Poissons Ratio (z) = 0.69026 0.00360
#
# Static dielectric constant tensor:
#      x y z
#    x 5.104250 0.000000 0.400910 
#    y 0.000000 4.454670 0.000000 
#    z 0.400910 0.000000 6.318280 
# 
# 
# High freq. dielectric constant tensor:
#      x y z
#    x 2.101950 0.000000 0.002990 
#    y 0.000000 2.080860 0.000000 
#    z 0.002990 0.000000 2.083530 
# 
# From -- ./inp_files/110143.got.cif
#   From: 2010.06.25/outbox.cif.g09.slc.cpg/sg15_56_cif.got.tgz:110143.got - 2010.06.28 07:06:18.
