data_PCOD8149625
_publ_section_title
;
Structure prediction by ZEFSAII (Michael W. Deem and Ramdas Pophale) SiO2 
 PCOD8149625
Probable space group: C 2/C
;
_chemical_formula_sum "Si O2"
_cell_formula_units_Z 48
_cell_length_a 16.969886
_cell_length_b 16.299662
_cell_length_c 14.529999
_cell_angle_alpha 90.000000
_cell_angle_beta 148.975539
_cell_angle_gamma 90.000000
_cell_volume 2071.432905
_symmetry_space_group_name_H-M "C 2/C"
_symmetry_group_IT_number 15
_symmetry_cell_setting 'monoclinic'
loop_
_space_group_symop_operation_xyz
x,y,z
-x,y,1/2-z
-x,-y,-z
x,-y,1/2+z
1/2+x,1/2+y,z
1/2-x,1/2+y,1/2-z
1/2-x,1/2-y,-z
1/2+x,1/2-y,1/2+z
loop_
_atom_site_type_symbol
_atom_site_label
_atom_site_fract_x
_atom_site_fract_y
_atom_site_fract_z
Si Si1 0.264473 0.334958 0.767625
Si Si2 0.516243 0.748287 0.410674
Si Si3 0.323628 0.511997 0.598453
Si Si4 0.337094 0.678123 0.540502
Si Si5 0.233231 0.368957 0.388057
Si Si6 0.821245 0.985158 0.309015
O O1 0.109623 0.285885 0.590681
O O2 0.229538 0.431597 0.739773
O O3 0.391569 0.318354 0.817311
O O4 0.340519 0.301389 0.936749
O O5 0.634131 0.699649 0.462495
O O6 0.431033 0.824028 0.275303
O O7 0.500000 0.495395 0.750000
O O8 0.257237 0.589637 0.475522
O O9 0.231846 0.431705 0.472277
O O10 0.292935 0.534945 0.673758
O O11 0.500000 0.670481 0.750000
O O12 0.250000 0.750000 0.500000
O O13 0.262753 0.413238 0.318300
O O14 0.000000 0.000000 0.500000
#
# Coordination Sequence:
#
# PCOD8149625 Si02
#       6
#     8   8   8   8   8   8
#     4  11  21  42  62  96 126 177 217 269 345 393
#     4  10  24  39  71  92 131 175 220 285 328 403
#     4  11  22  40  67  97 128 178 223 269 334 403
#     4  11  23  38  61  95 131 168 219 276 328 398
#     4  11  23  46  67 101 132 174 232 275 341 399
#     4  12  21  40  69  92 130 174 219 271 330 411
#
# _framework density 23.172364999999999
#
# number of rings (size 3 to 8) (size 9 to 14) (size 15 to 20)
#    0.000    1.000    5.000    2.000    4.667    0.667 
#    0.000   10.000    0.000    0.000    0.000    0.000 
#    0.000    0.000    0.000    0.000    0.000    0.000 
#
# Total GULP energy -297557.180731 kJ/mol
# GULP energy per Si atom -12398.215864 kJ/mol
# Density = 2.311962 g / cm^3
# Si number density = 23.172365 Si / 1000 Ang^3
#
#
#
# Elastic Constant Matrix: (Units=GPa)
#
#
# Indices 1 2 3 4 5 6 
#
# 1 58.5672 9.3756 14.6272 0.0000 -13.6008 0.0000
# 2 9.3756 137.6080 44.6326 0.0000 10.1248 0.0000
# 3 14.6272 44.6326 93.4180 -0.0001 -2.1329 -0.0001
# 4 0.0000 0.0000 -0.0001 48.4360 -0.0001 -0.1508
# 5 -13.6008 10.1248 -2.1329 -0.0001 26.7366 -0.0001
# 6 0.0000 0.0000 -0.0001 -0.1508 -0.0001 26.8166
#
#
#
# Elastic Compliance Matrix: (Units=1/GPa)
#
#
# Indices 1 2 3 4 5 6 
#
# 1 0.020359 -0.001446 -0.002252 0.000000 0.010724 0.000000
# 2 -0.001446 0.009061 -0.004205 0.000000 -0.004502 0.000000
# 3 -0.002252 -0.004205 0.013101 0.000000 0.001492 0.000000
# 4 0.000000 0.000000 0.000000 0.020646 0.000000 0.000116
# 5 0.010724 -0.004502 0.001492 0.000000 0.044681 0.000000
# 6 0.000000 0.000000 0.000000 0.000116 0.000000 0.037291
#
#
# Mechanical properties :
#
#
# Convention : Reuss Voigt Hill
#
# Bulk Modulus (GPa) = 37.43427 47.42935 42.43181
# Shear Modulus (GPa) = 29.43785 35.12838 32.28311
#
# Velocity S-wave (km/s) = 3.56811 3.89776 3.73657
# Velocity P-wave (km/s) = 5.75891 6.38507 6.08006
#
# Compressibility (1/GPa) = 0.02671349
#
# Stress axis : x y z
#
# Youngs Moduli (GPa) = 49.11898 110.36569 76.33284
#
# Poissons Ratio (x) = 0.15955 0.17191
# Poissons Ratio (y) = 0.07101 0.32101
# Poissons Ratio (z) = 0.11062 0.46414
#
# Static dielectric constant tensor:
#      x y z
#    x 3.858620 0.000000 -0.088660 
#    y 0.000000 4.186530 0.000000 
#    z -0.088660 0.000000 4.021730 
# 
# 
# High freq. dielectric constant tensor:
#      x y z
#    x 1.898030 0.000000 -0.020610 
#    y 0.000000 1.937610 0.000000 
#    z -0.020610 0.000000 1.907510 
# 
# From -- ./inp_files/163322.got.cif
#   From: 2010.06.25/outbox.cif.g09.slc.cpg/sg15_82_cif.got.tgz:163322.got - 2010.06.28 07:06:18.
