data_PCOD8149789
_publ_section_title
;
Structure prediction by ZEFSAII (Michael W. Deem and Ramdas Pophale) SiO2 
 PCOD8149789
Probable space group: C 2/C
;
_chemical_formula_sum "Si O2"
_cell_formula_units_Z 48
_cell_length_a 6.449810
_cell_length_b 25.460829
_cell_length_c 14.058104
_cell_angle_alpha 90.000000
_cell_angle_beta 93.251955
_cell_angle_gamma 90.000000
_cell_volume 2304.869392
_symmetry_space_group_name_H-M "C 2/C"
_symmetry_group_IT_number 15
_symmetry_cell_setting 'monoclinic'
loop_
_space_group_symop_operation_xyz
x,y,z
-x,y,1/2-z
-x,-y,-z
x,-y,1/2+z
1/2+x,1/2+y,z
1/2-x,1/2+y,1/2-z
1/2-x,1/2-y,-z
1/2+x,1/2-y,1/2+z
loop_
_atom_site_type_symbol
_atom_site_label
_atom_site_fract_x
_atom_site_fract_y
_atom_site_fract_z
Si Si1 0.989416 0.585158 0.991776
Si Si2 0.500000 0.297871 0.250000
Si Si3 0.176900 0.243761 0.106610
Si Si4 0.123522 0.667641 0.845160
Si Si5 0.500000 0.446791 0.750000
Si Si6 0.314401 0.136169 0.172749
Si Si7 0.186445 0.999960 0.932500
O O1 0.151023 0.542944 0.030925
O O2 0.917690 0.619177 0.078034
O O3 0.104992 0.624029 0.924170
O O4 0.795353 0.557104 0.934394
O O5 0.350900 0.264054 0.181660
O O6 0.634886 0.330885 0.177706
O O7 0.155682 0.183311 0.139925
O O8 0.962732 0.275715 0.118880
O O9 0.250000 0.250000 0.000000
O O10 0.000000 0.648607 0.750000
O O11 0.320516 0.411281 0.790038
O O12 0.603838 0.486273 0.826685
O O13 0.500000 0.152343 0.250000
O O14 0.000000 0.000000 0.000000
#
# Coordination Sequence:
#
# PCOD8149789 Si02
#       7
#     8   4   8   8   4   8   8
#     4  11  24  46  71  96 136 177 232 281 345 406
#     4  10  24  42  61  96 144 170 229 274 328 400
#     4  11  23  41  69  98 134 178 225 276 340 410
#     4  10  24  44  65  99 136 181 224 276 333 413
#     4  12  26  42  73 100 138 176 227 286 356 400
#     4  12  24  43  70 104 135 178 224 287 342 409
#     4  11  25  44  69 102 132 175 232 288 341 414
#
# _framework density 20.825475000000001
#
# number of rings (size 3 to 8) (size 9 to 14) (size 15 to 20)
#    0.000    1.000    5.833    0.000    3.500    6.000 
#    0.000    0.833    0.000    0.000    0.000    0.000 
#    0.000    0.000    0.000    0.000    0.000    0.000 
#
# Total GULP energy -297566.629600 kJ/mol
# GULP energy per Si atom -12398.609567 kJ/mol
# Density = 2.077807 g / cm^3
# Si number density = 20.825475 Si / 1000 Ang^3
#
#
#
# Elastic Constant Matrix: (Units=GPa)
#
#
# Indices 1 2 3 4 5 6 
#
# 1 99.1507 35.3722 35.5209 0.0000 -17.9341 0.0000
# 2 35.3722 102.8494 53.8910 0.0000 -1.4451 0.0000
# 3 35.5209 53.8910 139.0822 0.0000 -14.0075 0.0000
# 4 0.0000 0.0000 0.0000 42.0454 0.0000 0.5857
# 5 -17.9341 -1.4451 -14.0075 0.0000 37.0448 0.0000
# 6 0.0000 0.0000 0.0000 0.5857 0.0000 44.5837
#
#
#
# Elastic Compliance Matrix: (Units=1/GPa)
#
#
# Indices 1 2 3 4 5 6 
#
# 1 0.012873 -0.003665 -0.001304 0.000000 0.005596 0.000000
# 2 -0.003665 0.013310 -0.004520 0.000000 -0.002964 0.000000
# 3 -0.001304 -0.004520 0.009557 0.000000 0.002806 0.000000
# 4 0.000000 0.000000 0.000000 0.023788 0.000000 -0.000312
# 5 0.005596 -0.002964 0.002806 0.000000 0.030649 0.000000
# 6 0.000000 0.000000 0.000000 -0.000312 0.000000 0.022434
#
#
# Mechanical properties :
#
#
# Convention : Reuss Voigt Hill
#
# Bulk Modulus (GPa) = 59.65962 65.62781 62.64371
# Shear Modulus (GPa) = 36.44962 39.15466 37.80214
#
# Velocity S-wave (km/s) = 4.18813 4.34075 4.26512
# Velocity P-wave (km/s) = 7.21781 7.53024 7.37568
#
# Compressibility (1/GPa) = 0.01676176
#
# Stress axis : x y z
#
# Youngs Moduli (GPa) = 77.68477 75.13034 104.63640
#
# Poissons Ratio (x) = 0.27538 0.13642
# Poissons Ratio (y) = 0.28474 0.47294
# Poissons Ratio (z) = 0.10128 0.33957
#
# Static dielectric constant tensor:
#      x y z
#    x 4.276630 0.000000 -0.170370 
#    y 0.000000 4.078300 0.000000 
#    z -0.170370 0.000000 3.603440 
# 
# 
# High freq. dielectric constant tensor:
#      x y z
#    x 1.819940 0.000000 -0.006410 
#    y 0.000000 1.816420 0.000000 
#    z -0.006410 0.000000 1.834540 
# 
# From -- ./inp_files/130096.got.cif
#   From: 2010.06.25/outbox.cif.g09.slc.cpg/sg15_66_cif.got.tgz:130096.got - 2010.06.28 07:06:18.
