data_PCOD8149613
_publ_section_title
;
Structure prediction by ZEFSAII (Michael W. Deem and Ramdas Pophale) SiO2 
 PCOD8149613
Probable space group: C 2/C
;
_chemical_formula_sum "Si O2"
_cell_formula_units_Z 64
_cell_length_a 14.254016
_cell_length_b 29.667339
_cell_length_c 11.181092
_cell_angle_alpha 90.000000
_cell_angle_beta 140.429424
_cell_angle_gamma 90.000000
_cell_volume 3012.026048
_symmetry_space_group_name_H-M "C 2/C"
_symmetry_group_IT_number 15
_symmetry_cell_setting 'monoclinic'
loop_
_space_group_symop_operation_xyz
x,y,z
-x,y,1/2-z
-x,-y,-z
x,-y,1/2+z
1/2+x,1/2+y,z
1/2-x,1/2+y,1/2-z
1/2-x,1/2-y,-z
1/2+x,1/2-y,1/2+z
loop_
_atom_site_type_symbol
_atom_site_label
_atom_site_fract_x
_atom_site_fract_y
_atom_site_fract_z
Si Si1 0.664894 0.792176 0.363242
Si Si2 0.287841 0.434687 0.978713
Si Si3 0.912533 0.915725 0.349087
Si Si4 0.704389 0.160347 0.671732
Si Si5 0.639732 0.466569 0.969032
Si Si6 0.331979 0.204137 0.103549
Si Si7 0.168378 0.612143 0.954791
Si Si8 0.117721 0.630076 0.167394
O O1 0.500000 0.787782 0.250000
O O2 0.750000 0.750000 0.500000
O O3 0.684531 0.795146 0.237706
O O4 0.730720 0.840301 0.467721
O O5 0.142280 0.408398 0.791536
O O6 0.301697 0.430620 0.134879
O O7 0.424365 0.410366 0.044244
O O8 0.269871 0.487142 0.928132
O O9 0.846975 0.869969 0.344948
O O10 0.915320 0.953421 0.453803
O O11 0.730835 0.171911 0.560146
O O12 0.553946 0.132048 0.534923
O O13 0.500000 0.477745 0.750000
O O14 0.738849 0.428556 0.006487
O O15 0.500000 0.216005 0.250000
O O16 0.318411 0.178170 0.218230
O O17 0.250000 0.250000 0.000000
O O18 0.000000 0.605299 0.750000
O O19 0.198183 0.614847 0.125600
#
# Coordination Sequence:
#
# PCOD8149613 Si02
#       8
#     8   8   8   8   8   8   8   8
#     4  11  24  45  69  99 137 174 221 274 334 398
#     4  11  25  40  65  98 130 174 223 279 336 388
#     4  11  22  43  63  94 132 174 220 272 331 395
#     4  11  22  45  69  91 133 172 221 270 328 402
#     4  12  24  42  66  97 134 176 222 278 339 400
#     4  10  24  39  62  92 122 165 210 267 328 387
#     4  11  23  45  66  95 134 175 219 276 334 402
#     4  11  22  44  67  91 131 178 214 273 336 396
#
# _framework density 21.248155000000001
#
# number of rings (size 3 to 8) (size 9 to 14) (size 15 to 20)
#    0.000    1.000    6.250    1.125    3.500    1.500 
#    4.500    1.250    0.000    0.000    0.000    0.000 
#    0.000    0.000    0.000    0.000    0.000    0.000 
#
# Total GULP energy -396626.279952 kJ/mol
# GULP energy per Si atom -12394.571249 kJ/mol
# Density = 2.119979 g / cm^3
# Si number density = 21.248155 Si / 1000 Ang^3
#
#
#
# Elastic Constant Matrix: (Units=GPa)
#
#
# Indices 1 2 3 4 5 6 
#
# 1 86.1259 30.8413 24.1315 0.0000 -18.6273 0.0000
# 2 30.8413 127.7989 43.3387 0.0000 18.5094 0.0000
# 3 24.1315 43.3387 79.1474 0.0000 -15.5106 0.0000
# 4 0.0000 0.0000 0.0000 35.7720 0.0000 7.8995
# 5 -18.6273 18.5094 -15.5106 0.0000 30.9972 0.0000
# 6 0.0000 0.0000 0.0000 7.8995 0.0000 5.1441
#
#
#
# Elastic Compliance Matrix: (Units=1/GPa)
#
#
# Indices 1 2 3 4 5 6 
#
# 1 0.016808 -0.006692 0.001444 0.000000 0.014819 0.000000
# 2 -0.006692 0.015487 -0.010023 0.000000 -0.018285 0.000000
# 3 0.001444 -0.010023 0.021094 0.000000 0.017408 0.000000
# 4 0.000000 0.000000 0.000000 0.042299 0.000000 -0.064955
# 5 0.014819 -0.018285 0.017408 0.000000 0.060796 0.000000
# 6 0.000000 0.000000 0.000000 -0.064955 0.000000 0.294143
#
#
# Mechanical properties :
#
#
# Convention : Reuss Voigt Hill
#
# Bulk Modulus (GPa) = 43.77048 54.41059 49.09053
# Shear Modulus (GPa) = 10.22944 27.36669 18.79807
#
# Velocity S-wave (km/s) = 2.19653 3.59270 2.97760
# Velocity P-wave (km/s) = 5.20359 6.54773 5.91397
#
# Compressibility (1/GPa) = 0.02284645
#
# Stress axis : x y z
#
# Youngs Moduli (GPa) = 59.49605 64.57024 47.40624
#
# Poissons Ratio (x) = 0.43211 -0.06845
# Poissons Ratio (y) = 0.39815 0.47516
# Poissons Ratio (z) = -0.08591 0.64720
#
# Static dielectric constant tensor:
#      x y z
#    x 3.921580 0.000000 -0.333000 
#    y 0.000000 3.898000 0.000000 
#    z -0.333000 0.000000 3.966800 
# 
# 
# High freq. dielectric constant tensor:
#      x y z
#    x 1.837750 0.000000 -0.021750 
#    y 0.000000 1.831010 0.000000 
#    z -0.021750 0.000000 1.832000 
# 
# From -- ./inp_files/101671.got.cif
#   From: 2010.06.25/outbox.cif.g09.slc.cpg/sg15_51_cif.got.tgz:101671.got - 2010.06.28 07:06:18.
