data_PCOD8149401
_publ_section_title
;
Structure prediction by ZEFSAII (Michael W. Deem and Ramdas Pophale) SiO2 
 PCOD8149401
Probable space group: C 2/C
;
_chemical_formula_sum "Si O2"
_cell_formula_units_Z 40
_cell_length_a 12.337993
_cell_length_b 26.802923
_cell_length_c 9.085471
_cell_angle_alpha 90.000000
_cell_angle_beta 34.911784
_cell_angle_gamma 90.000000
_cell_volume 1719.526628
_symmetry_space_group_name_H-M "C 2/C"
_symmetry_group_IT_number 15
_symmetry_cell_setting 'monoclinic'
loop_
_space_group_symop_operation_xyz
x,y,z
-x,y,1/2-z
-x,-y,-z
x,-y,1/2+z
1/2+x,1/2+y,z
1/2-x,1/2+y,1/2-z
1/2-x,1/2-y,-z
1/2+x,1/2-y,1/2+z
loop_
_atom_site_type_symbol
_atom_site_label
_atom_site_fract_x
_atom_site_fract_y
_atom_site_fract_z
Si Si1 0.197731 0.194018 0.598397
Si Si2 0.678209 0.880323 0.757106
Si Si3 0.195222 0.565795 0.771438
Si Si4 0.215215 0.978103 0.016496
Si Si5 0.479514 0.650163 0.436228
O O1 0.250000 0.250000 0.500000
O O2 0.348895 0.156609 0.354344
O O3 0.000000 0.177380 0.750000
O O4 0.166038 0.185607 0.808399
O O5 0.779267 0.930971 0.596967
O O6 0.808346 0.853213 0.734167
O O7 0.472600 0.893500 0.050342
O O8 0.162983 0.524419 0.681457
O O9 0.391638 0.594788 0.528540
O O10 0.198554 0.536660 0.922706
O O11 0.000000 0.996500 0.250000
O O12 0.500000 0.672970 0.250000
#
# Coordination Sequence:
#
# PCOD8149401 Si02
#       5
#     8   8   8   8   8
#     4  10  23  45  78 104 131 181 232 287 358 427
#     4  11  24  46  66 101 139 182 239 287 346 426
#     4  12  26  42  70  96 145 191 238 291 344 415
#     4  12  23  43  64  99 141 187 242 288 344 414
#     4  11  25  47  69 101 144 180 229 298 348 410
#
# _framework density 23.262217
#
# number of rings (size 3 to 8) (size 9 to 14) (size 15 to 20)
#    0.000    0.800    4.000    3.000    5.600    0.800 
#    0.000    4.000    0.000    0.000    0.000    0.000 
#    0.000    0.000    0.000    0.000    0.000    0.000 
#
# Total GULP energy -247995.816708 kJ/mol
# GULP energy per Si atom -12399.790835 kJ/mol
# Density = 2.320927 g / cm^3
# Si number density = 23.262217 Si / 1000 Ang^3
#
#
#
# Elastic Constant Matrix: (Units=GPa)
#
#
# Indices 1 2 3 4 5 6 
#
# 1 98.2010 17.9518 51.7861 0.0000 11.0983 0.0000
# 2 17.9518 130.2442 54.0318 0.0000 11.9660 0.0000
# 3 51.7861 54.0318 108.0377 0.0000 16.3360 0.0000
# 4 0.0000 0.0000 0.0000 43.2298 0.0000 0.5258
# 5 11.0983 11.9660 16.3360 0.0000 42.5881 0.0000
# 6 0.0000 0.0000 0.0000 0.5258 0.0000 24.0451
#
#
#
# Elastic Compliance Matrix: (Units=1/GPa)
#
#
# Indices 1 2 3 4 5 6 
#
# 1 0.013803 0.001108 -0.006984 0.000000 -0.001229 0.000000
# 2 0.001108 0.009811 -0.005284 0.000000 -0.001019 0.000000
# 3 -0.006984 -0.005284 0.015655 0.000000 -0.002700 0.000000
# 4 0.000000 0.000000 0.000000 0.023138 0.000000 -0.000506
# 5 -0.001229 -0.001019 -0.002700 0.000000 0.025123 0.000000
# 6 0.000000 0.000000 0.000000 -0.000506 0.000000 0.041600
#
#
# Mechanical properties :
#
#
# Convention : Reuss Voigt Hill
#
# Bulk Modulus (GPa) = 59.00405 64.89138 61.94772
# Shear Modulus (GPa) = 31.82723 36.15348 33.99036
#
# Velocity S-wave (km/s) = 3.70292 3.94658 3.82669
# Velocity P-wave (km/s) = 6.61075 6.98022 6.79799
#
# Compressibility (1/GPa) = 0.01694799
#
# Stress axis : x y z
#
# Youngs Moduli (GPa) = 72.44924 101.93012 63.87908
#
# Poissons Ratio (x) = -0.11293 0.44616
# Poissons Ratio (y) = -0.08027 0.33751
# Poissons Ratio (z) = 0.50601 0.53855
#
# Static dielectric constant tensor:
#      x y z
#    x 4.042070 0.000000 0.067710 
#    y 0.000000 3.891760 0.000000 
#    z 0.067710 0.000000 4.516240 
# 
# 
# High freq. dielectric constant tensor:
#      x y z
#    x 1.914960 0.000000 -0.006380 
#    y 0.000000 1.900630 0.000000 
#    z -0.006380 0.000000 1.928960 
# 
# From -- ./inp_files/34981.got.cif
#   From: 2010.06.25/outbox.cif.g09.slc.cpg/sg15_18_cif.got.tgz:34981.got - 2010.06.28 07:06:18.
