data_PCOD8149465
_publ_section_title
;
Structure prediction by ZEFSAII (Michael W. Deem and Ramdas Pophale) SiO2 
 PCOD8149465
Probable space group: C 2/C
;
_chemical_formula_sum "Si O2"
_cell_formula_units_Z 56
_cell_length_a 7.843495
_cell_length_b 17.137524
_cell_length_c 19.854164
_cell_angle_alpha 90.000000
_cell_angle_beta 63.796566
_cell_angle_gamma 90.000000
_cell_volume 2394.495439
_symmetry_space_group_name_H-M "C 2/C"
_symmetry_group_IT_number 15
_symmetry_cell_setting 'monoclinic'
loop_
_space_group_symop_operation_xyz
x,y,z
-x,y,1/2-z
-x,-y,-z
x,-y,1/2+z
1/2+x,1/2+y,z
1/2-x,1/2+y,1/2-z
1/2-x,1/2-y,-z
1/2+x,1/2-y,1/2+z
loop_
_atom_site_type_symbol
_atom_site_label
_atom_site_fract_x
_atom_site_fract_y
_atom_site_fract_z
Si Si1 0.711753 0.304905 0.875194
Si Si2 0.639293 0.097236 0.032677
Si Si3 0.500000 0.699362 0.750000
Si Si4 0.989140 0.085580 0.876757
Si Si5 0.428495 0.805634 0.475747
Si Si6 0.000000 0.475498 0.750000
Si Si7 0.357240 0.940264 0.396821
Si Si8 0.576692 0.421935 0.808171
O O1 0.834027 0.365646 0.898018
O O2 0.827563 0.256339 0.799233
O O3 0.614764 0.247857 0.945633
O O4 0.539720 0.352388 0.867850
O O5 0.633499 0.004116 0.044516
O O6 0.799912 0.113479 0.947869
O O7 0.444116 0.137227 0.038559
O O8 0.547712 0.646393 0.807568
O O9 0.145678 0.075812 0.907410
O O10 0.966178 0.000892 0.846227
O O11 0.250000 0.750000 0.500000
O O12 0.439659 0.859253 0.407969
O O13 0.995516 0.532451 0.814221
O O14 0.808419 0.425787 0.773075
O O15 0.500000 0.393943 0.750000
#
# Coordination Sequence:
#
# PCOD8149465 Si02
#       8
#     8   8   4   8   8   4   8   8
#     4  12  27  48  71 111 143 193 243 306 380 439
#     4  12  25  49  74 101 145 200 244 304 366 460
#     4  12  27  46  78 101 148 194 242 312 391 440
#     4  11  24  46  77 102 140 194 252 298 375 456
#     4  12  29  45  68 110 150 188 248 310 381 440
#     4  10  23  46  72 107 144 186 256 302 371 438
#     4  11  26  44  75 103 144 192 245 309 367 454
#     4  11  25  45  77 107 146 195 252 308 365 458
#
# _framework density 23.386973000000001
#
# number of rings (size 3 to 8) (size 9 to 14) (size 15 to 20)
#    0.000    0.571    5.000    2.571   10.000    2.286 
#    0.000    0.000    0.000    0.000    0.000    0.000 
#    0.000    0.000    0.000    0.000    0.000    0.000 
#
# Total GULP energy -347072.270816 kJ/mol
# GULP energy per Si atom -12395.438243 kJ/mol
# Density = 2.333374 g / cm^3
# Si number density = 23.386973 Si / 1000 Ang^3
#
#
#
# Elastic Constant Matrix: (Units=GPa)
#
#
# Indices 1 2 3 4 5 6 
#
# 1 93.7910 34.1407 23.9038 0.0000 23.6953 0.0000
# 2 34.1407 133.8569 35.8329 0.0000 13.0244 0.0000
# 3 23.9038 35.8329 95.3690 0.0000 11.7588 0.0000
# 4 0.0000 0.0000 0.0000 25.4061 0.0000 12.6570
# 5 23.6953 13.0244 11.7588 0.0000 40.7684 0.0000
# 6 0.0000 0.0000 0.0000 12.6570 0.0000 42.8479
#
#
#
# Elastic Compliance Matrix: (Units=1/GPa)
#
#
# Indices 1 2 3 4 5 6 
#
# 1 0.013649 -0.002375 -0.001705 0.000000 -0.006683 0.000000
# 2 -0.002375 0.008851 -0.002646 0.000000 -0.000684 0.000000
# 3 -0.001705 -0.002646 0.012111 0.000000 -0.001657 0.000000
# 4 0.000000 0.000000 0.000000 0.046152 0.000000 -0.013633
# 5 -0.006683 -0.000684 -0.001657 0.000000 0.029110 0.000000
# 6 0.000000 0.000000 0.000000 -0.013633 0.000000 0.027365
#
#
# Mechanical properties :
#
#
# Convention : Reuss Voigt Hill
#
# Bulk Modulus (GPa) = 47.25761 56.75240 52.00500
# Shear Modulus (GPa) = 31.69688 37.08046 34.38867
#
# Velocity S-wave (km/s) = 3.68546 3.98618 3.83877
# Velocity P-wave (km/s) = 6.19361 6.74578 6.47558
#
# Compressibility (1/GPa) = 0.02116062
#
# Stress axis : x y z
#
# Youngs Moduli (GPa) = 73.26411 112.97827 82.56652
#
# Poissons Ratio (x) = 0.26828 0.14077
# Poissons Ratio (y) = 0.17398 0.21848
# Poissons Ratio (z) = 0.12491 0.29895
#
# Static dielectric constant tensor:
#      x y z
#    x 4.148560 0.000000 0.034580 
#    y 0.000000 4.695550 0.000000 
#    z 0.034580 0.000000 4.429420 
# 
# 
# High freq. dielectric constant tensor:
#      x y z
#    x 1.917080 0.000000 0.017060 
#    y 0.000000 1.947650 0.000000 
#    z 0.017060 0.000000 1.923440 
# 
# From -- ./inp_files/232620.got.cif
#   From: 2010.06.25/outbox.cif.g09.slc.cpg/sg15_117_cif.got.tgz:232620.got - 2010.06.28 07:06:18.
