data_PCOD8149272
_publ_section_title
;
Structure prediction by ZEFSAII (Michael W. Deem and Ramdas Pophale) SiO2 
 PCOD8149272
Probable space group: C 2/C
;
_chemical_formula_sum "Si O2"
_cell_formula_units_Z 56
_cell_length_a 12.069543
_cell_length_b 27.305231
_cell_length_c 8.511166
_cell_angle_alpha 90.000000
_cell_angle_beta 114.219862
_cell_angle_gamma 90.000000
_cell_volume 2558.056216
_symmetry_space_group_name_H-M "C 2/C"
_symmetry_group_IT_number 15
_symmetry_cell_setting 'monoclinic'
loop_
_space_group_symop_operation_xyz
x,y,z
-x,y,1/2-z
-x,-y,-z
x,-y,1/2+z
1/2+x,1/2+y,z
1/2-x,1/2+y,1/2-z
1/2-x,1/2-y,-z
1/2+x,1/2-y,1/2+z
loop_
_atom_site_type_symbol
_atom_site_label
_atom_site_fract_x
_atom_site_fract_y
_atom_site_fract_z
Si Si1 0.062070 0.757174 0.944372
Si Si2 0.000000 0.517263 0.750000
Si Si3 0.377712 0.938817 0.469376
Si Si4 0.129598 0.112421 0.774864
Si Si5 0.116459 0.131705 0.414399
Si Si6 0.210481 0.675604 0.178835
Si Si7 0.000000 0.364109 0.750000
Si Si8 0.356458 0.712173 0.527728
O O1 0.112696 0.810259 0.937223
O O2 0.000000 0.735612 0.750000
O O3 0.982236 0.759378 0.061750
O O4 0.170721 0.719914 0.044365
O O5 0.083396 0.550495 0.686368
O O6 0.902622 0.485585 0.594226
O O7 0.237708 0.921480 0.404430
O O8 0.462624 0.895025 0.576445
O O9 0.131128 0.105832 0.588627
O O10 0.000000 0.090155 0.750000
O O11 0.136878 0.169454 0.835796
O O12 0.244983 0.127037 0.392474
O O13 0.000000 0.111010 0.250000
O O14 0.111712 0.667620 0.256273
O O15 0.333798 0.688317 0.344171
O O16 0.250000 0.750000 0.500000
#
# Coordination Sequence:
#
# PCOD8149272 Si02
#       8
#     8   4   8   8   8   8   4   8
#     4  11  23  38  55  81 121 182 234 280 327 370
#     4   9  22  50  74 104 136 160 204 264 352 414
#     4  10  23  44  75 102 132 168 201 268 337 415
#     4  12  24  42  67 100 135 175 225 273 335 395
#     4  11  23  41  58  84 126 182 229 279 324 379
#     4  12  23  39  56  85 128 171 233 283 321 376
#     4  11  24  40  62 102 132 162 218 272 326 396
#     4  12  24  38  58  84 132 182 228 276 329 370
#
# _framework density 21.891621000000001
#
# number of rings (size 3 to 8) (size 9 to 14) (size 15 to 20)
#    0.000    0.857    5.714    2.143    4.000    0.000 
#    0.000    0.714    0.000    0.000    0.000    0.000 
#    0.000    0.000    0.000    0.000    0.000    0.000 
#
# Total GULP energy -346998.317115 kJ/mol
# GULP energy per Si atom -12392.797040 kJ/mol
# Density = 2.184180 g / cm^3
# Si number density = 21.891621 Si / 1000 Ang^3
#
#
#
# Elastic Constant Matrix: (Units=GPa)
#
#
# Indices 1 2 3 4 5 6 
#
# 1 135.6185 19.7568 22.4291 0.0000 -4.8340 0.0000
# 2 19.7568 39.7265 16.4161 0.0000 3.2260 0.0000
# 3 22.4291 16.4161 103.8277 0.0000 -4.3204 0.0000
# 4 0.0000 0.0000 0.0000 22.3358 0.0000 -0.7749
# 5 -4.8340 3.2260 -4.3204 0.0000 41.9174 0.0000
# 6 0.0000 0.0000 0.0000 -0.7749 0.0000 23.9085
#
#
#
# Elastic Compliance Matrix: (Units=1/GPa)
#
#
# Indices 1 2 3 4 5 6 
#
# 1 0.008134 -0.003667 -0.001131 0.000000 0.001104 0.000000
# 2 -0.003667 0.028853 -0.003896 0.000000 -0.003045 0.000000
# 3 -0.001131 -0.003896 0.010544 0.000000 0.001256 0.000000
# 4 0.000000 0.000000 0.000000 0.044822 0.000000 0.001453
# 5 0.001104 -0.003045 0.001256 0.000000 0.024348 0.000000
# 6 0.000000 0.000000 0.000000 0.001453 0.000000 0.041873
#
#
# Mechanical properties :
#
#
# Convention : Reuss Voigt Hill
#
# Bulk Modulus (GPa) = 33.17717 44.04185 38.60951
# Shear Modulus (GPa) = 26.87999 32.33706 29.60853
#
# Velocity S-wave (km/s) = 3.50789 3.84753 3.68163
# Velocity P-wave (km/s) = 5.62096 6.31663 5.97892
#
# Compressibility (1/GPa) = 0.03014121
#
# Stress axis : x y z
#
# Youngs Moduli (GPa) = 122.93529 34.65790 94.83988
#
# Poissons Ratio (x) = 0.12711 0.10730
# Poissons Ratio (y) = 0.45086 0.36954
# Poissons Ratio (z) = 0.13909 0.13504
#
# Static dielectric constant tensor:
#      x y z
#    x 4.246900 0.000000 -0.101280 
#    y 0.000000 3.459680 0.000000 
#    z -0.101280 0.000000 4.320540 
# 
# 
# High freq. dielectric constant tensor:
#      x y z
#    x 1.883350 0.000000 -0.006320 
#    y 0.000000 1.804120 0.000000 
#    z -0.006320 0.000000 1.881980 
# 
# From -- ./inp_files/35804.got.cif
#   From: 2010.06.25/outbox.cif.g09.slc.cpg/sg15_18_cif.got.tgz:35804.got - 2010.06.28 07:06:18.
