data_PCOD8149677
_publ_section_title
;
Structure prediction by ZEFSAII (Michael W. Deem and Ramdas Pophale) SiO2 
 PCOD8149677
Probable space group: C 2/C
;
_chemical_formula_sum "Si O2"
_cell_formula_units_Z 60
_cell_length_a 6.864114
_cell_length_b 17.162765
_cell_length_c 25.097648
_cell_angle_alpha 90.000000
_cell_angle_beta 82.755456
_cell_angle_gamma 90.000000
_cell_volume 2933.079712
_symmetry_space_group_name_H-M "C 2/C"
_symmetry_group_IT_number 15
_symmetry_cell_setting 'monoclinic'
loop_
_space_group_symop_operation_xyz
x,y,z
-x,y,1/2-z
-x,-y,-z
x,-y,1/2+z
1/2+x,1/2+y,z
1/2-x,1/2+y,1/2-z
1/2-x,1/2-y,-z
1/2+x,1/2-y,1/2+z
loop_
_atom_site_type_symbol
_atom_site_label
_atom_site_fract_x
_atom_site_fract_y
_atom_site_fract_z
Si Si1 0.667972 0.650149 0.705613
Si Si2 0.486830 0.442131 0.383649
Si Si3 0.109920 0.175992 0.054675
Si Si4 0.942689 0.207560 0.559502
Si Si5 0.728644 0.208265 0.127068
Si Si6 0.000000 0.442041 0.250000
Si Si7 0.133258 0.522242 0.445068
Si Si8 0.358014 0.959758 0.854329
O O1 0.500000 0.683224 0.750000
O O2 0.591436 0.578472 0.672347
O O3 0.749222 0.721986 0.668241
O O4 0.833204 0.616335 0.737515
O O5 0.598148 0.367089 0.402464
O O6 0.306452 0.459890 0.429886
O O7 0.635230 0.514680 0.375966
O O8 0.231400 0.253130 0.063103
O O9 0.262678 0.105020 0.050648
O O10 0.941339 0.174445 0.104557
O O11 0.997388 0.181352 0.001966
O O12 0.109617 0.262676 0.579195
O O13 0.624232 0.132995 0.156724
O O14 0.072447 0.496711 0.200390
O O15 0.000000 0.500000 0.500000
O O16 0.996594 0.519245 0.398507
#
# Coordination Sequence:
#
# PCOD8149677 Si02
#       8
#     8   8   8   8   8   4   8   8
#     4  11  25  46  68  99 131 176 228 284 341 413
#     4  11  24  44  70  98 137 181 228 277 345 405
#     4  11  23  42  64  99 139 183 223 277 332 404
#     4  10  24  40  66  96 139 181 225 269 330 408
#     4  11  25  42  68  95 137 177 224 275 344 402
#     4  12  26  46  74  98 134 174 232 286 344 404
#     4  12  26  42  69 104 141 180 232 279 343 409
#     4  12  25  45  70 102 135 180 225 287 338 407
#
# _framework density 20.456312
#
# number of rings (size 3 to 8) (size 9 to 14) (size 15 to 20)
#    0.000    0.800    5.333    1.200    4.667    5.333 
#    0.000    1.333    0.000    0.000    0.000    0.000 
#    0.000    0.000    0.000    0.000    0.000    0.000 
#
# Total GULP energy -372033.754950 kJ/mol
# GULP energy per Si atom -12401.125165 kJ/mol
# Density = 2.040975 g / cm^3
# Si number density = 20.456312 Si / 1000 Ang^3
#
#
#
# Elastic Constant Matrix: (Units=GPa)
#
#
# Indices 1 2 3 4 5 6 
#
# 1 104.0105 49.0538 71.3471 0.0000 -0.2393 0.0000
# 2 49.0538 115.3667 56.8343 0.0000 12.0153 0.0000
# 3 71.3471 56.8343 140.9580 0.0000 3.8143 0.0000
# 4 0.0000 0.0000 0.0000 30.2743 0.0000 -2.1648
# 5 -0.2393 12.0153 3.8143 0.0000 41.5078 0.0000
# 6 0.0000 0.0000 0.0000 -2.1648 0.0000 33.0984
#
#
#
# Elastic Compliance Matrix: (Units=1/GPa)
#
#
# Indices 1 2 3 4 5 6 
#
# 1 0.015886 -0.003686 -0.006602 0.000000 0.001765 0.000000
# 2 -0.003686 0.011991 -0.002882 0.000000 -0.003228 0.000000
# 3 -0.006602 -0.002882 0.011605 0.000000 -0.000270 0.000000
# 4 0.000000 0.000000 0.000000 0.033187 0.000000 0.002171
# 5 0.001765 -0.003228 -0.000270 0.000000 0.025061 0.000000
# 6 0.000000 0.000000 0.000000 0.002171 0.000000 0.030355
#
#
# Mechanical properties :
#
#
# Convention : Reuss Voigt Hill
#
# Bulk Modulus (GPa) = 76.09096 79.42283 77.75690
# Shear Modulus (GPa) = 31.48501 33.18275 32.33388
#
# Velocity S-wave (km/s) = 3.92744 4.03193 3.98003
# Velocity P-wave (km/s) = 7.60552 7.78365 7.69510
#
# Compressibility (1/GPa) = 0.01314217
#
# Stress axis : x y z
#
# Youngs Moduli (GPa) = 62.94945 83.39520 86.16678
#
# Poissons Ratio (x) = 0.30739 0.56890
# Poissons Ratio (y) = 0.23202 0.24832
# Poissons Ratio (z) = 0.41561 0.24033
#
# Static dielectric constant tensor:
#      x y z
#    x 3.709320 0.000000 0.135950 
#    y 0.000000 3.701980 0.000000 
#    z 0.135950 0.000000 3.712040 
# 
# 
# High freq. dielectric constant tensor:
#      x y z
#    x 1.808360 0.000000 0.006400 
#    y 0.000000 1.810290 0.000000 
#    z 0.006400 0.000000 1.801260 
# 
# From -- ./inp_files/286061.got.cif
#   From: 2010.06.25/outbox.cif.g09.slc.cpg/sg15_144_cif.got.tgz:286061.got - 2010.06.28 07:06:18.
