data_PCOD8149285
_publ_section_title
;
Structure prediction by ZEFSAII (Michael W. Deem and Ramdas Pophale) SiO2 
 PCOD8149285
Probable space group: C 2/C
;
_chemical_formula_sum "Si O2"
_cell_formula_units_Z 48
_cell_length_a 18.080350
_cell_length_b 6.843910
_cell_length_c 21.357422
_cell_angle_alpha 90.000000
_cell_angle_beta 61.931177
_cell_angle_gamma 90.000000
_cell_volume 2331.938542
_symmetry_space_group_name_H-M "C 2/C"
_symmetry_group_IT_number 15
_symmetry_cell_setting 'monoclinic'
loop_
_space_group_symop_operation_xyz
x,y,z
-x,y,1/2-z
-x,-y,-z
x,-y,1/2+z
1/2+x,1/2+y,z
1/2-x,1/2+y,1/2-z
1/2-x,1/2-y,-z
1/2+x,1/2-y,1/2+z
loop_
_atom_site_type_symbol
_atom_site_label
_atom_site_fract_x
_atom_site_fract_y
_atom_site_fract_z
Si Si1 0.383544 0.171552 0.725109
Si Si2 0.910406 0.340466 0.809854
Si Si3 0.932414 0.318023 0.384781
Si Si4 0.815893 0.943732 0.850103
Si Si5 0.011413 0.229131 0.000915
Si Si6 0.630867 0.012121 0.903490
O O1 0.479902 0.242316 0.682898
O O2 0.332054 0.353489 0.774453
O O3 0.371312 0.989735 0.775807
O O4 0.348320 0.105918 0.672080
O O5 0.917091 0.453791 0.873886
O O6 0.000000 0.263109 0.750000
O O7 0.848360 0.162470 0.842188
O O8 0.858677 0.183600 0.387258
O O9 0.938755 0.288770 0.456062
O O10 0.716710 0.951723 0.902855
O O11 0.919398 0.326291 0.035726
O O12 0.069957 0.319843 0.922386
O O13 0.000000 0.000000 0.000000
#
# Coordination Sequence:
#
# PCOD8149285 Si02
#       6
#     8   8   8   8   8   8
#     4   9  20  37  56  86 129 152 193 250 306 380
#     4   9  18  34  59  85 120 160 191 240 307 370
#     4   9  20  39  58  86 118 158 210 249 289 379
#     4  11  21  34  60  91 121 155 199 252 321 357
#     4  10  23  45  64  78 119 173 210 251 311 359
#     4  10  24  39  57  93 120 154 213 254 298 378
#
# _framework density 20.583734
#
# number of rings (size 3 to 8) (size 9 to 14) (size 15 to 20)
#    0.000    2.333    0.000    2.500    2.333   11.333 
#    0.000    1.667    0.000    0.000    0.000    0.000 
#    0.000    0.000    0.000    0.000    0.000    0.000 
#
# Total GULP energy -297537.443203 kJ/mol
# GULP energy per Si atom -12397.393467 kJ/mol
# Density = 2.053688 g / cm^3
# Si number density = 20.583734 Si / 1000 Ang^3
#
#
#
# Elastic Constant Matrix: (Units=GPa)
#
#
# Indices 1 2 3 4 5 6 
#
# 1 115.2452 45.0730 30.0495 0.0003 -20.6535 0.0012
# 2 45.0730 133.2884 32.4408 -0.0002 -17.4880 -0.0018
# 3 30.0495 32.4408 65.3550 -0.0004 0.7848 -0.0005
# 4 0.0003 -0.0002 -0.0004 21.6526 -0.0005 0.3036
# 5 -20.6535 -17.4880 0.7848 -0.0005 33.5915 -0.0027
# 6 0.0012 -0.0018 -0.0005 0.3036 -0.0027 28.4523
#
#
#
# Elastic Compliance Matrix: (Units=1/GPa)
#
#
# Indices 1 2 3 4 5 6 
#
# 1 0.011773 -0.002074 -0.004459 0.000000 0.006263 0.000000
# 2 -0.002074 0.009653 -0.003884 0.000000 0.003841 0.000001
# 3 -0.004459 -0.003884 0.019342 0.000000 -0.005215 0.000000
# 4 0.000000 0.000000 0.000000 0.046191 0.000001 -0.000493
# 5 0.006263 0.003841 -0.005215 0.000001 0.035742 0.000003
# 6 0.000000 0.000001 0.000000 -0.000493 0.000003 0.035152
#
#
# Mechanical properties :
#
#
# Convention : Reuss Voigt Hill
#
# Bulk Modulus (GPa) = 50.16549 58.77947 54.47248
# Shear Modulus (GPa) = 26.97861 30.49430 28.73645
#
# Velocity S-wave (km/s) = 3.62425 3.85317 3.74046
# Velocity P-wave (km/s) = 6.47595 6.95803 6.72131
#
# Compressibility (1/GPa) = 0.01993402
#
# Stress axis : x y z
#
# Youngs Moduli (GPa) = 84.93652 103.59189 51.70162
#
# Poissons Ratio (x) = 0.21489 0.23053
# Poissons Ratio (y) = 0.17619 0.20081
# Poissons Ratio (z) = 0.37872 0.40235
#
# Static dielectric constant tensor:
#      x y z
#    x 3.680170 -0.000010 0.084260 
#    y -0.000010 3.696200 0.000000 
#    z 0.084260 0.000000 3.734820 
# 
# 
# High freq. dielectric constant tensor:
#      x y z
#    x 1.798580 0.000000 0.000730 
#    y 0.000000 1.804910 0.000000 
#    z 0.000730 0.000000 1.792710 
# 
# From -- ./inp_files/275820.got.cif
#   From: 2010.06.25/outbox.cif.g09.slc.cpg/sg15_138_cif.got.tgz:275820.got - 2010.06.28 07:06:18.
