data_PCOD8149537
_publ_section_title
;
Structure prediction by ZEFSAII (Michael W. Deem and Ramdas Pophale) SiO2 
 PCOD8149537
Probable space group: C 2/C
;
_chemical_formula_sum "Si O2"
_cell_formula_units_Z 40
_cell_length_a 17.517703
_cell_length_b 5.112816
_cell_length_c 19.332348
_cell_angle_alpha 90.000000
_cell_angle_beta 109.026104
_cell_angle_gamma 90.000000
_cell_volume 1636.906267
_symmetry_space_group_name_H-M "C 2/C"
_symmetry_group_IT_number 15
_symmetry_cell_setting 'monoclinic'
loop_
_space_group_symop_operation_xyz
x,y,z
-x,y,1/2-z
-x,-y,-z
x,-y,1/2+z
1/2+x,1/2+y,z
1/2-x,1/2+y,1/2-z
1/2-x,1/2-y,-z
1/2+x,1/2-y,1/2+z
loop_
_atom_site_type_symbol
_atom_site_label
_atom_site_fract_x
_atom_site_fract_y
_atom_site_fract_z
Si Si1 0.351264 0.617824 0.691583
Si Si2 0.462919 0.686035 0.142198
Si Si3 0.318281 0.004447 0.563220
Si Si4 0.798963 0.390727 0.910669
Si Si5 0.566937 0.809297 0.653915
O O1 0.423421 0.401500 0.705034
O O2 0.261057 0.502687 0.665866
O O3 0.365280 0.762902 0.767462
O O4 0.360242 0.793891 0.625110
O O5 0.384078 0.759409 0.072712
O O6 0.511985 0.444610 0.123667
O O7 0.518064 0.940959 0.165718
O O8 0.236148 0.112559 0.573937
O O9 0.300739 0.912479 0.478494
O O10 0.887519 0.364890 0.904531
#
# Coordination Sequence:
#
# PCOD8149537 Si02
#       5
#     8   8   8   8   8
#     4  11  25  44  75  96 148 184 238 279 360 414
#     4  11  26  46  71 103 141 189 227 292 354 416
#     4  10  23  49  72 101 144 193 229 281 360 420
#     4  10  26  45  72 107 140 188 235 291 344 420
#     4  12  28  43  74 108 141 178 244 294 343 410
#
# _framework density 24.436340999999999
#
# number of rings (size 3 to 8) (size 9 to 14) (size 15 to 20)
#    0.000    1.200    2.000    1.200   14.000    1.600 
#    0.000    0.000    0.000    0.000    0.000    0.000 
#    0.000    0.000    0.000    0.000    0.000    0.000 
#
# Total GULP energy -247915.343212 kJ/mol
# GULP energy per Si atom -12395.767161 kJ/mol
# Density = 2.438072 g / cm^3
# Si number density = 24.436341 Si / 1000 Ang^3
#
#
#
# Elastic Constant Matrix: (Units=GPa)
#
#
# Indices 1 2 3 4 5 6 
#
# 1 103.2035 21.5378 6.5938 0.0000 -6.1179 0.0000
# 2 21.5378 94.6849 -3.5785 0.0000 0.6836 0.0000
# 3 6.5938 -3.5785 59.9270 0.0000 -9.8314 0.0000
# 4 0.0000 0.0000 0.0000 34.2865 0.0000 6.8813
# 5 -6.1179 0.6836 -9.8314 0.0000 26.9301 0.0000
# 6 0.0000 0.0000 0.0000 6.8813 0.0000 28.2229
#
#
#
# Elastic Compliance Matrix: (Units=1/GPa)
#
#
# Indices 1 2 3 4 5 6 
#
# 1 0.010376 -0.002411 -0.000946 0.000000 0.002073 0.000000
# 2 -0.002411 0.011145 0.000845 0.000000 -0.000522 0.000000
# 3 -0.000946 0.000845 0.017873 0.000000 0.006289 0.000000
# 4 0.000000 0.000000 0.000000 0.030667 0.000000 -0.007477
# 5 0.002073 -0.000522 0.006289 0.000000 0.039913 0.000000
# 6 0.000000 0.000000 0.000000 -0.007477 0.000000 0.037255
#
#
# Mechanical properties :
#
#
# Convention : Reuss Voigt Hill
#
# Bulk Modulus (GPa) = 29.09332 34.10239 31.59785
# Shear Modulus (GPa) = 30.54182 33.43870 31.99026
#
# Velocity S-wave (km/s) = 3.53916 3.70320 3.62211
# Velocity P-wave (km/s) = 5.35093 5.68074 5.51830
#
# Compressibility (1/GPa) = 0.03437216
#
# Stress axis : x y z
#
# Youngs Moduli (GPa) = 96.37581 89.72258 55.94975
#
# Poissons Ratio (x) = 0.21631 0.05290
# Poissons Ratio (y) = 0.23235 -0.04729
# Poissons Ratio (z) = 0.09113 -0.07583
#
# Static dielectric constant tensor:
#      x y z
#    x 4.328750 0.000000 0.343430 
#    y 0.000000 4.481350 0.000000 
#    z 0.343430 0.000000 4.214770 
# 
# 
# High freq. dielectric constant tensor:
#      x y z
#    x 1.976170 0.000000 0.025140 
#    y 0.000000 1.972070 0.000000 
#    z 0.025140 0.000000 1.960310 
# 
# From -- ./inp_files/246306.got.cif
#   From: 2010.06.25/outbox.cif.g09.slc.cpg/sg15_124_cif.got.tgz:246306.got - 2010.06.28 07:06:18.
