data_PCOD8149482
_publ_section_title
;
Structure prediction by ZEFSAII (Michael W. Deem and Ramdas Pophale) SiO2 
 PCOD8149482
Probable space group: C 2/C
;
_chemical_formula_sum "Si O2"
_cell_formula_units_Z 32
_cell_length_a 12.774670
_cell_length_b 11.903779
_cell_length_c 8.899114
_cell_angle_alpha 90.000000
_cell_angle_beta 59.564606
_cell_angle_gamma 90.000000
_cell_volume 1166.782189
_symmetry_space_group_name_H-M "C 2/C"
_symmetry_group_IT_number 15
_symmetry_cell_setting 'monoclinic'
loop_
_space_group_symop_operation_xyz
x,y,z
-x,y,1/2-z
-x,-y,-z
x,-y,1/2+z
1/2+x,1/2+y,z
1/2-x,1/2+y,1/2-z
1/2-x,1/2-y,-z
1/2+x,1/2-y,1/2+z
loop_
_atom_site_type_symbol
_atom_site_label
_atom_site_fract_x
_atom_site_fract_y
_atom_site_fract_z
Si Si1 0.662170 0.116842 0.472094
Si Si2 0.016029 0.223273 0.562103
Si Si3 0.317807 0.895883 0.194935
Si Si4 0.402522 0.534571 0.198183
O O1 0.597028 0.223786 0.446089
O O2 0.636978 0.114658 0.667544
O O3 0.807342 0.126633 0.335104
O O4 0.613536 0.003120 0.429153
O O5 0.140908 0.287631 0.429038
O O6 0.035747 0.092277 0.495279
O O7 0.000000 0.230765 0.750000
O O8 0.171771 0.918357 0.287594
O O9 0.500000 0.503325 0.250000
#
# Coordination Sequence:
#
# PCOD8149482 Si02
#       4
#     8   8   8   8
#     4  10  23  46  77 103 147 192 248 294 368 434
#     4  12  25  47  79 109 144 194 253 302 361 442
#     4  10  23  46  76 109 142 192 249 303 362 435
#     4  10  26  48  72 110 149 194 241 310 368 437
#
# _framework density 27.425857000000001
#
# number of rings (size 3 to 8) (size 9 to 14) (size 15 to 20)
#    1.500    0.000    0.000    4.500    0.000    6.000 
#    4.500    0.000    0.000    3.000    0.000    0.000 
#    0.000    0.000    0.000    0.000    0.000    0.000 
#
# Total GULP energy -198414.262084 kJ/mol
# GULP energy per Si atom -12400.891380 kJ/mol
# Density = 2.736343 g / cm^3
# Si number density = 27.425857 Si / 1000 Ang^3
#
#
#
# Elastic Constant Matrix: (Units=GPa)
#
#
# Indices 1 2 3 4 5 6 
#
# 1 210.3519 66.6972 91.4331 0.0000 8.1742 0.0000
# 2 66.6972 187.6387 98.9584 0.0000 22.6713 0.0000
# 3 91.4331 98.9584 250.6349 0.0000 42.0152 0.0000
# 4 0.0000 0.0000 0.0000 50.6074 0.0000 7.1329
# 5 8.1742 22.6713 42.0152 0.0000 59.9806 0.0000
# 6 0.0000 0.0000 0.0000 7.1329 0.0000 -27.1306
#
#
#
# Elastic Compliance Matrix: (Units=1/GPa)
#
#
# Indices 1 2 3 4 5 6 
#
# 1 0.005905 -0.001255 -0.001817 0.000000 0.000942 0.000000
# 2 -0.001255 0.007029 -0.002154 0.000000 -0.000977 0.000000
# 3 -0.001817 -0.002154 0.006034 0.000000 -0.003165 0.000000
# 4 0.000000 0.000000 0.000000 0.019054 0.000000 0.005009
# 5 0.000942 -0.000977 -0.003165 0.000000 0.019130 0.000000
# 6 0.000000 0.000000 0.000000 0.005009 0.000000 -0.035542
#
#
# Mechanical properties :
#
#
# Convention : Reuss Voigt Hill
#
# Bulk Modulus (GPa) = 117.40796 129.20032 123.30414
# Shear Modulus (GPa) = 143.26978 42.79392 93.03185
#
# Velocity S-wave (km/s) = 7.23549 3.95441 5.83051
# Velocity P-wave (km/s) = 10.61627 8.24991 9.50701
#
# Compressibility (1/GPa) = 0.00851731
#
# Stress axis : x y z
#
# Youngs Moduli (GPa) = 169.35431 142.26032 165.74034
#
# Poissons Ratio (x) = 0.17848 0.30109
# Poissons Ratio (y) = 0.21248 0.35699
# Poissons Ratio (z) = 0.30766 0.30642
#
# Static dielectric constant tensor:
#      x y z
#    x 4.828290 0.000000 -0.419140 
#    y 0.000000 5.141400 0.000000 
#    z -0.419140 0.000000 5.145600 
# 
# 
# High freq. dielectric constant tensor:
#      x y z
#    x 2.112570 0.000000 -0.020340 
#    y 0.000000 2.128770 0.000000 
#    z -0.020340 0.000000 2.138070 
# 
# From -- ./inp_files/27879.got.cif
#   From: 2010.06.25/outbox.cif.g09.slc.cpg/sg15_14_cif.got.tgz:27879.got - 2010.06.28 07:06:18.
