data_PCOD8149148
_publ_section_title
;
Structure prediction by ZEFSAII (Michael W. Deem and Ramdas Pophale) SiO2 
 PCOD8149148
Probable space group: C 2/C
;
_chemical_formula_sum "Si O2"
_cell_formula_units_Z 56
_cell_length_a 24.578134
_cell_length_b 11.823172
_cell_length_c 11.133675
_cell_angle_alpha 90.000000
_cell_angle_beta 49.724962
_cell_angle_gamma 90.000000
_cell_volume 2468.411478
_symmetry_space_group_name_H-M "C 2/C"
_symmetry_group_IT_number 15
_symmetry_cell_setting 'monoclinic'
loop_
_space_group_symop_operation_xyz
x,y,z
-x,y,1/2-z
-x,-y,-z
x,-y,1/2+z
1/2+x,1/2+y,z
1/2-x,1/2+y,1/2-z
1/2-x,1/2-y,-z
1/2+x,1/2-y,1/2+z
loop_
_atom_site_type_symbol
_atom_site_label
_atom_site_fract_x
_atom_site_fract_y
_atom_site_fract_z
Si Si1 0.650891 0.825900 0.434662
Si Si2 0.662661 0.535393 0.144376
Si Si3 0.927513 0.743023 0.040446
Si Si4 0.580860 0.046047 0.608095
Si Si5 0.924733 0.832805 0.294900
Si Si6 0.087171 0.266836 0.286659
Si Si7 0.699443 0.408710 0.331854
O O1 0.638133 0.712132 0.529362
O O2 0.595302 0.822861 0.404892
O O3 0.732731 0.826316 0.276658
O O4 0.631821 0.937864 0.537673
O O5 0.593088 0.457275 0.227558
O O6 0.641333 0.663378 0.198839
O O7 0.702265 0.491578 0.210018
O O8 0.705104 0.528657 0.954751
O O9 0.927598 0.744079 0.183025
O O10 0.872074 0.832836 0.063292
O O11 0.912048 0.612585 0.028711
O O12 0.006348 0.775161 0.878612
O O13 0.500000 0.007582 0.750000
O O14 0.609970 0.136811 0.661551
O O15 0.000000 0.838596 0.250000
#
# Coordination Sequence:
#
# PCOD8149148 Si02
#       7
#     8   8   8   8   8   8   8
#     4  12  27  44  68 105 145 190 235 288 359 437
#     4  11  26  47  72 107 145 188 239 296 367 423
#     4  10  23  44  68 104 134 189 239 299 349 419
#     4  10  24  41  70  98 136 187 239 295 344 418
#     4  11  24  42  72 104 141 180 236 301 355 418
#     4  11  24  45  75 100 139 188 243 295 355 419
#     4  11  27  44  72 106 149 190 233 297 361 435
#
# _framework density 22.686654000000001
#
# number of rings (size 3 to 8) (size 9 to 14) (size 15 to 20)
#    0.000    1.143    2.857    1.286    6.000    7.429 
#    0.000    0.000    0.000    0.000    0.000    0.000 
#    0.000    0.000    0.000    0.000    0.000    0.000 
#
# Total GULP energy -347100.859449 kJ/mol
# GULP energy per Si atom -12396.459266 kJ/mol
# Density = 2.263502 g / cm^3
# Si number density = 22.686654 Si / 1000 Ang^3
#
#
#
# Elastic Constant Matrix: (Units=GPa)
#
#
# Indices 1 2 3 4 5 6 
#
# 1 63.5266 18.8442 35.3655 0.0000 7.1941 0.0000
# 2 18.8442 85.6475 22.0269 0.0000 -2.3937 0.0000
# 3 35.3655 22.0269 101.4812 0.0000 12.5152 0.0000
# 4 0.0000 0.0000 0.0000 44.5326 0.0000 -17.2965
# 5 7.1941 -2.3937 12.5152 0.0000 31.5592 0.0000
# 6 0.0000 0.0000 0.0000 -17.2965 0.0000 46.4549
#
#
#
# Elastic Compliance Matrix: (Units=1/GPa)
#
#
# Indices 1 2 3 4 5 6 
#
# 1 0.020310 -0.002958 -0.006137 0.000000 -0.002420 0.000000
# 2 -0.002958 0.012931 -0.002082 0.000000 0.002481 0.000000
# 3 -0.006137 -0.002082 0.012924 0.000000 -0.003884 0.000000
# 4 0.000000 0.000000 0.000000 0.026252 0.000000 0.009774
# 5 -0.002420 0.002481 -0.003884 0.000000 0.033967 0.000000
# 6 0.000000 0.000000 0.000000 0.009774 0.000000 0.025166
#
#
# Mechanical properties :
#
#
# Convention : Reuss Voigt Hill
#
# Bulk Modulus (GPa) = 41.99813 44.79204 43.39509
# Shear Modulus (GPa) = 30.89486 36.13726 33.51606
#
# Velocity S-wave (km/s) = 3.69427 3.99543 3.84780
# Velocity P-wave (km/s) = 6.06212 6.40868 6.23781
#
# Compressibility (1/GPa) = 0.02381058
#
# Stress axis : x y z
#
# Youngs Moduli (GPa) = 49.23800 77.33171 77.37712
#
# Poissons Ratio (x) = 0.22873 0.47488
# Poissons Ratio (y) = 0.14563 0.16110
# Poissons Ratio (z) = 0.30219 0.16100
#
# Static dielectric constant tensor:
#      x y z
#    x 4.986670 0.000000 0.171420 
#    y 0.000000 3.888860 0.000000 
#    z 0.171420 0.000000 4.209410 
# 
# 
# High freq. dielectric constant tensor:
#      x y z
#    x 1.894480 0.000000 0.019150 
#    y 0.000000 1.890580 0.000000 
#    z 0.019150 0.000000 1.900150 
# 
# From -- ./inp_files/122638.got.cif
#   From: 2010.06.25/outbox.cif.g09.slc.cpg/sg15_62_cif.got.tgz:122638.got - 2010.06.28 07:06:18.
