data_PCOD8149385
_publ_section_title
;
Structure prediction by ZEFSAII (Michael W. Deem and Ramdas Pophale) SiO2 
 PCOD8149385
Probable space group: C 2/C
;
_chemical_formula_sum "Si O2"
_cell_formula_units_Z 40
_cell_length_a 14.158142
_cell_length_b 9.069238
_cell_length_c 14.224332
_cell_angle_alpha 90.000000
_cell_angle_beta 75.027714
_cell_angle_gamma 90.000000
_cell_volume 1764.448368
_symmetry_space_group_name_H-M "C 2/C"
_symmetry_group_IT_number 15
_symmetry_cell_setting 'monoclinic'
loop_
_space_group_symop_operation_xyz
x,y,z
-x,y,1/2-z
-x,-y,-z
x,-y,1/2+z
1/2+x,1/2+y,z
1/2-x,1/2+y,1/2-z
1/2-x,1/2-y,-z
1/2+x,1/2-y,1/2+z
loop_
_atom_site_type_symbol
_atom_site_label
_atom_site_fract_x
_atom_site_fract_y
_atom_site_fract_z
Si Si1 0.841052 0.586907 0.043310
Si Si2 0.419115 0.592224 0.167287
Si Si3 0.035795 0.767969 0.340156
Si Si4 0.873086 0.815327 0.878735
Si Si5 0.643871 0.244650 0.986737
O O1 0.889841 0.666730 0.120343
O O2 0.723510 0.585937 0.082443
O O3 0.883550 0.422466 0.034625
O O4 0.864552 0.659972 0.935842
O O5 0.405085 0.420063 0.196208
O O6 0.530989 0.608449 0.102321
O O7 0.393376 0.698205 0.262064
O O8 0.348825 0.645108 0.103046
O O9 0.000000 0.696898 0.250000
O O10 0.937628 0.803502 0.421931
O O11 0.750000 0.250000 0.000000
#
# Coordination Sequence:
#
# PCOD8149385 Si02
#       5
#     8   8   8   8   8
#     4  11  26  45  70 104 142 177 229 287 345 397
#     4  11  24  45  73  97 140 182 233 275 347 410
#     4  12  26  45  71 103 136 182 229 285 340 411
#     4  10  23  45  73  98 138 185 224 278 350 404
#     4  12  28  45  70 104 140 182 231 281 344 411
#
# _framework density 22.669975000000001
#
# number of rings (size 3 to 8) (size 9 to 14) (size 15 to 20)
#    0.000    0.800    4.000    2.400    8.400    1.600 
#    0.000    0.000    0.000    0.000    0.000    0.000 
#    0.000    0.000    0.000    0.000    0.000    0.000 
#
# Total GULP energy -247937.382159 kJ/mol
# GULP energy per Si atom -12396.869108 kJ/mol
# Density = 2.261838 g / cm^3
# Si number density = 22.669975 Si / 1000 Ang^3
#
#
#
# Elastic Constant Matrix: (Units=GPa)
#
#
# Indices 1 2 3 4 5 6 
#
# 1 117.7757 23.4446 51.3268 0.0000 22.3715 0.0000
# 2 23.4446 94.1860 43.3156 0.0000 12.1610 0.0000
# 3 51.3268 43.3156 123.9775 0.0000 20.0594 0.0000
# 4 0.0000 0.0000 0.0000 18.6265 0.0000 -1.6810
# 5 22.3715 12.1610 20.0594 0.0000 42.4035 0.0000
# 6 0.0000 0.0000 0.0000 -1.6810 0.0000 31.1044
#
#
#
# Elastic Compliance Matrix: (Units=1/GPa)
#
#
# Indices 1 2 3 4 5 6 
#
# 1 0.010953 -0.000512 -0.003730 0.000000 -0.003867 0.000000
# 2 -0.000512 0.012783 -0.004012 0.000000 -0.001498 0.000000
# 3 -0.003730 -0.004012 0.011378 0.000000 -0.002264 0.000000
# 4 0.000000 0.000000 0.000000 0.053950 0.000000 0.002916
# 5 -0.003867 -0.001498 -0.002264 0.000000 0.027124 0.000000
# 6 0.000000 0.000000 0.000000 0.002916 0.000000 0.032307
#
#
# Mechanical properties :
#
#
# Convention : Reuss Voigt Hill
#
# Bulk Modulus (GPa) = 53.74332 63.56816 58.65574
# Shear Modulus (GPa) = 29.20475 32.95036 31.07755
#
# Velocity S-wave (km/s) = 3.59312 3.81659 3.70654
# Velocity P-wave (km/s) = 6.40096 6.89372 6.65191
#
# Compressibility (1/GPa) = 0.01860696
#
# Stress axis : x y z
#
# Youngs Moduli (GPa) = 91.30202 78.22780 87.88713
#
# Poissons Ratio (x) = 0.04002 0.32781
# Poissons Ratio (y) = 0.04671 0.35260
# Poissons Ratio (z) = 0.34055 0.31385
#
# Static dielectric constant tensor:
#      x y z
#    x 4.291080 0.000000 0.041740 
#    y 0.000000 4.140080 0.000000 
#    z 0.041740 0.000000 4.093490 
# 
# 
# High freq. dielectric constant tensor:
#      x y z
#    x 1.910190 0.000000 0.006010 
#    y 0.000000 1.881000 0.000000 
#    z 0.006010 0.000000 1.897540 
# 
# From -- ./inp_files/150557.got.cif
#   From: 2010.06.25/outbox.cif.g09.slc.cpg/sg15_76_cif.got.tgz:150557.got - 2010.06.28 07:06:18.
