data_PCOD8149969
_publ_section_title
;
Structure prediction by ZEFSAII (Michael W. Deem and Ramdas Pophale) SiO2 
 PCOD8149969
Probable space group: C 2/C
;
_chemical_formula_sum "Si O2"
_cell_formula_units_Z 56
_cell_length_a 14.134199
_cell_length_b 11.188427
_cell_length_c 19.029046
_cell_angle_alpha 90.000000
_cell_angle_beta 65.550359
_cell_angle_gamma 90.000000
_cell_volume 2739.390300
_symmetry_space_group_name_H-M "C 2/C"
_symmetry_group_IT_number 15
_symmetry_cell_setting 'monoclinic'
loop_
_space_group_symop_operation_xyz
x,y,z
-x,y,1/2-z
-x,-y,-z
x,-y,1/2+z
1/2+x,1/2+y,z
1/2-x,1/2+y,1/2-z
1/2-x,1/2-y,-z
1/2+x,1/2-y,1/2+z
loop_
_atom_site_type_symbol
_atom_site_label
_atom_site_fract_x
_atom_site_fract_y
_atom_site_fract_z
Si Si1 0.719836 0.780229 0.931765
Si Si2 0.838287 0.765634 0.530416
Si Si3 0.606732 0.987774 0.427999
Si Si4 0.890646 0.209845 0.265081
Si Si5 0.038944 0.891917 0.440552
Si Si6 0.189405 0.942657 0.832810
Si Si7 0.409767 0.028830 0.727631
O O1 0.821174 0.757283 0.853434
O O2 0.624666 0.692377 0.948119
O O3 0.688733 0.918632 0.934065
O O4 0.750000 0.750000 0.000000
O O5 0.750000 0.750000 0.500000
O O6 0.850167 0.644687 0.571579
O O7 0.812691 0.867268 0.594911
O O8 0.941007 0.805679 0.454385
O O9 0.587343 0.021269 0.352338
O O10 0.500000 0.000000 0.500000
O O11 0.820671 0.134072 0.234057
O O12 0.926761 0.329876 0.214772
O O13 0.000000 0.143001 0.250000
O O14 0.097224 0.957245 0.357586
O O15 0.000000 0.000000 0.500000
O O16 0.300458 0.004963 0.798203
O O17 0.500000 0.972590 0.750000
#
# Coordination Sequence:
#
# PCOD8149969 Si02
#       7
#     8   8   8   8   8   8   8
#     4  12  27  42  71 103 135 177 229 276 346 407
#     4  11  26  43  68  99 138 181 223 278 343 396
#     4  12  26  43  68 101 140 172 231 285 331 411
#     4  11  25  43  68  98 135 179 224 280 338 395
#     4  10  24  43  66  93 135 177 220 269 334 402
#     4  11  23  46  67  95 140 177 231 274 336 409
#     4  11  25  43  69  97 138 182 221 280 343 396
#
# _framework density 20.442506000000002
#
# number of rings (size 3 to 8) (size 9 to 14) (size 15 to 20)
#    0.000    0.857    5.714    0.000   14.000    0.000 
#    0.000    0.000    0.000    0.000    0.000    0.000 
#    0.000    0.000    0.000    0.000    0.000    0.000 
#
# Total GULP energy -347073.849563 kJ/mol
# GULP energy per Si atom -12395.494627 kJ/mol
# Density = 2.039598 g / cm^3
# Si number density = 20.442506 Si / 1000 Ang^3
#
#
#
# Elastic Constant Matrix: (Units=GPa)
#
#
# Indices 1 2 3 4 5 6 
#
# 1 153.1771 39.0321 69.6166 0.0000 -4.2115 0.0000
# 2 39.0321 87.6033 31.7234 0.0000 0.4014 0.0000
# 3 69.6166 31.7234 128.4336 0.0000 -0.5044 0.0000
# 4 0.0000 0.0000 0.0000 28.1203 0.0000 -6.6247
# 5 -4.2115 0.4014 -0.5044 0.0000 44.0194 0.0000
# 6 0.0000 0.0000 0.0000 -6.6247 0.0000 33.6542
#
#
#
# Elastic Compliance Matrix: (Units=1/GPa)
#
#
# Indices 1 2 3 4 5 6 
#
# 1 0.009167 -0.002515 -0.004344 0.000000 0.000850 0.000000
# 2 -0.002515 0.013227 -0.001905 0.000000 -0.000383 0.000000
# 3 -0.004344 -0.001905 0.010611 0.000000 -0.000277 0.000000
# 4 0.000000 0.000000 0.000000 0.037291 0.000000 0.007341
# 5 0.000850 -0.000383 -0.000277 0.000000 0.022799 0.000000
# 6 0.000000 0.000000 0.000000 0.007341 0.000000 0.031159
#
#
# Mechanical properties :
#
#
# Convention : Reuss Voigt Hill
#
# Bulk Modulus (GPa) = 64.61930 72.21758 68.41844
# Shear Modulus (GPa) = 34.02697 36.41489 35.22093
#
# Velocity S-wave (km/s) = 4.08428 4.22516 4.15532
# Velocity P-wave (km/s) = 7.34307 7.69458 7.52088
#
# Compressibility (1/GPa) = 0.01547525
#
# Stress axis : x y z
#
# Youngs Moduli (GPa) = 109.08539 75.60015 94.24600
#
# Poissons Ratio (x) = 0.19015 0.40944
# Poissons Ratio (y) = 0.27437 0.17958
# Poissons Ratio (z) = 0.47391 0.14405
#
# Static dielectric constant tensor:
#      x y z
#    x 3.838090 0.000000 -0.210220 
#    y 0.000000 4.901910 0.000000 
#    z -0.210220 0.000000 3.769400 
# 
# 
# High freq. dielectric constant tensor:
#      x y z
#    x 1.805600 0.000000 -0.017810 
#    y 0.000000 1.806570 0.000000 
#    z -0.017810 0.000000 1.801640 
# 
# From -- ./inp_files/204342.got.cif
#   From: 2010.06.25/outbox.cif.g09.slc.cpg/sg15_103_cif.got.tgz:204342.got - 2010.06.28 07:06:18.
