data_PCOD8149103
_publ_section_title
;
Structure prediction by ZEFSAII (Michael W. Deem and Ramdas Pophale) SiO2 
 PCOD8149103
Probable space group: C 2/C
;
_chemical_formula_sum "Si O2"
_cell_formula_units_Z 64
_cell_length_a 24.073268
_cell_length_b 17.079486
_cell_length_c 15.065356
_cell_angle_alpha 90.000000
_cell_angle_beta 153.290518
_cell_angle_gamma 90.000000
_cell_volume 2784.113275
_symmetry_space_group_name_H-M "C 2/C"
_symmetry_group_IT_number 15
_symmetry_cell_setting 'monoclinic'
loop_
_space_group_symop_operation_xyz
x,y,z
-x,y,1/2-z
-x,-y,-z
x,-y,1/2+z
1/2+x,1/2+y,z
1/2-x,1/2+y,1/2-z
1/2-x,1/2-y,-z
1/2+x,1/2-y,1/2+z
loop_
_atom_site_type_symbol
_atom_site_label
_atom_site_fract_x
_atom_site_fract_y
_atom_site_fract_z
Si Si1 0.280737 0.007847 0.241312
Si Si2 0.263960 0.180841 0.451301
Si Si3 0.241679 0.981750 0.985070
Si Si4 0.083559 0.763581 0.444772
Si Si5 0.470947 0.456257 0.546952
Si Si6 0.627331 0.916459 0.970137
Si Si7 0.497080 0.298112 0.509712
Si Si8 0.841007 0.323930 0.875420
O O1 0.349000 0.083338 0.378891
O O2 0.348556 0.939151 0.392726
O O3 0.299122 0.006075 0.161751
O O4 0.134388 0.002999 0.050710
O O5 0.250000 0.250000 0.500000
O O6 0.311293 0.099747 0.560767
O O7 0.349174 0.203971 0.489592
O O8 0.131090 0.166986 0.219198
O O9 0.095471 0.960501 0.784748
O O10 0.267094 0.048669 0.946334
O O11 0.117452 0.676824 0.459241
O O12 0.216076 0.802822 0.644851
O O13 0.000000 0.804816 0.250000
O O14 0.994139 0.775551 0.402044
O O15 0.500000 0.500000 0.500000
O O16 0.417433 0.370000 0.438792
O O17 0.500000 0.951858 0.750000
O O18 0.460725 0.217455 0.505199
#
# Coordination Sequence:
#
# PCOD8149103 Si02
#       8
#     8   8   8   8   8   8   8   8
#     4  12  25  43  71 101 138 179 229 286 345 426
#     4  10  23  44  66  97 136 170 229 284 333 420
#     4  11  25  43  69 103 132 183 231 289 359 394
#     4  10  24  44  64  96 133 176 231 276 334 422
#     4  11  21  44  73 100 137 171 230 294 347 408
#     4  11  25  46  66  94 139 184 233 281 336 423
#     4  10  24  41  69  98 132 177 224 284 348 398
#     4  11  24  44  65 102 136 173 227 280 348 403
#
# _framework density 22.987570000000002
#
# number of rings (size 3 to 8) (size 9 to 14) (size 15 to 20)
#    0.000    1.250    2.500    2.625    8.750    4.500 
#    0.000    0.000    0.000    0.000    0.000    0.000 
#    0.000    0.000    0.000    0.000    0.000    0.000 
#
# Total GULP energy -396509.453968 kJ/mol
# GULP energy per Si atom -12390.920437 kJ/mol
# Density = 2.293525 g / cm^3
# Si number density = 22.987570 Si / 1000 Ang^3
#
#
#
# Elastic Constant Matrix: (Units=GPa)
#
#
# Indices 1 2 3 4 5 6 
#
# 1 118.3562 26.8065 11.1771 0.0000 -25.7863 0.0000
# 2 26.8065 74.6400 -0.9605 0.0000 -5.7794 0.0000
# 3 11.1771 -0.9605 53.1737 0.0000 -18.9772 0.0000
# 4 0.0000 0.0000 0.0000 30.7071 0.0000 -1.4571
# 5 -25.7863 -5.7794 -18.9772 0.0000 43.0672 0.0000
# 6 0.0000 0.0000 0.0000 -1.4571 0.0000 39.1646
#
#
#
# Elastic Compliance Matrix: (Units=1/GPa)
#
#
# Indices 1 2 3 4 5 6 
#
# 1 0.010469 -0.003319 -0.000216 0.000000 0.005728 0.000000
# 2 -0.003319 0.014641 0.001132 0.000000 0.000476 0.000000
# 3 -0.000216 0.001132 0.022403 0.000000 0.009894 0.000000
# 4 0.000000 0.000000 0.000000 0.032623 0.000000 0.001214
# 5 0.005728 0.000476 0.009894 0.000000 0.031073 0.000000
# 6 0.000000 0.000000 0.000000 0.001214 0.000000 0.025578
#
#
# Mechanical properties :
#
#
# Convention : Reuss Voigt Hill
#
# Bulk Modulus (GPa) = 23.41559 35.57957 29.49758
# Shear Modulus (GPa) = 32.08612 36.53091 34.30851
#
# Velocity S-wave (km/s) = 3.74010 3.99075 3.86746
# Velocity P-wave (km/s) = 5.37210 6.06186 5.72737
#
# Compressibility (1/GPa) = 0.04270658
#
# Stress axis : x y z
#
# Youngs Moduli (GPa) = 95.51876 68.30056 44.63615
#
# Poissons Ratio (x) = 0.22671 0.00966
# Poissons Ratio (y) = 0.31705 -0.05054
# Poissons Ratio (z) = 0.02068 -0.07733
#
# Static dielectric constant tensor:
#      x y z
#    x 4.048220 0.000000 -0.219930 
#    y 0.000000 4.049790 0.000000 
#    z -0.219930 0.000000 4.514050 
# 
# 
# High freq. dielectric constant tensor:
#      x y z
#    x 1.905530 0.000000 -0.010710 
#    y 0.000000 1.909850 0.000000 
#    z -0.010710 0.000000 1.908140 
# 
# From -- ./inp_files/174251.got.cif
#   From: 2010.06.25/outbox.cif.g09.slc.cpg/sg15_88_cif.got.tgz:174251.got - 2010.06.28 07:06:18.
