data_PCOD8149319
_publ_section_title
;
Structure prediction by ZEFSAII (Michael W. Deem and Ramdas Pophale) SiO2 
 PCOD8149319
Probable space group: C 2/C
;
_chemical_formula_sum "Si O2"
_cell_formula_units_Z 56
_cell_length_a 22.913491
_cell_length_b 8.931076
_cell_length_c 14.112748
_cell_angle_alpha 90.000000
_cell_angle_beta 111.962817
_cell_angle_gamma 90.000000
_cell_volume 2678.466747
_symmetry_space_group_name_H-M "C 2/C"
_symmetry_group_IT_number 15
_symmetry_cell_setting 'monoclinic'
loop_
_space_group_symop_operation_xyz
x,y,z
-x,y,1/2-z
-x,-y,-z
x,-y,1/2+z
1/2+x,1/2+y,z
1/2-x,1/2+y,1/2-z
1/2-x,1/2-y,-z
1/2+x,1/2-y,1/2+z
loop_
_atom_site_type_symbol
_atom_site_label
_atom_site_fract_x
_atom_site_fract_y
_atom_site_fract_z
Si Si1 0.044435 0.831323 0.360998
Si Si2 0.362637 0.848050 0.029657
Si Si3 0.116202 0.569316 0.303430
Si Si4 0.160298 0.985968 0.970399
Si Si5 0.245011 0.466240 0.128504
Si Si6 0.540493 0.872456 0.572268
Si Si7 0.242975 0.868533 0.674621
O O1 0.090389 0.702764 0.351646
O O2 0.086793 0.968318 0.424071
O O3 0.000000 0.891972 0.250000
O O4 0.002568 0.766475 0.421367
O O5 0.330001 0.691561 0.034487
O O6 0.394324 0.915814 0.143789
O O7 0.312873 0.972744 0.967387
O O8 0.411190 0.810540 0.975615
O O9 0.077062 0.555187 0.183111
O O10 0.188965 0.595678 0.325886
O O11 0.195424 0.061423 0.902967
O O12 0.190252 0.040176 0.086448
O O13 0.226572 0.306940 0.161922
O O14 0.262313 0.584240 0.219846
O O15 0.500000 0.000000 0.500000
#
# Coordination Sequence:
#
# PCOD8149319 Si02
#       7
#     8   8   8   8   8   8   8
#     4  10  23  45  67  92 133 187 222 272 339 405
#     4  12  25  42  68 103 134 174 226 285 332 406
#     4  11  22  43  69  95 134 180 222 271 345 399
#     4  12  26  44  68 100 140 177 225 282 341 400
#     4  12  25  43  68 104 138 174 224 274 344 407
#     4  11  24  43  70  97 132 176 232 278 331 408
#     4  12  25  40  72 100 136 182 217 280 344 407
#
# _framework density 20.907484
#
# number of rings (size 3 to 8) (size 9 to 14) (size 15 to 20)
#    0.000    0.571    5.714    2.571    2.000    0.571 
#    2.571    0.000    0.000    0.000    0.000    0.000 
#    0.000    0.000    0.000    0.000    0.000    0.000 
#
# Total GULP energy -347387.534181 kJ/mol
# GULP energy per Si atom -12406.697649 kJ/mol
# Density = 2.085990 g / cm^3
# Si number density = 20.907484 Si / 1000 Ang^3
#
#
#
# Elastic Constant Matrix: (Units=GPa)
#
#
# Indices 1 2 3 4 5 6 
#
# 1 94.5118 1.7105 29.4498 0.0000 9.1551 0.0000
# 2 1.7105 95.3635 32.7608 0.0000 15.5665 0.0000
# 3 29.4498 32.7608 94.7413 0.0000 13.7788 0.0000
# 4 0.0000 0.0000 0.0000 33.7077 0.0000 4.3335
# 5 9.1551 15.5665 13.7788 0.0000 34.9166 0.0000
# 6 0.0000 0.0000 0.0000 4.3335 0.0000 29.4744
#
#
#
# Elastic Compliance Matrix: (Units=1/GPa)
#
#
# Indices 1 2 3 4 5 6 
#
# 1 0.011994 0.001501 -0.003917 0.000000 -0.002268 0.000000
# 2 0.001501 0.012612 -0.004193 0.000000 -0.004361 0.000000
# 3 -0.003917 -0.004193 0.013581 0.000000 -0.002463 0.000000
# 4 0.000000 0.000000 0.000000 0.030238 0.000000 -0.004446
# 5 -0.002268 -0.004361 -0.002463 0.000000 0.032151 0.000000
# 6 0.000000 0.000000 0.000000 -0.004446 0.000000 0.034581
#
#
# Mechanical properties :
#
#
# Convention : Reuss Voigt Hill
#
# Bulk Modulus (GPa) = 40.05295 45.82875 42.94085
# Shear Modulus (GPa) = 31.90837 34.33278 33.12057
#
# Velocity S-wave (km/s) = 3.91086 4.05671 3.98446
# Velocity P-wave (km/s) = 6.29221 6.62646 6.46150
#
# Compressibility (1/GPa) = 0.02496695
#
# Stress axis : x y z
#
# Youngs Moduli (GPa) = 83.37591 79.29130 73.63266
#
# Poissons Ratio (x) = -0.11900 0.28845
# Poissons Ratio (y) = -0.12513 0.30876
# Poissons Ratio (z) = 0.32661 0.33249
#
# Static dielectric constant tensor:
#      x y z
#    x 3.901490 0.000000 0.024310 
#    y 0.000000 3.642730 0.000000 
#    z 0.024310 0.000000 3.921070 
# 
# 
# High freq. dielectric constant tensor:
#      x y z
#    x 1.825520 0.000000 -0.001630 
#    y 0.000000 1.811610 0.000000 
#    z -0.001630 0.000000 1.830640 
# 
# From -- ./inp_files/172473.got.cif
#   From: 2010.06.25/outbox.cif.g09.slc.cpg/sg15_87_cif.got.tgz:172473.got - 2010.06.28 07:06:18.
