data_PCOD8149297
_publ_section_title
;
Structure prediction by ZEFSAII (Michael W. Deem and Ramdas Pophale) SiO2 
 PCOD8149297
Probable space group: C 2/C
;
_chemical_formula_sum "Si O2"
_cell_formula_units_Z 40
_cell_length_a 7.313623
_cell_length_b 20.318168
_cell_length_c 16.698368
_cell_angle_alpha 90.000000
_cell_angle_beta 45.599424
_cell_angle_gamma 90.000000
_cell_volume 1772.852057
_symmetry_space_group_name_H-M "C 2/C"
_symmetry_group_IT_number 15
_symmetry_cell_setting 'monoclinic'
loop_
_space_group_symop_operation_xyz
x,y,z
-x,y,1/2-z
-x,-y,-z
x,-y,1/2+z
1/2+x,1/2+y,z
1/2-x,1/2+y,1/2-z
1/2-x,1/2-y,-z
1/2+x,1/2-y,1/2+z
loop_
_atom_site_type_symbol
_atom_site_label
_atom_site_fract_x
_atom_site_fract_y
_atom_site_fract_z
Si Si1 0.437132 0.819562 0.096721
Si Si2 0.836769 0.567250 0.220413
Si Si3 0.249004 0.924530 0.273172
Si Si4 0.977475 0.827719 0.599105
Si Si5 0.739476 0.368967 0.999417
O O1 0.263290 0.869155 0.200638
O O2 0.435907 0.747905 0.139131
O O3 0.315474 0.816860 0.044991
O O4 0.727412 0.845415 0.004953
O O5 0.713208 0.495753 0.242302
O O6 0.623901 0.623861 0.300139
O O7 0.000000 0.560505 0.250000
O O8 0.014381 0.584343 0.090299
O O9 0.500000 0.919454 0.250000
O O10 0.001525 0.913600 0.403642
O O11 0.820190 0.832371 0.564948
#
# Coordination Sequence:
#
# PCOD8149297 Si02
#       5
#     8   8   8   8   8
#     4  11  24  41  68  99 127 170 214 263 321 381
#     4   9  23  41  67  93 128 175 211 264 321 382
#     4  11  23  42  67  93 131 172 214 265 319 384
#     4  10  23  45  65  96 133 165 215 264 317 382
#     4  11  23  42  66  94 127 172 212 266 323 378
#
# _framework density 22.562514
#
# number of rings (size 3 to 8) (size 9 to 14) (size 15 to 20)
#    0.000    1.600    2.000    1.200    2.800   10.400 
#    3.600    0.000    0.000    0.000    0.000    0.000 
#    0.000    0.000    0.000    0.000    0.000    0.000 
#
# Total GULP energy -248031.415797 kJ/mol
# GULP energy per Si atom -12401.570790 kJ/mol
# Density = 2.251116 g / cm^3
# Si number density = 22.562514 Si / 1000 Ang^3
#
#
#
# Elastic Constant Matrix: (Units=GPa)
#
#
# Indices 1 2 3 4 5 6 
#
# 1 62.0259 6.1758 10.2763 0.0000 2.9492 0.0000
# 2 6.1758 154.3186 81.4969 0.0000 -13.8131 0.0000
# 3 10.2763 81.4969 152.5475 -0.0001 -17.6745 0.0000
# 4 0.0000 0.0000 -0.0001 28.1969 0.0000 -1.7876
# 5 2.9492 -13.8131 -17.6745 0.0000 28.5332 0.0000
# 6 0.0000 0.0000 0.0000 -1.7876 0.0000 17.2599
#
#
#
# Elastic Compliance Matrix: (Units=1/GPa)
#
#
# Indices 1 2 3 4 5 6 
#
# 1 0.016483 -0.000205 -0.001303 0.000000 -0.002610 0.000000
# 2 -0.000205 0.009089 -0.004664 0.000000 0.001532 0.000000
# 3 -0.001303 -0.004664 0.009576 0.000000 0.003809 0.000000
# 4 0.000000 0.000000 0.000000 0.035699 0.000000 0.003697
# 5 -0.002610 0.001532 0.003809 0.000000 0.038417 0.000000
# 6 0.000000 0.000000 0.000000 0.003697 0.000000 0.058321
#
#
# Mechanical properties :
#
#
# Convention : Reuss Voigt Hill
#
# Bulk Modulus (GPa) = 43.85457 62.75443 53.30450
# Shear Modulus (GPa) = 26.66227 32.86087 29.76157
#
# Velocity S-wave (km/s) = 3.44133 3.82047 3.63584
# Velocity P-wave (km/s) = 5.93880 6.88006 6.42669
#
# Compressibility (1/GPa) = 0.02280264
#
# Stress axis : x y z
#
# Youngs Moduli (GPa) = 60.66952 110.02751 104.42549
#
# Poissons Ratio (x) = 0.02256 0.13609
# Poissons Ratio (y) = 0.01244 0.48706
# Poissons Ratio (z) = 0.07907 0.51319
#
# Static dielectric constant tensor:
#      x y z
#    x 3.958110 0.000000 -0.157140 
#    y 0.000000 4.186280 0.000000 
#    z -0.157140 0.000000 4.077800 
# 
# 
# High freq. dielectric constant tensor:
#      x y z
#    x 1.890630 0.000000 -0.013100 
#    y 0.000000 1.887970 0.000000 
#    z -0.013100 0.000000 1.890570 
# 
# From -- ./inp_files/76937.got.cif
#   From: 2010.06.25/outbox.cif.g09.slc.cpg/sg15_39_cif.got.tgz:76937.got - 2010.06.28 07:06:18.
