data_PCOD8149479
_publ_section_title
;
Structure prediction by ZEFSAII (Michael W. Deem and Ramdas Pophale) SiO2 
 PCOD8149479
Probable space group: C 2/C
;
_chemical_formula_sum "Si O2"
_cell_formula_units_Z 28
_cell_length_a 17.294802
_cell_length_b 7.897050
_cell_length_c 14.389735
_cell_angle_alpha 90.000000
_cell_angle_beta 34.653066
_cell_angle_gamma 90.000000
_cell_volume 1117.492502
_symmetry_space_group_name_H-M "C 2/C"
_symmetry_group_IT_number 15
_symmetry_cell_setting 'monoclinic'
loop_
_space_group_symop_operation_xyz
x,y,z
-x,y,1/2-z
-x,-y,-z
x,-y,1/2+z
1/2+x,1/2+y,z
1/2-x,1/2+y,1/2-z
1/2-x,1/2-y,-z
1/2+x,1/2-y,1/2+z
loop_
_atom_site_type_symbol
_atom_site_label
_atom_site_fract_x
_atom_site_fract_y
_atom_site_fract_z
Si Si1 0.149892 0.435772 0.115480
Si Si2 0.837552 0.064332 0.776520
Si Si3 0.856491 0.439349 0.683591
Si Si4 0.000000 0.884676 0.750000
O O1 0.186065 0.442541 0.188580
O O2 0.135624 0.233682 0.100104
O O3 0.000000 0.517163 0.250000
O O4 0.247921 0.556243 0.959256
O O5 0.867046 0.248230 0.708695
O O6 0.763910 0.949037 0.772639
O O7 0.981741 0.988989 0.671391
O O8 0.000000 0.500000 0.500000
#
# Coordination Sequence:
#
# PCOD8149479 Si02
#       4
#     8   8   8   4
#     4  10  23  46  76 104 160 189 255 302 382 440
#     4  12  26  47  76 112 153 202 250 314 379 447
#     4  12  26  47  75 113 150 199 257 311 375 455
#     4  10  24  44  78 114 150 196 246 304 380 446
#
# _framework density 25.056096
#
# number of rings (size 3 to 8) (size 9 to 14) (size 15 to 20)
#    0.857    0.000    2.857    3.429    2.000    4.571 
#    0.000    8.571    0.000    0.000    0.000    0.000 
#    0.000    0.000    0.000    0.000    0.000    0.000 
#
# Total GULP energy -173523.232050 kJ/mol
# GULP energy per Si atom -12394.516575 kJ/mol
# Density = 2.499907 g / cm^3
# Si number density = 25.056096 Si / 1000 Ang^3
#
#
#
# Elastic Constant Matrix: (Units=GPa)
#
#
# Indices 1 2 3 4 5 6 
#
# 1 245.5966 85.6685 62.3612 0.0000 0.4831 0.0000
# 2 85.6685 186.0759 70.3486 0.0002 -1.6248 0.0000
# 3 62.3612 70.3486 93.1981 0.0000 29.6277 0.0000
# 4 0.0000 0.0002 0.0000 31.4156 0.0000 1.3429
# 5 0.4831 -1.6248 29.6277 0.0000 43.4164 0.0000
# 6 0.0000 0.0000 0.0000 1.3429 0.0000 50.6859
#
#
#
# Elastic Compliance Matrix: (Units=1/GPa)
#
#
# Indices 1 2 3 4 5 6 
#
# 1 0.005333 -0.001147 -0.003411 0.000000 0.002225 0.000000
# 2 -0.001147 0.008864 -0.007704 0.000000 0.005602 0.000000
# 3 -0.003411 -0.007704 0.024145 0.000000 -0.016727 0.000000
# 4 0.000000 0.000000 0.000000 0.031867 0.000000 -0.000844
# 5 0.002225 0.005602 -0.016727 0.000000 0.034632 0.000000
# 6 0.000000 0.000000 0.000000 -0.000844 0.000000 0.019752
#
#
# Mechanical properties :
#
#
# Convention : Reuss Voigt Hill
#
# Bulk Modulus (GPa) = 72.36352 106.84745 89.60549
# Shear Modulus (GPa) = 32.52631 45.53639 39.03135
#
# Velocity S-wave (km/s) = 3.60688 4.26770 3.95113
# Velocity P-wave (km/s) = 6.80363 8.18659 7.52694
#
# Compressibility (1/GPa) = 0.01381912
#
# Stress axis : x y z
#
# Youngs Moduli (GPa) = 187.50176 112.82113 41.41705
#
# Poissons Ratio (x) = 0.12936 0.14125
# Poissons Ratio (y) = 0.21499 0.31908
# Poissons Ratio (z) = 0.63948 0.86918
#
# Static dielectric constant tensor:
#      x y z
#    x 5.530710 0.000000 -0.300320 
#    y 0.000000 4.425560 0.000000 
#    z -0.300320 0.000000 4.506020 
# 
# 
# High freq. dielectric constant tensor:
#      x y z
#    x 2.030770 0.000000 -0.015950 
#    y 0.000000 1.993700 0.000000 
#    z -0.015950 0.000000 1.996010 
# 
# From -- ./inp_files/150525.got.cif
#   From: 2010.06.25/outbox.cif.g09.slc.cpg/sg15_76_cif.got.tgz:150525.got - 2010.06.28 07:06:18.
