data_PCOD8149046
_publ_section_title
;
Structure prediction by ZEFSAII (Michael W. Deem and Ramdas Pophale) SiO2 
 PCOD8149046
Probable space group: C 2/C
;
_chemical_formula_sum "Si O2"
_cell_formula_units_Z 40
_cell_length_a 10.174471
_cell_length_b 12.001377
_cell_length_c 23.015094
_cell_angle_alpha 90.000000
_cell_angle_beta 34.289148
_cell_angle_gamma 90.000000
_cell_volume 1583.248399
_symmetry_space_group_name_H-M "C 2/C"
_symmetry_group_IT_number 15
_symmetry_cell_setting 'monoclinic'
loop_
_space_group_symop_operation_xyz
x,y,z
-x,y,1/2-z
-x,-y,-z
x,-y,1/2+z
1/2+x,1/2+y,z
1/2-x,1/2+y,1/2-z
1/2-x,1/2-y,-z
1/2+x,1/2-y,1/2+z
loop_
_atom_site_type_symbol
_atom_site_label
_atom_site_fract_x
_atom_site_fract_y
_atom_site_fract_z
Si Si1 0.080167 0.967042 0.810150
Si Si2 0.278077 0.341322 0.408602
Si Si3 0.757104 0.939136 0.131240
Si Si4 0.594165 0.107708 0.102462
Si Si5 0.201237 0.283709 0.952990
O O1 0.333594 0.939482 0.692927
O O2 0.915035 0.862082 0.857002
O O3 0.085030 0.007181 0.875762
O O4 0.967617 0.070400 0.815877
O O5 0.407257 0.222282 0.360497
O O6 0.197905 0.375720 0.501911
O O7 0.046795 0.346696 0.453547
O O8 0.500000 0.927391 0.250000
O O9 0.834437 0.816481 0.080842
O O10 0.765220 0.022494 0.073508
O O11 0.250000 0.250000 0.000000
#
# Coordination Sequence:
#
# PCOD8149046 Si02
#       5
#     8   8   8   8   8
#     4  11  25  43  72 108 145 193 245 301 378 447
#     4  11  24  44  70 108 146 184 246 312 363 445
#     4  10  23  44  72 105 147 195 247 301 370 453
#     4  10  23  43  76 104 141 196 242 299 378 447
#     4  12  26  43  74 106 147 197 248 305 376 447
#
# _framework density 25.264513999999998
#
# number of rings (size 3 to 8) (size 9 to 14) (size 15 to 20)
#    0.000    1.200    0.000    5.400    8.400    2.400 
#    0.000    2.000    4.400    0.000    0.000    0.000 
#    0.000    0.000    0.000    0.000    0.000    0.000 
#
# Total GULP energy -248017.151109 kJ/mol
# GULP energy per Si atom -12400.857555 kJ/mol
# Density = 2.520701 g / cm^3
# Si number density = 25.264514 Si / 1000 Ang^3
#
#
#
# Elastic Constant Matrix: (Units=GPa)
#
#
# Indices 1 2 3 4 5 6 
#
# 1 107.5880 29.6136 24.1210 0.0013 -25.6755 -0.0023
# 2 29.6136 149.1771 38.0807 0.0010 -23.8279 -0.0008
# 3 24.1210 38.0807 59.6916 0.0107 -18.2017 -0.0108
# 4 0.0013 0.0010 0.0107 37.8460 0.0003 -5.6926
# 5 -25.6755 -23.8279 -18.2017 0.0003 35.5267 -0.0003
# 6 -0.0023 -0.0008 -0.0108 -5.6926 -0.0003 30.7906
#
#
#
# Elastic Compliance Matrix: (Units=1/GPa)
#
#
# Indices 1 2 3 4 5 6 
#
# 1 0.011592 -0.000654 -0.002188 0.000000 0.006818 0.000000
# 2 -0.000654 0.008377 -0.004161 0.000001 0.003014 -0.000001
# 3 -0.002188 -0.004161 0.022468 -0.000005 0.007139 0.000007
# 4 0.000000 0.000001 -0.000005 0.027179 -0.000002 0.005025
# 5 0.006818 0.003014 0.007139 -0.000002 0.038755 0.000003
# 6 0.000000 -0.000001 0.000007 0.005025 0.000003 0.033406
#
#
# Mechanical properties :
#
#
# Convention : Reuss Voigt Hill
#
# Bulk Modulus (GPa) = 35.17126 55.56524 45.36825
# Shear Modulus (GPa) = 30.25525 35.80876 33.03201
#
# Velocity S-wave (km/s) = 3.46430 3.76886 3.61979
# Velocity P-wave (km/s) = 5.47296 6.40158 5.95540
#
# Compressibility (1/GPa) = 0.02843230
#
# Stress axis : x y z
#
# Youngs Moduli (GPa) = 86.26319 119.37761 44.50691
#
# Poissons Ratio (x) = 0.07801 0.09740
# Poissons Ratio (y) = 0.05637 0.18518
# Poissons Ratio (z) = 0.18877 0.49671
#
# Static dielectric constant tensor:
#      x y z
#    x 4.579410 0.000010 0.179860 
#    y 0.000010 5.109350 -0.000020 
#    z 0.179860 -0.000020 3.304550 
# 
# 
# High freq. dielectric constant tensor:
#      x y z
#    x 2.022220 0.000000 -0.019760 
#    y 0.000000 2.017410 0.000000 
#    z -0.019760 0.000000 2.015580 
# 
# From -- ./inp_files/292367.got.cif
#   From: 2010.06.25/outbox.cif.g09.slc.cpg/sg15_147_cif.got.tgz:292367.got - 2010.06.28 07:06:18.
