data_PCOD8149196
_publ_section_title
;
Structure prediction by ZEFSAII (Michael W. Deem and Ramdas Pophale) SiO2 
 PCOD8149196
Probable space group: C 2/C
;
_chemical_formula_sum "Si O2"
_cell_formula_units_Z 32
_cell_length_a 22.326349
_cell_length_b 9.457325
_cell_length_c 13.690125
_cell_angle_alpha 90.000000
_cell_angle_beta 152.940361
_cell_angle_gamma 90.000000
_cell_volume 1315.001569
_symmetry_space_group_name_H-M "C 2/C"
_symmetry_group_IT_number 15
_symmetry_cell_setting 'monoclinic'
loop_
_space_group_symop_operation_xyz
x,y,z
-x,y,1/2-z
-x,-y,-z
x,-y,1/2+z
1/2+x,1/2+y,z
1/2-x,1/2+y,1/2-z
1/2-x,1/2-y,-z
1/2+x,1/2-y,1/2+z
loop_
_atom_site_type_symbol
_atom_site_label
_atom_site_fract_x
_atom_site_fract_y
_atom_site_fract_z
Si Si1 0.673045 0.533112 0.437389
Si Si2 0.491830 0.634205 0.553933
Si Si3 0.887834 0.395141 0.867794
Si Si4 0.789904 0.331410 0.924745
O O1 0.543284 0.434054 0.231301
O O2 0.747774 0.455697 0.632766
O O3 0.761485 0.549991 0.466409
O O4 0.643957 0.693156 0.429989
O O5 0.500000 0.500000 0.500000
O O6 0.595081 0.747278 0.662672
O O7 0.345075 0.701555 0.333488
O O8 0.893872 0.384027 0.994637
O O9 0.000000 0.500000 0.000000
#
# Coordination Sequence:
#
# PCOD8149196 Si02
#       4
#     8   8   8   8
#     4  10  23  46  70 108 140 198 238 291 382 426
#     4  10  23  44  70 103 143 187 245 289 366 445
#     4  12  25  45  73 107 149 186 247 309 367 438
#     4  10  24  46  70 105 151 182 241 310 358 441
#
# _framework density 24.334574
#
# number of rings (size 3 to 8) (size 9 to 14) (size 15 to 20)
#    0.000    1.500    2.500    0.750    7.000    2.000 
#    4.500    2.500    0.000    0.000    0.000    0.000 
#    0.000    0.000    0.000    0.000    0.000    0.000 
#
# Total GULP energy -198252.235920 kJ/mol
# GULP energy per Si atom -12390.764745 kJ/mol
# Density = 2.427919 g / cm^3
# Si number density = 24.334574 Si / 1000 Ang^3
#
#
#
# Elastic Constant Matrix: (Units=GPa)
#
#
# Indices 1 2 3 4 5 6 
#
# 1 127.6952 30.9211 11.2789 0.0000 -20.8414 0.0000
# 2 30.9211 104.4201 8.9072 0.0000 -9.9204 0.0000
# 3 11.2789 8.9072 62.7838 0.0000 -9.6582 0.0000
# 4 0.0000 0.0000 0.0000 43.9706 0.0000 -13.6276
# 5 -20.8414 -9.9204 -9.6582 0.0000 33.5452 0.0000
# 6 0.0000 0.0000 0.0000 -13.6276 0.0000 28.4516
#
#
#
# Elastic Compliance Matrix: (Units=1/GPa)
#
#
# Indices 1 2 3 4 5 6 
#
# 1 0.009220 -0.002214 -0.000588 0.000000 0.004904 0.000000
# 2 -0.002214 0.010445 -0.000859 0.000000 0.001466 0.000000
# 3 -0.000588 -0.000859 0.016804 0.000000 0.004219 0.000000
# 4 0.000000 0.000000 0.000000 0.026707 0.000000 0.012792
# 5 0.004904 0.001466 0.004219 0.000000 0.034506 0.000000
# 6 0.000000 0.000000 0.000000 0.012792 0.000000 0.041274
#
#
# Mechanical properties :
#
#
# Convention : Reuss Voigt Hill
#
# Bulk Modulus (GPa) = 34.30790 44.12374 39.21582
# Shear Modulus (GPa) = 32.05286 37.44629 34.74958
#
# Velocity S-wave (km/s) = 3.63323 3.92702 3.78298
# Velocity P-wave (km/s) = 5.63289 6.22362 5.93561
#
# Compressibility (1/GPa) = 0.02914781
#
# Stress axis : x y z
#
# Youngs Moduli (GPa) = 108.46461 95.74088 59.50930
#
# Poissons Ratio (x) = 0.21198 0.03498
# Poissons Ratio (y) = 0.24015 0.05109
# Poissons Ratio (z) = 0.06375 0.08220
#
# Static dielectric constant tensor:
#      x y z
#    x 4.199400 0.000000 -0.158510 
#    y 0.000000 4.176150 0.000000 
#    z -0.158510 0.000000 8.450800 
# 
# 
# High freq. dielectric constant tensor:
#      x y z
#    x 1.964040 0.000000 -0.012820 
#    y 0.000000 1.960650 0.000000 
#    z -0.012820 0.000000 1.972560 
# 
# From -- ./inp_files/83828.got.cif
#   From: 2010.06.25/outbox.cif.g09.slc.cpg/sg15_42_cif.got.tgz:83828.got - 2010.06.28 07:06:18.
