data_PCOD8149231
_publ_section_title
;
Structure prediction by ZEFSAII (Michael W. Deem and Ramdas Pophale) SiO2 
 PCOD8149231
Probable space group: C 2/C
;
_chemical_formula_sum "Si O2"
_cell_formula_units_Z 36
_cell_length_a 9.610648
_cell_length_b 27.408362
_cell_length_c 8.784775
_cell_angle_alpha 90.000000
_cell_angle_beta 132.098273
_cell_angle_gamma 90.000000
_cell_volume 1716.990878
_symmetry_space_group_name_H-M "C 2/C"
_symmetry_group_IT_number 15
_symmetry_cell_setting 'monoclinic'
loop_
_space_group_symop_operation_xyz
x,y,z
-x,y,1/2-z
-x,-y,-z
x,-y,1/2+z
1/2+x,1/2+y,z
1/2-x,1/2+y,1/2-z
1/2-x,1/2-y,-z
1/2+x,1/2-y,1/2+z
loop_
_atom_site_type_symbol
_atom_site_label
_atom_site_fract_x
_atom_site_fract_y
_atom_site_fract_z
Si Si1 0.213187 0.802410 0.395488
Si Si2 0.210026 0.300772 0.396451
Si Si3 0.000000 0.131293 0.250000
Si Si4 0.181769 0.937766 0.663491
Si Si5 0.500000 0.489214 0.250000
Si Si6 0.500000 0.120276 0.250000
O O1 0.250000 0.750000 0.500000
O O2 0.235381 0.794959 0.235399
O O3 0.348546 0.844899 0.557060
O O4 0.000000 0.820231 0.250000
O O5 0.250000 0.250000 0.500000
O O6 0.317817 0.338668 0.578621
O O7 0.000000 0.318703 0.250000
O O8 0.959572 0.102602 0.375907
O O9 0.390504 0.914854 0.791415
O O10 0.111907 0.955708 0.449032
O O11 0.162538 0.980251 0.778556
#
# Coordination Sequence:
#
# PCOD8149231 Si02
#       6
#     8   8   4   8   4   4
#     4  12  26  43  66  97 142 188 227 273 325 380
#     4  12  25  40  62  91 133 184 223 268 322 378
#     4  11  24  42  64  98 132 174 228 264 322 403
#     4  10  23  44  71  99 130 168 223 280 341 417
#     4   9  22  48  73  94 132 174 207 292 370 389
#     4  12  26  40  71 108 130 176 237 268 324 408
#
# _framework density 20.966915
#
# number of rings (size 3 to 8) (size 9 to 14) (size 15 to 20)
#    0.000    0.889    2.222    4.000    7.778    0.889 
#    0.000    0.000    4.889    0.000    0.000    0.000 
#    0.000    0.000    0.000    0.000    0.000    0.000 
#
# Total GULP energy -223061.757413 kJ/mol
# GULP energy per Si atom -12392.319856 kJ/mol
# Density = 2.091919 g / cm^3
# Si number density = 20.966915 Si / 1000 Ang^3
#
#
#
# Elastic Constant Matrix: (Units=GPa)
#
#
# Indices 1 2 3 4 5 6 
#
# 1 168.8141 68.1435 77.8794 0.0000 1.3479 0.0000
# 2 68.1435 131.0800 75.7658 0.0000 3.9152 0.0000
# 3 77.8794 75.7658 152.4853 0.0000 3.3216 0.0000
# 4 0.0000 0.0000 0.0000 29.0348 0.0000 4.5440
# 5 1.3479 3.9152 3.3216 0.0000 52.6545 0.0000
# 6 0.0000 0.0000 0.0000 4.5440 0.0000 41.3636
#
#
#
# Elastic Compliance Matrix: (Units=1/GPa)
#
#
# Indices 1 2 3 4 5 6 
#
# 1 0.008352 -0.002636 -0.002959 0.000000 0.000169 0.000000
# 2 -0.002636 0.011546 -0.004379 0.000000 -0.000515 0.000000
# 3 -0.002959 -0.004379 0.010251 0.000000 -0.000245 0.000000
# 4 0.000000 0.000000 0.000000 0.035044 0.000000 -0.003850
# 5 0.000169 -0.000515 -0.000245 0.000000 0.019041 0.000000
# 6 0.000000 0.000000 0.000000 -0.003850 0.000000 0.024599
#
#
# Mechanical properties :
#
#
# Convention : Reuss Voigt Hill
#
# Bulk Modulus (GPa) = 98.05075 99.55077 98.80076
# Shear Modulus (GPa) = 37.82675 39.98330 38.90503
#
# Velocity S-wave (km/s) = 4.25210 4.37163 4.31228
# Velocity P-wave (km/s) = 8.42456 8.54778 8.48639
#
# Compressibility (1/GPa) = 0.01019880
#
# Stress axis : x y z
#
# Youngs Moduli (GPa) = 119.73612 86.60945 97.55422
#
# Poissons Ratio (x) = 0.22833 0.28869
# Poissons Ratio (y) = 0.31566 0.42722
# Poissons Ratio (z) = 0.35433 0.37929
#
# Static dielectric constant tensor:
#      x y z
#    x 4.113270 0.000000 -0.012820 
#    y 0.000000 4.060320 0.000000 
#    z -0.012820 0.000000 3.830220 
# 
# 
# High freq. dielectric constant tensor:
#      x y z
#    x 1.844640 0.000000 -0.011000 
#    y 0.000000 1.832950 0.000000 
#    z -0.011000 0.000000 1.819780 
# 
# From -- ./inp_files/25316.got.cif
#   From: 2010.06.25/outbox.cif.g09.slc.cpg/sg15_13_cif.got.tgz:25316.got - 2010.06.28 07:06:18.
