data_PCOD8149554
_publ_section_title
;
Structure prediction by ZEFSAII (Michael W. Deem and Ramdas Pophale) SiO2 
 PCOD8149554
Probable space group: C 2/C
;
_chemical_formula_sum "Si O2"
_cell_formula_units_Z 36
_cell_length_a 16.554241
_cell_length_b 13.045173
_cell_length_c 17.908459
_cell_angle_alpha 90.000000
_cell_angle_beta 153.231078
_cell_angle_gamma 90.000000
_cell_volume 1741.844084
_symmetry_space_group_name_H-M "C 2/C"
_symmetry_group_IT_number 15
_symmetry_cell_setting 'monoclinic'
loop_
_space_group_symop_operation_xyz
x,y,z
-x,y,1/2-z
-x,-y,-z
x,-y,1/2+z
1/2+x,1/2+y,z
1/2-x,1/2+y,1/2-z
1/2-x,1/2-y,-z
1/2+x,1/2-y,1/2+z
loop_
_atom_site_type_symbol
_atom_site_label
_atom_site_fract_x
_atom_site_fract_y
_atom_site_fract_z
Si Si1 0.500000 0.195402 0.250000
Si Si2 0.938129 0.075688 0.276594
Si Si3 0.890489 0.136904 0.544643
Si Si4 0.077698 0.607467 0.041273
Si Si5 0.106311 0.809266 0.619469
O O1 0.674949 0.125764 0.377303
O O2 0.536855 0.263584 0.353146
O O3 0.720566 0.082068 0.093699
O O4 0.009117 0.135049 0.409562
O O5 0.000000 0.127410 0.250000
O O6 0.010180 0.960342 0.338935
O O7 0.949772 0.148758 0.507486
O O8 0.183835 0.663982 0.196511
O O9 0.000000 0.500000 0.000000
O O10 0.920364 0.686886 0.890133
#
# Coordination Sequence:
#
# PCOD8149554 Si02
#       5
#     4   8   8   8   8
#     4  10  24  34  72  96 142 162 220 284 348 394
#     4  10  24  41  65  92 134 173 224 270 323 395
#     4  11  21  42  62 103 130 173 213 281 340 400
#     4  10  25  42  69  98 131 177 221 276 325 403
#     4  10  24  41  68  93 133 175 222 269 333 397
#
# _framework density 20.667750999999999
#
# number of rings (size 3 to 8) (size 9 to 14) (size 15 to 20)
#    1.333    0.444    1.111    2.000    6.222    2.667 
#    0.000    0.000    0.000    0.000    0.000    0.000 
#    0.000    0.000    0.000    0.000    0.000    0.000 
#
# Total GULP energy -223007.179823 kJ/mol
# GULP energy per Si atom -12389.287768 kJ/mol
# Density = 2.062071 g / cm^3
# Si number density = 20.667751 Si / 1000 Ang^3
#
#
#
# Elastic Constant Matrix: (Units=GPa)
#
#
# Indices 1 2 3 4 5 6 
#
# 1 167.7791 38.5809 32.5211 0.0006 -15.3129 0.0002
# 2 38.5809 121.7440 40.9707 0.0006 10.5567 0.0001
# 3 32.5211 40.9707 82.9535 -0.0004 9.6709 0.0000
# 4 0.0006 0.0006 -0.0004 43.8867 -0.0006 8.0060
# 5 -15.3129 10.5567 9.6709 -0.0006 25.5748 -0.0004
# 6 0.0002 0.0001 0.0000 8.0060 -0.0004 29.4783
#
#
#
# Elastic Compliance Matrix: (Units=1/GPa)
#
#
# Indices 1 2 3 4 5 6 
#
# 1 0.007530 -0.002033 -0.002690 0.000000 0.006365 0.000000
# 2 -0.002033 0.010535 -0.003930 0.000000 -0.004079 0.000000
# 3 -0.002690 -0.003930 0.015743 0.000000 -0.005941 0.000000
# 4 0.000000 0.000000 0.000000 0.023974 0.000001 -0.006511
# 5 0.006365 -0.004079 -0.005941 0.000001 0.046843 0.000000
# 6 0.000000 0.000000 0.000000 -0.006511 0.000000 0.035692
#
#
# Mechanical properties :
#
#
# Convention : Reuss Voigt Hill
#
# Bulk Modulus (GPa) = 60.60146 66.29133 63.44639
# Shear Modulus (GPa) = 30.65164 37.14822 33.89993
#
# Velocity S-wave (km/s) = 3.85524 4.24418 4.05437
# Velocity P-wave (km/s) = 7.01445 7.49412 7.25825
#
# Compressibility (1/GPa) = 0.01650125
#
# Stress axis : x y z
#
# Youngs Moduli (GPa) = 132.80163 94.92474 63.51834
#
# Poissons Ratio (x) = 0.19297 0.17087
# Poissons Ratio (y) = 0.26997 0.24966
# Poissons Ratio (z) = 0.35724 0.37310
#
# Static dielectric constant tensor:
#      x y z
#    x 3.899220 0.000000 0.205300 
#    y 0.000000 3.525880 0.000010 
#    z 0.205300 0.000010 3.943950 
# 
# 
# High freq. dielectric constant tensor:
#      x y z
#    x 1.816210 0.000000 0.003670 
#    y 0.000000 1.795890 0.000000 
#    z 0.003670 0.000000 1.796590 
# 
# From -- ./inp_files/60440.got.cif
#   From: 2010.06.25/outbox.cif.g09.slc.cpg/sg15_31_cif.got.tgz:60440.got - 2010.06.28 07:06:18.
