data_PCOD8149180
_publ_section_title
;
Structure prediction by ZEFSAII (Michael W. Deem and Ramdas Pophale) SiO2 
 PCOD8149180
Probable space group: C 2/C
;
_chemical_formula_sum "Si O2"
_cell_formula_units_Z 60
_cell_length_a 7.060181
_cell_length_b 16.952041
_cell_length_c 23.699669
_cell_angle_alpha 90.000000
_cell_angle_beta 91.657723
_cell_angle_gamma 90.000000
_cell_volume 2835.295377
_symmetry_space_group_name_H-M "C 2/C"
_symmetry_group_IT_number 15
_symmetry_cell_setting 'monoclinic'
loop_
_space_group_symop_operation_xyz
x,y,z
-x,y,1/2-z
-x,-y,-z
x,-y,1/2+z
1/2+x,1/2+y,z
1/2-x,1/2+y,1/2-z
1/2-x,1/2-y,-z
1/2+x,1/2-y,1/2+z
loop_
_atom_site_type_symbol
_atom_site_label
_atom_site_fract_x
_atom_site_fract_y
_atom_site_fract_z
Si Si1 0.777117 0.473682 0.908864
Si Si2 0.701085 0.640690 0.955560
Si Si3 0.669543 0.279037 0.058651
Si Si4 0.500000 0.506395 0.250000
Si Si5 0.031847 0.706048 0.633726
Si Si6 0.869296 0.556331 0.798547
Si Si7 0.413724 0.860472 0.570171
Si Si8 0.928918 0.114139 0.354517
O O1 0.726053 0.548814 0.945045
O O2 0.878297 0.497415 0.851211
O O3 0.591867 0.419755 0.897146
O O4 0.937586 0.428430 0.945476
O O5 0.474901 0.650055 0.955444
O O6 0.794974 0.695993 0.908557
O O7 0.792490 0.666205 0.015321
O O8 0.834599 0.311938 0.100214
O O9 0.546951 0.212409 0.090164
O O10 0.750000 0.250000 0.000000
O O11 0.345847 0.445247 0.225227
O O12 0.417232 0.563401 0.297599
O O13 0.062222 0.644404 0.684787
O O14 0.027203 0.794218 0.658602
O O15 0.000000 0.522665 0.750000
O O16 0.275788 0.890556 0.618102
#
# Coordination Sequence:
#
# PCOD8149180 Si02
#       8
#     8   8   8   4   8   8   8   8
#     4  10  24  41  63  96 132 167 217 269 330 380
#     4  11  24  40  63  97 133 176 220 265 312 388
#     4  12  23  40  65  95 137 181 213 266 321 383
#     4  10  24  46  70  92 128 162 214 278 342 378
#     4  11  23  41  67  99 131 170 221 264 325 395
#     4  10  23  44  69  93 127 166 215 273 331 392
#     4  12  22  39  66  94 133 176 220 259 322 387
#     4  11  23  42  67  94 129 168 212 275 327 389
#
# _framework density 21.161818
#
# number of rings (size 3 to 8) (size 9 to 14) (size 15 to 20)
#    0.000    1.067    4.000    2.400    0.933    5.867 
#    0.000    0.000    1.467    0.000    0.000    0.000 
#    0.000    0.000    0.000    0.000    0.000    0.000 
#
# Total GULP energy -372027.437745 kJ/mol
# GULP energy per Si atom -12400.914591 kJ/mol
# Density = 2.111365 g / cm^3
# Si number density = 21.161818 Si / 1000 Ang^3
#
#
#
# Elastic Constant Matrix: (Units=GPa)
#
#
# Indices 1 2 3 4 5 6 
#
# 1 136.0029 51.6124 40.1825 0.0000 5.3552 0.0000
# 2 51.6124 101.4846 14.7555 0.0000 11.5465 0.0000
# 3 40.1825 14.7555 73.9905 0.0000 2.4755 0.0000
# 4 0.0000 0.0000 0.0000 14.4961 0.0000 7.4342
# 5 5.3552 11.5465 2.4755 0.0000 41.3881 0.0000
# 6 0.0000 0.0000 0.0000 7.4342 0.0000 45.8996
#
#
#
# Elastic Compliance Matrix: (Units=1/GPa)
#
#
# Indices 1 2 3 4 5 6 
#
# 1 0.010541 -0.004690 -0.004797 0.000000 0.000231 0.000000
# 2 -0.004690 0.012548 0.000141 0.000000 -0.002902 0.000000
# 3 -0.004797 0.000141 0.016105 0.000000 -0.000382 0.000000
# 4 0.000000 0.000000 0.000000 0.075233 0.000000 -0.012185
# 5 0.000231 -0.002902 -0.000382 0.000000 0.024964 0.000000
# 6 0.000000 0.000000 0.000000 -0.012185 0.000000 0.023760
#
#
# Mechanical properties :
#
#
# Convention : Reuss Voigt Hill
#
# Bulk Modulus (GPa) = 48.77125 58.28653 53.52889
# Shear Modulus (GPa) = 26.50047 34.01860 30.25953
#
# Velocity S-wave (km/s) = 3.54259 4.01377 3.78552
# Velocity P-wave (km/s) = 6.31111 7.00596 6.66760
#
# Compressibility (1/GPa) = 0.02050388
#
# Stress axis : x y z
#
# Youngs Moduli (GPa) = 94.87139 79.69174 62.09292
#
# Poissons Ratio (x) = 0.37372 0.29785
# Poissons Ratio (y) = 0.44490 -0.00878
# Poissons Ratio (z) = 0.45509 -0.01127
#
# Static dielectric constant tensor:
#      x y z
#    x 4.060140 0.000000 0.017910 
#    y 0.000000 3.830280 0.000000 
#    z 0.017910 0.000000 3.681800 
# 
# 
# High freq. dielectric constant tensor:
#      x y z
#    x 1.848290 0.000000 -0.000750 
#    y 0.000000 1.834420 0.000000 
#    z -0.000750 0.000000 1.813700 
# 
# From -- ./inp_files/286075.got.cif
#   From: 2010.06.25/outbox.cif.g09.slc.cpg/sg15_144_cif.got.tgz:286075.got - 2010.06.28 07:06:18.
