data_PCOD8149894
_publ_section_title
;
Structure prediction by ZEFSAII (Michael W. Deem and Ramdas Pophale) SiO2 
 PCOD8149894
Probable space group: C 2/C
;
_chemical_formula_sum "Si O2"
_cell_formula_units_Z 52
_cell_length_a 21.097883
_cell_length_b 11.281860
_cell_length_c 13.240576
_cell_angle_alpha 90.000000
_cell_angle_beta 132.714716
_cell_angle_gamma 90.000000
_cell_volume 2315.583141
_symmetry_space_group_name_H-M "C 2/C"
_symmetry_group_IT_number 15
_symmetry_cell_setting 'monoclinic'
loop_
_space_group_symop_operation_xyz
x,y,z
-x,y,1/2-z
-x,-y,-z
x,-y,1/2+z
1/2+x,1/2+y,z
1/2-x,1/2+y,1/2-z
1/2-x,1/2-y,-z
1/2+x,1/2-y,1/2+z
loop_
_atom_site_type_symbol
_atom_site_label
_atom_site_fract_x
_atom_site_fract_y
_atom_site_fract_z
Si Si1 0.617962 0.866255 0.062480
Si Si2 0.544890 0.702639 0.618169
Si Si3 0.778578 0.438347 0.142920
Si Si4 0.160767 0.604443 0.011408
Si Si5 0.769870 0.313395 0.709028
Si Si6 0.400961 0.652937 0.028149
Si Si7 0.000000 0.031393 0.750000
O O1 0.637118 0.909977 0.197702
O O2 0.689979 0.773480 0.103611
O O3 0.615336 0.978694 0.984283
O O4 0.524391 0.807708 0.953905
O O5 0.640066 0.756170 0.727075
O O6 0.538694 0.632257 0.504848
O O7 0.531651 0.611417 0.693383
O O8 0.754710 0.576657 0.117615
O O9 0.788985 0.397625 0.039448
O O10 0.700246 0.364013 0.108817
O O11 0.227910 0.634224 0.174334
O O12 0.088945 0.709583 0.926373
O O13 0.422616 0.556785 0.136420
#
# Coordination Sequence:
#
# PCOD8149894 Si02
#       7
#     8   8   8   8   8   8   4
#     4  11  24  46  72 100 143 189 227 305 347 410
#     4  11  26  48  68 107 140 182 245 283 358 420
#     4  11  23  42  74  98 141 190 231 290 355 422
#     4  10  24  42  69 104 134 182 242 274 358 425
#     4  10  24  45  68 100 142 182 230 301 349 416
#     4  11  25  46  65 108 139 184 234 288 353 421
#     4  12  28  42  74 100 142 184 230 298 344 430
#
# _framework density 22.456547
#
# number of rings (size 3 to 8) (size 9 to 14) (size 15 to 20)
#    0.000    1.231    3.077    1.846    6.462    6.154 
#    0.000    0.000    0.000    0.000    0.000    0.000 
#    0.000    0.000    0.000    0.000    0.000    0.000 
#
# Total GULP energy -322396.413221 kJ/mol
# GULP energy per Si atom -12399.862047 kJ/mol
# Density = 2.240543 g / cm^3
# Si number density = 22.456547 Si / 1000 Ang^3
#
#
#
# Elastic Constant Matrix: (Units=GPa)
#
#
# Indices 1 2 3 4 5 6 
#
# 1 133.8972 71.4731 46.3865 0.0000 -16.2550 0.0000
# 2 71.4731 156.7671 53.1855 0.0000 -27.6437 0.0000
# 3 46.3865 53.1855 56.3401 0.0000 -19.7868 0.0000
# 4 0.0000 0.0000 0.0000 33.5391 0.0000 1.0562
# 5 -16.2550 -27.6437 -19.7868 0.0000 29.3918 0.0000
# 6 0.0000 0.0000 0.0000 1.0562 0.0000 34.4696
#
#
#
# Elastic Compliance Matrix: (Units=1/GPa)
#
#
# Indices 1 2 3 4 5 6 
#
# 1 0.011331 -0.003048 -0.006886 0.000000 -0.001236 0.000000
# 2 -0.003048 0.010530 -0.005953 0.000000 0.004211 0.000000
# 3 -0.006886 -0.005953 0.033703 0.000000 0.013282 0.000000
# 4 0.000000 0.000000 0.000000 0.029845 0.000000 -0.000914
# 5 -0.001236 0.004211 0.013282 0.000000 0.046242 0.000000
# 6 0.000000 0.000000 0.000000 -0.000914 0.000000 0.029039
#
#
# Mechanical properties :
#
#
# Convention : Reuss Voigt Hill
#
# Bulk Modulus (GPa) = 42.03149 76.56608 59.29878
# Shear Modulus (GPa) = 24.95098 31.21071 28.08085
#
# Velocity S-wave (km/s) = 3.33690 3.73208 3.54001
# Velocity P-wave (km/s) = 5.79689 7.26226 6.57056
#
# Compressibility (1/GPa) = 0.02379169
#
# Stress axis : x y z
#
# Youngs Moduli (GPa) = 88.25570 94.96236 29.67116
#
# Poissons Ratio (x) = 0.28941 0.20431
# Poissons Ratio (y) = 0.26897 0.17662
# Poissons Ratio (z) = 0.60772 0.56528
#
# Static dielectric constant tensor:
#      x y z
#    x 3.844780 0.000000 -0.138670 
#    y 0.000000 4.412490 0.000000 
#    z -0.138670 0.000000 3.925080 
# 
# 
# High freq. dielectric constant tensor:
#      x y z
#    x 1.876370 0.000000 -0.010890 
#    y 0.000000 1.913660 0.000000 
#    z -0.010890 0.000000 1.870500 
# 
# From -- ./inp_files/111743.got.cif
#   From: 2010.06.25/outbox.cif.g09.slc.cpg/sg15_56_cif.got.tgz:111743.got - 2010.06.28 07:06:18.
