data_PCOD8149463
_publ_section_title
;
Structure prediction by ZEFSAII (Michael W. Deem and Ramdas Pophale) SiO2 
 PCOD8149463
Probable space group: C 2/C
;
_chemical_formula_sum "Si O2"
_cell_formula_units_Z 32
_cell_length_a 29.225989
_cell_length_b 7.537366
_cell_length_c 11.843955
_cell_angle_alpha 90.000000
_cell_angle_beta 31.946774
_cell_angle_gamma 90.000000
_cell_volume 1380.539892
_symmetry_space_group_name_H-M "C 2/C"
_symmetry_group_IT_number 15
_symmetry_cell_setting 'monoclinic'
loop_
_space_group_symop_operation_xyz
x,y,z
-x,y,1/2-z
-x,-y,-z
x,-y,1/2+z
1/2+x,1/2+y,z
1/2-x,1/2+y,1/2-z
1/2-x,1/2-y,-z
1/2+x,1/2-y,1/2+z
loop_
_atom_site_type_symbol
_atom_site_label
_atom_site_fract_x
_atom_site_fract_y
_atom_site_fract_z
Si Si1 0.504150 0.260209 0.087802
Si Si2 0.361514 0.403315 0.540484
Si Si3 0.290776 0.763959 0.790439
Si Si4 0.971617 0.366619 0.425575
O O1 0.435681 0.395530 0.288035
O O2 0.478094 0.054338 0.167693
O O3 0.600827 0.292781 0.931902
O O4 0.500012 0.277256 0.961151
O O5 0.338452 0.591184 0.642040
O O6 0.275656 0.320776 0.666744
O O7 0.368518 0.904587 0.642739
O O8 0.250000 0.750000 0.000000
O O9 0.000000 0.274073 0.250000
#
# Coordination Sequence:
#
# PCOD8149463 Si02
#       4
#     8   8   8   8
#     4  10  23  46  72 104 142 188 241 296 359 429
#     4  11  24  46  72 104 149 183 245 296 363 426
#     4  12  27  46  73 108 148 189 244 301 363 429
#     4  11  23  43  77 101 144 192 241 290 363 430
#
# _framework density 23.179338999999999
#
# number of rings (size 3 to 8) (size 9 to 14) (size 15 to 20)
#    0.000    1.000    5.000    1.500    3.500    3.000 
#    0.000    3.750    0.000    0.000    0.000    0.000 
#    0.000    0.000    0.000    0.000    0.000    0.000 
#
# Total GULP energy -198248.609957 kJ/mol
# GULP energy per Si atom -12390.538122 kJ/mol
# Density = 2.312658 g / cm^3
# Si number density = 23.179339 Si / 1000 Ang^3
#
#
#
# Elastic Constant Matrix: (Units=GPa)
#
#
# Indices 1 2 3 4 5 6 
#
# 1 207.5975 29.2601 71.8532 0.0000 4.5180 0.0000
# 2 29.2601 80.7626 39.3267 0.0000 17.5816 0.0000
# 3 71.8532 39.3267 126.6792 0.0000 21.2657 0.0000
# 4 0.0000 0.0000 0.0000 40.1324 0.0000 -0.0758
# 5 4.5180 17.5816 21.2657 0.0000 52.6198 0.0000
# 6 0.0000 0.0000 0.0000 -0.0758 0.0000 33.0216
#
#
#
# Elastic Compliance Matrix: (Units=1/GPa)
#
#
# Indices 1 2 3 4 5 6 
#
# 1 0.006077 -0.000795 -0.003387 0.000000 0.001113 0.000000
# 2 -0.000795 0.015233 -0.003685 0.000000 -0.003532 0.000000
# 3 -0.003387 -0.003685 0.011483 0.000000 -0.003118 0.000000
# 4 0.000000 0.000000 0.000000 0.024918 0.000000 0.000057
# 5 0.001113 -0.003532 -0.003118 0.000000 0.021349 0.000000
# 6 0.000000 0.000000 0.000000 0.000057 0.000000 0.030283
#
#
# Mechanical properties :
#
#
# Convention : Reuss Voigt Hill
#
# Bulk Modulus (GPa) = 58.62008 77.32435 67.97222
# Shear Modulus (GPa) = 38.23682 43.46137 40.84910
#
# Velocity S-wave (km/s) = 4.06594 4.33483 4.20254
# Velocity P-wave (km/s) = 6.88384 7.64761 7.27575
#
# Compressibility (1/GPa) = 0.01705900
#
# Stress axis : x y z
#
# Youngs Moduli (GPa) = 164.55166 65.64520 87.08742
#
# Poissons Ratio (x) = 0.05216 0.29497
# Poissons Ratio (y) = 0.13076 0.32096
# Poissons Ratio (z) = 0.55735 0.24193
#
# Static dielectric constant tensor:
#      x y z
#    x 4.941680 0.000000 -0.117870 
#    y 0.000000 3.925320 0.000000 
#    z -0.117870 0.000000 4.162860 
# 
# 
# High freq. dielectric constant tensor:
#      x y z
#    x 1.950810 0.000000 -0.002350 
#    y 0.000000 1.902660 0.000000 
#    z -0.002350 0.000000 1.904760 
# 
# From -- ./inp_files/116106.got.cif
#   From: 2010.06.25/outbox.cif.g09.slc.cpg/sg15_59_cif.got.tgz:116106.got - 2010.06.28 07:06:18.
