data_PCOD8149456
_publ_section_title
;
Structure prediction by ZEFSAII (Michael W. Deem and Ramdas Pophale) SiO2 
 PCOD8149456
Probable space group: C 2/C
;
_chemical_formula_sum "Si O2"
_cell_formula_units_Z 40
_cell_length_a 14.982062
_cell_length_b 24.543006
_cell_length_c 5.052031
_cell_angle_alpha 90.000000
_cell_angle_beta 102.983798
_cell_angle_gamma 90.000000
_cell_volume 1810.162725
_symmetry_space_group_name_H-M "C 2/C"
_symmetry_group_IT_number 15
_symmetry_cell_setting 'monoclinic'
loop_
_space_group_symop_operation_xyz
x,y,z
-x,y,1/2-z
-x,-y,-z
x,-y,1/2+z
1/2+x,1/2+y,z
1/2-x,1/2+y,1/2-z
1/2-x,1/2-y,-z
1/2+x,1/2-y,1/2+z
loop_
_atom_site_type_symbol
_atom_site_label
_atom_site_fract_x
_atom_site_fract_y
_atom_site_fract_z
Si Si1 0.785154 0.361320 0.041616
Si Si2 0.171754 0.706059 0.430413
Si Si3 0.420915 0.628232 0.998641
Si Si4 0.000000 0.039331 0.750000
Si Si5 0.104113 0.466197 0.307082
Si Si6 0.500000 0.726741 0.750000
O O1 0.807680 0.341262 0.349622
O O2 0.676351 0.367270 0.921523
O O3 0.828710 0.420194 0.043500
O O4 0.829109 0.319915 0.861681
O O5 0.250000 0.750000 0.500000
O O6 0.075141 0.734254 0.435099
O O7 0.416837 0.583055 0.755446
O O8 0.447638 0.688921 0.925223
O O9 0.500000 0.606786 0.250000
O O10 0.000000 0.000000 0.500000
O O11 0.122581 0.516733 0.517000
O O12 0.000000 0.444820 0.250000
#
# Coordination Sequence:
#
# PCOD8149456 Si02
#       6
#     8   8   8   4   8   4
#     4  12  27  44  72 103 136 177 242 278 339 414
#     4  12  26  45  67 104 139 181 227 284 331 417
#     4  11  25  45  71  97 141 184 225 282 347 412
#     4  11  24  44  66 100 132 176 226 279 334 410
#     4  10  23  46  71  97 134 174 221 285 350 399
#     4  11  26  42  70  96 144 186 220 279 358 392
#
# _framework density 22.097460999999999
#
# number of rings (size 3 to 8) (size 9 to 14) (size 15 to 20)
#    0.000    0.800    3.000    3.000    8.400    1.600 
#    0.000    0.000    0.000    0.000    0.000    0.000 
#    0.000    0.000    0.000    0.000    0.000    0.000 
#
# Total GULP energy -247948.389299 kJ/mol
# GULP energy per Si atom -12397.419465 kJ/mol
# Density = 2.204717 g / cm^3
# Si number density = 22.097461 Si / 1000 Ang^3
#
#
#
# Elastic Constant Matrix: (Units=GPa)
#
#
# Indices 1 2 3 4 5 6 
#
# 1 124.4574 64.5633 39.8279 0.0000 19.0334 0.0000
# 2 64.5633 109.7250 29.9159 0.0000 7.1146 0.0000
# 3 39.8279 29.9159 92.7287 0.0000 -1.7404 0.0000
# 4 0.0000 0.0000 0.0000 28.4392 0.0000 5.7095
# 5 19.0334 7.1146 -1.7404 0.0000 39.0790 0.0000
# 6 0.0000 0.0000 0.0000 5.7095 0.0000 30.1815
#
#
#
# Elastic Compliance Matrix: (Units=1/GPa)
#
#
# Indices 1 2 3 4 5 6 
#
# 1 0.013491 -0.006546 -0.003787 0.000000 -0.005548 0.000000
# 2 -0.006546 0.013322 -0.001473 0.000000 0.000697 0.000000
# 3 -0.003787 -0.001473 0.012936 0.000000 0.002689 0.000000
# 4 0.000000 0.000000 0.000000 0.036551 0.000000 -0.006914
# 5 -0.005548 0.000697 0.002689 0.000000 0.028284 0.000000
# 6 0.000000 0.000000 0.000000 -0.006914 0.000000 0.034441
#
#
# Mechanical properties :
#
#
# Convention : Reuss Voigt Hill
#
# Bulk Modulus (GPa) = 61.96868 66.16947 64.06908
# Shear Modulus (GPa) = 29.75910 32.38021 31.06966
#
# Velocity S-wave (km/s) = 3.67375 3.83212 3.75377
# Velocity P-wave (km/s) = 6.78966 7.04199 6.91698
#
# Compressibility (1/GPa) = 0.01613718
#
# Stress axis : x y z
#
# Youngs Moduli (GPa) = 74.12402 75.06431 77.30167
#
# Poissons Ratio (x) = 0.49137 0.29272
# Poissons Ratio (y) = 0.48522 0.11388
# Poissons Ratio (z) = 0.28069 0.11059
#
# Static dielectric constant tensor:
#      x y z
#    x 3.704280 0.000000 0.166210 
#    y 0.000000 2.155050 0.000000 
#    z 0.166210 0.000000 3.818710 
# 
# 
# High freq. dielectric constant tensor:
#      x y z
#    x 1.867370 0.000000 -0.011110 
#    y 0.000000 1.884550 0.000000 
#    z -0.011110 0.000000 1.868630 
# 
# From -- ./inp_files/7675.got.cif
#   From: 2010.06.25/outbox.cif.g09.slc.cpg/sg15_4_cif.got.tgz:7675.got - 2010.06.28 07:06:18.
