data_PCOD8149015
_publ_section_title
;
Structure prediction by ZEFSAII (Michael W. Deem and Ramdas Pophale) SiO2 
 PCOD8149015
Probable space group: C 2/C
;
_chemical_formula_sum "Si O2"
_cell_formula_units_Z 40
_cell_length_a 14.026536
_cell_length_b 5.035053
_cell_length_c 30.869884
_cell_angle_alpha 90.000000
_cell_angle_beta 134.741439
_cell_angle_gamma 90.000000
_cell_volume 1548.551016
_symmetry_space_group_name_H-M "C 2/C"
_symmetry_group_IT_number 15
_symmetry_cell_setting 'monoclinic'
loop_
_space_group_symop_operation_xyz
x,y,z
-x,y,1/2-z
-x,-y,-z
x,-y,1/2+z
1/2+x,1/2+y,z
1/2-x,1/2+y,1/2-z
1/2-x,1/2-y,-z
1/2+x,1/2-y,1/2+z
loop_
_atom_site_type_symbol
_atom_site_label
_atom_site_fract_x
_atom_site_fract_y
_atom_site_fract_z
Si Si1 0.657307 0.664890 0.720714
Si Si2 0.669037 0.378885 0.316883
Si Si3 0.851401 0.372292 0.133459
Si Si4 0.042987 0.763885 0.623817
Si Si5 0.426816 0.253007 0.496274
O O1 0.772546 0.442075 0.766369
O O2 0.580835 0.680766 0.744115
O O3 0.568104 0.563180 0.651586
O O4 0.627236 0.667630 0.320482
O O5 0.823686 0.375227 0.350683
O O6 0.665901 0.164158 0.353766
O O7 0.981591 0.402870 0.144389
O O8 0.728573 0.261397 0.065928
O O9 0.935195 0.773635 0.550903
O O10 0.500000 0.500000 0.500000
O O11 0.500000 0.000000 0.500000
#
# Coordination Sequence:
#
# PCOD8149015 Si02
#       5
#     8   8   8   8   8
#     4  10  23  43  72 101 137 189 228 287 351 411
#     4  11  24  46  68 101 146 175 236 282 348 412
#     4  12  25  44  73 106 135 190 226 287 351 420
#     4  11  25  46  73 101 144 183 235 285 350 414
#     4  12  24  45  72 102 143 184 228 294 353 413
#
# _framework density 25.830598999999999
#
# number of rings (size 3 to 8) (size 9 to 14) (size 15 to 20)
#    0.000    0.800    4.000    3.000    0.000    7.200 
#    0.000   10.000    0.000    0.000    0.000    0.000 
#    0.000    0.000    0.000    0.000    0.000    0.000 
#
# Total GULP energy -247976.611810 kJ/mol
# GULP energy per Si atom -12398.830591 kJ/mol
# Density = 2.577181 g / cm^3
# Si number density = 25.830599 Si / 1000 Ang^3
#
#
#
# Elastic Constant Matrix: (Units=GPa)
#
#
# Indices 1 2 3 4 5 6 
#
# 1 129.7841 41.5770 22.1574 0.0007 -24.7420 -0.0001
# 2 41.5770 74.1871 -8.1622 0.0099 -3.9524 0.0076
# 3 22.1574 -8.1622 143.1052 0.0037 -8.3238 -0.0042
# 4 0.0007 0.0099 0.0037 40.5994 -0.0016 -10.9699
# 5 -24.7420 -3.9524 -8.3238 -0.0016 52.4621 0.0015
# 6 -0.0001 0.0076 -0.0042 -10.9699 0.0015 35.7189
#
#
#
# Elastic Compliance Matrix: (Units=1/GPa)
#
#
# Indices 1 2 3 4 5 6 
#
# 1 0.010750 -0.005986 -0.001753 0.000002 0.004341 0.000002
# 2 -0.005986 0.016968 0.001822 -0.000006 -0.001256 -0.000005
# 3 -0.001753 0.001822 0.007391 -0.000001 0.000483 0.000000
# 4 0.000002 -0.000006 -0.000001 0.026860 0.000001 0.008249
# 5 0.004341 -0.001256 0.000483 0.000001 0.021090 0.000000
# 6 0.000002 -0.000005 0.000000 0.008249 0.000000 0.030530
#
#
# Mechanical properties :
#
#
# Convention : Reuss Voigt Hill
#
# Bulk Modulus (GPa) = 42.96837 50.91343 46.94090
# Shear Modulus (GPa) = 37.54258 45.18970 41.36614
#
# Velocity S-wave (km/s) = 3.81650 4.18720 4.00614
# Velocity P-wave (km/s) = 6.00764 6.56735 6.29372
#
# Compressibility (1/GPa) = 0.02327293
#
# Stress axis : x y z
#
# Youngs Moduli (GPa) = 93.02675 58.93536 135.29357
#
# Poissons Ratio (x) = 0.35279 0.23722
# Poissons Ratio (y) = 0.55687 -0.24645
# Poissons Ratio (z) = 0.16311 -0.10736
#
# Static dielectric constant tensor:
#      x y z
#    x 5.246590 0.000000 -0.142030 
#    y 0.000000 4.519200 -0.000060 
#    z -0.142030 -0.000060 4.710720 
# 
# 
# High freq. dielectric constant tensor:
#      x y z
#    x 2.055790 0.000000 -0.007480 
#    y 0.000000 2.035960 0.000000 
#    z -0.007480 0.000000 2.053290 
# 
# From -- ./inp_files/294331.got.cif
#   From: 2010.06.25/outbox.cif.g09.slc.cpg/sg15_148_cif.got.tgz:294331.got - 2010.06.28 07:06:18.
