data_PCOD8149757
_publ_section_title
;
Structure prediction by ZEFSAII (Michael W. Deem and Ramdas Pophale) SiO2 
 PCOD8149757
Probable space group: C 2/C
;
_chemical_formula_sum "Si O2"
_cell_formula_units_Z 48
_cell_length_a 27.801554
_cell_length_b 5.808081
_cell_length_c 27.481967
_cell_angle_alpha 90.000000
_cell_angle_beta 149.624761
_cell_angle_gamma 90.000000
_cell_volume 2243.928350
_symmetry_space_group_name_H-M "C 2/C"
_symmetry_group_IT_number 15
_symmetry_cell_setting 'monoclinic'
loop_
_space_group_symop_operation_xyz
x,y,z
-x,y,1/2-z
-x,-y,-z
x,-y,1/2+z
1/2+x,1/2+y,z
1/2-x,1/2+y,1/2-z
1/2-x,1/2-y,-z
1/2+x,1/2-y,1/2+z
loop_
_atom_site_type_symbol
_atom_site_label
_atom_site_fract_x
_atom_site_fract_y
_atom_site_fract_z
Si Si1 0.459845 0.359284 0.354015
Si Si2 0.145393 0.621487 0.536219
Si Si3 0.556115 0.918347 0.755345
Si Si4 0.080965 0.760934 0.914873
Si Si5 0.260321 0.584168 0.463470
Si Si6 0.235480 0.105164 0.763819
O O1 0.535163 0.194110 0.446556
O O2 0.424986 0.252937 0.272547
O O3 0.509615 0.599329 0.386639
O O4 0.372649 0.401142 0.313309
O O5 0.147153 0.383230 0.509001
O O6 0.203080 0.801752 0.554228
O O7 0.190795 0.591383 0.628113
O O8 0.500000 0.784979 0.750000
O O9 0.656844 0.021713 0.861242
O O10 0.483657 0.120594 0.678594
O O11 0.158654 0.900949 0.950971
O O12 0.250000 0.750000 0.500000
O O13 0.250486 0.360071 0.752443
#
# Coordination Sequence:
#
# PCOD8149757 Si02
#       6
#     8   8   8   8   8   8
#     4  10  24  46  70 100 146 185 238 310 364 442
#     4  10  24  45  70 102 143 188 237 307 368 441
#     4  11  23  40  68 103 144 188 240 292 364 446
#     4  10  24  41  68  97 143 193 234 296 376 424
#     4  11  23  42  68 103 147 187 241 295 363 449
#     4  12  30  48  77 110 142 196 255 309 382 438
#
# _framework density 21.391057
#
# number of rings (size 3 to 8) (size 9 to 14) (size 15 to 20)
#    0.000    1.333    1.667    3.000   11.667    6.000 
#    0.000    0.000    0.000    0.000    0.000    0.000 
#    0.000    0.000    0.000    0.000    0.000    0.000 
#
# Total GULP energy -297417.747808 kJ/mol
# GULP energy per Si atom -12392.406159 kJ/mol
# Density = 2.134237 g / cm^3
# Si number density = 21.391057 Si / 1000 Ang^3
#
#
#
# Elastic Constant Matrix: (Units=GPa)
#
#
# Indices 1 2 3 4 5 6 
#
# 1 124.0599 39.4731 59.4614 -0.0121 23.6903 0.0045
# 2 39.4731 108.9163 45.8283 -0.0541 2.2579 -0.0968
# 3 59.4614 45.8283 161.4076 -0.0085 2.6687 -0.0032
# 4 -0.0121 -0.0541 -0.0085 16.5412 -0.0009 0.5978
# 5 23.6903 2.2579 2.6687 -0.0009 37.8335 -0.0099
# 6 0.0045 -0.0968 -0.0032 0.5978 -0.0099 24.0037
#
#
#
# Elastic Compliance Matrix: (Units=1/GPa)
#
#
# Indices 1 2 3 4 5 6 
#
# 1 0.011961 -0.002707 -0.003521 -0.000002 -0.007080 -0.000017
# 2 -0.002707 0.011046 -0.002159 0.000031 0.001188 0.000045
# 3 -0.003521 -0.002159 0.008076 -0.000005 0.001764 -0.000006
# 4 -0.000002 0.000031 -0.000005 0.060510 0.000001 -0.001507
# 5 -0.007080 0.001188 0.001764 0.000001 0.030670 0.000019
# 6 -0.000017 0.000045 -0.000006 -0.001507 0.000019 0.041698
#
#
# Mechanical properties :
#
#
# Convention : Reuss Voigt Hill
#
# Bulk Modulus (GPa) = 69.87669 75.98992 72.93330
# Shear Modulus (GPa) = 26.95358 32.31710 29.63534
#
# Velocity S-wave (km/s) = 3.55355 3.89109 3.72614
# Velocity P-wave (km/s) = 7.04090 7.46918 7.25820
#
# Compressibility (1/GPa) = 0.01431092
#
# Stress axis : x y z
#
# Youngs Moduli (GPa) = 83.60239 90.52951 123.81834
#
# Poissons Ratio (x) = 0.24504 0.43595
# Poissons Ratio (y) = 0.22629 0.26730
# Poissons Ratio (z) = 0.29436 0.19543
#
# Static dielectric constant tensor:
#      x y z
#    x 3.868470 -0.000060 0.094710 
#    y -0.000060 4.149240 -0.000040 
#    z 0.094710 -0.000040 3.877650 
# 
# 
# High freq. dielectric constant tensor:
#      x y z
#    x 1.841490 0.000000 0.014530 
#    y 0.000000 1.838090 0.000000 
#    z 0.014530 0.000000 1.858770 
# 
# From -- ./inp_files/304120.got.cif
#   From: 2010.06.25/outbox.cif.g09.slc.cpg/sg15_153_cif.got.tgz:304120.got - 2010.06.28 07:06:18.
