data_PCOD8149320
_publ_section_title
;
Structure prediction by ZEFSAII (Michael W. Deem and Ramdas Pophale) SiO2 
 PCOD8149320
Probable space group: C 2/C
;
_chemical_formula_sum "Si O2"
_cell_formula_units_Z 60
_cell_length_a 23.227813
_cell_length_b 13.031699
_cell_length_c 20.536013
_cell_angle_alpha 90.000000
_cell_angle_beta 27.603637
_cell_angle_gamma 90.000000
_cell_volume 2880.293896
_symmetry_space_group_name_H-M "C 2/C"
_symmetry_group_IT_number 15
_symmetry_cell_setting 'monoclinic'
loop_
_space_group_symop_operation_xyz
x,y,z
-x,y,1/2-z
-x,-y,-z
x,-y,1/2+z
1/2+x,1/2+y,z
1/2-x,1/2+y,1/2-z
1/2-x,1/2-y,-z
1/2+x,1/2-y,1/2+z
loop_
_atom_site_type_symbol
_atom_site_label
_atom_site_fract_x
_atom_site_fract_y
_atom_site_fract_z
Si Si1 0.461655 0.443803 0.715218
Si Si2 0.607582 0.074516 0.266466
Si Si3 0.040252 0.710738 0.990683
Si Si4 0.208391 0.648383 0.500706
Si Si5 0.714131 0.913001 0.240743
Si Si6 0.626220 0.419407 0.966818
Si Si7 0.000000 0.506290 0.750000
Si Si8 0.903386 0.766971 0.995682
O O1 0.500000 0.465282 0.750000
O O2 0.315864 0.423407 0.863949
O O3 0.505668 0.540760 0.627304
O O4 0.523572 0.343655 0.623848
O O5 0.560028 0.167051 0.359168
O O6 0.754689 0.097941 0.104019
O O7 0.603763 0.965702 0.309038
O O8 0.517597 0.068687 0.294251
O O9 0.152767 0.627948 0.869328
O O10 0.092878 0.816663 0.963758
O O11 0.980542 0.730908 0.980329
O O12 0.250000 0.750000 0.500000
O O13 0.125412 0.671189 0.520990
O O14 0.123255 0.576044 0.630539
O O15 0.770240 0.814336 0.148275
O O16 0.827560 0.996382 0.134598
#
# Coordination Sequence:
#
# PCOD8149320 Si02
#       8
#     8   8   8   8   8   8   4   8
#     4  11  21  41  65  96 137 176 217 279 345 399
#     4  10  23  45  67  93 135 176 221 287 333 406
#     4  12  22  44  68  98 132 185 228 272 345 399
#     4  12  22  38  68 100 136 175 223 278 344 405
#     4   9  21  41  64  92 139 165 218 280 332 388
#     4   9  24  44  66  97 134 177 223 286 332 405
#     4  12  24  44  64  98 136 174 230 272 344 406
#     4  11  22  38  65 102 132 174 224 275 340 408
#
# _framework density 20.831206999999999
#
# number of rings (size 3 to 8) (size 9 to 14) (size 15 to 20)
#    0.800    0.533    1.333    5.200    0.000    2.133 
#   10.800    0.667    0.000    0.000    0.000    0.000 
#    0.000    0.000    0.000    0.000    0.000    0.000 
#
# Total GULP energy -371715.575335 kJ/mol
# GULP energy per Si atom -12390.519178 kJ/mol
# Density = 2.078379 g / cm^3
# Si number density = 20.831207 Si / 1000 Ang^3
#
#
#
# Elastic Constant Matrix: (Units=GPa)
#
#
# Indices 1 2 3 4 5 6 
#
# 1 100.7359 51.6333 32.6503 -0.0001 -2.7249 0.0000
# 2 51.6333 83.3370 47.7206 0.0000 6.2233 0.0000
# 3 32.6503 47.7206 117.5069 0.0001 6.2075 0.0000
# 4 -0.0001 0.0000 0.0001 42.0715 0.0000 2.1860
# 5 -2.7249 6.2233 6.2075 0.0000 19.8089 0.0000
# 6 0.0000 0.0000 0.0000 2.1860 0.0000 18.7322
#
#
#
# Elastic Compliance Matrix: (Units=1/GPa)
#
#
# Indices 1 2 3 4 5 6 
#
# 1 0.015076 -0.009348 -0.000669 0.000000 0.005220 0.000000
# 2 -0.009348 0.021605 -0.005847 0.000000 -0.006241 0.000000
# 3 -0.000669 -0.005847 0.011163 0.000000 -0.001753 0.000000
# 4 0.000000 0.000000 0.000000 0.023914 0.000000 -0.002791
# 5 0.005220 -0.006241 -0.001753 0.000000 0.053711 0.000000
# 6 0.000000 0.000000 0.000000 -0.002791 0.000000 0.053710
#
#
# Mechanical properties :
#
#
# Convention : Reuss Voigt Hill
#
# Bulk Modulus (GPa) = 62.04342 62.84313 62.44328
# Shear Modulus (GPa) = 23.11838 27.42756 25.27297
#
# Velocity S-wave (km/s) = 3.33497 3.63251 3.48692
# Velocity P-wave (km/s) = 6.68416 6.91569 6.80091
#
# Compressibility (1/GPa) = 0.01611774
#
# Stress axis : x y z
#
# Youngs Moduli (GPa) = 66.33005 46.28498 89.58111
#
# Poissons Ratio (x) = 0.43266 0.05989
# Poissons Ratio (y) = 0.62003 0.52379
# Poissons Ratio (z) = 0.04435 0.27063
#
# Static dielectric constant tensor:
#      x y z
#    x 3.467640 0.000000 0.046900 
#    y 0.000000 3.614030 0.000000 
#    z 0.046900 0.000000 4.033390 
# 
# 
# High freq. dielectric constant tensor:
#      x y z
#    x 1.794950 0.000000 -0.001090 
#    y 0.000000 1.803590 0.000000 
#    z -0.001090 0.000000 1.828390 
# 
# From -- ./inp_files/253040.got.cif
#   From: 2010.06.25/outbox.cif.g09.slc.cpg/sg15_127_cif.got.tgz:253040.got - 2010.06.28 07:06:18.
