data_PCOD8149745
_publ_section_title
;
Structure prediction by ZEFSAII (Michael W. Deem and Ramdas Pophale) SiO2 
 PCOD8149745
Probable space group: C 2/C
;
_chemical_formula_sum "Si O2"
_cell_formula_units_Z 64
_cell_length_a 14.834923
_cell_length_b 8.739997
_cell_length_c 31.121929
_cell_angle_alpha 90.000000
_cell_angle_beta 133.592180
_cell_angle_gamma 90.000000
_cell_volume 2922.544766
_symmetry_space_group_name_H-M "C 2/C"
_symmetry_group_IT_number 15
_symmetry_cell_setting 'monoclinic'
loop_
_space_group_symop_operation_xyz
x,y,z
-x,y,1/2-z
-x,-y,-z
x,-y,1/2+z
1/2+x,1/2+y,z
1/2-x,1/2+y,1/2-z
1/2-x,1/2-y,-z
1/2+x,1/2-y,1/2+z
loop_
_atom_site_type_symbol
_atom_site_label
_atom_site_fract_x
_atom_site_fract_y
_atom_site_fract_z
Si Si1 0.755517 0.116987 0.818409
Si Si2 0.438675 0.880634 0.315905
Si Si3 0.568549 0.087648 0.484726
Si Si4 0.918290 0.944532 0.012009
Si Si5 0.013135 0.052227 0.133281
Si Si6 0.312989 0.951113 0.617330
Si Si7 0.652895 0.046830 0.140107
Si Si8 0.801571 0.902768 0.111976
O O1 0.624194 0.139811 0.751304
O O2 0.825129 0.276998 0.843389
O O3 0.844017 0.001353 0.821133
O O4 0.734994 0.053678 0.859260
O O5 0.494740 0.725120 0.353026
O O6 0.546817 0.005818 0.347599
O O7 0.330408 0.945008 0.311856
O O8 0.546015 0.267773 0.473211
O O9 0.495526 0.020277 0.419574
O O10 0.716227 0.064189 0.541070
O O11 0.500000 0.000000 0.500000
O O12 0.773402 0.976197 0.953147
O O13 0.951362 0.036053 0.066034
O O14 0.000000 0.000000 0.000000
O O15 0.939449 0.953759 0.144679
O O16 0.303639 0.773205 0.627005
O O17 0.749137 0.996006 0.135102
#
# Coordination Sequence:
#
# PCOD8149745 Si02
#       8
#     8   8   8   8   8   8   8   8
#     4  12  24  48  68  94 133 179 230 285 332 397
#     4  12  28  43  67  98 132 183 232 276 331 405
#     4   9  20  37  65  95 133 170 212 267 337 400
#     4  11  22  40  68 102 136 174 218 280 345 406
#     4  12  25  43  69 102 141 176 227 278 341 408
#     4  11  24  44  70  99 137 172 225 280 344 403
#     4  11  22  44  68  95 133 176 227 274 335 397
#     4  10  24  41  67 101 135 174 215 275 342 407
#
# _framework density 21.898724999999999
#
# number of rings (size 3 to 8) (size 9 to 14) (size 15 to 20)
#    0.000    1.000    2.500    3.375    5.250    2.500 
#    0.000    5.625    0.000    0.000    0.000    0.000 
#    0.000    0.000    0.000    0.000    0.000    0.000 
#
# Total GULP energy -396643.142087 kJ/mol
# GULP energy per Si atom -12395.098190 kJ/mol
# Density = 2.184888 g / cm^3
# Si number density = 21.898725 Si / 1000 Ang^3
#
#
#
# Elastic Constant Matrix: (Units=GPa)
#
#
# Indices 1 2 3 4 5 6 
#
# 1 65.3033 6.5405 21.5802 0.0000 9.8611 0.0000
# 2 6.5405 80.1360 33.5949 0.0000 -5.1572 0.0000
# 3 21.5802 33.5949 117.0970 0.0000 4.6434 0.0000
# 4 0.0000 0.0000 0.0000 24.0202 0.0000 -3.9713
# 5 9.8611 -5.1572 4.6434 0.0000 25.2739 0.0000
# 6 0.0000 0.0000 0.0000 -3.9713 0.0000 38.9676
#
#
#
# Elastic Compliance Matrix: (Units=1/GPa)
#
#
# Indices 1 2 3 4 5 6 
#
# 1 0.017244 -0.000671 -0.002733 0.000000 -0.006363 0.000000
# 2 -0.000671 0.014557 -0.004212 0.000000 0.004006 0.000000
# 3 -0.002733 -0.004212 0.010319 0.000000 -0.001689 0.000000
# 4 0.000000 0.000000 0.000000 0.042345 0.000000 0.004315
# 5 -0.006363 0.004006 -0.001689 0.000000 0.043177 0.000000
# 6 0.000000 0.000000 0.000000 0.004315 0.000000 0.026102
#
#
# Mechanical properties :
#
#
# Convention : Reuss Voigt Hill
#
# Bulk Modulus (GPa) = 37.19049 42.88529 40.03789
# Shear Modulus (GPa) = 28.09954 31.04039 29.56996
#
# Velocity S-wave (km/s) = 3.58601 3.76899 3.67864
# Velocity P-wave (km/s) = 5.84515 6.21018 6.03043
#
# Compressibility (1/GPa) = 0.02688860
#
# Stress axis : x y z
#
# Youngs Moduli (GPa) = 57.98970 68.69581 96.90980
#
# Poissons Ratio (x) = 0.04610 0.26487
# Poissons Ratio (y) = 0.03892 0.40814
# Poissons Ratio (z) = 0.15850 0.28931
#
# Static dielectric constant tensor:
#      x y z
#    x 3.852250 0.000000 0.032530 
#    y 0.000000 3.906920 0.000000 
#    z 0.032530 0.000000 4.436510 
# 
# 
# High freq. dielectric constant tensor:
#      x y z
#    x 1.860390 0.000000 0.001940 
#    y 0.000000 1.866580 0.000000 
#    z 0.001940 0.000000 1.868470 
# 
# From -- ./inp_files/313168.got.cif
#   From: 2010.06.25/outbox.cif.g09.slc.cpg/sg15_157_cif.got.tgz:313168.got - 2010.06.28 07:06:18.
