data_PCOD8149719
_publ_section_title
;
Structure prediction by ZEFSAII (Michael W. Deem and Ramdas Pophale) SiO2 
 PCOD8149719
Probable space group: C 2/C
;
_chemical_formula_sum "Si O2"
_cell_formula_units_Z 32
_cell_length_a 17.946451
_cell_length_b 7.359341
_cell_length_c 10.866715
_cell_angle_alpha 90.000000
_cell_angle_beta 112.672451
_cell_angle_gamma 90.000000
_cell_volume 1324.303049
_symmetry_space_group_name_H-M "C 2/C"
_symmetry_group_IT_number 15
_symmetry_cell_setting 'monoclinic'
loop_
_space_group_symop_operation_xyz
x,y,z
-x,y,1/2-z
-x,-y,-z
x,-y,1/2+z
1/2+x,1/2+y,z
1/2-x,1/2+y,1/2-z
1/2-x,1/2-y,-z
1/2+x,1/2-y,1/2+z
loop_
_atom_site_type_symbol
_atom_site_label
_atom_site_fract_x
_atom_site_fract_y
_atom_site_fract_z
Si Si1 0.024730 0.883196 0.129828
Si Si2 0.932656 0.468676 0.620356
Si Si3 0.811670 0.231411 0.697941
Si Si4 0.217111 0.392822 0.576437
O O1 0.121091 0.884436 0.186938
O O2 0.000000 0.958217 0.250000
O O3 0.982623 0.686631 0.081394
O O4 0.000000 0.000000 0.000000
O O5 0.857995 0.382220 0.648428
O O6 0.882317 0.600755 0.497654
O O7 0.000000 0.570301 0.750000
O O8 0.758919 0.330257 0.770441
O O9 0.756819 0.093705 0.581627
O O10 0.250000 0.250000 0.500000
#
# Coordination Sequence:
#
# PCOD8149719 Si02
#       4
#     8   8   8   8
#     4   9  21  40  68  95 132 177 225 283 341 414
#     4   9  22  45  66  95 134 172 228 283 340 412
#     4  10  24  41  61  99 128 173 227 278 349 406
#     4  12  25  41  67  94 136 179 225 286 347 413
#
# _framework density 24.163653
#
# number of rings (size 3 to 8) (size 9 to 14) (size 15 to 20)
#    0.000    2.500    0.000    2.250   10.500    4.000 
#    4.500    0.000    0.000    0.000    0.000    0.000 
#    0.000    0.000    0.000    0.000    0.000    0.000 
#
# Total GULP energy -198220.192277 kJ/mol
# GULP energy per Si atom -12388.762017 kJ/mol
# Density = 2.410866 g / cm^3
# Si number density = 24.163653 Si / 1000 Ang^3
#
#
#
# Elastic Constant Matrix: (Units=GPa)
#
#
# Indices 1 2 3 4 5 6 
#
# 1 86.3039 19.0954 13.9630 0.0000 19.8875 0.0000
# 2 19.0954 47.1836 27.1301 0.0000 3.0287 0.0000
# 3 13.9630 27.1301 84.1771 0.0000 35.5907 0.0000
# 4 0.0000 0.0000 0.0000 49.4314 0.0000 6.6627
# 5 19.8875 3.0287 35.5907 0.0000 42.3413 0.0000
# 6 0.0000 0.0000 0.0000 6.6627 0.0000 30.2745
#
#
#
# Elastic Compliance Matrix: (Units=1/GPa)
#
#
# Indices 1 2 3 4 5 6 
#
# 1 0.014963 -0.007902 0.004340 0.000000 -0.010110 0.000000
# 2 -0.007902 0.032084 -0.014937 0.000000 0.013972 0.000000
# 3 0.004340 -0.014937 0.025418 0.000000 -0.022335 0.000000
# 4 0.000000 0.000000 0.000000 0.020848 0.000000 -0.004588
# 5 -0.010110 0.013972 -0.022335 0.000000 0.046141 0.000000
# 6 0.000000 0.000000 0.000000 -0.004588 0.000000 0.034041
#
#
# Mechanical properties :
#
#
# Convention : Reuss Voigt Hill
#
# Bulk Modulus (GPa) = 28.19692 37.56019 32.87856
# Shear Modulus (GPa) = 22.49054 34.90783 28.69919
#
# Velocity S-wave (km/s) = 3.05414 3.80497 3.45004
# Velocity P-wave (km/s) = 4.91239 5.90606 5.43199
#
# Compressibility (1/GPa) = 0.03546486
#
# Stress axis : x y z
#
# Youngs Moduli (GPa) = 66.83139 31.16846 39.34295
#
# Poissons Ratio (x) = 0.24629 -0.17073
# Poissons Ratio (y) = 0.52809 0.58768
# Poissons Ratio (z) = -0.29002 0.46558
#
# Static dielectric constant tensor:
#      x y z
#    x 4.528060 0.000000 0.522620 
#    y 0.000000 4.007280 0.000000 
#    z 0.522620 0.000000 4.725860 
# 
# 
# High freq. dielectric constant tensor:
#      x y z
#    x 1.966670 0.000000 0.010320 
#    y 0.000000 1.928010 0.000000 
#    z 0.010320 0.000000 1.974650 
# 
# From -- ./inp_files/93545.got.cif
#   From: 2010.06.25/outbox.cif.g09.slc.cpg/sg15_47_cif.got.tgz:93545.got - 2010.06.28 07:06:18.
