data_PCOD8149352
_publ_section_title
;
Structure prediction by ZEFSAII (Michael W. Deem and Ramdas Pophale) SiO2 
 PCOD8149352
Probable space group: C 2/C
;
_chemical_formula_sum "Si O2"
_cell_formula_units_Z 36
_cell_length_a 14.701845
_cell_length_b 13.326264
_cell_length_c 11.467904
_cell_angle_alpha 90.000000
_cell_angle_beta 45.073832
_cell_angle_gamma 90.000000
_cell_volume 1590.773031
_symmetry_space_group_name_H-M "C 2/C"
_symmetry_group_IT_number 15
_symmetry_cell_setting 'monoclinic'
loop_
_space_group_symop_operation_xyz
x,y,z
-x,y,1/2-z
-x,-y,-z
x,-y,1/2+z
1/2+x,1/2+y,z
1/2-x,1/2+y,1/2-z
1/2-x,1/2-y,-z
1/2+x,1/2-y,1/2+z
loop_
_atom_site_type_symbol
_atom_site_label
_atom_site_fract_x
_atom_site_fract_y
_atom_site_fract_z
Si Si1 0.790695 0.198953 0.843063
Si Si2 0.286516 0.589717 0.504206
Si Si3 0.405647 0.913388 0.123514
Si Si4 0.856620 0.703937 0.053307
Si Si5 0.000000 0.934414 0.250000
O O1 0.681786 0.118831 0.906478
O O2 0.804136 0.284757 0.732634
O O3 0.925521 0.138739 0.727985
O O4 0.750000 0.250000 0.000000
O O5 0.177688 0.550784 0.691085
O O6 0.224712 0.613773 0.433533
O O7 0.348195 0.691981 0.493752
O O8 0.394259 0.504068 0.407254
O O9 0.492219 0.819638 0.085306
O O10 0.500000 0.000000 0.000000
#
# Coordination Sequence:
#
# PCOD8149352 Si02
#       5
#     8   8   8   8   4
#     4  11  26  46  69 101 139 192 225 289 364 418
#     4  10  25  43  74 104 136 185 236 292 358 412
#     4  11  24  44  73 101 137 184 237 291 345 422
#     4  10  23  45  70 101 142 184 235 290 352 419
#     4  12  26  46  70 104 144 180 240 298 344 442
#
# _framework density 22.630506
#
# number of rings (size 3 to 8) (size 9 to 14) (size 15 to 20)
#    0.000    1.333    0.000    3.333   12.444    3.556 
#    0.000    0.000    0.000    0.000    0.000    0.000 
#    0.000    0.000    0.000    0.000    0.000    0.000 
#
# Total GULP energy -223236.527982 kJ/mol
# GULP energy per Si atom -12402.029332 kJ/mol
# Density = 2.257900 g / cm^3
# Si number density = 22.630506 Si / 1000 Ang^3
#
#
#
# Elastic Constant Matrix: (Units=GPa)
#
#
# Indices 1 2 3 4 5 6 
#
# 1 172.5990 60.3956 83.9891 0.0000 -5.2774 0.0000
# 2 60.3956 96.0415 74.1973 0.0000 -4.1675 0.0000
# 3 83.9891 74.1973 180.4653 0.0000 3.5930 0.0000
# 4 0.0000 0.0000 0.0000 50.5878 0.0000 -18.9038
# 5 -5.2774 -4.1675 3.5930 0.0000 48.3309 0.0000
# 6 0.0000 0.0000 0.0000 -18.9038 0.0000 33.1983
#
#
#
# Elastic Compliance Matrix: (Units=1/GPa)
#
#
# Indices 1 2 3 4 5 6 
#
# 1 0.008141 -0.003144 -0.002512 0.000000 0.000805 0.000000
# 2 -0.003144 0.016628 -0.005403 0.000000 0.001492 0.000000
# 3 -0.002512 -0.005403 0.008960 0.000000 -0.001406 0.000000
# 4 0.000000 0.000000 0.000000 0.025111 0.000000 0.014299
# 5 0.000805 0.001492 -0.001406 0.000000 0.021012 0.000000
# 6 0.000000 0.000000 0.000000 0.014299 0.000000 0.038264
#
#
# Mechanical properties :
#
#
# Convention : Reuss Voigt Hill
#
# Bulk Modulus (GPa) = 86.12772 98.47443 92.30107
# Shear Modulus (GPa) = 34.69717 41.79164 38.24441
#
# Velocity S-wave (km/s) = 3.91986 4.30198 4.11536
# Velocity P-wave (km/s) = 7.65689 8.26345 7.96594
#
# Compressibility (1/GPa) = 0.01161066
#
# Stress axis : x y z
#
# Youngs Moduli (GPa) = 122.83619 60.13949 111.60721
#
# Poissons Ratio (x) = 0.18905 0.28040
# Poissons Ratio (y) = 0.38614 0.60304
# Poissons Ratio (z) = 0.30861 0.32495
#
# Static dielectric constant tensor:
#      x y z
#    x 4.697020 0.000000 -0.218820 
#    y 0.000000 4.119710 0.000000 
#    z -0.218820 0.000000 4.146360 
# 
# 
# High freq. dielectric constant tensor:
#      x y z
#    x 1.913330 0.000000 -0.010130 
#    y 0.000000 1.894560 0.000000 
#    z -0.010130 0.000000 1.888970 
# 
# From -- ./inp_files/96777.got.cif
#   From: 2010.06.25/outbox.cif.g09.slc.cpg/sg15_49_cif.got.tgz:96777.got - 2010.06.28 07:06:18.
