data_PCOD8149999
_publ_section_title
;
Structure prediction by ZEFSAII (Michael W. Deem and Ramdas Pophale) SiO2 
 PCOD8149999
Probable space group: C 2/C
;
_chemical_formula_sum "Si O2"
_cell_formula_units_Z 32
_cell_length_a 12.617322
_cell_length_b 24.121919
_cell_length_c 7.778085
_cell_angle_alpha 90.000000
_cell_angle_beta 39.910962
_cell_angle_gamma 90.000000
_cell_volume 1518.845651
_symmetry_space_group_name_H-M "C 2/C"
_symmetry_group_IT_number 15
_symmetry_cell_setting 'monoclinic'
loop_
_space_group_symop_operation_xyz
x,y,z
-x,y,1/2-z
-x,-y,-z
x,-y,1/2+z
1/2+x,1/2+y,z
1/2-x,1/2+y,1/2-z
1/2-x,1/2-y,-z
1/2+x,1/2-y,1/2+z
loop_
_atom_site_type_symbol
_atom_site_label
_atom_site_fract_x
_atom_site_fract_y
_atom_site_fract_z
Si Si1 0.500000 0.373590 0.750000
Si Si2 0.500000 0.014997 0.250000
Si Si3 0.665986 0.076420 0.768804
Si Si4 0.518989 0.818565 0.924574
Si Si5 0.603057 0.698626 0.448422
O O1 0.645221 0.414179 0.512321
O O2 0.454738 0.337839 0.639573
O O3 0.398896 0.975958 0.252031
O O4 0.362049 0.056238 0.501488
O O5 0.563689 0.133004 0.858823
O O6 0.500000 0.834629 0.750000
O O7 0.707404 0.812190 0.745203
O O8 0.419087 0.762042 0.082634
O O9 0.500000 0.685431 0.750000
#
# Coordination Sequence:
#
# PCOD8149999 Si02
#       5
#     4   4   8   8   8
#     4  12  26  43  68 104 136 171 224 268 334 400
#     4  10  24  43  68  90 128 173 226 276 334 382
#     4  11  23  43  66  96 127 176 219 277 328 392
#     4  11  21  41  68  96 138 179 215 270 334 392
#     4  11  24  40  66 103 139 177 216 265 330 405
#
# _framework density 21.068632999999998
#
# number of rings (size 3 to 8) (size 9 to 14) (size 15 to 20)
#    0.000    1.000    1.250    7.500    0.000    6.000 
#    0.000    0.000    0.000    0.000    0.000    0.000 
#    0.000    0.000    0.000    0.000    0.000    0.000 
#
# Total GULP energy -198341.380269 kJ/mol
# GULP energy per Si atom -12396.336267 kJ/mol
# Density = 2.102068 g / cm^3
# Si number density = 21.068633 Si / 1000 Ang^3
#
#
#
# Elastic Constant Matrix: (Units=GPa)
#
#
# Indices 1 2 3 4 5 6 
#
# 1 108.7769 47.7105 59.1087 0.0000 -11.1807 0.0000
# 2 47.7105 137.9710 95.7591 0.0000 -7.5787 0.0000
# 3 59.1087 95.7591 177.1239 0.0000 -20.8876 0.0000
# 4 0.0000 0.0000 0.0000 25.4478 0.0000 -8.0731
# 5 -11.1807 -7.5787 -20.8876 0.0000 43.2881 0.0000
# 6 0.0000 0.0000 0.0000 -8.0731 0.0000 5.0576
#
#
#
# Elastic Compliance Matrix: (Units=1/GPa)
#
#
# Indices 1 2 3 4 5 6 
#
# 1 0.011684 -0.002196 -0.002546 0.000000 0.001405 0.000000
# 2 -0.002196 0.012059 -0.005943 0.000000 -0.001324 0.000000
# 3 -0.002546 -0.005943 0.010082 0.000000 0.003167 0.000000
# 4 0.000000 0.000000 0.000000 0.079610 0.000000 0.127077
# 5 0.001405 -0.001324 0.003167 0.000000 0.024760 0.000000
# 6 0.000000 0.000000 0.000000 0.127077 0.000000 0.400568
#
#
# Mechanical properties :
#
#
# Convention : Reuss Voigt Hill
#
# Bulk Modulus (GPa) = 80.28882 92.11428 86.20155
# Shear Modulus (GPa) = 8.86075 29.51160 19.18618
#
# Velocity S-wave (km/s) = 2.05300 3.74670 3.02097
# Velocity P-wave (km/s) = 6.61896 7.90778 7.29190
#
# Compressibility (1/GPa) = 0.01245503
#
# Stress axis : x y z
#
# Youngs Moduli (GPa) = 85.58438 82.92398 99.18811
#
# Poissons Ratio (x) = 0.18210 0.25257
# Poissons Ratio (y) = 0.18794 0.58946
# Poissons Ratio (z) = 0.21793 0.49281
#
# Static dielectric constant tensor:
#      x y z
#    x 3.788680 0.000000 -0.470930 
#    y 0.000000 4.080440 0.000000 
#    z -0.470930 0.000000 2.212890 
# 
# 
# High freq. dielectric constant tensor:
#      x y z
#    x 1.826330 0.000000 0.006740 
#    y 0.000000 1.840940 0.000000 
#    z 0.006740 0.000000 1.836870 
# 
# From -- ./inp_files/23047.got.cif
#   From: 2010.06.25/outbox.cif.g09.slc.cpg/sg15_12_cif.got.tgz:23047.got - 2010.06.28 07:06:18.
