data_PCOD8149312
_publ_section_title
;
Structure prediction by ZEFSAII (Michael W. Deem and Ramdas Pophale) SiO2 
 PCOD8149312
Probable space group: C 2/C
;
_chemical_formula_sum "Si O2"
_cell_formula_units_Z 28
_cell_length_a 17.681369
_cell_length_b 6.798783
_cell_length_c 7.962174
_cell_angle_alpha 90.000000
_cell_angle_beta 110.983174
_cell_angle_gamma 90.000000
_cell_volume 893.674581
_symmetry_space_group_name_H-M "C 2/C"
_symmetry_group_IT_number 15
_symmetry_cell_setting 'monoclinic'
loop_
_space_group_symop_operation_xyz
x,y,z
-x,y,1/2-z
-x,-y,-z
x,-y,1/2+z
1/2+x,1/2+y,z
1/2-x,1/2+y,1/2-z
1/2-x,1/2-y,-z
1/2+x,1/2-y,1/2+z
loop_
_atom_site_type_symbol
_atom_site_label
_atom_site_fract_x
_atom_site_fract_y
_atom_site_fract_z
Si Si1 0.781185 0.201393 0.257613
Si Si2 0.000000 0.590978 0.250000
Si Si3 0.368382 0.384370 0.145441
Si Si4 0.621716 0.203765 0.969293
O O1 0.820638 0.248599 0.470201
O O2 0.682061 0.186782 0.179491
O O3 0.804841 0.972397 0.232457
O O4 0.819241 0.345161 0.145382
O O5 0.936965 0.743700 0.290602
O O6 0.047449 0.451746 0.420060
O O7 0.411294 0.571875 0.086005
#
# Coordination Sequence:
#
# PCOD8149312 Si02
#       4
#     8   4   8   8
#     4   9  22  47  69  89 140 170 225 265 324 384
#     4  12  24  40  70 102 132 176 212 270 352 362
#     4  10  23  45  66  99 128 178 213 279 314 399
#     4   9  23  45  63 101 135 168 219 281 308 406
#
# _framework density 31.331318
#
# number of rings (size 3 to 8) (size 9 to 14) (size 15 to 20)
#    1.714    0.571    0.000    0.857    4.000    3.429 
#    5.143    0.000    0.000    0.000    0.000    0.000 
#    0.000    0.000    0.000    0.000    0.000    0.000 
#
# Total GULP energy -173478.024639 kJ/mol
# GULP energy per Si atom -12391.287474 kJ/mol
# Density = 3.126001 g / cm^3
# Si number density = 31.331318 Si / 1000 Ang^3
#
#
#
# Elastic Constant Matrix: (Units=GPa)
#
#
# Indices 1 2 3 4 5 6 
#
# 1 158.2408 78.1288 47.7256 0.0000 39.4110 0.0000
# 2 78.1288 179.0719 78.0213 0.0000 51.4202 0.0000
# 3 47.7256 78.0213 192.3201 0.0000 46.9744 0.0000
# 4 0.0000 0.0000 0.0000 61.5780 0.0000 2.1867
# 5 39.4110 51.4202 46.9744 0.0000 46.5786 0.0000
# 6 0.0000 0.0000 0.0000 2.1867 0.0000 49.3230
#
#
#
# Elastic Compliance Matrix: (Units=1/GPa)
#
#
# Indices 1 2 3 4 5 6 
#
# 1 0.008689 -0.002452 -0.000036 0.000000 -0.004609 0.000000
# 2 -0.002452 0.009196 -0.001525 0.000000 -0.006540 0.000000
# 3 -0.000036 -0.001525 0.007176 0.000000 -0.005523 0.000000
# 4 0.000000 0.000000 0.000000 0.016265 0.000000 -0.000721
# 5 -0.004609 -0.006540 -0.005523 0.000000 0.038159 0.000000
# 6 0.000000 0.000000 0.000000 -0.000721 0.000000 0.020306
#
#
# Mechanical properties :
#
#
# Convention : Reuss Voigt Hill
#
# Bulk Modulus (GPa) = 58.69866 104.15380 81.42623
# Shear Modulus (GPa) = 44.05443 53.21306 48.63374
#
# Velocity S-wave (km/s) = 3.75385 4.12563 3.94412
# Velocity P-wave (km/s) = 6.12894 7.48394 6.84008
#
# Compressibility (1/GPa) = 0.01703616
#
# Stress axis : x y z
#
# Youngs Moduli (GPa) = 115.09177 108.73775 139.34659
#
# Poissons Ratio (x) = 0.26661 0.00498
# Poissons Ratio (y) = 0.28219 0.21251
# Poissons Ratio (z) = 0.00412 0.16583
#
# Static dielectric constant tensor:
#      x y z
#    x 5.599600 0.000000 -0.010510 
#    y 0.000000 5.966440 0.000000 
#    z -0.010510 0.000000 5.388330 
# 
# 
# High freq. dielectric constant tensor:
#      x y z
#    x 2.292400 0.000000 -0.011050 
#    y 0.000000 2.329990 0.000000 
#    z -0.011050 0.000000 2.281940 
# 
# From -- ./inp_files/53310.got.cif
#   From: 2010.06.25/outbox.cif.g09.slc.cpg/sg15_27_cif.got.tgz:53310.got - 2010.06.28 07:06:18.
