data_PCOD8149175
_publ_section_title
;
Structure prediction by ZEFSAII (Michael W. Deem and Ramdas Pophale) SiO2 
 PCOD8149175
Probable space group: C 2/C
;
_chemical_formula_sum "Si O2"
_cell_formula_units_Z 48
_cell_length_a 23.754055
_cell_length_b 12.922898
_cell_length_c 17.346047
_cell_angle_alpha 90.000000
_cell_angle_beta 24.079384
_cell_angle_gamma 90.000000
_cell_volume 2172.503398
_symmetry_space_group_name_H-M "C 2/C"
_symmetry_group_IT_number 15
_symmetry_cell_setting 'monoclinic'
loop_
_space_group_symop_operation_xyz
x,y,z
-x,y,1/2-z
-x,-y,-z
x,-y,1/2+z
1/2+x,1/2+y,z
1/2-x,1/2+y,1/2-z
1/2-x,1/2-y,-z
1/2+x,1/2-y,1/2+z
loop_
_atom_site_type_symbol
_atom_site_label
_atom_site_fract_x
_atom_site_fract_y
_atom_site_fract_z
Si Si1 0.500000 0.064348 0.250000
Si Si2 0.500000 0.734246 0.250000
Si Si3 0.698755 0.607777 0.907872
Si Si4 0.468526 0.102007 0.661484
Si Si5 0.232045 0.809381 0.100945
Si Si6 0.467392 0.565712 0.965535
Si Si7 0.720506 0.795679 0.771587
O O1 0.373888 0.131621 0.438925
O O2 0.538629 0.998243 0.276328
O O3 0.371965 0.662478 0.431285
O O4 0.554809 0.799731 0.253937
O O5 0.854596 0.586078 0.738251
O O6 0.695620 0.682941 0.838464
O O7 0.617319 0.502962 0.989830
O O8 0.612996 0.117886 0.436173
O O9 0.205890 0.722398 0.198632
O O10 0.107690 0.892377 0.251877
O O11 0.250000 0.750000 0.000000
O O12 0.500000 0.500000 0.000000
O O13 0.371731 0.663655 0.106898
#
# Coordination Sequence:
#
# PCOD8149175 Si02
#       7
#     4   4   8   8   8   8   8
#     4  11  26  46  71 102 140 182 229 290 353 416
#     4   9  22  40  67 102 138 174 225 294 355 408
#     4  11  24  41  73 101 137 187 236 291 351 421
#     4  10  23  44  69 103 137 177 233 290 348 418
#     4  12  27  49  72 100 148 184 233 295 356 422
#     4  12  26  46  73 105 139 189 243 290 350 430
#     4  11  25  47  71 103 141 190 234 297 355 415
#
# _framework density 22.094327
#
# number of rings (size 3 to 8) (size 9 to 14) (size 15 to 20)
#    0.000    1.000    1.667    3.500    7.000    0.667 
#    0.000    0.000    0.000    0.000    0.000    0.000 
#    0.000    0.000    0.000    0.000    0.000    0.000 
#
# Total GULP energy -297700.178780 kJ/mol
# GULP energy per Si atom -12404.174116 kJ/mol
# Density = 2.204404 g / cm^3
# Si number density = 22.094327 Si / 1000 Ang^3
#
#
#
# Elastic Constant Matrix: (Units=GPa)
#
#
# Indices 1 2 3 4 5 6 
#
# 1 112.0307 24.5767 40.5505 0.0000 6.0506 0.0000
# 2 24.5767 79.2640 39.6912 0.0000 3.0326 0.0000
# 3 40.5505 39.6912 147.2136 0.0000 -2.8301 0.0000
# 4 0.0000 0.0000 0.0000 43.1940 0.0000 -6.5590
# 5 6.0506 3.0326 -2.8301 0.0000 45.3216 0.0000
# 6 0.0000 0.0000 0.0000 -6.5590 0.0000 25.7530
#
#
#
# Elastic Compliance Matrix: (Units=1/GPa)
#
#
# Indices 1 2 3 4 5 6 
#
# 1 0.010275 -0.001968 -0.002326 0.000000 -0.001385 0.000000
# 2 -0.001968 0.015030 -0.003529 0.000000 -0.000963 0.000000
# 3 -0.002326 -0.003529 0.008406 0.000000 0.001072 0.000000
# 4 0.000000 0.000000 0.000000 0.024083 0.000000 0.006134
# 5 -0.001385 -0.000963 0.001072 0.000000 0.022381 0.000000
# 6 0.000000 0.000000 0.000000 0.006134 0.000000 0.040393
#
#
# Mechanical properties :
#
#
# Convention : Reuss Voigt Hill
#
# Bulk Modulus (GPa) = 55.35719 60.90500 58.13109
# Shear Modulus (GPa) = 35.15333 38.43305 36.79319
#
# Velocity S-wave (km/s) = 3.99313 4.17525 4.08521
# Velocity P-wave (km/s) = 6.80951 7.13228 6.97276
#
# Compressibility (1/GPa) = 0.01806450
#
# Stress axis : x y z
#
# Youngs Moduli (GPa) = 97.32684 66.53293 118.96755
#
# Poissons Ratio (x) = 0.13093 0.27675
# Poissons Ratio (y) = 0.19153 0.41982
# Poissons Ratio (z) = 0.22641 0.23478
#
# Static dielectric constant tensor:
#      x y z
#    x 3.776620 0.000000 0.119700 
#    y 0.000000 4.204590 0.000000 
#    z 0.119700 0.000000 4.132090 
# 
# 
# High freq. dielectric constant tensor:
#      x y z
#    x 1.871240 0.000000 0.003820 
#    y 0.000000 1.874910 0.000000 
#    z 0.003820 0.000000 1.883730 
# 
# From -- ./inp_files/257609.got.cif
#   From: 2010.06.25/outbox.cif.g09.slc.cpg/sg15_129_cif.got.tgz:257609.got - 2010.06.28 07:06:18.
