data_PCOD8149589
_publ_section_title
;
Structure prediction by ZEFSAII (Michael W. Deem and Ramdas Pophale) SiO2 
 PCOD8149589
Probable space group: C 2/C
;
_chemical_formula_sum "Si O2"
_cell_formula_units_Z 40
_cell_length_a 5.048456
_cell_length_b 28.374532
_cell_length_c 13.342574
_cell_angle_alpha 90.000000
_cell_angle_beta 85.558673
_cell_angle_gamma 90.000000
_cell_volume 1905.552078
_symmetry_space_group_name_H-M "C 2/C"
_symmetry_group_IT_number 15
_symmetry_cell_setting 'monoclinic'
loop_
_space_group_symop_operation_xyz
x,y,z
-x,y,1/2-z
-x,-y,-z
x,-y,1/2+z
1/2+x,1/2+y,z
1/2-x,1/2+y,1/2-z
1/2-x,1/2-y,-z
1/2+x,1/2-y,1/2+z
loop_
_atom_site_type_symbol
_atom_site_label
_atom_site_fract_x
_atom_site_fract_y
_atom_site_fract_z
Si Si1 0.802801 0.856228 0.633758
Si Si2 0.500000 0.222243 0.250000
Si Si3 0.817642 0.367298 0.510464
Si Si4 0.262320 0.472878 0.957756
Si Si5 0.000000 0.062047 0.250000
Si Si6 0.223969 0.811726 0.312642
O O1 0.727283 0.810160 0.697237
O O2 0.617433 0.861181 0.541274
O O3 0.784636 0.904541 0.699049
O O4 0.111600 0.848344 0.599105
O O5 0.631449 0.256946 0.330335
O O6 0.756767 0.421736 0.491152
O O7 0.761144 0.337290 0.415160
O O8 0.327574 0.468909 0.835448
O O9 0.500000 0.500000 0.000000
O O10 0.000000 0.500000 0.000000
O O11 0.500000 0.813709 0.250000
O O12 0.000000 0.837665 0.250000
#
# Coordination Sequence:
#
# PCOD8149589 Si02
#       6
#     8   4   8   8   4   8
#     4  11  23  39  72  92 126 176 215 277 322 383
#     4  10  24  38  63  98 132 170 227 256 336 382
#     4  11  24  44  65  94 130 171 223 271 336 386
#     4  11  24  43  69  99 131 166 226 274 333 410
#     4  10  24  46  69 102 140 168 221 286 342 378
#     4  10  24  42  61  88 139 171 214 271 324 396
#
# _framework density 20.991292000000001
#
# number of rings (size 3 to 8) (size 9 to 14) (size 15 to 20)
#    0.600    0.800    0.000    6.000    4.200    5.600 
#    5.400    0.000    0.000    0.000    0.000    0.000 
#    0.000    0.000    0.000    0.000    0.000    0.000 
#
# Total GULP energy -247826.978522 kJ/mol
# GULP energy per Si atom -12391.348926 kJ/mol
# Density = 2.094351 g / cm^3
# Si number density = 20.991292 Si / 1000 Ang^3
#
#
#
# Elastic Constant Matrix: (Units=GPa)
#
#
# Indices 1 2 3 4 5 6 
#
# 1 127.4733 40.8329 45.1969 0.0000 -1.1650 0.0000
# 2 40.8329 128.7091 67.8546 0.0000 -11.4313 0.0000
# 3 45.1969 67.8546 127.6999 0.0000 -0.9706 0.0000
# 4 0.0000 0.0000 0.0000 42.9460 0.0000 -2.8077
# 5 -1.1650 -11.4313 -0.9706 0.0000 49.7494 0.0000
# 6 0.0000 0.0000 0.0000 -2.8077 0.0000 35.7029
#
#
#
# Elastic Compliance Matrix: (Units=1/GPa)
#
#
# Indices 1 2 3 4 5 6 
#
# 1 0.009225 -0.001700 -0.002363 0.000000 -0.000221 0.000000
# 2 -0.001700 0.011393 -0.005433 0.000000 0.002472 0.000000
# 3 -0.002363 -0.005433 0.011546 0.000000 -0.001078 0.000000
# 4 0.000000 0.000000 0.000000 0.023405 0.000000 0.001841
# 5 -0.000221 0.002472 -0.001078 0.000000 0.020643 0.000000
# 6 0.000000 0.000000 0.000000 0.001841 0.000000 0.028154
#
#
# Mechanical properties :
#
#
# Convention : Reuss Voigt Hill
#
# Bulk Modulus (GPa) = 75.92656 76.85012 76.38834
# Shear Modulus (GPa) = 39.13916 41.01287 40.07601
#
# Velocity S-wave (km/s) = 4.32272 4.42498 4.37415
# Velocity P-wave (km/s) = 7.82071 7.92447 7.87276
#
# Compressibility (1/GPa) = 0.01317062
#
# Stress axis : x y z
#
# Youngs Moduli (GPa) = 108.39661 87.77537 86.61031
#
# Poissons Ratio (x) = 0.14926 0.20468
# Poissons Ratio (y) = 0.18432 0.47055
# Poissons Ratio (z) = 0.25617 0.47688
#
# Static dielectric constant tensor:
#      x y z
#    x 4.011390 0.000000 -0.111190 
#    y 0.000000 3.966630 0.000000 
#    z -0.111190 0.000000 4.870460 
# 
# 
# High freq. dielectric constant tensor:
#      x y z
#    x 1.845790 0.000000 -0.000010 
#    y 0.000000 1.817570 0.000000 
#    z -0.000010 0.000000 1.811540 
# 
# From -- ./inp_files/73639.got.cif
#   From: 2010.06.25/outbox.cif.g09.slc.cpg/sg15_37_cif.got.tgz:73639.got - 2010.06.28 07:06:18.
