data_PCOD8149842
_publ_section_title
;
Structure prediction by ZEFSAII (Michael W. Deem and Ramdas Pophale) SiO2 
 PCOD8149842
Probable space group: C 2/C
;
_chemical_formula_sum "Si O2"
_cell_formula_units_Z 60
_cell_length_a 17.391017
_cell_length_b 11.024691
_cell_length_c 20.869245
_cell_angle_alpha 90.000000
_cell_angle_beta 43.058484
_cell_angle_gamma 90.000000
_cell_volume 2731.846981
_symmetry_space_group_name_H-M "C 2/C"
_symmetry_group_IT_number 15
_symmetry_cell_setting 'monoclinic'
loop_
_space_group_symop_operation_xyz
x,y,z
-x,y,1/2-z
-x,-y,-z
x,-y,1/2+z
1/2+x,1/2+y,z
1/2-x,1/2+y,1/2-z
1/2-x,1/2-y,-z
1/2+x,1/2-y,1/2+z
loop_
_atom_site_type_symbol
_atom_site_label
_atom_site_fract_x
_atom_site_fract_y
_atom_site_fract_z
Si Si1 0.450181 0.386551 0.345130
Si Si2 0.793690 0.560355 0.544663
Si Si3 0.985246 0.368139 0.644450
Si Si4 0.500000 0.944377 0.250000
Si Si5 0.788584 0.386655 0.664808
Si Si6 0.210558 0.368808 0.059168
Si Si7 0.123605 0.136728 0.939018
Si Si8 0.071672 0.049374 0.367617
O O1 0.500000 0.441008 0.250000
O O2 0.316779 0.367000 0.412335
O O3 0.517005 0.263301 0.321004
O O4 0.475662 0.489046 0.381954
O O5 0.905658 0.641739 0.469164
O O6 0.785326 0.506080 0.621522
O O7 0.821068 0.456089 0.478363
O O8 0.978859 0.469814 0.702301
O O9 0.877562 0.398234 0.667255
O O10 0.601761 0.853014 0.171330
O O11 0.822530 0.269326 0.602922
O O12 0.664084 0.374317 0.771758
O O13 0.306540 0.425043 0.046191
O O14 0.250000 0.250000 0.000000
O O15 0.135022 0.057949 0.867771
O O16 0.992827 0.138913 0.042942
#
# Coordination Sequence:
#
# PCOD8149842 Si02
#       8
#     8   8   8   4   8   8   8   8
#     4  12  22  44  71  98 132 183 236 277 346 419
#     4  11  24  42  67  98 138 176 224 293 336 409
#     4  11  24  45  66 101 136 178 232 282 346 410
#     4  10  24  42  66  92 130 172 210 282 334 394
#     4  12  24  45  68 102 138 180 228 287 353 409
#     4  11  22  41  64  92 129 169 218 269 337 410
#     4  11  24  45  65  98 132 177 229 273 350 410
#     4  11  25  45  69  94 141 181 225 293 342 420
#
# _framework density 21.963163999999999
#
# number of rings (size 3 to 8) (size 9 to 14) (size 15 to 20)
#    0.000    0.800    6.000    1.600    0.000    1.067 
#    8.400    0.000    0.000    0.000    0.000    0.000 
#    0.000    0.000    0.000    0.000    0.000    0.000 
#
# Total GULP energy -371811.581045 kJ/mol
# GULP energy per Si atom -12393.719368 kJ/mol
# Density = 2.191318 g / cm^3
# Si number density = 21.963164 Si / 1000 Ang^3
#
#
#
# Elastic Constant Matrix: (Units=GPa)
#
#
# Indices 1 2 3 4 5 6 
#
# 1 127.5994 24.9027 36.0916 0.0000 -1.1844 0.0000
# 2 24.9027 64.8839 37.3271 0.0000 1.8869 0.0000
# 3 36.0916 37.3271 149.0569 0.0000 -7.9977 0.0000
# 4 0.0000 0.0000 0.0000 34.0484 0.0000 -0.5030
# 5 -1.1844 1.8869 -7.9977 0.0000 35.4955 0.0000
# 6 0.0000 0.0000 0.0000 -0.5030 0.0000 21.6961
#
#
#
# Elastic Compliance Matrix: (Units=1/GPa)
#
#
# Indices 1 2 3 4 5 6 
#
# 1 0.008747 -0.002505 -0.001486 0.000000 0.000090 0.000000
# 2 -0.002505 0.018865 -0.004227 0.000000 -0.002039 0.000000
# 3 -0.001486 -0.004227 0.008236 0.000000 0.002031 0.000000
# 4 0.000000 0.000000 0.000000 0.029380 0.000000 0.000681
# 5 0.000090 -0.002039 0.002031 0.000000 0.028742 0.000000
# 6 0.000000 0.000000 0.000000 0.000681 0.000000 0.046107
#
#
# Mechanical properties :
#
#
# Convention : Reuss Voigt Hill
#
# Bulk Modulus (GPa) = 51.51398 59.79810 55.65604
# Shear Modulus (GPa) = 30.67814 34.46259 32.57037
#
# Velocity S-wave (km/s) = 3.74143 3.96549 3.85509
# Velocity P-wave (km/s) = 6.49385 6.94640 6.72393
#
# Compressibility (1/GPa) = 0.01941221
#
# Stress axis : x y z
#
# Youngs Moduli (GPa) = 114.32483 53.00935 121.41685
#
# Poissons Ratio (x) = 0.13279 0.18040
# Poissons Ratio (y) = 0.28638 0.51322
# Poissons Ratio (z) = 0.16986 0.22407
#
# Static dielectric constant tensor:
#      x y z
#    x 4.169180 0.000000 0.193570 
#    y 0.000000 2.927540 0.000000 
#    z 0.193570 0.000000 4.022230 
# 
# 
# High freq. dielectric constant tensor:
#      x y z
#    x 1.880360 0.000000 0.006440 
#    y 0.000000 1.835260 0.000000 
#    z 0.006440 0.000000 1.882280 
# 
# From -- ./inp_files/248756.got.cif
#   From: 2010.06.25/outbox.cif.g09.slc.cpg/sg15_125_cif.got.tgz:248756.got - 2010.06.28 07:06:18.
