data_PCOD8149590
_publ_section_title
;
Structure prediction by ZEFSAII (Michael W. Deem and Ramdas Pophale) SiO2 
 PCOD8149590
Probable space group: C 2/C
;
_chemical_formula_sum "Si O2"
_cell_formula_units_Z 60
_cell_length_a 18.644067
_cell_length_b 14.677054
_cell_length_c 11.779465
_cell_angle_alpha 90.000000
_cell_angle_beta 113.602294
_cell_angle_gamma 90.000000
_cell_volume 2953.690140
_symmetry_space_group_name_H-M "C 2/C"
_symmetry_group_IT_number 15
_symmetry_cell_setting 'monoclinic'
loop_
_space_group_symop_operation_xyz
x,y,z
-x,y,1/2-z
-x,-y,-z
x,-y,1/2+z
1/2+x,1/2+y,z
1/2-x,1/2+y,1/2-z
1/2-x,1/2-y,-z
1/2+x,1/2-y,1/2+z
loop_
_atom_site_type_symbol
_atom_site_label
_atom_site_fract_x
_atom_site_fract_y
_atom_site_fract_z
Si Si1 0.000000 0.874719 0.750000
Si Si2 0.159540 0.681261 0.135083
Si Si3 0.423496 0.498529 0.877796
Si Si4 0.215726 0.336097 0.281380
Si Si5 0.077030 0.701357 0.851715
Si Si6 0.260947 0.653814 0.558484
Si Si7 0.246951 0.960708 0.657034
Si Si8 0.918154 0.182545 0.760665
O O1 0.052184 0.806909 0.863205
O O2 0.060134 0.939666 0.723440
O O3 0.218375 0.763276 0.142693
O O4 0.205540 0.592777 0.213053
O O5 0.100691 0.719243 0.194814
O O6 0.111964 0.656060 0.989139
O O7 0.346299 0.453103 0.882895
O O8 0.411658 0.605329 0.851386
O O9 0.500000 0.500000 0.000000
O O10 0.136547 0.298082 0.284103
O O11 0.211296 0.350472 0.142959
O O12 0.230181 0.434978 0.342059
O O13 0.000000 0.649539 0.750000
O O14 0.250000 0.750000 0.500000
O O15 0.230600 0.578745 0.451641
O O16 0.353996 0.646588 0.631490
O O17 0.000000 0.189603 0.750000
#
# Coordination Sequence:
#
# PCOD8149590 Si02
#       8
#     4   8   8   8   8   8   8   8
#     4  10  24  38  64 100 126 180 220 266 368 386
#     4  11  23  46  63 104 134 183 228 280 345 407
#     4  12  23  39  64 104 140 172 220 278 343 423
#     4  11  24  44  69  97 136 176 227 286 335 419
#     4  10  25  44  68  94 135 175 228 285 346 400
#     4  11  23  43  65  98 136 178 230 272 347 405
#     4  12  25  40  73  99 135 186 228 279 345 411
#     4  11  22  40  63  98 142 175 217 281 335 409
#
# _framework density 20.313572000000001
#
# number of rings (size 3 to 8) (size 9 to 14) (size 15 to 20)
#    0.400    0.533    6.000    2.800    1.867    1.067 
#    0.000    1.333    0.000    0.000    0.000    0.000 
#    0.000    0.000    0.000    0.000    0.000    0.000 
#
# Total GULP energy -371703.443475 kJ/mol
# GULP energy per Si atom -12390.114783 kJ/mol
# Density = 2.026734 g / cm^3
# Si number density = 20.313572 Si / 1000 Ang^3
#
#
#
# Elastic Constant Matrix: (Units=GPa)
#
#
# Indices 1 2 3 4 5 6 
#
# 1 99.1606 14.4915 37.4617 0.0000 -3.0885 0.0000
# 2 14.4915 70.5124 10.0333 0.0000 11.4012 0.0000
# 3 37.4617 10.0333 116.7994 0.0000 15.8092 0.0000
# 4 0.0000 0.0000 0.0000 38.1465 0.0000 3.9359
# 5 -3.0885 11.4012 15.8092 0.0000 36.0143 0.0000
# 6 0.0000 0.0000 0.0000 3.9359 0.0000 37.6219
#
#
#
# Elastic Compliance Matrix: (Units=1/GPa)
#
#
# Indices 1 2 3 4 5 6 
#
# 1 0.012141 -0.002493 -0.004176 0.000000 0.003663 0.000000
# 2 -0.002493 0.015511 0.000171 0.000000 -0.005199 0.000000
# 3 -0.004176 0.000171 0.010570 0.000000 -0.005052 0.000000
# 4 0.000000 0.000000 0.000000 0.026501 0.000000 -0.002772
# 5 0.003663 -0.005199 -0.005052 0.000000 0.031945 0.000000
# 6 0.000000 0.000000 0.000000 -0.002772 0.000000 0.026870
#
#
# Mechanical properties :
#
#
# Convention : Reuss Voigt Hill
#
# Bulk Modulus (GPa) = 39.64229 45.60505 42.62367
# Shear Modulus (GPa) = 34.49669 37.32225 35.90947
#
# Velocity S-wave (km/s) = 4.12540 4.29103 4.20903
# Velocity P-wave (km/s) = 6.49996 6.85929 6.68204
#
# Compressibility (1/GPa) = 0.02522559
#
# Stress axis : x y z
#
# Youngs Moduli (GPa) = 82.36803 64.47186 94.60650
#
# Poissons Ratio (x) = 0.16075 0.39504
# Poissons Ratio (y) = 0.20537 -0.01618
# Poissons Ratio (z) = 0.34394 -0.01103
#
# Static dielectric constant tensor:
#      x y z
#    x 4.050900 0.000000 -0.213170 
#    y 0.000000 4.226880 0.000000 
#    z -0.213170 0.000000 3.743530 
# 
# 
# High freq. dielectric constant tensor:
#      x y z
#    x 1.794300 0.000000 -0.000400 
#    y 0.000000 1.788030 0.000000 
#    z -0.000400 0.000000 1.795630 
# 
# From -- ./inp_files/105747.got.cif
#   From: 2010.06.25/outbox.cif.g09.slc.cpg/sg15_53_cif.got.tgz:105747.got - 2010.06.28 07:06:18.
