data_PCOD8149611
_publ_section_title
;
Structure prediction by ZEFSAII (Michael W. Deem and Ramdas Pophale) SiO2 
 PCOD8149611
Probable space group: C 2/C
;
_chemical_formula_sum "Si O2"
_cell_formula_units_Z 48
_cell_length_a 17.513722
_cell_length_b 17.806949
_cell_length_c 7.884982
_cell_angle_alpha 90.000000
_cell_angle_beta 122.581703
_cell_angle_gamma 90.000000
_cell_volume 2072.061814
_symmetry_space_group_name_H-M "C 2/C"
_symmetry_group_IT_number 15
_symmetry_cell_setting 'monoclinic'
loop_
_space_group_symop_operation_xyz
x,y,z
-x,y,1/2-z
-x,-y,-z
x,-y,1/2+z
1/2+x,1/2+y,z
1/2-x,1/2+y,1/2-z
1/2-x,1/2-y,-z
1/2+x,1/2-y,1/2+z
loop_
_atom_site_type_symbol
_atom_site_label
_atom_site_fract_x
_atom_site_fract_y
_atom_site_fract_z
Si Si1 0.818868 0.220737 0.442670
Si Si2 0.500000 0.202931 0.250000
Si Si3 0.927396 0.660721 0.520822
Si Si4 0.189659 0.804506 0.078528
Si Si5 0.263245 0.406969 0.680123
Si Si6 0.368896 0.443739 0.345718
Si Si7 0.500000 0.497857 0.250000
O O1 0.750000 0.250000 0.500000
O O2 0.920426 0.242477 0.597700
O O3 0.783717 0.259491 0.222224
O O4 0.809659 0.131001 0.403007
O O5 0.469252 0.154818 0.378897
O O6 0.892933 0.745071 0.523060
O O7 0.845675 0.600371 0.435365
O O8 0.000000 0.637427 0.750000
O O9 0.173625 0.860543 0.220362
O O10 0.199066 0.861361 0.934836
O O11 0.291871 0.494026 0.711984
O O12 0.459891 0.443946 0.344637
O O13 0.412897 0.453815 0.585811
#
# Coordination Sequence:
#
# PCOD8149611 Si02
#       7
#     8   4   8   8   8   8   4
#     4  11  23  41  64  97 129 165 226 274 331 392
#     4  12  22  41  68 102 126 177 216 280 342 391
#     4  11  24  41  71 100 131 172 230 280 331 402
#     4  11  23  42  64  95 133 178 210 275 341 393
#     4  11  23  44  62  93 136 175 215 271 331 400
#     4  11  24  40  63  91 136 175 213 268 336 400
#     4  10  24  39  56  98 130 169 220 256 322 419
#
# _framework density 23.165333
#
# number of rings (size 3 to 8) (size 9 to 14) (size 15 to 20)
#    0.000    1.000    5.000    4.000    3.500    4.000 
#    0.000    0.000    1.833    2.000    0.000    0.000 
#    0.000    0.000    0.000    0.000    0.000    0.000 
#
# Total GULP energy -297397.999922 kJ/mol
# GULP energy per Si atom -12391.583330 kJ/mol
# Density = 2.311261 g / cm^3
# Si number density = 23.165333 Si / 1000 Ang^3
#
#
#
# Elastic Constant Matrix: (Units=GPa)
#
#
# Indices 1 2 3 4 5 6 
#
# 1 128.4411 29.8078 27.2464 0.0000 17.1383 0.0000
# 2 29.8078 94.0732 -1.1574 0.0000 19.2580 0.0000
# 3 27.2464 -1.1574 92.6080 0.0000 28.3461 0.0000
# 4 0.0000 0.0000 0.0000 9.0129 0.0000 -1.1196
# 5 17.1383 19.2580 28.3461 0.0000 43.0705 0.0000
# 6 0.0000 0.0000 0.0000 -1.1196 0.0000 28.0218
#
#
#
# Elastic Compliance Matrix: (Units=1/GPa)
#
#
# Indices 1 2 3 4 5 6 
#
# 1 0.009045 -0.002743 -0.002466 0.000000 -0.000750 0.000000
# 2 -0.002743 0.012898 0.003005 0.000000 -0.006653 0.000000
# 3 -0.002466 0.003005 0.014617 0.000000 -0.009982 0.000000
# 4 0.000000 0.000000 0.000000 0.111505 0.000000 0.004455
# 5 -0.000750 -0.006653 -0.009982 0.000000 0.033060 0.000000
# 6 0.000000 0.000000 0.000000 0.004455 0.000000 0.035864
#
#
# Mechanical properties :
#
#
# Convention : Reuss Voigt Hill
#
# Bulk Modulus (GPa) = 31.10283 47.43511 39.26897
# Shear Modulus (GPa) = 21.54095 33.30274 27.42184
#
# Velocity S-wave (km/s) = 3.05270 3.79570 3.44429
# Velocity P-wave (km/s) = 5.08733 6.30325 5.72765
#
# Compressibility (1/GPa) = 0.03215141
#
# Stress axis : x y z
#
# Youngs Moduli (GPa) = 110.55327 77.53092 68.41534
#
# Poissons Ratio (x) = 0.21266 0.16871
# Poissons Ratio (y) = 0.30324 -0.20556
# Poissons Ratio (z) = 0.27263 -0.23295
#
# Static dielectric constant tensor:
#      x y z
#    x 4.899580 0.000000 1.892480 
#    y 0.000000 4.104660 0.000000 
#    z 1.892480 0.000000 15.609830 
# 
# 
# High freq. dielectric constant tensor:
#      x y z
#    x 1.932690 0.000000 -0.016320 
#    y 0.000000 1.888110 0.000000 
#    z -0.016320 0.000000 1.931030 
# 
# From -- ./inp_files/48755.got.cif
#   From: 2010.06.25/outbox.cif.g09.slc.cpg/sg15_25_cif.got.tgz:48755.got - 2010.06.28 07:06:18.
