data_PCOD8149276
_publ_section_title
;
Structure prediction by ZEFSAII (Michael W. Deem and Ramdas Pophale) SiO2 
 PCOD8149276
Probable space group: C 2/C
;
_chemical_formula_sum "Si O2"
_cell_formula_units_Z 44
_cell_length_a 8.316037
_cell_length_b 16.188185
_cell_length_c 14.625180
_cell_angle_alpha 90.000000
_cell_angle_beta 71.310774
_cell_angle_gamma 90.000000
_cell_volume 1865.047200
_symmetry_space_group_name_H-M "C 2/C"
_symmetry_group_IT_number 15
_symmetry_cell_setting 'monoclinic'
loop_
_space_group_symop_operation_xyz
x,y,z
-x,y,1/2-z
-x,-y,-z
x,-y,1/2+z
1/2+x,1/2+y,z
1/2-x,1/2+y,1/2-z
1/2-x,1/2-y,-z
1/2+x,1/2-y,1/2+z
loop_
_atom_site_type_symbol
_atom_site_label
_atom_site_fract_x
_atom_site_fract_y
_atom_site_fract_z
Si Si1 0.608150 0.774459 0.598186
Si Si2 0.000000 0.859071 0.250000
Si Si3 0.436110 0.843307 0.466592
Si Si4 0.102970 0.170592 0.110612
Si Si5 0.639540 0.944298 0.297239
Si Si6 0.765937 0.878865 0.727974
O O1 0.750000 0.750000 0.500000
O O2 0.528146 0.691024 0.651673
O O3 0.475329 0.829033 0.566290
O O4 0.655204 0.828235 0.677155
O O5 0.829954 0.909903 0.257395
O O6 0.232651 0.860815 0.507211
O O7 0.474205 0.760569 0.400927
O O8 0.549871 0.919529 0.409626
O O9 0.193749 0.179041 0.192498
O O10 0.948847 0.103902 0.145072
O O11 0.500000 0.909989 0.250000
O O12 0.662595 0.041556 0.279888
#
# Coordination Sequence:
#
# PCOD8149276 Si02
#       6
#     8   4   8   8   8   8
#     4  12  24  46  79 112 144 198 262 318 373 457
#     4  12  26  50  78 106 158 198 260 320 380 454
#     4  11  25  45  76 115 142 190 270 318 371 457
#     4  10  23  44  81 105 142 197 256 318 368 456
#     4  12  30  48  70 112 157 205 243 315 400 456
#     4  11  25  49  71 108 158 195 243 312 400 451
#
# _framework density 23.591895000000001
#
# number of rings (size 3 to 8) (size 9 to 14) (size 15 to 20)
#    0.000    0.727    3.636    2.182   14.000    0.727 
#    0.000    1.818    0.000    0.000    0.000    0.000 
#    0.000    0.000    0.000    0.000    0.000    0.000 
#
# Total GULP energy -272573.567490 kJ/mol
# GULP energy per Si atom -12389.707613 kJ/mol
# Density = 2.353820 g / cm^3
# Si number density = 23.591895 Si / 1000 Ang^3
#
#
#
# Elastic Constant Matrix: (Units=GPa)
#
#
# Indices 1 2 3 4 5 6 
#
# 1 139.2432 55.9223 54.0083 0.0000 -2.2305 0.0000
# 2 55.9223 94.3947 39.6918 0.0000 -6.3527 0.0000
# 3 54.0083 39.6918 69.8189 0.0000 -8.9606 0.0000
# 4 0.0000 0.0000 0.0000 29.1991 0.0000 -2.7704
# 5 -2.2305 -6.3527 -8.9606 0.0000 69.8264 0.0000
# 6 0.0000 0.0000 0.0000 -2.7704 0.0000 33.9534
#
#
#
# Elastic Compliance Matrix: (Units=1/GPa)
#
#
# Indices 1 2 3 4 5 6 
#
# 1 0.011335 -0.003994 -0.006606 0.000000 -0.000849 0.000000
# 2 -0.003994 0.015334 -0.005556 0.000000 0.000554 0.000000
# 3 -0.006606 -0.005556 0.022876 0.000000 0.002219 0.000000
# 4 0.000000 0.000000 0.000000 0.034515 0.000000 0.002816
# 5 -0.000849 0.000554 0.002219 0.000000 0.014629 0.000000
# 6 0.000000 0.000000 0.000000 0.002816 0.000000 0.029682
#
#
# Mechanical properties :
#
#
# Convention : Reuss Voigt Hill
#
# Bulk Modulus (GPa) = 58.03320 66.96685 62.50002
# Shear Modulus (GPa) = 30.04302 36.85139 33.44721
#
# Velocity S-wave (km/s) = 3.57241 3.95655 3.76938
# Velocity P-wave (km/s) = 6.45510 7.02279 6.74492
#
# Compressibility (1/GPa) = 0.01723152
#
# Stress axis : x y z
#
# Youngs Moduli (GPa) = 88.22585 65.21527 43.71320
#
# Poissons Ratio (x) = 0.26049 0.28877
# Poissons Ratio (y) = 0.35240 0.24288
# Poissons Ratio (z) = 0.58282 0.36235
#
# Static dielectric constant tensor:
#      x y z
#    x 4.874450 0.000000 -0.148260 
#    y 0.000000 3.878870 0.000000 
#    z -0.148260 0.000000 4.500870 
# 
# 
# High freq. dielectric constant tensor:
#      x y z
#    x 1.965530 0.000000 -0.018370 
#    y 0.000000 1.895190 0.000000 
#    z -0.018370 0.000000 1.952770 
# 
# From -- ./inp_files/134278.got.cif
#   From: 2010.06.25/outbox.cif.g09.slc.cpg/sg15_68_cif.got.tgz:134278.got - 2010.06.28 07:06:18.
