data_PCOD8149850
_publ_section_title
;
Structure prediction by ZEFSAII (Michael W. Deem and Ramdas Pophale) SiO2 
 PCOD8149850
Probable space group: C 2/C
;
_chemical_formula_sum "Si O2"
_cell_formula_units_Z 56
_cell_length_a 11.097501
_cell_length_b 13.628935
_cell_length_c 18.305628
_cell_angle_alpha 90.000000
_cell_angle_beta 76.075619
_cell_angle_gamma 90.000000
_cell_volume 2687.313741
_symmetry_space_group_name_H-M "C 2/C"
_symmetry_group_IT_number 15
_symmetry_cell_setting 'monoclinic'
loop_
_space_group_symop_operation_xyz
x,y,z
-x,y,1/2-z
-x,-y,-z
x,-y,1/2+z
1/2+x,1/2+y,z
1/2-x,1/2+y,1/2-z
1/2-x,1/2-y,-z
1/2+x,1/2-y,1/2+z
loop_
_atom_site_type_symbol
_atom_site_label
_atom_site_fract_x
_atom_site_fract_y
_atom_site_fract_z
Si Si1 0.633469 0.259486 0.757115
Si Si2 0.757322 0.580115 0.143242
Si Si3 0.391855 0.439061 0.973849
Si Si4 0.644262 0.037382 0.744229
Si Si5 0.227795 0.553903 0.092219
Si Si6 0.004268 0.396888 0.537660
Si Si7 0.580512 0.281886 0.932014
O O1 0.500000 0.290638 0.750000
O O2 0.722818 0.339098 0.708405
O O3 0.630339 0.259860 0.844513
O O4 0.672574 0.151398 0.724919
O O5 0.647911 0.538090 0.105619
O O6 0.816161 0.488603 0.178886
O O7 0.865095 0.633332 0.080075
O O8 0.441812 0.327858 0.959369
O O9 0.500000 0.500000 0.000000
O O10 0.267536 0.456156 0.039939
O O11 0.500000 0.015178 0.750000
O O12 0.731990 0.974529 0.676811
O O13 0.320458 0.639758 0.052150
O O14 0.088474 0.588678 0.096969
O O15 0.000000 0.500000 0.500000
O O16 0.074931 0.318320 0.477152
#
# Coordination Sequence:
#
# PCOD8149850 Si02
#       7
#     8   8   8   8   8   8   8
#     4  11  24  40  67  98 131 179 220 275 340 398
#     4  12  23  43  70  99 137 175 230 281 335 406
#     4  10  24  42  66  97 131 176 228 275 334 400
#     4  11  24  42  68 100 138 171 225 279 339 406
#     4  11  23  44  66  95 138 175 220 280 344 401
#     4  12  25  40  68  99 129 177 224 279 339 402
#     4  11  24  44  65  95 136 176 227 275 341 402
#
# _framework density 20.838653999999998
#
# number of rings (size 3 to 8) (size 9 to 14) (size 15 to 20)
#    0.000    0.857    5.714    1.286    4.000    0.571 
#    0.000    0.000    0.000    3.429    0.000    0.000 
#    0.000    0.000    0.000    0.000    0.000    0.000 
#
# Total GULP energy -346897.930474 kJ/mol
# GULP energy per Si atom -12389.211803 kJ/mol
# Density = 2.079122 g / cm^3
# Si number density = 20.838654 Si / 1000 Ang^3
#
#
#
# Elastic Constant Matrix: (Units=GPa)
#
#
# Indices 1 2 3 4 5 6 
#
# 1 99.2051 36.3772 36.0606 0.0000 14.1340 0.0000
# 2 36.3772 94.2264 50.3264 0.0000 -10.8928 0.0000
# 3 36.0606 50.3264 126.0247 0.0000 3.4820 0.0000
# 4 0.0000 0.0000 0.0000 41.7824 0.0000 -7.4567
# 5 14.1340 -10.8928 3.4820 0.0000 39.2600 0.0000
# 6 0.0000 0.0000 0.0000 -7.4567 0.0000 26.1478
#
#
#
# Elastic Compliance Matrix: (Units=1/GPa)
#
#
# Indices 1 2 3 4 5 6 
#
# 1 0.013371 -0.004965 -0.001676 0.000000 -0.006043 0.000000
# 2 -0.004965 0.016073 -0.005183 0.000000 0.006707 0.000000
# 3 -0.001676 -0.005183 0.010533 0.000000 -0.001769 0.000000
# 4 0.000000 0.000000 0.000000 0.025217 0.000000 0.007191
# 5 -0.006043 0.006707 -0.001769 0.000000 0.029664 0.000000
# 6 0.000000 0.000000 0.000000 0.007191 0.000000 0.040295
#
#
# Mechanical properties :
#
#
# Convention : Reuss Voigt Hill
#
# Bulk Modulus (GPa) = 61.24367 62.77606 62.00986
# Shear Modulus (GPa) = 30.44209 34.55082 32.49646
#
# Velocity S-wave (km/s) = 3.82625 4.07629 3.95325
# Velocity P-wave (km/s) = 6.99811 7.23499 7.11753
#
# Compressibility (1/GPa) = 0.01632822
#
# Stress axis : x y z
#
# Youngs Moduli (GPa) = 74.78836 62.21472 94.93698
#
# Poissons Ratio (x) = 0.30892 0.15913
# Poissons Ratio (y) = 0.37135 0.49208
# Poissons Ratio (z) = 0.12536 0.32247
#
# Static dielectric constant tensor:
#      x y z
#    x 4.255330 0.000000 -0.196830 
#    y 0.000000 3.735230 0.000000 
#    z -0.196830 0.000000 3.798100 
# 
# 
# High freq. dielectric constant tensor:
#      x y z
#    x 1.819700 0.000000 0.004430 
#    y 0.000000 1.806740 0.000000 
#    z 0.004430 0.000000 1.823420 
# 
# From -- ./inp_files/237547.got.cif
#   From: 2010.06.25/outbox.cif.g09.slc.cpg/sg15_119_cif.got.tgz:237547.got - 2010.06.28 07:06:18.
