data_PCOD8149666
_publ_section_title
;
Structure prediction by ZEFSAII (Michael W. Deem and Ramdas Pophale) SiO2 
 PCOD8149666
Probable space group: C 2/C
;
_chemical_formula_sum "Si O2"
_cell_formula_units_Z 60
_cell_length_a 19.672179
_cell_length_b 15.824938
_cell_length_c 18.851005
_cell_angle_alpha 90.000000
_cell_angle_beta 151.876713
_cell_angle_gamma 90.000000
_cell_volume 2766.249015
_symmetry_space_group_name_H-M "C 2/C"
_symmetry_group_IT_number 15
_symmetry_cell_setting 'monoclinic'
loop_
_space_group_symop_operation_xyz
x,y,z
-x,y,1/2-z
-x,-y,-z
x,-y,1/2+z
1/2+x,1/2+y,z
1/2-x,1/2+y,1/2-z
1/2-x,1/2-y,-z
1/2+x,1/2-y,1/2+z
loop_
_atom_site_type_symbol
_atom_site_label
_atom_site_fract_x
_atom_site_fract_y
_atom_site_fract_z
Si Si1 0.000000 0.774338 0.750000
Si Si2 0.744023 0.851326 0.429961
Si Si3 0.327266 0.446870 0.777802
Si Si4 0.369658 0.390100 0.405736
Si Si5 0.292189 0.147118 0.209236
Si Si6 0.518776 0.299598 0.117997
Si Si7 0.378041 0.450346 0.189260
Si Si8 0.160359 0.536920 0.378041
O O1 0.120712 0.718587 0.822506
O O2 0.903568 0.828796 0.606652
O O3 0.750625 0.861645 0.351716
O O4 0.692214 0.937779 0.418213
O O5 0.323619 0.523103 0.828724
O O6 0.212575 0.382764 0.711319
O O7 0.304417 0.481111 0.676243
O O8 0.480300 0.401849 0.915398
O O9 0.381052 0.318449 0.357289
O O10 0.430596 0.204725 0.316285
O O11 0.299666 0.065617 0.164663
O O12 0.148448 0.199488 0.056920
O O13 0.549109 0.370311 0.205303
O O14 0.500000 0.492910 0.250000
O O15 0.254015 0.414626 0.023813
O O16 0.000000 0.560107 0.250000
#
# Coordination Sequence:
#
# PCOD8149666 Si02
#       8
#     4   8   8   8   8   8   8   8
#     4  10  26  40  64  94 132 166 218 266 344 388
#     4  11  22  44  63  95 128 171 213 275 324 408
#     4   9  19  38  67  95 122 175 219 275 323 388
#     4   9  18  37  65  92 127 163 221 268 319 389
#     4  11  23  45  66  98 139 178 227 276 337 399
#     4  10  24  40  65  99 133 175 225 272 339 399
#     4  11  22  42  68 100 128 176 231 277 330 413
#     4  12  26  42  68  97 135 175 225 279 340 397
#
# _framework density 21.690021000000002
#
# number of rings (size 3 to 8) (size 9 to 14) (size 15 to 20)
#    0.000    1.600    3.333    1.600    4.667    3.200 
#    2.400    2.000    0.000    0.000    0.000    0.000 
#    0.000    0.000    0.000    0.000    0.000    0.000 
#
# Total GULP energy -371688.113204 kJ/mol
# GULP energy per Si atom -12389.603773 kJ/mol
# Density = 2.164065 g / cm^3
# Si number density = 21.690021 Si / 1000 Ang^3
#
#
#
# Elastic Constant Matrix: (Units=GPa)
#
#
# Indices 1 2 3 4 5 6 
#
# 1 144.6075 26.8486 42.1901 -0.0005 -6.6397 -0.0004
# 2 26.8486 76.5573 20.8354 0.0016 -1.7109 0.0009
# 3 42.1901 20.8354 93.1351 0.0042 8.3518 0.0019
# 4 -0.0005 0.0016 0.0042 21.7350 0.0023 4.5684
# 5 -6.6397 -1.7109 8.3518 0.0023 29.7603 0.0017
# 6 -0.0004 0.0009 0.0019 4.5684 0.0017 26.3588
#
#
#
# Elastic Compliance Matrix: (Units=1/GPa)
#
#
# Indices 1 2 3 4 5 6 
#
# 1 0.008467 -0.001911 -0.003660 0.000001 0.002806 0.000000
# 2 -0.001911 0.014426 -0.002460 -0.000001 0.001093 0.000000
# 3 -0.003660 -0.002460 0.013367 -0.000002 -0.004709 0.000000
# 4 0.000001 -0.000001 -0.000002 0.047748 -0.000003 -0.008275
# 5 0.002806 0.001093 -0.004709 -0.000003 0.035612 -0.000002
# 6 0.000000 0.000000 0.000000 -0.008275 -0.000002 0.039372
#
#
# Mechanical properties :
#
#
# Convention : Reuss Voigt Hill
#
# Bulk Modulus (GPa) = 49.50460 54.89423 52.19942
# Shear Modulus (GPa) = 27.50488 30.53255 29.01871
#
# Velocity S-wave (km/s) = 3.56489 3.75597 3.66168
# Velocity P-wave (km/s) = 6.31013 6.64629 6.48039
#
# Compressibility (1/GPa) = 0.02020014
#
# Stress axis : x y z
#
# Youngs Moduli (GPa) = 118.11208 69.31918 74.80851
#
# Poissons Ratio (x) = 0.13244 0.27377
# Poissons Ratio (y) = 0.22566 0.18402
# Poissons Ratio (z) = 0.43224 0.17051
#
# Static dielectric constant tensor:
#      x y z
#    x 4.031920 -0.000010 -0.097700 
#    y -0.000010 3.843620 -0.000010 
#    z -0.097700 -0.000010 3.760230 
# 
# 
# High freq. dielectric constant tensor:
#      x y z
#    x 1.868410 0.000000 -0.000430 
#    y 0.000000 1.845010 0.000000 
#    z -0.000430 0.000000 1.828770 
# 
# From -- ./inp_files/211755.got.cif
#   From: 2010.06.25/outbox.cif.g09.slc.cpg/sg15_106_cif.got.tgz:211755.got - 2010.06.28 07:06:18.
