data_PCOD8149204
_publ_section_title
;
Structure prediction by ZEFSAII (Michael W. Deem and Ramdas Pophale) SiO2 
 PCOD8149204
Probable space group: C 2/C
;
_chemical_formula_sum "Si O2"
_cell_formula_units_Z 64
_cell_length_a 19.254790
_cell_length_b 7.236506
_cell_length_c 32.809963
_cell_angle_alpha 90.000000
_cell_angle_beta 143.803755
_cell_angle_gamma 90.000000
_cell_volume 2699.803601
_symmetry_space_group_name_H-M "C 2/C"
_symmetry_group_IT_number 15
_symmetry_cell_setting 'monoclinic'
loop_
_space_group_symop_operation_xyz
x,y,z
-x,y,1/2-z
-x,-y,-z
x,-y,1/2+z
1/2+x,1/2+y,z
1/2-x,1/2+y,1/2-z
1/2-x,1/2-y,-z
1/2+x,1/2-y,1/2+z
loop_
_atom_site_type_symbol
_atom_site_label
_atom_site_fract_x
_atom_site_fract_y
_atom_site_fract_z
Si Si1 0.835539 0.174732 0.943060
Si Si2 0.429883 0.259702 0.088542
Si Si3 0.531061 0.560444 0.566871
Si Si4 0.116087 0.493178 0.201658
Si Si5 0.119458 0.318977 0.289826
Si Si6 0.131906 0.885031 0.307216
Si Si7 0.199368 0.772379 0.677799
Si Si8 0.755016 0.441894 0.445158
O O1 0.721253 0.092702 0.866186
O O2 0.800943 0.350736 0.955350
O O3 0.931738 0.206125 0.951437
O O4 0.896202 0.014500 0.998590
O O5 0.538055 0.349739 0.114852
O O6 0.362037 0.421046 0.081527
O O7 0.492294 0.105420 0.146294
O O8 0.353813 0.165279 0.016685
O O9 0.619746 0.388088 0.608956
O O10 0.131248 0.364161 0.248161
O O11 0.114849 0.376875 0.159161
O O12 0.234938 0.614217 0.255491
O O13 0.000000 0.405921 0.250000
O O14 0.124267 0.102438 0.298287
O O15 0.189264 0.803255 0.294306
O O16 0.217258 0.839830 0.385779
O O17 0.000000 0.803438 0.250000
#
# Coordination Sequence:
#
# PCOD8149204 Si02
#       8
#     8   8   8   8   8   8   8   8
#     4  10  23  45  68 102 131 180 230 288 341 418
#     4  11  26  43  67 101 138 182 224 286 349 420
#     4  11  25  43  68 101 138 176 235 281 352 414
#     4  12  25  41  64 100 139 177 232 283 354 418
#     4  10  23  44  70  99 132 179 228 284 348 412
#     4  10  23  44  70  97 131 179 234 287 345 412
#     4  12  25  41  66  98 136 185 226 293 348 421
#     4  10  24  45  69  98 135 180 233 285 350 413
#
# _framework density 23.705428000000001
#
# number of rings (size 3 to 8) (size 9 to 14) (size 15 to 20)
#    0.000    1.250    1.250    3.000    7.000    7.500 
#    0.000    0.000    0.000    0.000    0.000    0.000 
#    0.000    0.000    0.000    0.000    0.000    0.000 
#
# Total GULP energy -396445.288511 kJ/mol
# GULP energy per Si atom -12388.915266 kJ/mol
# Density = 2.365147 g / cm^3
# Si number density = 23.705428 Si / 1000 Ang^3
#
#
#
# Elastic Constant Matrix: (Units=GPa)
#
#
# Indices 1 2 3 4 5 6 
#
# 1 137.8988 57.1933 33.6619 0.0003 2.5784 0.0000
# 2 57.1933 64.5990 36.2169 0.0007 -2.5107 0.0001
# 3 33.6619 36.2169 135.8422 -0.0001 4.6119 -0.0003
# 4 0.0003 0.0007 -0.0001 27.6698 -0.0002 -0.5289
# 5 2.5784 -2.5107 4.6119 -0.0002 35.7865 0.0007
# 6 0.0000 0.0001 -0.0003 -0.5289 0.0007 48.3655
#
#
#
# Elastic Compliance Matrix: (Units=1/GPa)
#
#
# Indices 1 2 3 4 5 6 
#
# 1 0.011546 -0.010238 -0.000079 0.000000 -0.001540 0.000000
# 2 -0.010238 0.027409 -0.004882 -0.000001 0.003290 0.000000
# 3 -0.000079 -0.004882 0.008732 0.000000 -0.001462 0.000000
# 4 0.000000 -0.000001 0.000000 0.036148 0.000000 0.000395
# 5 -0.001540 0.003290 -0.001462 0.000000 0.028474 0.000000
# 6 0.000000 0.000000 0.000000 0.000395 0.000000 0.020680
#
#
# Mechanical properties :
#
#
# Convention : Reuss Voigt Hill
#
# Bulk Modulus (GPa) = 57.84060 65.83159 61.83610
# Shear Modulus (GPa) = 29.55933 36.44887 33.00410
#
# Velocity S-wave (km/s) = 3.53504 3.92545 3.73535
# Velocity P-wave (km/s) = 6.41208 6.95532 6.68921
#
# Compressibility (1/GPa) = 0.01728889
#
# Stress axis : x y z
#
# Youngs Moduli (GPa) = 86.61082 36.48403 114.51496
#
# Poissons Ratio (x) = 0.37351 0.00909
# Poissons Ratio (y) = 0.88669 0.55911
# Poissons Ratio (z) = 0.00687 0.17813
#
# Static dielectric constant tensor:
#      x y z
#    x 4.345210 0.000000 0.089690 
#    y 0.000000 4.176190 0.000000 
#    z 0.089690 0.000000 4.533470 
# 
# 
# High freq. dielectric constant tensor:
#      x y z
#    x 1.943420 0.000000 0.000590 
#    y 0.000000 1.923100 0.000000 
#    z 0.000590 0.000000 1.959160 
# 
# From -- ./inp_files/315718.got.cif
#   From: 2010.06.25/outbox.cif.g09.slc.cpg/sg15_158_cif.got.tgz:315718.got - 2010.06.28 07:06:18.
