data_PCOD8149311
_publ_section_title
;
Structure prediction by ZEFSAII (Michael W. Deem and Ramdas Pophale) SiO2 
 PCOD8149311
Probable space group: C 2/C
;
_chemical_formula_sum "Si O2"
_cell_formula_units_Z 40
_cell_length_a 23.362115
_cell_length_b 6.160871
_cell_length_c 22.156015
_cell_angle_alpha 90.000000
_cell_angle_beta 145.335141
_cell_angle_gamma 90.000000
_cell_volume 1813.788129
_symmetry_space_group_name_H-M "C 2/C"
_symmetry_group_IT_number 15
_symmetry_cell_setting 'monoclinic'
loop_
_space_group_symop_operation_xyz
x,y,z
-x,y,1/2-z
-x,-y,-z
x,-y,1/2+z
1/2+x,1/2+y,z
1/2-x,1/2+y,1/2-z
1/2-x,1/2-y,-z
1/2+x,1/2-y,1/2+z
loop_
_atom_site_type_symbol
_atom_site_label
_atom_site_fract_x
_atom_site_fract_y
_atom_site_fract_z
Si Si1 0.232668 0.612878 0.071145
Si Si2 0.119260 0.442940 0.356803
Si Si3 0.479828 0.204590 0.438417
Si Si4 0.149006 0.042011 0.584047
Si Si5 0.830587 0.710051 0.210080
O O1 0.327343 0.724410 0.120568
O O2 0.155532 0.779280 0.036847
O O3 0.281058 0.449453 0.162732
O O4 0.159646 0.498877 0.958810
O O5 0.154418 0.642402 0.346099
O O6 0.000000 0.406391 0.250000
O O7 0.579833 0.335498 0.509136
O O8 0.392749 0.353873 0.391371
O O9 0.436974 0.164647 0.334601
O O10 0.500000 0.000000 0.500000
O O11 0.259973 0.947366 0.688685
#
# Coordination Sequence:
#
# PCOD8149311 Si02
#       5
#     8   8   8   8   8
#     4  10  23  45  66  98 137 172 229 275 339 405
#     4  10  24  41  68  99 133 175 225 280 337 394
#     4  11  26  43  68 100 135 176 226 273 338 407
#     4  10  25  41  68  97 134 176 217 275 331 397
#     4  11  25  42  71  96 133 177 220 281 338 398
#
# _framework density 22.053294000000001
#
# number of rings (size 3 to 8) (size 9 to 14) (size 15 to 20)
#    0.000    1.600    0.000    1.800   14.000    4.000 
#    0.000    0.000    0.000    0.000    0.000    0.000 
#    0.000    0.000    0.000    0.000    0.000    0.000 
#
# Total GULP energy -247854.151600 kJ/mol
# GULP energy per Si atom -12392.707580 kJ/mol
# Density = 2.200310 g / cm^3
# Si number density = 22.053294 Si / 1000 Ang^3
#
#
#
# Elastic Constant Matrix: (Units=GPa)
#
#
# Indices 1 2 3 4 5 6 
#
# 1 67.0634 20.8386 22.3923 -0.0001 18.4469 -0.0002
# 2 20.8386 103.9780 51.5996 0.0000 -6.9809 0.0001
# 3 22.3923 51.5996 131.3801 -0.0001 -5.1701 0.0003
# 4 -0.0001 0.0000 -0.0001 31.7357 0.0000 2.6077
# 5 18.4469 -6.9809 -5.1701 0.0000 37.8412 0.0000
# 6 -0.0002 0.0001 0.0003 2.6077 0.0000 33.4808
#
#
#
# Elastic Compliance Matrix: (Units=1/GPa)
#
#
# Indices 1 2 3 4 5 6 
#
# 1 0.019701 -0.003460 -0.002415 0.000000 -0.010572 0.000000
# 2 -0.003460 0.012647 -0.004242 0.000000 0.003440 0.000000
# 3 -0.002415 -0.004242 0.009757 0.000000 0.001728 0.000000
# 4 0.000000 0.000000 0.000000 0.031713 0.000000 -0.002470
# 5 -0.010572 0.003440 0.001728 0.000000 0.032450 0.000000
# 6 0.000000 0.000000 0.000000 -0.002470 0.000000 0.030060
#
#
# Mechanical properties :
#
#
# Convention : Reuss Voigt Hill
#
# Bulk Modulus (GPa) = 45.72195 54.67583 50.19889
# Shear Modulus (GPa) = 30.51530 34.45094 32.48312
#
# Velocity S-wave (km/s) = 3.72386 3.95671 3.84205
# Velocity P-wave (km/s) = 6.26634 6.76170 6.51872
#
# Compressibility (1/GPa) = 0.02187133
#
# Stress axis : x y z
#
# Youngs Moduli (GPa) = 50.75995 79.07100 102.48869
#
# Poissons Ratio (x) = 0.27355 0.24751
# Poissons Ratio (y) = 0.17561 0.43476
# Poissons Ratio (z) = 0.12259 0.33542
#
# Static dielectric constant tensor:
#      x y z
#    x 4.038270 0.000000 0.116610 
#    y 0.000000 4.038470 0.000000 
#    z 0.116610 0.000000 3.834990 
# 
# 
# High freq. dielectric constant tensor:
#      x y z
#    x 1.881040 0.000000 0.009770 
#    y 0.000000 1.865250 0.000000 
#    z 0.009770 0.000000 1.866700 
# 
# From -- ./inp_files/120711.got.cif
#   From: 2010.06.25/outbox.cif.g09.slc.cpg/sg15_61_cif.got.tgz:120711.got - 2010.06.28 07:06:18.
