data_PCOD8149588
_publ_section_title
;
Structure prediction by ZEFSAII (Michael W. Deem and Ramdas Pophale) SiO2 
 PCOD8149588
Probable space group: C 2/C
;
_chemical_formula_sum "Si O2"
_cell_formula_units_Z 44
_cell_length_a 15.414729
_cell_length_b 29.742628
_cell_length_c 14.615187
_cell_angle_alpha 90.000000
_cell_angle_beta 160.665248
_cell_angle_gamma 90.000000
_cell_volume 2218.510315
_symmetry_space_group_name_H-M "C 2/C"
_symmetry_group_IT_number 15
_symmetry_cell_setting 'monoclinic'
loop_
_space_group_symop_operation_xyz
x,y,z
-x,y,1/2-z
-x,-y,-z
x,-y,1/2+z
1/2+x,1/2+y,z
1/2-x,1/2+y,1/2-z
1/2-x,1/2-y,-z
1/2+x,1/2-y,1/2+z
loop_
_atom_site_type_symbol
_atom_site_label
_atom_site_fract_x
_atom_site_fract_y
_atom_site_fract_z
Si Si1 0.500000 0.660850 0.250000
Si Si2 0.230285 0.779944 0.132309
Si Si3 0.275662 0.601662 0.180171
Si Si4 0.240871 0.634626 0.733188
Si Si5 0.247424 0.002509 0.311251
Si Si6 0.748467 0.915501 0.061034
O O1 0.692443 0.691538 0.502026
O O2 0.312336 0.629729 0.124099
O O3 0.521014 0.760039 0.425998
O O4 0.196518 0.812797 0.186043
O O5 0.528281 0.604200 0.496575
O O6 0.239757 0.549318 0.120125
O O7 0.028756 0.621538 0.987069
O O8 0.224056 0.625435 0.608631
O O9 0.238142 0.963129 0.375467
O O10 0.500000 0.000000 0.500000
O O11 0.000000 0.000000 0.000000
O O12 0.000000 0.907410 0.250000
O O13 0.500000 0.914362 0.750000
#
# Coordination Sequence:
#
# PCOD8149588 Si02
#       6
#     4   8   8   8   8   8
#     4  10  24  38  62  98 136 166 202 260 316 388
#     4  11  23  41  66  93 125 163 210 258 320 401
#     4  11  22  40  60  90 130 175 210 248 313 376
#     4  11  23  43  64  88 124 169 207 259 328 375
#     4  12  22  42  63  88 128 173 217 262 306 367
#     4  12  25  41  65  95 126 169 222 270 318 368
#
# _framework density 19.833129
#
# number of rings (size 3 to 8) (size 9 to 14) (size 15 to 20)
#    0.000    0.727    3.636    4.909    1.273    5.818 
#    3.273    0.000    0.000    3.273    0.000    0.000 
#    0.000    0.000    0.000    0.000    0.000    0.000 
#
# Total GULP energy -272889.500431 kJ/mol
# GULP energy per Si atom -12404.068201 kJ/mol
# Density = 1.978799 g / cm^3
# Si number density = 19.833129 Si / 1000 Ang^3
#
#
#
# Elastic Constant Matrix: (Units=GPa)
#
#
# Indices 1 2 3 4 5 6 
#
# 1 162.8781 62.0779 58.4624 -0.0032 5.3589 -0.0080
# 2 62.0779 121.4955 28.4356 0.0007 -13.4807 -0.0066
# 3 58.4624 28.4356 138.4002 -0.0081 3.3542 0.0013
# 4 -0.0032 0.0007 -0.0081 34.6044 -0.0056 -2.2966
# 5 5.3589 -13.4807 3.3542 -0.0056 43.9936 -0.0027
# 6 -0.0080 -0.0066 0.0013 -2.2966 -0.0027 40.6017
#
#
#
# Elastic Compliance Matrix: (Units=1/GPa)
#
#
# Indices 1 2 3 4 5 6 
#
# 1 0.008764 -0.004051 -0.002819 0.000000 -0.002094 0.000001
# 2 -0.004051 0.010874 -0.000617 0.000000 0.003873 0.000001
# 3 -0.002819 -0.000617 0.008555 0.000002 -0.000498 -0.000001
# 4 0.000000 0.000000 0.000002 0.029007 0.000004 0.001641
# 5 -0.002094 0.003873 -0.000498 0.000004 0.024210 0.000002
# 6 0.000001 0.000001 -0.000001 0.001641 0.000002 0.024722
#
#
# Mechanical properties :
#
#
# Convention : Reuss Voigt Hill
#
# Bulk Modulus (GPa) = 75.64189 80.08063 77.86126
# Shear Modulus (GPa) = 39.83633 42.09313 40.96473
#
# Velocity S-wave (km/s) = 4.48658 4.61191 4.54967
# Velocity P-wave (km/s) = 8.06605 8.29605 8.18186
#
# Compressibility (1/GPa) = 0.01322019
#
# Stress axis : x y z
#
# Youngs Moduli (GPa) = 114.10175 91.95837 116.88894
#
# Poissons Ratio (x) = 0.37248 0.32953
# Poissons Ratio (y) = 0.46217 0.07213
# Poissons Ratio (z) = 0.32167 0.05675
#
# Static dielectric constant tensor:
#      x y z
#    x 3.796370 0.000020 0.005100 
#    y 0.000020 3.954040 -0.000030 
#    z 0.005100 -0.000030 3.756110 
# 
# 
# High freq. dielectric constant tensor:
#      x y z
#    x 1.761640 0.000000 0.008810 
#    y 0.000000 1.782190 0.000000 
#    z 0.008810 0.000000 1.795770 
# 
# From -- ./inp_files/157555.got.cif
#   From: 2010.06.25/outbox.cif.g09.slc.cpg/sg15_79_cif.got.tgz:157555.got - 2010.06.28 07:06:18.
