data_PCOD8149105
_publ_section_title
;
Structure prediction by ZEFSAII (Michael W. Deem and Ramdas Pophale) SiO2 
 PCOD8149105
Probable space group: C 2/C
;
_chemical_formula_sum "Si O2"
_cell_formula_units_Z 48
_cell_length_a 8.182966
_cell_length_b 14.937271
_cell_length_c 26.744462
_cell_angle_alpha 90.000000
_cell_angle_beta 138.900232
_cell_angle_gamma 90.000000
_cell_volume 2148.954416
_symmetry_space_group_name_H-M "C 2/C"
_symmetry_group_IT_number 15
_symmetry_cell_setting 'monoclinic'
loop_
_space_group_symop_operation_xyz
x,y,z
-x,y,1/2-z
-x,-y,-z
x,-y,1/2+z
1/2+x,1/2+y,z
1/2-x,1/2+y,1/2-z
1/2-x,1/2-y,-z
1/2+x,1/2-y,1/2+z
loop_
_atom_site_type_symbol
_atom_site_label
_atom_site_fract_x
_atom_site_fract_y
_atom_site_fract_z
Si Si1 0.266666 0.357138 0.295147
Si Si2 0.240560 0.936699 0.558753
Si Si3 0.961092 0.760860 0.931750
Si Si4 0.277547 0.336979 0.039135
Si Si5 0.266988 0.526628 0.229869
Si Si6 0.264527 0.797814 0.722169
O O1 0.434220 0.356602 0.383204
O O2 0.252210 0.457343 0.271632
O O3 0.368075 0.285306 0.278454
O O4 0.000000 0.320962 0.250000
O O5 0.154284 0.849890 0.570193
O O6 0.319890 0.915899 0.519425
O O7 0.494517 0.976498 0.640771
O O8 0.000000 0.000000 0.500000
O O9 0.860015 0.673821 0.939059
O O10 0.915574 0.758826 0.861784
O O11 0.250000 0.750000 0.000000
O O12 0.250000 0.250000 0.000000
O O13 0.500000 0.495856 0.250000
O O14 0.348391 0.624272 0.269296
O O15 0.500000 0.843711 0.750000
#
# Coordination Sequence:
#
# PCOD8149105 Si02
#       6
#     8   8   8   8   8   8
#     4  12  26  44  74 102 138 186 238 295 357 432
#     4  11  25  46  69 101 146 184 234 296 359 429
#     4  11  26  42  71 101 138 182 234 289 360 424
#     4  10  23  44  66  98 136 181 229 286 353 422
#     4  12  28  46  72 106 143 190 242 295 363 435
#     4  12  23  46  70 101 143 183 236 295 357 429
#
# _framework density 22.336445000000001
#
# number of rings (size 3 to 8) (size 9 to 14) (size 15 to 20)
#    0.000    0.667    3.333    3.500   11.667    0.000 
#    0.000    1.667    0.000    0.000    0.000    0.000 
#    0.000    0.000    0.000    0.000    0.000    0.000 
#
# Total GULP energy -297449.665967 kJ/mol
# GULP energy per Si atom -12393.736082 kJ/mol
# Density = 2.228561 g / cm^3
# Si number density = 22.336445 Si / 1000 Ang^3
#
#
#
# Elastic Constant Matrix: (Units=GPa)
#
#
# Indices 1 2 3 4 5 6 
#
# 1 77.0284 13.1471 41.2845 0.0000 11.5916 0.0000
# 2 13.1471 90.1757 39.5091 0.0000 -10.2763 0.0000
# 3 41.2845 39.5091 180.4889 0.0000 -1.4923 0.0000
# 4 0.0000 0.0000 0.0000 41.6690 0.0000 -3.2952
# 5 11.5916 -10.2763 -1.4923 0.0000 45.7867 0.0000
# 6 0.0000 0.0000 0.0000 -3.2952 0.0000 28.5454
#
#
#
# Elastic Compliance Matrix: (Units=1/GPa)
#
#
# Indices 1 2 3 4 5 6 
#
# 1 0.015647 -0.001322 -0.003326 0.000000 -0.004366 0.000000
# 2 -0.001322 0.012712 -0.002455 0.000000 0.003108 0.000000
# 3 -0.003326 -0.002455 0.006843 0.000000 0.000514 0.000000
# 4 0.000000 0.000000 0.000000 0.024220 0.000000 0.002796
# 5 -0.004366 0.003108 0.000514 0.000000 0.023660 0.000000
# 6 0.000000 0.000000 0.000000 0.002796 0.000000 0.035355
#
#
# Mechanical properties :
#
#
# Convention : Reuss Voigt Hill
#
# Bulk Modulus (GPa) = 47.62448 59.50826 53.56637
# Shear Modulus (GPa) = 35.80632 40.11703 37.96168
#
# Velocity S-wave (km/s) = 4.00815 4.24256 4.12702
# Velocity P-wave (km/s) = 6.54126 7.12030 6.83691
#
# Compressibility (1/GPa) = 0.02099760
#
# Stress axis : x y z
#
# Youngs Moduli (GPa) = 63.90805 78.66745 146.13823
#
# Poissons Ratio (x) = 0.10397 0.48605
# Poissons Ratio (y) = 0.08447 0.35871
# Poissons Ratio (z) = 0.21255 0.19310
#
# Static dielectric constant tensor:
#      x y z
#    x 4.272700 0.000000 -0.281250 
#    y 0.000000 3.985160 0.000000 
#    z -0.281250 0.000000 4.583270 
# 
# 
# High freq. dielectric constant tensor:
#      x y z
#    x 1.882090 0.000000 -0.006470 
#    y 0.000000 1.870550 0.000000 
#    z -0.006470 0.000000 1.903150 
# 
# From -- ./inp_files/289140.got.cif
#   From: 2010.06.25/outbox.cif.g09.slc.cpg/sg15_145_cif.got.tgz:289140.got - 2010.06.28 07:06:18.
