data_PCOD8149552
_publ_section_title
;
Structure prediction by ZEFSAII (Michael W. Deem and Ramdas Pophale) SiO2 
 PCOD8149552
Probable space group: C 2/C
;
_chemical_formula_sum "Si O2"
_cell_formula_units_Z 44
_cell_length_a 14.820007
_cell_length_b 22.526106
_cell_length_c 12.401999
_cell_angle_alpha 90.000000
_cell_angle_beta 144.117710
_cell_angle_gamma 90.000000
_cell_volume 2426.689481
_symmetry_space_group_name_H-M "C 2/C"
_symmetry_group_IT_number 15
_symmetry_cell_setting 'monoclinic'
loop_
_space_group_symop_operation_xyz
x,y,z
-x,y,1/2-z
-x,-y,-z
x,-y,1/2+z
1/2+x,1/2+y,z
1/2-x,1/2+y,1/2-z
1/2-x,1/2-y,-z
1/2+x,1/2-y,1/2+z
loop_
_atom_site_type_symbol
_atom_site_label
_atom_site_fract_x
_atom_site_fract_y
_atom_site_fract_z
Si Si1 0.000000 0.758747 0.250000
Si Si2 0.824494 0.453988 0.066548
Si Si3 0.239072 0.330489 0.899778
Si Si4 0.645040 0.920324 0.634090
Si Si5 0.701937 0.944816 0.225911
Si Si6 0.334534 0.574536 0.640178
O O1 0.891537 0.719169 0.220496
O O2 0.094957 0.798877 0.426916
O O3 0.768004 0.421881 0.122526
O O4 0.000000 0.476710 0.250000
O O5 0.815933 0.410370 0.955209
O O6 0.716474 0.509360 0.940950
O O7 0.225920 0.366217 0.774811
O O8 0.217943 0.377042 0.977633
O O9 0.461753 0.921307 0.476256
O O10 0.709971 0.983457 0.737850
O O11 0.830520 0.919933 0.267261
O O12 0.500000 0.587477 0.750000
#
# Coordination Sequence:
#
# PCOD8149552 Si02
#       6
#     4   8   8   8   8   8
#     4  10  24  34  56  72 102 132 194 218 282 286
#     4   9  18  33  51  80 107 146 180 193 242 343
#     4  11  20  38  50  80 100 140 171 236 255 310
#     4   9  17  30  56  76 107 137 176 214 255 303
#     4   9  17  30  50  82 107 148 169 194 249 339
#     4  11  21  30  48  76 116 144 165 210 267 305
#
# _framework density 18.131698
#
# number of rings (size 3 to 8) (size 9 to 14) (size 15 to 20)
#    0.000    2.182    2.727    2.182    1.273    0.727 
#    0.000    0.000    0.000    0.000    0.000   34.364 
#    0.000    0.000    0.000    0.000    0.000    0.000 
#
# Total GULP energy -272645.735434 kJ/mol
# GULP energy per Si atom -12392.987974 kJ/mol
# Density = 1.809043 g / cm^3
# Si number density = 18.131698 Si / 1000 Ang^3
#
#
#
# Elastic Constant Matrix: (Units=GPa)
#
#
# Indices 1 2 3 4 5 6 
#
# 1 142.6839 38.8390 55.9080 0.0000 -28.6588 0.0000
# 2 38.8390 79.3644 51.1718 0.0000 -7.9455 0.0000
# 3 55.9080 51.1718 91.9524 0.0000 -18.3091 0.0000
# 4 0.0000 0.0000 0.0000 34.7785 0.0000 -4.8846
# 5 -28.6588 -7.9455 -18.3091 0.0000 34.1961 0.0000
# 6 0.0000 0.0000 0.0000 -4.8846 0.0000 15.5628
#
#
#
# Elastic Compliance Matrix: (Units=1/GPa)
#
#
# Indices 1 2 3 4 5 6 
#
# 1 0.010306 -0.001831 -0.004043 0.000000 0.006047 0.000000
# 2 -0.001831 0.020041 -0.010541 0.000000 -0.002522 0.000000
# 3 -0.004043 -0.010541 0.020190 0.000000 0.004972 0.000000
# 4 0.000000 0.000000 0.000000 0.030079 0.000000 0.009441
# 5 0.006047 -0.002522 0.004972 0.000000 0.036387 0.000000
# 6 0.000000 0.000000 0.000000 0.009441 0.000000 0.067219
#
#
# Mechanical properties :
#
#
# Convention : Reuss Voigt Hill
#
# Bulk Modulus (GPa) = 56.48176 67.31534 61.89855
# Shear Modulus (GPa) = 22.42621 28.11296 25.26959
#
# Velocity S-wave (km/s) = 3.52070 3.94189 3.73724
# Velocity P-wave (km/s) = 6.90982 7.61081 7.26877
#
# Compressibility (1/GPa) = 0.01770483
#
# Stress axis : x y z
#
# Youngs Moduli (GPa) = 97.03476 49.89878 49.53027
#
# Poissons Ratio (x) = 0.09138 0.20024
# Poissons Ratio (y) = 0.17770 0.52212
# Poissons Ratio (z) = 0.39229 0.52600
#
# Static dielectric constant tensor:
#      x y z
#    x 3.542180 0.000000 -0.194070 
#    y 0.000000 3.112410 0.000000 
#    z -0.194070 0.000000 3.398320 
# 
# 
# High freq. dielectric constant tensor:
#      x y z
#    x 1.699980 0.000000 -0.006790 
#    y 0.000000 1.662450 0.000000 
#    z -0.006790 0.000000 1.699820 
# 
# From -- ./inp_files/41032.got.cif
#   From: 2010.06.25/outbox.cif.g09.slc.cpg/sg15_21_cif.got.tgz:41032.got - 2010.06.28 07:06:18.
