data_PCOD8149239
_publ_section_title
;
Structure prediction by ZEFSAII (Michael W. Deem and Ramdas Pophale) SiO2 
 PCOD8149239
Probable space group: C 2/C
;
_chemical_formula_sum "Si O2"
_cell_formula_units_Z 36
_cell_length_a 13.992695
_cell_length_b 9.810318
_cell_length_c 22.938175
_cell_angle_alpha 90.000000
_cell_angle_beta 151.674323
_cell_angle_gamma 90.000000
_cell_volume 1494.045208
_symmetry_space_group_name_H-M "C 2/C"
_symmetry_group_IT_number 15
_symmetry_cell_setting 'monoclinic'
loop_
_space_group_symop_operation_xyz
x,y,z
-x,y,1/2-z
-x,-y,-z
x,-y,1/2+z
1/2+x,1/2+y,z
1/2-x,1/2+y,1/2-z
1/2-x,1/2-y,-z
1/2+x,1/2-y,1/2+z
loop_
_atom_site_type_symbol
_atom_site_label
_atom_site_fract_x
_atom_site_fract_y
_atom_site_fract_z
Si Si1 0.811414 0.962794 0.829934
Si Si2 0.779371 0.894762 0.490142
Si Si3 0.000000 0.496235 0.750000
Si Si4 0.153439 0.866164 0.384407
Si Si5 0.558688 0.765190 0.626868
O O1 0.713288 0.891464 0.719555
O O2 0.036078 0.902720 0.956684
O O3 0.691765 0.916591 0.825085
O O4 0.824806 0.128057 0.830274
O O5 0.750000 0.750000 0.500000
O O6 0.573184 0.919019 0.344916
O O7 0.816800 0.997121 0.562908
O O8 0.376728 0.810760 0.485079
O O9 0.000000 0.898462 0.250000
O O10 0.048854 0.751242 0.367855
#
# Coordination Sequence:
#
# PCOD8149239 Si02
#       5
#     8   8   4   8   8
#     4  11  24  44  75 107 144 193 248 300 368 435
#     4  11  25  45  70 111 145 190 246 305 370 430
#     4  12  24  44  72 100 148 190 244 300 356 450
#     4  10  23  44  72 101 148 189 238 303 371 439
#     4  10  23  45  69 109 141 190 241 299 368 435
#
# _framework density 24.095656000000002
#
# number of rings (size 3 to 8) (size 9 to 14) (size 15 to 20)
#    0.000    1.333    2.222    2.000    3.111    1.778 
#    0.000    4.444    0.000    0.000    0.000    0.000 
#    0.000    0.000    0.000    0.000    0.000    0.000 
#
# Total GULP energy -223019.014913 kJ/mol
# GULP energy per Si atom -12389.945273 kJ/mol
# Density = 2.404081 g / cm^3
# Si number density = 24.095656 Si / 1000 Ang^3
#
#
#
# Elastic Constant Matrix: (Units=GPa)
#
#
# Indices 1 2 3 4 5 6 
#
# 1 80.5472 27.9847 33.2829 0.0000 19.8715 0.0000
# 2 27.9847 146.8174 68.0398 0.0009 1.4942 0.0000
# 3 33.2829 68.0398 173.6846 0.0033 -21.0611 -0.0001
# 4 0.0000 0.0009 0.0033 29.2745 0.0003 12.0249
# 5 19.8715 1.4942 -21.0611 0.0003 53.7677 -0.0001
# 6 0.0000 0.0000 -0.0001 12.0249 -0.0001 11.6859
#
#
#
# Elastic Compliance Matrix: (Units=1/GPa)
#
#
# Indices 1 2 3 4 5 6 
#
# 1 0.016104 -0.001415 -0.003411 0.000001 -0.007248 -0.000001
# 2 -0.001415 0.008577 -0.003206 0.000000 -0.000971 0.000000
# 3 -0.003411 -0.003206 0.008221 -0.000002 0.004570 0.000002
# 4 0.000001 0.000000 -0.000002 0.059169 -0.000001 -0.060885
# 5 -0.007248 -0.000971 0.004570 -0.000001 0.023094 0.000002
# 6 -0.000001 0.000000 0.000002 -0.060885 0.000002 0.148224
#
#
# Mechanical properties :
#
#
# Convention : Reuss Voigt Hill
#
# Bulk Modulus (GPa) = 59.38998 73.29600 66.34299
# Shear Modulus (GPa) = 17.53973 37.06174 27.30073
#
# Velocity S-wave (km/s) = 2.70093 3.92613 3.36968
# Velocity P-wave (km/s) = 5.86752 7.14405 6.53702
#
# Compressibility (1/GPa) = 0.01683786
#
# Stress axis : x y z
#
# Youngs Moduli (GPa) = 62.09519 116.59333 121.63378
#
# Poissons Ratio (x) = 0.16501 0.41484
# Poissons Ratio (y) = 0.08788 0.39002
# Poissons Ratio (z) = 0.21178 0.37385
#
# Static dielectric constant tensor:
#      x y z
#    x 4.102590 0.000000 0.315120 
#    y 0.000000 5.440270 0.000020 
#    z 0.315120 0.000020 4.304370 
# 
# 
# High freq. dielectric constant tensor:
#      x y z
#    x 1.927260 0.000000 0.014890 
#    y 0.000000 1.949790 0.000000 
#    z 0.014890 0.000000 1.990510 
# 
# From -- ./inp_files/295510.got.cif
#   From: 2010.06.25/outbox.cif.g09.slc.cpg/sg15_148_cif.got.tgz:295510.got - 2010.06.28 07:06:18.
