data_PCOD8149568
_publ_section_title
;
Structure prediction by ZEFSAII (Michael W. Deem and Ramdas Pophale) SiO2 
 PCOD8149568
Probable space group: C 2/C
;
_chemical_formula_sum "Si O2"
_cell_formula_units_Z 44
_cell_length_a 15.759754
_cell_length_b 15.025866
_cell_length_c 8.855972
_cell_angle_alpha 90.000000
_cell_angle_beta 62.435353
_cell_angle_gamma 90.000000
_cell_volume 1859.082517
_symmetry_space_group_name_H-M "C 2/C"
_symmetry_group_IT_number 15
_symmetry_cell_setting 'monoclinic'
loop_
_space_group_symop_operation_xyz
x,y,z
-x,y,1/2-z
-x,-y,-z
x,-y,1/2+z
1/2+x,1/2+y,z
1/2-x,1/2+y,1/2-z
1/2-x,1/2-y,-z
1/2+x,1/2-y,1/2+z
loop_
_atom_site_type_symbol
_atom_site_label
_atom_site_fract_x
_atom_site_fract_y
_atom_site_fract_z
Si Si1 0.500000 0.016906 0.750000
Si Si2 0.146915 0.893772 0.409772
Si Si3 0.696171 0.571462 0.209273
Si Si4 0.493019 0.737639 0.585121
Si Si5 0.600904 0.910379 0.893035
Si Si6 0.206909 0.258144 0.368473
O O1 0.520857 0.075622 0.586486
O O2 0.584727 0.953382 0.741182
O O3 0.154658 0.908202 0.580781
O O4 0.041393 0.849650 0.477788
O O5 0.233839 0.831253 0.276548
O O6 0.142146 0.988990 0.330788
O O7 0.807205 0.546128 0.104429
O O8 0.702207 0.658854 0.307042
O O9 0.500000 0.705305 0.750000
O O10 0.402879 0.804834 0.635887
O O11 0.593570 0.784031 0.456266
O O12 0.250000 0.250000 0.500000
#
# Coordination Sequence:
#
# PCOD8149568 Si02
#       6
#     4   8   8   8   8   8
#     4  10  24  36  64 106 144 184 236 308 368 438
#     4  12  28  50  76 111 150 196 254 308 373 450
#     4  12  27  48  76 109 150 199 252 305 379 443
#     4  12  26  47  75 107 150 195 250 302 377 444
#     4  11  23  43  68 105 143 187 241 303 374 431
#     4  12  26  49  76 108 152 196 245 311 372 444
#
# _framework density 23.667587999999999
#
# number of rings (size 3 to 8) (size 9 to 14) (size 15 to 20)
#    0.000    0.364    4.545    2.727    7.636    1.455 
#    0.000    0.000    0.000    0.000    0.000    0.000 
#    0.000    0.000    0.000    0.000    0.000    0.000 
#
# Total GULP energy -272583.854410 kJ/mol
# GULP energy per Si atom -12390.175200 kJ/mol
# Density = 2.361372 g / cm^3
# Si number density = 23.667588 Si / 1000 Ang^3
#
#
#
# Elastic Constant Matrix: (Units=GPa)
#
#
# Indices 1 2 3 4 5 6 
#
# 1 109.2645 23.5792 41.0664 0.0000 33.0500 0.0000
# 2 23.5792 127.8353 51.4492 0.0000 33.4848 0.0000
# 3 41.0664 51.4492 115.3111 0.0000 42.7248 0.0000
# 4 0.0000 0.0000 0.0000 36.5528 0.0000 6.3425
# 5 33.0500 33.4848 42.7248 0.0000 43.3847 0.0000
# 6 0.0000 0.0000 0.0000 6.3425 0.0000 20.3842
#
#
#
# Elastic Compliance Matrix: (Units=1/GPa)
#
#
# Indices 1 2 3 4 5 6 
#
# 1 0.012059 0.000505 -0.001530 0.000000 -0.008069 0.000000
# 2 0.000505 0.010295 -0.002656 0.000000 -0.005716 0.000000
# 3 -0.001530 -0.002656 0.014502 0.000000 -0.011066 0.000000
# 4 0.000000 0.000000 0.000000 0.028919 0.000000 -0.008998
# 5 -0.008069 -0.005716 -0.011066 0.000000 0.044506 0.000000
# 6 0.000000 0.000000 0.000000 -0.008998 0.000000 0.051857
#
#
# Mechanical properties :
#
#
# Convention : Reuss Voigt Hill
#
# Bulk Modulus (GPa) = 33.90368 64.95562 49.42965
# Shear Modulus (GPa) = 27.88115 35.81874 31.84995
#
# Velocity S-wave (km/s) = 3.43597 3.89448 3.67239
# Velocity P-wave (km/s) = 5.48609 6.90848 6.23796
#
# Compressibility (1/GPa) = 0.02949533
#
# Stress axis : x y z
#
# Youngs Moduli (GPa) = 82.92555 97.13125 68.95420
#
# Poissons Ratio (x) = -0.04908 0.10551
# Poissons Ratio (y) = -0.04190 0.18313
# Poissons Ratio (z) = 0.12689 0.25796
#
# Static dielectric constant tensor:
#      x y z
#    x 5.058380 0.000000 -0.242370 
#    y 0.000000 4.395280 0.000000 
#    z -0.242370 0.000000 4.198170 
# 
# 
# High freq. dielectric constant tensor:
#      x y z
#    x 1.952100 0.000000 0.010390 
#    y 0.000000 1.946450 0.000000 
#    z 0.010390 0.000000 1.933890 
# 
# From -- ./inp_files/47008.got.cif
#   From: 2010.06.25/outbox.cif.g09.slc.cpg/sg15_24_cif.got.tgz:47008.got - 2010.06.28 07:06:18.
