data_PCOD8149250
_publ_section_title
;
Structure prediction by ZEFSAII (Michael W. Deem and Ramdas Pophale) SiO2 
 PCOD8149250
Probable space group: C 2/C
;
_chemical_formula_sum "Si O2"
_cell_formula_units_Z 48
_cell_length_a 32.748380
_cell_length_b 5.536935
_cell_length_c 14.352617
_cell_angle_alpha 90.000000
_cell_angle_beta 55.644432
_cell_angle_gamma 90.000000
_cell_volume 2148.495490
_symmetry_space_group_name_H-M "C 2/C"
_symmetry_group_IT_number 15
_symmetry_cell_setting 'monoclinic'
loop_
_space_group_symop_operation_xyz
x,y,z
-x,y,1/2-z
-x,-y,-z
x,-y,1/2+z
1/2+x,1/2+y,z
1/2-x,1/2+y,1/2-z
1/2-x,1/2-y,-z
1/2+x,1/2-y,1/2+z
loop_
_atom_site_type_symbol
_atom_site_label
_atom_site_fract_x
_atom_site_fract_y
_atom_site_fract_z
Si Si1 0.973378 0.745475 0.503916
Si Si2 0.806756 0.317234 0.431630
Si Si3 0.130616 0.106408 0.996232
Si Si4 0.874665 0.934406 0.694375
Si Si5 0.950879 0.541411 0.859827
Si Si6 0.623253 0.210900 0.159829
O O1 0.919245 0.748052 0.620794
O O2 0.964250 0.699317 0.404442
O O3 0.000000 0.500000 0.500000
O O4 0.000000 0.000000 0.500000
O O5 0.750000 0.250000 0.500000
O O6 0.826290 0.262040 0.510905
O O7 0.832885 0.167753 0.316146
O O8 0.821261 0.598469 0.397095
O O9 0.149792 0.012677 0.871874
O O10 0.079149 0.254116 0.043327
O O11 0.120777 0.883202 0.074991
O O12 0.895590 0.170251 0.720443
O O13 0.916088 0.495123 0.814788
O O14 0.000000 0.653434 0.750000
#
# Coordination Sequence:
#
# PCOD8149250 Si02
#       6
#     8   8   8   8   8   8
#     4  12  27  42  68 107 146 199 257 297 368 435
#     4  10  25  47  72 107 138 185 244 317 386 455
#     4  10  23  45  67 102 141 194 241 301 376 446
#     4  11  24  45  69 102 145 191 243 310 366 457
#     4  11  24  40  66  99 147 196 252 305 362 441
#     4  10  23  44  72  93 149 183 243 308 383 433
#
# _framework density 22.341214999999998
#
# number of rings (size 3 to 8) (size 9 to 14) (size 15 to 20)
#    0.000    1.333    1.667    2.000   11.667    3.333 
#    6.000    0.000    0.000    0.000    0.000    0.000 
#    0.000    0.000    0.000    0.000    0.000    0.000 
#
# Total GULP energy -297323.499312 kJ/mol
# GULP energy per Si atom -12388.479138 kJ/mol
# Density = 2.229037 g / cm^3
# Si number density = 22.341215 Si / 1000 Ang^3
#
#
#
# Elastic Constant Matrix: (Units=GPa)
#
#
# Indices 1 2 3 4 5 6 
#
# 1 126.1130 50.3020 71.3603 0.0000 -3.4898 0.0000
# 2 50.3020 108.1335 38.1415 -0.0001 -0.5168 0.0002
# 3 71.3603 38.1415 130.5046 0.0001 7.2204 0.0000
# 4 0.0000 -0.0001 0.0001 30.2227 0.0000 2.0380
# 5 -3.4898 -0.5168 7.2204 0.0000 49.9980 0.0000
# 6 0.0000 0.0002 0.0000 2.0380 0.0000 35.8739
#
#
#
# Elastic Compliance Matrix: (Units=1/GPa)
#
#
# Indices 1 2 3 4 5 6 
#
# 1 0.012943 -0.003883 -0.006038 0.000000 0.001735 0.000000
# 2 -0.003883 0.011490 -0.001237 0.000000 0.000026 0.000000
# 3 -0.006038 -0.001237 0.011441 0.000000 -0.002087 0.000000
# 4 0.000000 0.000000 0.000000 0.033215 0.000000 -0.001887
# 5 0.001735 0.000026 -0.002087 0.000000 0.020424 0.000000
# 6 0.000000 0.000000 0.000000 -0.001887 0.000000 0.027983
#
#
# Mechanical properties :
#
#
# Convention : Reuss Voigt Hill
#
# Bulk Modulus (GPa) = 73.75147 76.03985 74.89566
# Shear Modulus (GPa) = 34.64271 36.88208 35.76239
#
# Velocity S-wave (km/s) = 3.94206 4.06748 4.00526
# Velocity P-wave (km/s) = 7.33504 7.49458 7.41524
#
# Compressibility (1/GPa) = 0.01355905
#
# Stress axis : x y z
#
# Youngs Moduli (GPa) = 77.26256 87.03026 87.40293
#
# Poissons Ratio (x) = 0.33790 0.52778
# Poissons Ratio (y) = 0.29998 0.10808
# Poissons Ratio (z) = 0.46655 0.10762
#
# Static dielectric constant tensor:
#      x y z
#    x 4.275020 0.000010 0.331750 
#    y 0.000010 4.268850 0.000000 
#    z 0.331750 0.000000 3.955420 
# 
# 
# High freq. dielectric constant tensor:
#      x y z
#    x 1.877790 0.000000 0.020810 
#    y 0.000000 1.886590 0.000000 
#    z 0.020810 0.000000 1.871810 
# 
# From -- ./inp_files/179974.got.cif
#   From: 2010.06.25/outbox.cif.g09.slc.cpg/sg15_90_cif.got.tgz:179974.got - 2010.06.28 07:06:18.
