data_PCOD8149420
_publ_section_title
;
Structure prediction by ZEFSAII (Michael W. Deem and Ramdas Pophale) SiO2 
 PCOD8149420
Probable space group: C 2/C
;
_chemical_formula_sum "Si O2"
_cell_formula_units_Z 48
_cell_length_a 16.748331
_cell_length_b 8.451766
_cell_length_c 14.387646
_cell_angle_alpha 90.000000
_cell_angle_beta 86.814774
_cell_angle_gamma 90.000000
_cell_volume 2033.467773
_symmetry_space_group_name_H-M "C 2/C"
_symmetry_group_IT_number 15
_symmetry_cell_setting 'monoclinic'
loop_
_space_group_symop_operation_xyz
x,y,z
-x,y,1/2-z
-x,-y,-z
x,-y,1/2+z
1/2+x,1/2+y,z
1/2-x,1/2+y,1/2-z
1/2-x,1/2-y,-z
1/2+x,1/2-y,1/2+z
loop_
_atom_site_type_symbol
_atom_site_label
_atom_site_fract_x
_atom_site_fract_y
_atom_site_fract_z
Si Si1 0.537284 0.804155 0.156276
Si Si2 0.309398 0.041271 0.786216
Si Si3 0.677228 0.205034 0.069646
Si Si4 0.808151 0.199820 0.578956
Si Si5 0.414384 0.508782 0.460565
Si Si6 0.116044 0.517368 0.908382
O O1 0.500000 0.722829 0.250000
O O2 0.601639 0.931503 0.182423
O O3 0.584256 0.663555 0.103161
O O4 0.469476 0.902676 0.105731
O O5 0.243179 0.167618 0.824519
O O6 0.314145 0.055607 0.673439
O O7 0.292897 0.867400 0.833276
O O8 0.615396 0.351318 0.091211
O O9 0.750000 0.250000 0.000000
O O10 0.634985 0.068688 0.011520
O O11 0.750000 0.250000 0.500000
O O12 0.850530 0.035987 0.547376
O O13 0.880303 0.325817 0.591150
O O14 0.500000 0.500000 0.500000
#
# Coordination Sequence:
#
# PCOD8149420 Si02
#       6
#     8   8   8   8   8   8
#     4  10  23  46  66  97 135 179 227 278 337 405
#     4  11  25  44  70  97 132 181 229 274 336 408
#     4  12  24  43  64 102 136 172 227 280 337 399
#     4  12  23  44  69  94 130 184 221 267 343 401
#     4  12  24  41  68  97 133 177 220 281 341 396
#     4  11  25  44  70  96 135 178 225 278 336 408
#
# _framework density 23.604998999999999
#
# number of rings (size 3 to 8) (size 9 to 14) (size 15 to 20)
#    0.000    0.667    6.667    0.000    4.667    1.333 
#    3.000    0.000    0.000    0.000    0.000    0.000 
#    0.000    0.000    0.000    0.000    0.000    0.000 
#
# Total GULP energy -297329.624571 kJ/mol
# GULP energy per Si atom -12388.734357 kJ/mol
# Density = 2.355127 g / cm^3
# Si number density = 23.604999 Si / 1000 Ang^3
#
#
#
# Elastic Constant Matrix: (Units=GPa)
#
#
# Indices 1 2 3 4 5 6 
#
# 1 63.5411 11.6167 -7.9015 0.0000 -13.0445 0.0000
# 2 11.6167 108.8949 10.4397 0.0000 -7.4922 0.0000
# 3 -7.9015 10.4397 79.8265 0.0000 -18.6863 0.0000
# 4 0.0000 0.0000 0.0000 20.2921 0.0000 -8.1715
# 5 -13.0445 -7.4922 -18.6863 0.0000 29.9949 0.0000
# 6 0.0000 0.0000 0.0000 -8.1715 0.0000 54.1811
#
#
#
# Elastic Compliance Matrix: (Units=1/GPa)
#
#
# Indices 1 2 3 4 5 6 
#
# 1 0.018792 -0.001714 0.004562 0.000000 0.010587 0.000000
# 2 -0.001714 0.009543 -0.001211 0.000000 0.000884 0.000000
# 3 0.004562 -0.001211 0.015841 0.000000 0.011550 0.000000
# 4 0.000000 0.000000 0.000000 0.052467 0.000000 0.007913
# 5 0.010587 0.000884 0.011550 0.000000 0.045360 0.000000
# 6 0.000000 0.000000 0.000000 0.007913 0.000000 0.019650
#
#
# Mechanical properties :
#
#
# Convention : Reuss Voigt Hill
#
# Bulk Modulus (GPa) = 21.07408 31.17470 26.12439
# Shear Modulus (GPa) = 28.70379 36.76748 32.73563
#
# Velocity S-wave (km/s) = 3.49091 3.95094 3.72803
# Velocity P-wave (km/s) = 5.01954 5.83513 5.44263
#
# Compressibility (1/GPa) = 0.04745165
#
# Stress axis : x y z
#
# Youngs Moduli (GPa) = 53.21456 104.79018 63.12779
#
# Poissons Ratio (x) = 0.17958 -0.28801
# Poissons Ratio (y) = 0.09119 0.07643
# Poissons Ratio (z) = -0.24279 0.12687
#
# Static dielectric constant tensor:
#      x y z
#    x 4.319470 0.000000 -0.091480 
#    y 0.000000 4.508630 0.000000 
#    z -0.091480 0.000000 4.665290 
# 
# 
# High freq. dielectric constant tensor:
#      x y z
#    x 1.939490 0.000000 -0.017610 
#    y 0.000000 1.935040 0.000000 
#    z -0.017610 0.000000 1.932110 
# 
# From -- ./inp_files/159742.got.cif
#   From: 2010.06.25/outbox.cif.g09.slc.cpg/sg15_80_cif.got.tgz:159742.got - 2010.06.28 07:06:18.
