data_PCOD8149073
_publ_section_title
;
Structure prediction by ZEFSAII (Michael W. Deem and Ramdas Pophale) SiO2 
 PCOD8149073
Probable space group: C 2/C
;
_chemical_formula_sum "Si O2"
_cell_formula_units_Z 52
_cell_length_a 31.024985
_cell_length_b 11.365371
_cell_length_c 8.137451
_cell_angle_alpha 90.000000
_cell_angle_beta 60.645981
_cell_angle_gamma 90.000000
_cell_volume 2500.947284
_symmetry_space_group_name_H-M "C 2/C"
_symmetry_group_IT_number 15
_symmetry_cell_setting 'monoclinic'
loop_
_space_group_symop_operation_xyz
x,y,z
-x,y,1/2-z
-x,-y,-z
x,-y,1/2+z
1/2+x,1/2+y,z
1/2-x,1/2+y,1/2-z
1/2-x,1/2-y,-z
1/2+x,1/2-y,1/2+z
loop_
_atom_site_type_symbol
_atom_site_label
_atom_site_fract_x
_atom_site_fract_y
_atom_site_fract_z
Si Si1 0.086057 0.974629 0.722723
Si Si2 0.868540 0.653872 0.423121
Si Si3 0.244562 0.381778 0.955112
Si Si4 0.464893 0.277996 0.158243
Si Si5 0.000000 0.823023 0.750000
Si Si6 0.348713 0.395334 0.623481
Si Si7 0.680644 0.960526 0.789435
O O1 0.048567 0.901941 0.681417
O O2 0.104000 0.894446 0.841252
O O3 0.060229 0.095791 0.826062
O O4 0.137188 0.004840 0.534311
O O5 0.925591 0.676091 0.272345
O O6 0.843465 0.767126 0.552921
O O7 0.863172 0.544066 0.557989
O O8 0.839850 0.627343 0.308538
O O9 0.226025 0.461250 0.139474
O O10 0.250000 0.250000 0.000000
O O11 0.297047 0.433192 0.798963
O O12 0.202829 0.381468 0.892473
O O13 0.500000 0.286332 0.250000
O O14 0.492370 0.247034 0.933024
#
# Coordination Sequence:
#
# PCOD8149073 Si02
#       7
#     8   8   8   8   4   8   8
#     4  11  21  37  60  94 139 169 202 258 329 408
#     4  10  23  44  65  92 121 175 215 273 324 386
#     4  11  22  42  65  95 126 174 218 267 326 389
#     4  11  23  41  65  97 135 171 216 266 329 405
#     4  12  20  38  64  94 132 184 200 258 344 396
#     4  11  22  38  60  98 133 164 215 263 324 400
#     4  10  23  46  67  84 131 171 219 275 328 377
#
# _framework density 20.792121000000002
#
# number of rings (size 3 to 8) (size 9 to 14) (size 15 to 20)
#    0.000    1.231    3.846    3.231    0.000    1.846 
#   11.077    0.769    0.000    0.000    0.000    0.000 
#    0.000    0.000    0.000    0.000    0.000    0.000 
#
# Total GULP energy -322358.221302 kJ/mol
# GULP energy per Si atom -12398.393127 kJ/mol
# Density = 2.074480 g / cm^3
# Si number density = 20.792121 Si / 1000 Ang^3
#
#
#
# Elastic Constant Matrix: (Units=GPa)
#
#
# Indices 1 2 3 4 5 6 
#
# 1 102.7843 58.0538 50.7969 0.0000 7.5734 0.0000
# 2 58.0538 93.6329 46.8311 0.0000 4.0146 0.0000
# 3 50.7969 46.8311 146.6853 0.0000 -1.3267 0.0000
# 4 0.0000 0.0000 0.0000 17.1072 0.0000 1.9637
# 5 7.5734 4.0146 -1.3267 0.0000 40.8835 0.0000
# 6 0.0000 0.0000 0.0000 1.9637 0.0000 32.3365
#
#
#
# Elastic Compliance Matrix: (Units=1/GPa)
#
#
# Indices 1 2 3 4 5 6 
#
# 1 0.016089 -0.008428 -0.002901 0.000000 -0.002247 0.000000
# 2 -0.008428 0.017203 -0.002576 0.000000 -0.000212 0.000000
# 3 -0.002901 -0.002576 0.008654 0.000000 0.001071 0.000000
# 4 0.000000 0.000000 0.000000 0.058865 0.000000 -0.003575
# 5 -0.002247 -0.000212 0.001071 0.000000 0.024931 0.000000
# 6 0.000000 0.000000 0.000000 -0.003575 0.000000 0.031142
#
#
# Mechanical properties :
#
#
# Convention : Reuss Voigt Hill
#
# Bulk Modulus (GPa) = 70.74014 72.71845 71.72929
# Shear Modulus (GPa) = 26.39850 30.56015 28.47933
#
# Velocity S-wave (km/s) = 3.56707 3.83795 3.70498
# Velocity P-wave (km/s) = 7.14575 7.39525 7.27157
#
# Compressibility (1/GPa) = 0.01413625
#
# Stress axis : x y z
#
# Youngs Moduli (GPa) = 62.15608 58.13072 115.55473
#
# Poissons Ratio (x) = 0.48991 0.33523
# Poissons Ratio (y) = 0.52384 0.29761
# Poissons Ratio (z) = 0.18032 0.14972
#
# Static dielectric constant tensor:
#      x y z
#    x 3.684300 0.000000 0.038290 
#    y 0.000000 3.475650 0.000000 
#    z 0.038290 0.000000 4.653960 
# 
# 
# High freq. dielectric constant tensor:
#      x y z
#    x 1.816560 0.000000 0.007060 
#    y 0.000000 1.781130 0.000000 
#    z 0.007060 0.000000 1.839200 
# 
# From -- ./inp_files/65353.got.cif
#   From: 2010.06.25/outbox.cif.g09.slc.cpg/sg15_33_cif.got.tgz:65353.got - 2010.06.28 07:06:18.
