data_PCOD8149337
_publ_section_title
;
Structure prediction by ZEFSAII (Michael W. Deem and Ramdas Pophale) SiO2 
 PCOD8149337
Probable space group: C 2/C
;
_chemical_formula_sum "Si O2"
_cell_formula_units_Z 48
_cell_length_a 13.429586
_cell_length_b 28.805548
_cell_length_c 8.717782
_cell_angle_alpha 90.000000
_cell_angle_beta 41.706895
_cell_angle_gamma 90.000000
_cell_volume 2243.755244
_symmetry_space_group_name_H-M "C 2/C"
_symmetry_group_IT_number 15
_symmetry_cell_setting 'monoclinic'
loop_
_space_group_symop_operation_xyz
x,y,z
-x,y,1/2-z
-x,-y,-z
x,-y,1/2+z
1/2+x,1/2+y,z
1/2-x,1/2+y,1/2-z
1/2-x,1/2-y,-z
1/2+x,1/2-y,1/2+z
loop_
_atom_site_type_symbol
_atom_site_label
_atom_site_fract_x
_atom_site_fract_y
_atom_site_fract_z
Si Si1 0.365533 0.380858 0.016620
Si Si2 0.091904 0.963390 0.301404
Si Si3 0.296166 0.299850 0.635154
Si Si4 0.345365 0.117639 0.002913
Si Si5 0.854047 0.204776 0.722375
Si Si6 0.611984 0.020574 0.491143
O O1 0.407231 0.415815 0.105435
O O2 0.300988 0.334271 0.165806
O O3 0.500000 0.368097 0.750000
O O4 0.241473 0.401075 0.047569
O O5 0.259758 0.984935 0.094449
O O6 0.000000 0.954867 0.250000
O O7 0.000000 0.000000 0.500000
O O8 0.227641 0.341171 0.814871
O O9 0.206391 0.253052 0.774253
O O10 0.467630 0.292678 0.480671
O O11 0.282997 0.309241 0.468279
O O12 0.333371 0.071844 0.127404
O O13 0.500000 0.134904 0.750000
O O14 0.500000 0.000000 0.500000
O O15 0.500000 0.035824 0.750000
#
# Coordination Sequence:
#
# PCOD8149337 Si02
#       6
#     8   8   8   8   8   8
#     4  12  25  43  65 101 136 174 227 283 340 407
#     4  12  25  41  70 101 135 179 228 284 347 409
#     4  10  23  45  68  97 137 173 225 276 341 408
#     4  11  24  43  68  97 137 178 223 281 336 406
#     4  10  24  43  69  98 132 178 221 280 336 411
#     4  11  24  45  66  95 135 177 225 274 333 403
#
# _framework density 21.392709
#
# number of rings (size 3 to 8) (size 9 to 14) (size 15 to 20)
#    0.000    1.000    1.667    5.500    4.667    2.667 
#    0.000    0.000    0.000    0.000    0.000    0.000 
#    0.000    0.000    0.000    0.000    0.000    0.000 
#
# Total GULP energy -297359.356120 kJ/mol
# GULP energy per Si atom -12389.973172 kJ/mol
# Density = 2.134402 g / cm^3
# Si number density = 21.392709 Si / 1000 Ang^3
#
#
#
# Elastic Constant Matrix: (Units=GPa)
#
#
# Indices 1 2 3 4 5 6 
#
# 1 137.2176 69.4929 35.9529 0.0000 5.9978 0.0000
# 2 69.4929 177.4999 62.2583 0.0000 20.0461 0.0000
# 3 35.9529 62.2583 90.4927 0.0000 2.8386 0.0000
# 4 0.0000 0.0000 0.0000 -95.5992 0.0000 -82.4412
# 5 5.9978 20.0461 2.8386 0.0000 29.4296 0.0000
# 6 0.0000 0.0000 0.0000 -82.4412 0.0000 -16.9945
#
#
#
# Elastic Compliance Matrix: (Units=1/GPa)
#
#
# Indices 1 2 3 4 5 6 
#
# 1 0.009258 -0.003130 -0.001537 0.000000 0.000393 0.000000
# 2 -0.003130 0.009155 -0.004894 0.000000 -0.005126 0.000000
# 3 -0.001537 -0.004894 0.014959 0.000000 0.002204 0.000000
# 4 0.000000 0.000000 0.000000 0.003286 0.000000 -0.015940
# 5 0.000393 -0.005126 0.002204 0.000000 0.037178 0.000000
# 6 0.000000 0.000000 0.000000 -0.015940 0.000000 0.018484
#
#
# Mechanical properties :
#
#
# Convention : Reuss Voigt Hill
#
# Bulk Modulus (GPa) = 70.17648 82.29092 76.23370
# Shear Modulus (GPa) = 43.03164 -0.79909 21.11628
#
# Velocity S-wave (km/s) = 4.48985 -0.61184 3.14519
# Velocity P-wave (km/s) = 7.73004 6.16856 6.99302
#
# Compressibility (1/GPa) = 0.01424979
#
# Stress axis : x y z
#
# Youngs Moduli (GPa) = 108.00934 109.23352 66.84797
#
# Poissons Ratio (x) = 0.34190 0.10277
# Poissons Ratio (y) = 0.33807 0.32716
# Poissons Ratio (z) = 0.16605 0.53459
#
# Static dielectric constant tensor:
#      x y z
#    x 2.765650 0.000000 0.210030 
#    y 0.000000 4.032450 0.000000 
#    z 0.210030 0.000000 3.850570 
# 
# 
# High freq. dielectric constant tensor:
#      x y z
#    x 1.849970 0.000000 -0.006050 
#    y 0.000000 1.851600 0.000000 
#    z -0.006050 0.000000 1.847220 
# 
# From -- ./inp_files/43838.got.cif
#   From: 2010.06.25/outbox.cif.g09.slc.cpg/sg15_22_cif.got.tgz:43838.got - 2010.06.28 07:06:18.
