data_PCOD8149101
_publ_section_title
;
Structure prediction by ZEFSAII (Michael W. Deem and Ramdas Pophale) SiO2 
 PCOD8149101
Probable space group: C 2/C
;
_chemical_formula_sum "Si O2"
_cell_formula_units_Z 48
_cell_length_a 10.594908
_cell_length_b 8.308150
_cell_length_c 22.303101
_cell_angle_alpha 90.000000
_cell_angle_beta 92.314162
_cell_angle_gamma 90.000000
_cell_volume 1961.608950
_symmetry_space_group_name_H-M "C 2/C"
_symmetry_group_IT_number 15
_symmetry_cell_setting 'monoclinic'
loop_
_space_group_symop_operation_xyz
x,y,z
-x,y,1/2-z
-x,-y,-z
x,-y,1/2+z
1/2+x,1/2+y,z
1/2-x,1/2+y,1/2-z
1/2-x,1/2-y,-z
1/2+x,1/2-y,1/2+z
loop_
_atom_site_type_symbol
_atom_site_label
_atom_site_fract_x
_atom_site_fract_y
_atom_site_fract_z
Si Si1 0.806493 0.963193 0.618277
Si Si2 0.780809 0.839691 0.430931
Si Si3 0.196514 0.539922 0.327452
Si Si4 0.356992 0.947039 0.484502
Si Si5 0.053583 0.746576 0.414805
Si Si6 0.145144 0.207402 0.264270
O O1 0.828623 0.787966 0.588814
O O2 0.793881 0.923053 0.688369
O O3 0.685487 0.064448 0.586429
O O4 0.928319 0.072229 0.608098
O O5 0.909552 0.734378 0.435060
O O6 0.792780 0.973229 0.379327
O O7 0.743687 0.918929 0.493201
O O8 0.078077 0.620865 0.360656
O O9 0.151230 0.393609 0.284387
O O10 0.270108 0.680731 0.293403
O O11 0.350949 0.786261 0.526530
O O12 0.500000 0.000000 0.500000
O O13 0.000000 0.160718 0.250000
#
# Coordination Sequence:
#
# PCOD8149101 Si02
#       6
#     8   8   8   8   8   8
#     4  11  23  42  68  99 135 179 223 273 338 398
#     4  10  23  44  66  96 139 179 221 281 342 397
#     4  10  24  42  64  98 131 168 230 273 340 405
#     4  11  23  44  67  99 142 178 227 280 338 408
#     4  11  23  42  67  99 134 178 224 278 339 407
#     4  11  24  45  68  98 133 177 223 282 337 405
#
# _framework density 24.469709999999999
#
# number of rings (size 3 to 8) (size 9 to 14) (size 15 to 20)
#    0.000    1.333    1.667    3.000    0.000    4.667 
#   12.000    0.833    0.000    0.000    0.000    0.000 
#    0.000    0.000    0.000    0.000    0.000    0.000 
#
# Total GULP energy -297329.183469 kJ/mol
# GULP energy per Si atom -12388.715978 kJ/mol
# Density = 2.441402 g / cm^3
# Si number density = 24.469710 Si / 1000 Ang^3
#
#
#
# Elastic Constant Matrix: (Units=GPa)
#
#
# Indices 1 2 3 4 5 6 
#
# 1 111.5011 40.8419 63.1412 0.0000 -13.6768 0.0000
# 2 40.8419 113.4382 33.6710 0.0000 -9.4415 0.0000
# 3 63.1412 33.6710 121.7580 0.0000 -2.9861 0.0000
# 4 0.0000 0.0000 0.0000 31.5820 0.0000 -7.6341
# 5 -13.6768 -9.4415 -2.9861 0.0000 34.4421 0.0000
# 6 0.0000 0.0000 0.0000 -7.6341 0.0000 37.1785
#
#
#
# Elastic Compliance Matrix: (Units=1/GPa)
#
#
# Indices 1 2 3 4 5 6 
#
# 1 0.014201 -0.002833 -0.006475 0.000000 0.004301 0.000000
# 2 -0.002833 0.010372 -0.001360 0.000000 0.001600 0.000000
# 3 -0.006475 -0.001360 0.011900 0.000000 -0.001912 0.000000
# 4 0.000000 0.000000 0.000000 0.033317 0.000000 0.006841
# 5 0.004301 0.001600 -0.001912 0.000000 0.031015 0.000000
# 6 0.000000 0.000000 0.000000 0.006841 0.000000 0.028302
#
#
# Mechanical properties :
#
#
# Convention : Reuss Voigt Hill
#
# Bulk Modulus (GPa) = 66.06446 69.11173 67.58810
# Shear Modulus (GPa) = 32.15664 34.57674 33.36669
#
# Velocity S-wave (km/s) = 3.62904 3.76312 3.69669
# Velocity P-wave (km/s) = 6.67960 6.86925 6.77509
#
# Compressibility (1/GPa) = 0.01513673
#
# Stress axis : x y z
#
# Youngs Moduli (GPa) = 70.42005 96.41182 84.03255
#
# Poissons Ratio (x) = 0.27311 0.54413
# Poissons Ratio (y) = 0.19948 0.11429
# Poissons Ratio (z) = 0.45599 0.13113
#
# Static dielectric constant tensor:
#      x y z
#    x 3.964000 0.000000 0.073120 
#    y 0.000000 4.522150 0.000000 
#    z 0.073120 0.000000 4.628130 
# 
# 
# High freq. dielectric constant tensor:
#      x y z
#    x 1.943920 0.000000 0.003570 
#    y 0.000000 1.990720 0.000000 
#    z 0.003570 0.000000 1.984020 
# 
# From -- ./inp_files/267732.got.cif
#   From: 2010.06.25/outbox.cif.g09.slc.cpg/sg15_134_cif.got.tgz:267732.got - 2010.06.28 07:06:18.
