data_PCOD8149062
_publ_section_title
;
Structure prediction by ZEFSAII (Michael W. Deem and Ramdas Pophale) SiO2 
 PCOD8149062
Probable space group: C 2/C
;
_chemical_formula_sum "Si O2"
_cell_formula_units_Z 60
_cell_length_a 24.697372
_cell_length_b 8.837875
_cell_length_c 26.773807
_cell_angle_alpha 90.000000
_cell_angle_beta 152.430501
_cell_angle_gamma 90.000000
_cell_volume 2704.735434
_symmetry_space_group_name_H-M "C 2/C"
_symmetry_group_IT_number 15
_symmetry_cell_setting 'monoclinic'
loop_
_space_group_symop_operation_xyz
x,y,z
-x,y,1/2-z
-x,-y,-z
x,-y,1/2+z
1/2+x,1/2+y,z
1/2-x,1/2+y,1/2-z
1/2-x,1/2-y,-z
1/2+x,1/2-y,1/2+z
loop_
_atom_site_type_symbol
_atom_site_label
_atom_site_fract_x
_atom_site_fract_y
_atom_site_fract_z
Si Si1 0.448571 0.227213 0.799429
Si Si2 0.694167 0.709163 0.631726
Si Si3 0.063171 0.978671 0.952201
Si Si4 0.333101 0.680330 0.775131
Si Si5 0.012674 0.394809 0.649695
Si Si6 0.136934 0.840692 0.424575
Si Si7 0.604245 0.978452 0.046243
Si Si8 0.000000 0.075109 0.250000
O O1 0.330397 0.203954 0.733029
O O2 0.541590 0.317644 0.908366
O O3 0.433923 0.316727 0.735404
O O4 0.491162 0.055936 0.826153
O O5 0.627760 0.558440 0.557215
O O6 0.674392 0.729196 0.673969
O O7 0.644647 0.855631 0.563003
O O8 0.152284 0.076826 0.990910
O O9 0.938340 0.059988 0.855856
O O10 0.360514 0.830259 0.764334
O O11 0.210274 0.612870 0.657802
O O12 0.965562 0.281696 0.653395
O O13 0.934260 0.390872 0.535099
O O14 0.250000 0.750000 0.500000
O O15 0.100819 0.968524 0.355210
O O16 0.500000 0.000000 0.000000
#
# Coordination Sequence:
#
# PCOD8149062 Si02
#       8
#     8   8   8   8   8   8   8   4
#     4  11  24  44  69  97 133 177 229 283 345 402
#     4  12  24  39  71  95 138 183 225 275 333 405
#     4  10  23  44  64 101 135 178 229 280 340 404
#     4  11  25  42  67 103 143 181 226 282 332 403
#     4  11  25  44  70 102 136 182 227 277 340 416
#     4  10  25  45  72  98 131 174 228 286 346 406
#     4  12  24  44  66  99 142 184 225 275 332 403
#     4  10  26  48  70 100 134 172 228 296 346 400
#
# _framework density 22.183315
#
# number of rings (size 3 to 8) (size 9 to 14) (size 15 to 20)
#    0.000    1.067    4.000    1.200    1.867    4.800 
#    0.000    2.667    0.000    0.000    0.000    0.000 
#    0.000    0.000    0.000    0.000    0.000    0.000 
#
# Total GULP energy -371903.145990 kJ/mol
# GULP energy per Si atom -12396.771533 kJ/mol
# Density = 2.213282 g / cm^3
# Si number density = 22.183315 Si / 1000 Ang^3
#
#
#
# Elastic Constant Matrix: (Units=GPa)
#
#
# Indices 1 2 3 4 5 6 
#
# 1 109.6439 49.4463 42.8236 0.0005 5.8942 0.0002
# 2 49.4463 142.3391 39.7522 0.0006 1.9177 0.0004
# 3 42.8236 39.7522 80.7269 0.0006 12.2814 0.0003
# 4 0.0005 0.0006 0.0006 41.5380 0.0003 -1.3784
# 5 5.8942 1.9177 12.2814 0.0003 28.5579 0.0001
# 6 0.0002 0.0004 0.0003 -1.3784 0.0001 32.6179
#
#
#
# Elastic Compliance Matrix: (Units=1/GPa)
#
#
# Indices 1 2 3 4 5 6 
#
# 1 0.012442 -0.002879 -0.005159 0.000000 -0.000156 0.000000
# 2 -0.002879 0.008855 -0.003031 0.000000 0.001303 0.000000
# 3 -0.005159 -0.003031 0.017573 0.000000 -0.006289 0.000000
# 4 0.000000 0.000000 0.000000 0.024108 0.000000 0.001019
# 5 -0.000156 0.001303 -0.006289 0.000000 0.037666 0.000000
# 6 0.000000 0.000000 0.000000 0.001019 0.000000 0.030701
#
#
# Mechanical properties :
#
#
# Convention : Reuss Voigt Hill
#
# Bulk Modulus (GPa) = 59.76574 66.30603 63.03588
# Shear Modulus (GPa) = 31.43445 33.92194 32.67819
#
# Velocity S-wave (km/s) = 3.76843 3.91470 3.84226
# Velocity P-wave (km/s) = 6.77754 7.09845 6.93985
#
# Compressibility (1/GPa) = 0.01673199
#
# Stress axis : x y z
#
# Youngs Moduli (GPa) = 80.37190 112.93429 56.90421
#
# Poissons Ratio (x) = 0.32519 0.29355
# Poissons Ratio (y) = 0.23142 0.17248
# Poissons Ratio (z) = 0.41461 0.34232
#
# Static dielectric constant tensor:
#      x y z
#    x 4.041460 0.000000 -0.074930 
#    y 0.000000 2.568770 0.000000 
#    z -0.074930 0.000000 3.296700 
# 
# 
# High freq. dielectric constant tensor:
#      x y z
#    x 1.873880 0.000000 0.000060 
#    y 0.000000 1.897350 0.000000 
#    z 0.000060 0.000000 1.859720 
# 
# From -- ./inp_files/302097.got.cif
#   From: 2010.06.25/outbox.cif.g09.slc.cpg/sg15_152_cif.got.tgz:302097.got - 2010.06.28 07:06:18.
