data_PCOD8149877
_publ_section_title
;
Structure prediction by ZEFSAII (Michael W. Deem and Ramdas Pophale) SiO2 
 PCOD8149877
Probable space group: C 2/C
;
_chemical_formula_sum "Si O2"
_cell_formula_units_Z 60
_cell_length_a 23.770413
_cell_length_b 12.904494
_cell_length_c 9.021689
_cell_angle_alpha 90.000000
_cell_angle_beta 87.043908
_cell_angle_gamma 90.000000
_cell_volume 2763.676972
_symmetry_space_group_name_H-M "C 2/C"
_symmetry_group_IT_number 15
_symmetry_cell_setting 'monoclinic'
loop_
_space_group_symop_operation_xyz
x,y,z
-x,y,1/2-z
-x,-y,-z
x,-y,1/2+z
1/2+x,1/2+y,z
1/2-x,1/2+y,1/2-z
1/2-x,1/2-y,-z
1/2+x,1/2-y,1/2+z
loop_
_atom_site_type_symbol
_atom_site_label
_atom_site_fract_x
_atom_site_fract_y
_atom_site_fract_z
Si Si1 0.807480 0.211278 0.417781
Si Si2 0.197029 0.158388 0.406817
Si Si3 0.374631 0.510915 0.469924
Si Si4 0.821030 0.352556 0.908885
Si Si5 0.574874 0.961436 0.486594
Si Si6 0.936636 0.112732 0.707958
Si Si7 0.000000 0.480827 0.250000
Si Si8 0.112321 0.322548 0.882132
O O1 0.750000 0.250000 0.500000
O O2 0.802190 0.227464 0.242301
O O3 0.858193 0.279735 0.474132
O O4 0.823794 0.090821 0.440897
O O5 0.150679 0.069239 0.406982
O O6 0.180856 0.232377 0.545720
O O7 0.257647 0.103832 0.428378
O O8 0.427113 0.566388 0.544349
O O9 0.395206 0.448128 0.324121
O O10 0.862705 0.415067 0.013459
O O11 0.840432 0.364352 0.737086
O O12 0.537699 0.910046 0.357898
O O13 0.542840 0.947063 0.647638
O O14 0.573918 0.083297 0.443662
O O15 0.923441 0.235280 0.700881
O O16 0.000000 0.095369 0.750000
#
# Coordination Sequence:
#
# PCOD8149877 Si02
#       8
#     8   8   8   8   8   8   4   8
#     4  11  24  42  67  99 138 171 224 272 340 420
#     4  11  24  43  68 101 136 178 222 282 343 420
#     4  11  23  44  69  99 135 175 225 285 344 404
#     4  11  24  41  68  98 136 180 226 276 347 418
#     4  11  24  45  66  98 138 181 234 287 341 414
#     4  11  24  43  71  96 132 180 233 290 341 407
#     4  10  24  42  68  92 134 184 232 280 342 396
#     4  11  24  42  65 100 132 183 225 279 344 407
#
# _framework density 21.710207
#
# number of rings (size 3 to 8) (size 9 to 14) (size 15 to 20)
#    0.000    1.067    5.333    0.400    4.667    0.000 
#    0.000    0.000    4.400    0.000    0.000    0.000 
#    0.000    0.000    0.000    0.000    0.000    0.000 
#
# Total GULP energy -371884.120280 kJ/mol
# GULP energy per Si atom -12396.137343 kJ/mol
# Density = 2.166079 g / cm^3
# Si number density = 21.710207 Si / 1000 Ang^3
#
#
#
# Elastic Constant Matrix: (Units=GPa)
#
#
# Indices 1 2 3 4 5 6 
#
# 1 126.5533 40.8794 40.7932 0.0000 13.3133 0.0000
# 2 40.8794 82.4881 19.6752 0.0000 -9.6293 0.0000
# 3 40.7932 19.6752 102.4848 0.0000 5.7752 0.0000
# 4 0.0000 0.0000 0.0000 27.6787 0.0000 1.6111
# 5 13.3133 -9.6293 5.7752 0.0000 39.1910 0.0000
# 6 0.0000 0.0000 0.0000 1.6111 0.0000 28.2818
#
#
#
# Elastic Compliance Matrix: (Units=1/GPa)
#
#
# Indices 1 2 3 4 5 6 
#
# 1 0.011111 -0.005294 -0.003146 0.000000 -0.004612 0.000000
# 2 -0.005294 0.015725 -0.001241 0.000000 0.005845 0.000000
# 3 -0.003146 -0.001241 0.011299 0.000000 -0.000901 0.000000
# 4 0.000000 0.000000 0.000000 0.036249 0.000000 -0.002065
# 5 -0.004612 0.005845 -0.000901 0.000000 0.028652 0.000000
# 6 0.000000 0.000000 0.000000 -0.002065 0.000000 0.035476
#
#
# Mechanical properties :
#
#
# Convention : Reuss Voigt Hill
#
# Bulk Modulus (GPa) = 53.27133 57.13575 55.20354
# Shear Modulus (GPa) = 30.46307 33.04218 31.75263
#
# Velocity S-wave (km/s) = 3.74995 3.90547 3.82850
# Velocity P-wave (km/s) = 6.58333 6.83458 6.71013
#
# Compressibility (1/GPa) = 0.01877182
#
# Stress axis : x y z
#
# Youngs Moduli (GPa) = 89.99759 63.59268 88.50349
#
# Poissons Ratio (x) = 0.33669 0.27847
# Poissons Ratio (y) = 0.47649 0.10983
# Poissons Ratio (z) = 0.28318 0.07891
#
# Static dielectric constant tensor:
#      x y z
#    x 3.905110 0.000000 0.158830 
#    y 0.000000 3.678600 0.000000 
#    z 0.158830 0.000000 4.012170 
# 
# 
# High freq. dielectric constant tensor:
#      x y z
#    x 1.860150 0.000000 0.011470 
#    y 0.000000 1.828720 0.000000 
#    z 0.011470 0.000000 1.866070 
# 
# From -- ./inp_files/65498.got.cif
#   From: 2010.06.25/outbox.cif.g09.slc.cpg/sg15_33_cif.got.tgz:65498.got - 2010.06.28 07:06:18.
