data_PCOD8149960
_publ_section_title
;
Structure prediction by ZEFSAII (Michael W. Deem and Ramdas Pophale) SiO2 
 PCOD8149960
Probable space group: C 2/C
;
_chemical_formula_sum "Si O2"
_cell_formula_units_Z 60
_cell_length_a 8.666437
_cell_length_b 25.046592
_cell_length_c 21.318299
_cell_angle_alpha 90.000000
_cell_angle_beta 39.531381
_cell_angle_gamma 90.000000
_cell_volume 2945.375643
_symmetry_space_group_name_H-M "C 2/C"
_symmetry_group_IT_number 15
_symmetry_cell_setting 'monoclinic'
loop_
_space_group_symop_operation_xyz
x,y,z
-x,y,1/2-z
-x,-y,-z
x,-y,1/2+z
1/2+x,1/2+y,z
1/2-x,1/2+y,1/2-z
1/2-x,1/2-y,-z
1/2+x,1/2-y,1/2+z
loop_
_atom_site_type_symbol
_atom_site_label
_atom_site_fract_x
_atom_site_fract_y
_atom_site_fract_z
Si Si1 0.768934 0.985860 0.434615
Si Si2 0.666217 0.842880 0.755337
Si Si3 0.177035 0.730924 0.752257
Si Si4 0.575768 0.404456 0.562032
Si Si5 0.500000 0.580183 0.750000
Si Si6 0.816153 0.803548 0.442720
Si Si7 0.754998 0.598767 0.450348
Si Si8 0.927995 0.341266 0.104869
O O1 0.928772 0.956219 0.331813
O O2 0.732741 0.950087 0.506843
O O3 0.500000 0.000000 0.500000
O O4 0.904939 0.039965 0.408161
O O5 0.500000 0.822129 0.750000
O O6 0.741547 0.792518 0.773487
O O7 0.521477 0.888651 0.838563
O O8 0.918669 0.866094 0.654189
O O9 0.421285 0.697258 0.670374
O O10 0.048920 0.710048 0.856248
O O11 0.000000 0.720298 0.750000
O O12 0.441373 0.416876 0.539633
O O13 0.827820 0.375071 0.471627
O O14 0.273276 0.618070 0.805613
O O15 0.750000 0.750000 0.500000
O O16 0.835103 0.848147 0.488800
O O17 0.623784 0.818911 0.448811
#
# Coordination Sequence:
#
# PCOD8149960 Si02
#       8
#     8   8   8   8   4   8   8   8
#     4  12  25  45  70  98 132 180 225 279 343 399
#     4  10  24  43  65  98 138 177 217 279 335 396
#     4  12  25  40  66 100 135 177 222 272 334 405
#     4  11  26  43  68 101 131 175 228 283 334 400
#     4  12  24  44  70  96 128 178 224 278 332 406
#     4  12  23  41  68  97 133 181 217 273 337 404
#     4  11  23  46  69  97 137 173 229 278 341 399
#     4  12  24  46  69  96 139 179 224 275 338 408
#
# _framework density 20.370916000000001
#
# number of rings (size 3 to 8) (size 9 to 14) (size 15 to 20)
#    0.000    0.533    5.333    2.000    5.600    1.600 
#    0.000    0.000    0.000    0.000    0.000    0.000 
#    0.000    0.000    0.000    0.000    0.000    0.000 
#
# Total GULP energy -372046.837497 kJ/mol
# GULP energy per Si atom -12401.561250 kJ/mol
# Density = 2.032455 g / cm^3
# Si number density = 20.370916 Si / 1000 Ang^3
#
#
#
# Elastic Constant Matrix: (Units=GPa)
#
#
# Indices 1 2 3 4 5 6 
#
# 1 113.8194 54.8939 51.6234 -0.0002 1.7543 -0.0001
# 2 54.8939 70.6392 29.6143 0.0003 -15.4847 -0.0004
# 3 51.6234 29.6143 117.9037 -0.0009 -12.0715 0.0003
# 4 -0.0002 0.0003 -0.0009 39.4065 0.0003 15.3207
# 5 1.7543 -15.4847 -12.0715 0.0003 33.5408 0.0000
# 6 -0.0001 -0.0004 0.0003 15.3207 0.0000 26.4622
#
#
#
# Elastic Compliance Matrix: (Units=1/GPa)
#
#
# Indices 1 2 3 4 5 6 
#
# 1 0.017999 -0.013758 -0.005370 0.000000 -0.009226 0.000000
# 2 -0.013758 0.027640 0.000479 -0.000001 0.013653 0.000001
# 3 -0.005370 0.000479 0.011175 0.000000 0.004524 0.000000
# 4 0.000000 -0.000001 0.000000 0.032748 -0.000001 -0.018960
# 5 -0.009226 0.013653 0.004524 -0.000001 0.038228 0.000000
# 6 0.000000 0.000001 0.000000 -0.018960 0.000000 0.048767
#
#
# Mechanical properties :
#
#
# Convention : Reuss Voigt Hill
#
# Bulk Modulus (GPa) = 51.23686 63.84725 57.54206
# Shear Modulus (GPa) = 22.69018 30.96395 26.82707
#
# Velocity S-wave (km/s) = 3.34106 3.90296 3.63289
# Velocity P-wave (km/s) = 6.33168 7.19174 6.77537
#
# Compressibility (1/GPa) = 0.01951720
#
# Stress axis : x y z
#
# Youngs Moduli (GPa) = 55.55889 36.17964 89.48283
#
# Poissons Ratio (x) = 0.49777 0.48048
# Poissons Ratio (y) = 0.76439 -0.04290
# Poissons Ratio (z) = 0.29833 -0.01734
#
# Static dielectric constant tensor:
#      x y z
#    x 3.555200 0.000030 -0.038950 
#    y 0.000030 3.044220 0.000010 
#    z -0.038950 0.000010 3.920430 
# 
# 
# High freq. dielectric constant tensor:
#      x y z
#    x 1.801780 0.000000 0.001690 
#    y 0.000000 1.808400 0.000000 
#    z 0.001690 0.000000 1.810570 
# 
# From -- ./inp_files/234532.got.cif
#   From: 2010.06.25/outbox.cif.g09.slc.cpg/sg15_118_cif.got.tgz:234532.got - 2010.06.28 07:06:18.
