data_PCOD8149142
_publ_section_title
;
Structure prediction by ZEFSAII (Michael W. Deem and Ramdas Pophale) SiO2 
 PCOD8149142
Probable space group: C 2/C
;
_chemical_formula_sum "Si O2"
_cell_formula_units_Z 60
_cell_length_a 19.117889
_cell_length_b 11.933599
_cell_length_c 22.534474
_cell_angle_alpha 90.000000
_cell_angle_beta 148.213822
_cell_angle_gamma 90.000000
_cell_volume 2708.095441
_symmetry_space_group_name_H-M "C 2/C"
_symmetry_group_IT_number 15
_symmetry_cell_setting 'monoclinic'
loop_
_space_group_symop_operation_xyz
x,y,z
-x,y,1/2-z
-x,-y,-z
x,-y,1/2+z
1/2+x,1/2+y,z
1/2-x,1/2+y,1/2-z
1/2-x,1/2-y,-z
1/2+x,1/2-y,1/2+z
loop_
_atom_site_type_symbol
_atom_site_label
_atom_site_fract_x
_atom_site_fract_y
_atom_site_fract_z
Si Si1 0.676447 0.485001 0.748898
Si Si2 0.501343 0.316450 0.942308
Si Si3 0.413202 0.874076 0.569980
Si Si4 0.962137 0.143416 0.549176
Si Si5 0.951800 0.553920 0.905832
Si Si6 0.500000 0.958925 0.750000
Si Si7 0.216886 0.043402 0.538141
Si Si8 0.345445 0.480296 0.133975
O O1 0.618518 0.369023 0.682223
O O2 0.571700 0.584810 0.668737
O O3 0.795791 0.526818 0.793269
O O4 0.706049 0.466263 0.840604
O O5 0.485007 0.184436 0.927496
O O6 0.491879 0.366230 0.001322
O O7 0.644469 0.355140 0.020330
O O8 0.463664 0.773485 0.566426
O O9 0.468938 0.868375 0.676344
O O10 0.251803 0.874446 0.449533
O O11 0.472610 0.994028 0.592918
O O12 0.827467 0.078674 0.468768
O O13 0.000000 0.500000 0.000000
O O14 0.374359 0.044153 0.664971
O O15 0.179213 0.060880 0.440944
O O16 0.500000 0.445421 0.250000
#
# Coordination Sequence:
#
# PCOD8149142 Si02
#       8
#     8   8   8   8   8   4   8   8
#     4  11  24  41  70 102 133 180 234 286 349 412
#     4  11  24  43  70 100 135 179 230 292 349 409
#     4  11  26  44  66 101 142 183 232 289 349 412
#     4  11  23  41  67 102 136 178 232 292 349 411
#     4  12  25  46  68  98 137 176 232 291 346 412
#     4  10  26  44  68 102 146 184 234 292 342 426
#     4  10  23  44  68 101 139 183 235 287 350 413
#     4  11  20  44  67  96 140 183 233 278 348 420
#
# _framework density 22.155794
#
# number of rings (size 3 to 8) (size 9 to 14) (size 15 to 20)
#    0.000    1.067    5.333    1.600    5.600    4.267 
#    1.200    4.000    1.467    0.000    0.000    0.000 
#    0.000    0.000    0.000    0.000    0.000    0.000 
#
# Total GULP energy -371802.739217 kJ/mol
# GULP energy per Si atom -12393.424641 kJ/mol
# Density = 2.210537 g / cm^3
# Si number density = 22.155794 Si / 1000 Ang^3
#
#
#
# Elastic Constant Matrix: (Units=GPa)
#
#
# Indices 1 2 3 4 5 6 
#
# 1 123.8562 45.4394 55.2091 -0.0003 -4.3663 -0.0003
# 2 45.4394 143.5376 45.8934 -0.0002 5.4463 -0.0001
# 3 55.2091 45.8934 150.7914 0.0000 6.3032 0.0003
# 4 -0.0003 -0.0002 0.0000 16.9662 0.0002 -0.4589
# 5 -4.3663 5.4463 6.3032 0.0002 51.9470 0.0002
# 6 -0.0003 -0.0001 0.0003 -0.4589 0.0002 25.8046
#
#
#
# Elastic Compliance Matrix: (Units=1/GPa)
#
#
# Indices 1 2 3 4 5 6 
#
# 1 0.010391 -0.002337 -0.003156 0.000000 0.001501 0.000000
# 2 -0.002337 0.008258 -0.001621 0.000000 -0.000866 0.000000
# 3 -0.003156 -0.001621 0.008327 0.000000 -0.001106 0.000000
# 4 0.000000 0.000000 0.000000 0.058969 0.000000 0.001049
# 5 0.001501 -0.000866 -0.001106 0.000000 0.019602 0.000000
# 6 0.000000 0.000000 0.000000 0.001049 0.000000 0.038771
#
#
# Mechanical properties :
#
#
# Convention : Reuss Voigt Hill
#
# Bulk Modulus (GPa) = 78.45198 79.02988 78.74093
# Shear Modulus (GPa) = 30.71331 37.05312 33.88321
#
# Velocity S-wave (km/s) = 3.72727 4.09392 3.91489
# Velocity P-wave (km/s) = 7.34911 7.62197 7.48679
#
# Compressibility (1/GPa) = 0.01274665
#
# Stress axis : x y z
#
# Youngs Moduli (GPa) = 96.23658 121.09457 120.09429
#
# Poissons Ratio (x) = 0.28305 0.37900
# Poissons Ratio (y) = 0.22495 0.19471
# Poissons Ratio (z) = 0.30371 0.19634
#
# Static dielectric constant tensor:
#      x y z
#    x 3.557350 0.000000 -0.179550 
#    y 0.000000 2.901130 0.000000 
#    z -0.179550 0.000000 4.114170 
# 
# 
# High freq. dielectric constant tensor:
#      x y z
#    x 1.896520 0.000000 -0.001630 
#    y 0.000000 1.840340 0.000000 
#    z -0.001630 0.000000 1.885340 
# 
# From -- ./inp_files/280105.got.cif
#   From: 2010.06.25/outbox.cif.g09.slc.cpg/sg15_141_cif.got.tgz:280105.got - 2010.06.28 07:06:18.
