data_PCOD8149220
_publ_section_title
;
Structure prediction by ZEFSAII (Michael W. Deem and Ramdas Pophale) SiO2 
 PCOD8149220
Probable space group: C 2/C
;
_chemical_formula_sum "Si O2"
_cell_formula_units_Z 56
_cell_length_a 8.450374
_cell_length_b 19.201914
_cell_length_c 15.684781
_cell_angle_alpha 90.000000
_cell_angle_beta 74.097001
_cell_angle_gamma 90.000000
_cell_volume 2447.657825
_symmetry_space_group_name_H-M "C 2/C"
_symmetry_group_IT_number 15
_symmetry_cell_setting 'monoclinic'
loop_
_space_group_symop_operation_xyz
x,y,z
-x,y,1/2-z
-x,-y,-z
x,-y,1/2+z
1/2+x,1/2+y,z
1/2-x,1/2+y,1/2-z
1/2-x,1/2-y,-z
1/2+x,1/2-y,1/2+z
loop_
_atom_site_type_symbol
_atom_site_label
_atom_site_fract_x
_atom_site_fract_y
_atom_site_fract_z
Si Si1 0.848367 0.715714 0.715402
Si Si2 0.197149 0.676870 0.367574
Si Si3 0.536384 0.603792 0.057889
Si Si4 0.188339 0.927248 0.239279
Si Si5 0.558677 0.034236 0.336499
Si Si6 0.779295 0.007071 0.591444
Si Si7 0.071936 0.759309 0.984972
O O1 0.743396 0.771795 0.783923
O O2 0.733461 0.651182 0.706732
O O3 0.917835 0.747243 0.617841
O O4 0.000000 0.688953 0.750000
O O5 0.363155 0.645912 0.385006
O O6 0.099509 0.614245 0.340629
O O7 0.073815 0.712631 0.453693
O O8 0.374729 0.561776 0.114128
O O9 0.479473 0.659947 0.995268
O O10 0.645304 0.542793 0.002227
O O11 0.228568 0.936089 0.332836
O O12 0.000000 0.942601 0.250000
O O13 0.289152 0.982584 0.166293
O O14 0.500000 0.020591 0.250000
O O15 0.400669 0.014609 0.416875
O O16 0.250000 0.750000 0.000000
#
# Coordination Sequence:
#
# PCOD8149220 Si02
#       7
#     8   8   8   8   8   8   8
#     4  12  28  47  74 105 147 196 240 307 372 446
#     4  12  27  46  75 103 149 191 250 304 380 442
#     4  11  24  45  71 102 144 191 235 310 363 446
#     4  11  25  43  70 101 142 189 243 295 371 437
#     4  10  24  44  73 101 142 189 239 303 368 451
#     4  10  23  44  71 102 144 184 246 296 370 437
#     4  12  29  46  72 108 146 189 252 307 375 444
#
# _framework density 22.879014000000002
#
# number of rings (size 3 to 8) (size 9 to 14) (size 15 to 20)
#    0.000    0.857    1.429    4.286   14.000    1.143 
#    0.000    0.000    0.000    0.000    0.000    0.000 
#    0.000    0.000    0.000    0.000    0.000    0.000 
#
# Total GULP energy -347182.422497 kJ/mol
# GULP energy per Si atom -12399.372232 kJ/mol
# Density = 2.282694 g / cm^3
# Si number density = 22.879014 Si / 1000 Ang^3
#
#
#
# Elastic Constant Matrix: (Units=GPa)
#
#
# Indices 1 2 3 4 5 6 
#
# 1 142.3346 54.8271 35.8192 0.0000 -26.6850 0.0000
# 2 54.8271 157.7056 44.5023 0.0000 -22.9998 0.0000
# 3 35.8192 44.5023 103.6133 0.0000 -20.5365 0.0000
# 4 0.0000 0.0000 0.0000 28.9722 0.0000 -1.4152
# 5 -26.6850 -22.9998 -20.5365 0.0000 35.1290 0.0000
# 6 0.0000 0.0000 0.0000 -1.4152 0.0000 44.3343
#
#
#
# Elastic Compliance Matrix: (Units=1/GPa)
#
#
# Indices 1 2 3 4 5 6 
#
# 1 0.009045 -0.002088 -0.001288 0.000000 0.004750 0.000000
# 2 -0.002088 0.008051 -0.002269 0.000000 0.002359 0.000000
# 3 -0.001288 -0.002269 0.011970 0.000000 0.004533 0.000000
# 4 0.000000 0.000000 0.000000 0.034570 0.000000 0.001104
# 5 0.004750 0.002359 0.004533 0.000000 0.036270 0.000000
# 6 0.000000 0.000000 0.000000 0.001104 0.000000 0.022591
#
#
# Mechanical properties :
#
#
# Convention : Reuss Voigt Hill
#
# Bulk Modulus (GPa) = 56.25787 74.88343 65.57065
# Shear Modulus (GPa) = 35.78803 39.58741 37.68772
#
# Velocity S-wave (km/s) = 3.95933 4.16419 4.06305
# Velocity P-wave (km/s) = 6.74865 7.47809 7.12272
#
# Compressibility (1/GPa) = 0.01777529
#
# Stress axis : x y z
#
# Youngs Moduli (GPa) = 110.55960 124.20757 83.54509
#
# Poissons Ratio (x) = 0.25936 0.10764
# Poissons Ratio (y) = 0.23086 0.18953
# Poissons Ratio (z) = 0.14245 0.28177
#
# Static dielectric constant tensor:
#      x y z
#    x 4.569270 0.000000 -0.432450 
#    y 0.000000 4.324150 0.000000 
#    z -0.432450 0.000000 4.057960 
# 
# 
# High freq. dielectric constant tensor:
#      x y z
#    x 1.918680 0.000000 -0.017360 
#    y 0.000000 1.921330 0.000000 
#    z -0.017360 0.000000 1.892400 
# 
# From -- ./inp_files/190890.got.cif
#   From: 2010.06.25/outbox.cif.g09.slc.cpg/sg15_96_cif.got.tgz:190890.got - 2010.06.28 07:06:18.
