data_PCOD8149600
_publ_section_title
;
Structure prediction by ZEFSAII (Michael W. Deem and Ramdas Pophale) SiO2 
 PCOD8149600
Probable space group: C 2/C
;
_chemical_formula_sum "Si O2"
_cell_formula_units_Z 48
_cell_length_a 8.652526
_cell_length_b 26.080045
_cell_length_c 14.140833
_cell_angle_alpha 90.000000
_cell_angle_beta 138.182696
_cell_angle_gamma 90.000000
_cell_volume 2127.620695
_symmetry_space_group_name_H-M "C 2/C"
_symmetry_group_IT_number 15
_symmetry_cell_setting 'monoclinic'
loop_
_space_group_symop_operation_xyz
x,y,z
-x,y,1/2-z
-x,-y,-z
x,-y,1/2+z
1/2+x,1/2+y,z
1/2-x,1/2+y,1/2-z
1/2-x,1/2-y,-z
1/2+x,1/2-y,1/2+z
loop_
_atom_site_type_symbol
_atom_site_label
_atom_site_fract_x
_atom_site_fract_y
_atom_site_fract_z
Si Si1 0.228137 0.942592 0.230162
Si Si2 0.825082 0.692127 0.018624
Si Si3 0.311079 0.730675 0.237052
Si Si4 0.961140 0.185389 0.990131
Si Si5 0.500000 0.526057 0.250000
Si Si6 0.000000 0.863962 0.250000
Si Si7 0.745387 0.582013 0.531701
O O1 0.051793 0.898343 0.181827
O O2 0.483510 0.921329 0.364773
O O3 0.185402 0.951854 0.098356
O O4 0.185588 0.992637 0.275161
O O5 0.103479 0.688288 0.148575
O O6 0.750000 0.750000 0.000000
O O7 0.688205 0.662090 0.040409
O O8 0.725635 0.670754 0.874374
O O9 0.500000 0.710125 0.250000
O O10 0.214330 0.787009 0.164510
O O11 0.446930 0.730943 0.398796
O O12 0.827092 0.140952 0.984517
O O13 0.624052 0.561339 0.383012
#
# Coordination Sequence:
#
# PCOD8149600 Si02
#       7
#     8   8   8   8   4   4   8
#     4  10  24  44  73  98 134 182 226 282 362 423
#     4  10  24  38  65  89 137 179 238 278 337 392
#     4  11  26  41  64  96 141 187 233 282 340 394
#     4  11  25  43  65 100 138 191 233 286 335 405
#     4  11  24  46  72 106 136 172 226 296 369 406
#     4  11  22  42  66  98 130 186 234 282 339 424
#     4  11  24  43  73 102 139 175 237 286 341 427
#
# _framework density 22.560414000000002
#
# number of rings (size 3 to 8) (size 9 to 14) (size 15 to 20)
#    0.000    1.333    1.667    2.000   15.167    0.000 
#    0.000    0.000    3.667    0.000    0.000    0.000 
#    0.000    0.000    0.000    0.000    0.000    0.000 
#
# Total GULP energy -297417.339840 kJ/mol
# GULP energy per Si atom -12392.389160 kJ/mol
# Density = 2.250907 g / cm^3
# Si number density = 22.560414 Si / 1000 Ang^3
#
#
#
# Elastic Constant Matrix: (Units=GPa)
#
#
# Indices 1 2 3 4 5 6 
#
# 1 129.7681 36.3157 57.7515 0.0000 7.4739 0.0000
# 2 36.3157 103.2236 56.6681 0.0000 -6.6039 0.0000
# 3 57.7515 56.6681 130.1334 0.0000 -12.0432 0.0000
# 4 0.0000 0.0000 0.0000 34.4600 0.0000 -1.7977
# 5 7.4739 -6.6039 -12.0432 0.0000 45.5899 0.0000
# 6 0.0000 0.0000 0.0000 -1.7977 0.0000 13.9347
#
#
#
# Elastic Compliance Matrix: (Units=1/GPa)
#
#
# Indices 1 2 3 4 5 6 
#
# 1 0.010127 -0.001491 -0.004119 0.000000 -0.002964 0.000000
# 2 -0.001491 0.012958 -0.004904 0.000000 0.000826 0.000000
# 3 -0.004119 -0.004904 0.011937 0.000000 0.003118 0.000000
# 4 0.000000 0.000000 0.000000 0.029216 0.000000 0.003769
# 5 -0.002964 0.000826 0.003118 0.000000 0.023364 0.000000
# 6 0.000000 0.000000 0.000000 0.003769 0.000000 0.072249
#
#
# Mechanical properties :
#
#
# Convention : Reuss Voigt Hill
#
# Bulk Modulus (GPa) = 71.46971 73.84395 72.65683
# Shear Modulus (GPa) = 26.94771 32.95625 29.95198
#
# Velocity S-wave (km/s) = 3.45986 3.82619 3.64762
# Velocity P-wave (km/s) = 6.90716 7.23342 7.07217
#
# Compressibility (1/GPa) = 0.01399194
#
# Stress axis : x y z
#
# Youngs Moduli (GPa) = 98.74238 77.17513 83.77469
#
# Poissons Ratio (x) = 0.11508 0.34510
# Poissons Ratio (y) = 0.14724 0.41086
# Poissons Ratio (z) = 0.40676 0.37849
#
# Static dielectric constant tensor:
#      x y z
#    x 4.918730 0.000000 0.127310 
#    y 0.000000 3.756120 0.000000 
#    z 0.127310 0.000000 4.186890 
# 
# 
# High freq. dielectric constant tensor:
#      x y z
#    x 1.915850 0.000000 -0.006490 
#    y 0.000000 1.856500 0.000000 
#    z -0.006490 0.000000 1.891490 
# 
# From -- ./inp_files/139098.got.cif
#   From: 2010.06.25/outbox.cif.g09.slc.cpg/sg15_70_cif.got.tgz:139098.got - 2010.06.28 07:06:18.
