data_PCOD8149721
_publ_section_title
;
Structure prediction by ZEFSAII (Michael W. Deem and Ramdas Pophale) SiO2 
 PCOD8149721
Probable space group: C 2/C
;
_chemical_formula_sum "Si O2"
_cell_formula_units_Z 56
_cell_length_a 8.332513
_cell_length_b 19.798050
_cell_length_c 17.872646
_cell_angle_alpha 90.000000
_cell_angle_beta 102.767423
_cell_angle_gamma 90.000000
_cell_volume 2875.507037
_symmetry_space_group_name_H-M "C 2/C"
_symmetry_group_IT_number 15
_symmetry_cell_setting 'monoclinic'
loop_
_space_group_symop_operation_xyz
x,y,z
-x,y,1/2-z
-x,-y,-z
x,-y,1/2+z
1/2+x,1/2+y,z
1/2-x,1/2+y,1/2-z
1/2-x,1/2-y,-z
1/2+x,1/2-y,1/2+z
loop_
_atom_site_type_symbol
_atom_site_label
_atom_site_fract_x
_atom_site_fract_y
_atom_site_fract_z
Si Si1 0.197365 0.224021 0.199892
Si Si2 0.382256 0.679801 0.936250
Si Si3 0.698643 0.915951 0.513665
Si Si4 0.812232 0.568531 0.959152
Si Si5 0.192254 0.186935 0.042895
Si Si6 0.813965 0.195790 0.138619
Si Si7 0.119873 0.856396 0.324884
O O1 0.271202 0.187326 0.133782
O O2 0.259197 0.190872 0.283720
O O3 0.264756 0.300478 0.202735
O O4 0.002238 0.216887 0.169915
O O5 0.268289 0.743952 0.915281
O O6 0.505100 0.671873 0.879373
O O7 0.273893 0.613266 0.943818
O O8 0.492337 0.692891 0.022703
O O9 0.503747 0.915761 0.483969
O O10 0.765569 0.873740 0.592174
O O11 0.749259 0.993291 0.530276
O O12 0.731880 0.614755 0.013488
O O13 0.742975 0.587105 0.869779
O O14 0.250000 0.250000 0.000000
O O15 0.000000 0.888463 0.250000
#
# Coordination Sequence:
#
# PCOD8149721 Si02
#       7
#     8   8   8   8   8   8   8
#     4  11  22  38  59  93 123 151 201 247 319 354
#     4  11  21  35  64  87 117 158 205 252 301 355
#     4  11  23  42  60  90 120 164 208 250 305 364
#     4  10  24  41  62  85 125 162 206 253 301 364
#     4  11  20  36  61  90 116 156 203 257 297 359
#     4  11  23  37  61  92 123 159 194 260 302 368
#     4  11  22  40  60  93 122 160 197 256 309 364
#
# _framework density 19.474827000000001
#
# number of rings (size 3 to 8) (size 9 to 14) (size 15 to 20)
#    0.000    1.143    5.714    2.143    0.000    2.286 
#    2.571    0.000    0.000    3.429    0.000    0.000 
#    0.000    0.000    0.000    0.000    0.000    0.000 
#
# Total GULP energy -346916.557932 kJ/mol
# GULP energy per Si atom -12389.877069 kJ/mol
# Density = 1.943050 g / cm^3
# Si number density = 19.474827 Si / 1000 Ang^3
#
#
#
# Elastic Constant Matrix: (Units=GPa)
#
#
# Indices 1 2 3 4 5 6 
#
# 1 70.3045 54.5399 29.0339 0.0000 10.3784 0.0000
# 2 54.5399 147.1027 59.6621 0.0000 7.4051 0.0000
# 3 29.0339 59.6621 128.0998 0.0000 7.5720 0.0000
# 4 0.0000 0.0000 0.0000 21.0779 0.0000 3.4904
# 5 10.3784 7.4051 7.5720 0.0000 30.9793 0.0000
# 6 0.0000 0.0000 0.0000 3.4904 0.0000 26.3913
#
#
#
# Elastic Compliance Matrix: (Units=1/GPa)
#
#
# Indices 1 2 3 4 5 6 
#
# 1 0.020896 -0.007020 -0.001169 0.000000 -0.005037 0.000000
# 2 -0.007020 0.010774 -0.003464 0.000000 0.000623 0.000000
# 3 -0.001169 -0.003464 0.009753 0.000000 -0.001164 0.000000
# 4 0.000000 0.000000 0.000000 0.048505 0.000000 -0.006415
# 5 -0.005037 0.000623 -0.001164 0.000000 0.034103 0.000000
# 6 0.000000 0.000000 0.000000 -0.006415 0.000000 0.038740
#
#
# Mechanical properties :
#
#
# Convention : Reuss Voigt Hill
#
# Bulk Modulus (GPa) = 55.19239 70.21987 62.70613
# Shear Modulus (GPa) = 26.02603 29.17443 27.60023
#
# Velocity S-wave (km/s) = 3.65964 3.87467 3.76869
# Velocity P-wave (km/s) = 6.80141 7.49350 7.15582
#
# Compressibility (1/GPa) = 0.01811844
#
# Stress axis : x y z
#
# Youngs Moduli (GPa) = 47.85668 92.81532 102.52802
#
# Poissons Ratio (x) = 0.65153 0.11985
# Poissons Ratio (y) = 0.33594 0.35514
# Poissons Ratio (z) = 0.05594 0.32149
#
# Static dielectric constant tensor:
#      x y z
#    x 3.824210 0.000000 0.136360 
#    y 0.000000 3.424260 0.000000 
#    z 0.136360 0.000000 4.267970 
# 
# 
# High freq. dielectric constant tensor:
#      x y z
#    x 1.774340 0.000000 0.005450 
#    y 0.000000 1.732510 0.000000 
#    z 0.005450 0.000000 1.773900 
# 
# From -- ./inp_files/191689.got.cif
#   From: 2010.06.25/outbox.cif.g09.slc.cpg/sg15_96_cif.got.tgz:191689.got - 2010.06.28 07:06:18.
