data_PCOD8149090
_publ_section_title
;
Structure prediction by ZEFSAII (Michael W. Deem and Ramdas Pophale) SiO2 
 PCOD8149090
Probable space group: C 2/C
;
_chemical_formula_sum "Si O2"
_cell_formula_units_Z 40
_cell_length_a 16.325600
_cell_length_b 8.255137
_cell_length_c 14.290862
_cell_angle_alpha 90.000000
_cell_angle_beta 76.931556
_cell_angle_gamma 90.000000
_cell_volume 1876.098753
_symmetry_space_group_name_H-M "C 2/C"
_symmetry_group_IT_number 15
_symmetry_cell_setting 'monoclinic'
loop_
_space_group_symop_operation_xyz
x,y,z
-x,y,1/2-z
-x,-y,-z
x,-y,1/2+z
1/2+x,1/2+y,z
1/2-x,1/2+y,1/2-z
1/2-x,1/2-y,-z
1/2+x,1/2-y,1/2+z
loop_
_atom_site_type_symbol
_atom_site_label
_atom_site_fract_x
_atom_site_fract_y
_atom_site_fract_z
Si Si1 0.935649 0.352886 0.000154
Si Si2 0.835768 0.860295 0.874095
Si Si3 0.004059 0.924000 0.145394
Si Si4 0.846466 0.130017 0.158123
Si Si5 0.784852 0.488735 0.450581
O O1 0.890886 0.293730 0.107649
O O2 0.981326 0.203118 0.940097
O O3 0.863402 0.396314 0.945878
O O4 0.000000 0.500000 0.000000
O O5 0.813375 0.840499 0.771106
O O6 0.825367 0.685158 0.921308
O O7 0.929593 0.927297 0.868317
O O8 0.771226 0.983155 0.940695
O O9 0.000000 0.843049 0.250000
O O10 0.913340 0.987200 0.140612
O O11 0.767611 0.068126 0.119164
#
# Coordination Sequence:
#
# PCOD8149090 Si02
#       5
#     8   8   8   8   8
#     4  12  26  41  64  96 132 170 219 268 318 380
#     4  10  24  43  67  97 130 168 215 264 335 378
#     4  10  23  44  66  92 129 172 212 264 325 388
#     4  11  24  42  72  93 131 172 215 265 326 387
#     4  11  25  42  67  96 132 166 214 274 316 388
#
# _framework density 21.32084
#
# number of rings (size 3 to 8) (size 9 to 14) (size 15 to 20)
#    0.000    1.200    2.000    2.400    8.400    3.200 
#    0.000    0.000    0.000    0.000    0.000    0.000 
#    0.000    0.000    0.000    0.000    0.000    0.000 
#
# Total GULP energy -248007.850081 kJ/mol
# GULP energy per Si atom -12400.392504 kJ/mol
# Density = 2.127231 g / cm^3
# Si number density = 21.320840 Si / 1000 Ang^3
#
#
#
# Elastic Constant Matrix: (Units=GPa)
#
#
# Indices 1 2 3 4 5 6 
#
# 1 111.4181 15.1879 26.2808 0.0000 17.6157 0.0000
# 2 15.1879 56.4528 15.1430 0.0000 7.1248 0.0000
# 3 26.2808 15.1430 120.8076 0.0000 9.9958 0.0000
# 4 0.0000 0.0000 0.0000 17.7506 0.0000 6.7889
# 5 17.6157 7.1248 9.9958 0.0000 29.1804 0.0000
# 6 0.0000 0.0000 0.0000 6.7889 0.0000 24.1768
#
#
#
# Elastic Compliance Matrix: (Units=1/GPa)
#
#
# Indices 1 2 3 4 5 6 
#
# 1 0.010430 -0.001700 -0.001615 0.000000 -0.005328 0.000000
# 2 -0.001700 0.019025 -0.001765 0.000000 -0.003014 0.000000
# 3 -0.001615 -0.001765 0.008989 0.000000 -0.001673 0.000000
# 4 0.000000 0.000000 0.000000 0.063114 0.000000 -0.017723
# 5 -0.005328 -0.003014 -0.001673 0.000000 0.038795 0.000000
# 6 0.000000 0.000000 0.000000 -0.017723 0.000000 0.046339
#
#
# Mechanical properties :
#
#
# Convention : Reuss Voigt Hill
#
# Bulk Modulus (GPa) = 35.35761 44.65577 40.00669
# Shear Modulus (GPa) = 24.23866 29.69268 26.96567
#
# Velocity S-wave (km/s) = 3.37538 3.73588 3.56020
# Velocity P-wave (km/s) = 5.64008 6.29279 5.97536
#
# Compressibility (1/GPa) = 0.02828246
#
# Stress axis : x y z
#
# Youngs Moduli (GPa) = 95.87395 52.56137 111.25093
#
# Poissons Ratio (x) = 0.08938 0.17967
# Poissons Ratio (y) = 0.16303 0.19641
# Poissons Ratio (z) = 0.15484 0.09280
#
# Static dielectric constant tensor:
#      x y z
#    x 3.888760 0.000000 -0.099020 
#    y 0.000000 3.781000 0.000000 
#    z -0.099020 0.000000 4.226810 
# 
# 
# High freq. dielectric constant tensor:
#      x y z
#    x 1.848700 0.000000 -0.000980 
#    y 0.000000 1.832510 0.000000 
#    z -0.000980 0.000000 1.848780 
# 
# From -- ./inp_files/150614.got.cif
#   From: 2010.06.25/outbox.cif.g09.slc.cpg/sg15_76_cif.got.tgz:150614.got - 2010.06.28 07:06:18.
