data_PCOD8149462
_publ_section_title
;
Structure prediction by ZEFSAII (Michael W. Deem and Ramdas Pophale) SiO2 
 PCOD8149462
Probable space group: C 2/C
;
_chemical_formula_sum "Si O2"
_cell_formula_units_Z 44
_cell_length_a 10.866305
_cell_length_b 10.903096
_cell_length_c 15.259519
_cell_angle_alpha 90.000000
_cell_angle_beta 80.356785
_cell_angle_gamma 90.000000
_cell_volume 1782.346798
_symmetry_space_group_name_H-M "C 2/C"
_symmetry_group_IT_number 15
_symmetry_cell_setting 'monoclinic'
loop_
_space_group_symop_operation_xyz
x,y,z
-x,y,1/2-z
-x,-y,-z
x,-y,1/2+z
1/2+x,1/2+y,z
1/2-x,1/2+y,1/2-z
1/2-x,1/2-y,-z
1/2+x,1/2-y,1/2+z
loop_
_atom_site_type_symbol
_atom_site_label
_atom_site_fract_x
_atom_site_fract_y
_atom_site_fract_z
Si Si1 0.527453 0.242986 0.921245
Si Si2 0.546657 0.721227 0.889795
Si Si3 0.279982 0.404147 0.414647
Si Si4 0.335865 0.531782 0.097951
Si Si5 0.691230 0.069802 0.281021
Si Si6 0.500000 0.872060 0.250000
O O1 0.666187 0.187405 0.910003
O O2 0.534471 0.392247 0.928046
O O3 0.458025 0.208089 0.839455
O O4 0.450134 0.205644 0.017274
O O5 0.407677 0.672659 0.883631
O O6 0.642436 0.608311 0.879097
O O7 0.598213 0.817949 0.813164
O O8 0.261409 0.454849 0.515773
O O9 0.276593 0.524536 0.352229
O O10 0.270432 0.604936 0.186202
O O11 0.616778 0.950457 0.262050
#
# Coordination Sequence:
#
# PCOD8149462 Si02
#       6
#     8   8   8   8   8   4
#     4  10  23  46  72 104 137 189 237 297 353 431
#     4  11  25  46  75  98 148 194 228 302 374 410
#     4  10  24  48  70 106 144 183 244 296 350 441
#     4  11  25  45  70 106 141 183 244 291 354 434
#     4  11  28  42  71 109 139 192 240 291 363 432
#     4  10  26  42  70 100 146 176 244 298 348 422
#
# _framework density 24.686554999999998
#
# number of rings (size 3 to 8) (size 9 to 14) (size 15 to 20)
#    0.000    1.455    0.000    4.364   12.727    5.818 
#    0.000    0.000    0.000    0.000    0.000    0.000 
#    0.000    0.000    0.000    0.000    0.000    0.000 
#
# Total GULP energy -272719.082006 kJ/mol
# GULP energy per Si atom -12396.321909 kJ/mol
# Density = 2.463037 g / cm^3
# Si number density = 24.686555 Si / 1000 Ang^3
#
#
#
# Elastic Constant Matrix: (Units=GPa)
#
#
# Indices 1 2 3 4 5 6 
#
# 1 58.0044 39.0063 61.5711 0.0000 -1.5614 0.0000
# 2 39.0063 110.8217 50.2272 0.0000 13.6798 0.0000
# 3 61.5711 50.2272 183.1454 0.0000 10.2387 0.0000
# 4 0.0000 0.0000 0.0000 38.8587 0.0000 -2.3050
# 5 -1.5614 13.6798 10.2387 0.0000 36.5779 0.0000
# 6 0.0000 0.0000 0.0000 -2.3050 0.0000 21.9464
#
#
#
# Elastic Compliance Matrix: (Units=1/GPa)
#
#
# Indices 1 2 3 4 5 6 
#
# 1 0.032622 -0.008222 -0.009105 0.000000 0.007016 0.000000
# 2 -0.008222 0.012737 -0.000450 0.000000 -0.004989 0.000000
# 3 -0.009105 -0.000450 0.008794 0.000000 -0.002682 0.000000
# 4 0.000000 0.000000 0.000000 0.025896 0.000000 0.002720
# 5 0.007016 -0.004989 -0.002682 0.000000 0.030255 0.000000
# 6 0.000000 0.000000 0.000000 0.002720 0.000000 0.045851
#
#
# Mechanical properties :
#
#
# Convention : Reuss Voigt Hill
#
# Bulk Modulus (GPa) = 53.76151 72.62008 63.19079
# Shear Modulus (GPa) = 25.26416 32.88774 29.07595
#
# Velocity S-wave (km/s) = 3.20253 3.65391 3.43564
# Velocity P-wave (km/s) = 5.95818 6.87620 6.43358
#
# Compressibility (1/GPa) = 0.01860067
#
# Stress axis : x y z
#
# Youngs Moduli (GPa) = 30.65390 78.51029 113.70890
#
# Poissons Ratio (x) = 0.64550 1.03527
# Poissons Ratio (y) = 0.25203 0.05119
# Poissons Ratio (z) = 0.27909 0.03535
#
# Static dielectric constant tensor:
#      x y z
#    x 4.064880 0.000000 0.155280 
#    y 0.000000 4.475910 0.000000 
#    z 0.155280 0.000000 5.484480 
# 
# 
# High freq. dielectric constant tensor:
#      x y z
#    x 1.958310 0.000000 0.004460 
#    y 0.000000 1.986030 0.000000 
#    z 0.004460 0.000000 2.007760 
# 
# From -- ./inp_files/142233.got.cif
#   From: 2010.06.25/outbox.cif.g09.slc.cpg/sg15_72_cif.got.tgz:142233.got - 2010.06.28 07:06:18.
