data_PCOD8149605
_publ_section_title
;
Structure prediction by ZEFSAII (Michael W. Deem and Ramdas Pophale) SiO2 
 PCOD8149605
Probable space group: C 2/C
;
_chemical_formula_sum "Si O2"
_cell_formula_units_Z 40
_cell_length_a 11.041229
_cell_length_b 7.998796
_cell_length_c 19.739117
_cell_angle_alpha 90.000000
_cell_angle_beta 87.206160
_cell_angle_gamma 90.000000
_cell_volume 1741.218380
_symmetry_space_group_name_H-M "C 2/C"
_symmetry_group_IT_number 15
_symmetry_cell_setting 'monoclinic'
loop_
_space_group_symop_operation_xyz
x,y,z
-x,y,1/2-z
-x,-y,-z
x,-y,1/2+z
1/2+x,1/2+y,z
1/2-x,1/2+y,1/2-z
1/2-x,1/2-y,-z
1/2+x,1/2-y,1/2+z
loop_
_atom_site_type_symbol
_atom_site_label
_atom_site_fract_x
_atom_site_fract_y
_atom_site_fract_z
Si Si1 0.643886 0.205090 0.914817
Si Si2 0.374196 0.418088 0.784472
Si Si3 0.278660 0.001613 0.466575
Si Si4 0.609148 0.336071 0.570727
Si Si5 0.874235 0.438142 0.234107
O O1 0.757034 0.334685 0.919905
O O2 0.534063 0.331298 0.929596
O O3 0.634061 0.118884 0.842899
O O4 0.641168 0.060013 0.971258
O O5 0.500000 0.497297 0.750000
O O6 0.356682 0.453939 0.865170
O O7 0.252816 0.468294 0.745831
O O8 0.384577 0.219315 0.782788
O O9 0.344077 0.856261 0.422466
O O10 0.156289 0.922623 0.501440
O O11 0.000000 0.541215 0.250000
#
# Coordination Sequence:
#
# PCOD8149605 Si02
#       5
#     8   8   8   8   8
#     4  11  21  42  63  94 126 165 207 265 317 380
#     4  11  24  43  66  92 129 171 217 265 318 380
#     4  10  24  38  66  96 128 158 212 260 330 376
#     4  11  21  42  63  94 126 165 207 265 317 380
#     4  11  24  43  66  92 129 171 217 265 318 380
#
# _framework density 22.97242
#
# number of rings (size 3 to 8) (size 9 to 14) (size 15 to 20)
#    0.000    1.200    6.000    1.200    2.800    0.800 
#    0.000    0.000    0.000    0.000    0.000    0.000 
#    0.000    0.000    0.000    0.000    0.000    0.000 
#
# Total GULP energy -247802.040835 kJ/mol
# GULP energy per Si atom -12390.102042 kJ/mol
# Density = 2.292013 g / cm^3
# Si number density = 22.972420 Si / 1000 Ang^3
#
#
#
# Elastic Constant Matrix: (Units=GPa)
#
#
# Indices 1 2 3 4 5 6 
#
# 1 131.8339 17.3367 20.1137 0.0000 9.2304 0.0000
# 2 17.3367 49.4465 13.7057 0.0000 7.4631 0.0000
# 3 20.1137 13.7057 97.0792 0.0000 7.0847 0.0000
# 4 0.0000 0.0000 0.0000 22.7756 0.0000 12.4387
# 5 9.2304 7.4631 7.0847 0.0000 25.1975 0.0000
# 6 0.0000 0.0000 0.0000 12.4387 0.0000 36.5457
#
#
#
# Elastic Compliance Matrix: (Units=1/GPa)
#
#
# Indices 1 2 3 4 5 6 
#
# 1 0.008208 -0.002233 -0.001240 0.000000 -0.001997 0.000000
# 2 -0.002233 0.022432 -0.002327 0.000000 -0.005172 0.000000
# 3 -0.001240 -0.002327 0.011029 0.000000 -0.001958 0.000000
# 4 0.000000 0.000000 0.000000 0.053932 0.000000 -0.018356
# 5 -0.001997 -0.005172 -0.001958 0.000000 0.042500 0.000000
# 6 0.000000 0.000000 0.000000 -0.018356 0.000000 0.033611
#
#
# Mechanical properties :
#
#
# Convention : Reuss Voigt Hill
#
# Bulk Modulus (GPa) = 33.25518 42.29687 37.77602
# Shear Modulus (GPa) = 25.86192 32.05066 28.95629
#
# Velocity S-wave (km/s) = 3.35891 3.73926 3.55418
# Velocity P-wave (km/s) = 5.43604 6.09055 5.77258
#
# Compressibility (1/GPa) = 0.03007050
#
# Stress axis : x y z
#
# Youngs Moduli (GPa) = 121.83441 44.57856 90.66932
#
# Poissons Ratio (x) = 0.09954 0.11240
# Poissons Ratio (y) = 0.27203 0.21098
# Poissons Ratio (z) = 0.15103 0.10373
#
# Static dielectric constant tensor:
#      x y z
#    x 4.537830 0.000000 0.065910 
#    y 0.000000 3.945220 0.000000 
#    z 0.065910 0.000000 3.955590 
# 
# 
# High freq. dielectric constant tensor:
#      x y z
#    x 1.916450 0.000000 0.006470 
#    y 0.000000 1.881800 0.000000 
#    z 0.006470 0.000000 1.906570 
# 
# From -- ./inp_files/187976.got.cif
#   From: 2010.06.25/outbox.cif.g09.slc.cpg/sg15_94_cif.got.tgz:187976.got - 2010.06.28 07:06:18.
