data_PCOD8149627
_publ_section_title
;
Structure prediction by ZEFSAII (Michael W. Deem and Ramdas Pophale) SiO2 
 PCOD8149627
Probable space group: C 2/C
;
_chemical_formula_sum "Si O2"
_cell_formula_units_Z 36
_cell_length_a 11.492614
_cell_length_b 7.685021
_cell_length_c 22.239502
_cell_angle_alpha 90.000000
_cell_angle_beta 64.817969
_cell_angle_gamma 90.000000
_cell_volume 1777.536714
_symmetry_space_group_name_H-M "C 2/C"
_symmetry_group_IT_number 15
_symmetry_cell_setting 'monoclinic'
loop_
_space_group_symop_operation_xyz
x,y,z
-x,y,1/2-z
-x,-y,-z
x,-y,1/2+z
1/2+x,1/2+y,z
1/2-x,1/2+y,1/2-z
1/2-x,1/2-y,-z
1/2+x,1/2-y,1/2+z
loop_
_atom_site_type_symbol
_atom_site_label
_atom_site_fract_x
_atom_site_fract_y
_atom_site_fract_z
Si Si1 0.500000 0.113466 0.750000
Si Si2 0.125096 0.474452 0.040167
Si Si3 0.752915 0.479559 0.367200
Si Si4 0.586013 0.219854 0.854344
Si Si5 0.640715 0.890952 0.906213
O O1 0.608903 0.992670 0.695251
O O2 0.566572 0.230691 0.786764
O O3 0.232930 0.529312 0.065220
O O4 0.052853 0.302083 0.082665
O O5 0.016225 0.625916 0.055295
O O6 0.193283 0.431162 0.962017
O O7 0.648010 0.601722 0.360958
O O8 0.705398 0.282496 0.367130
O O9 0.674635 0.052239 0.853896
#
# Coordination Sequence:
#
# PCOD8149627 Si02
#       5
#     4   8   8   8   8
#     4  10  24  40  50  84 118 136 206 238 246 338
#     4   8  19  40  54  90 120 128 187 241 262 347
#     4  11  21  38  60  79 113 156 180 230 282 321
#     4   9  21  39  56  82 111 149 186 227 281 329
#     4   9  19  40  58  86 117 139 182 235 278 333
#
# _framework density 20.252745999999998
#
# number of rings (size 3 to 8) (size 9 to 14) (size 15 to 20)
#    1.333    1.333    0.000    0.667    3.111    1.778 
#    8.000    2.222    0.000    0.000    0.000    0.000 
#    0.000    0.000    0.000    0.000    0.000    0.000 
#
# Total GULP energy -223025.956684 kJ/mol
# GULP energy per Si atom -12390.330927 kJ/mol
# Density = 2.020665 g / cm^3
# Si number density = 20.252746 Si / 1000 Ang^3
#
#
#
# Elastic Constant Matrix: (Units=GPa)
#
#
# Indices 1 2 3 4 5 6 
#
# 1 76.6204 31.8111 51.7743 0.0000 34.2599 0.0000
# 2 31.8111 70.8695 45.1928 0.0000 19.8838 0.0000
# 3 51.7743 45.1928 110.9243 0.0000 39.4592 0.0000
# 4 0.0000 0.0000 0.0000 15.9422 0.0000 4.7661
# 5 34.2599 19.8838 39.4592 0.0000 44.3611 0.0000
# 6 0.0000 0.0000 0.0000 4.7661 0.0000 30.3345
#
#
#
# Elastic Compliance Matrix: (Units=1/GPa)
#
#
# Indices 1 2 3 4 5 6 
#
# 1 0.023412 -0.003931 -0.005151 0.000000 -0.011738 0.000000
# 2 -0.003931 0.019899 -0.006114 0.000000 -0.000445 0.000000
# 3 -0.005151 -0.006114 0.016853 0.000000 -0.008272 0.000000
# 4 0.000000 0.000000 0.000000 0.065818 0.000000 -0.010341
# 5 -0.011738 -0.000445 -0.008272 0.000000 0.039165 0.000000
# 6 0.000000 0.000000 0.000000 -0.010341 0.000000 0.034591
#
#
# Mechanical properties :
#
#
# Convention : Reuss Voigt Hill
#
# Bulk Modulus (GPa) = 33.58866 57.33006 45.45936
# Shear Modulus (GPa) = 20.82870 26.76996 23.79933
#
# Velocity S-wave (km/s) = 3.21041 3.63959 3.43172
# Velocity P-wave (km/s) = 5.51027 6.78461 6.18037
#
# Compressibility (1/GPa) = 0.02977195
#
# Stress axis : x y z
#
# Youngs Moduli (GPa) = 42.71265 50.25464 59.33671
#
# Poissons Ratio (x) = 0.19757 0.30562
# Poissons Ratio (y) = 0.16792 0.36278
# Poissons Ratio (z) = 0.22000 0.30726
#
# Static dielectric constant tensor:
#      x y z
#    x 3.604200 0.000000 0.266120 
#    y 0.000000 3.130100 0.000000 
#    z 0.266120 0.000000 3.670000 
# 
# 
# High freq. dielectric constant tensor:
#      x y z
#    x 1.786600 0.000000 0.026300 
#    y 0.000000 1.745250 0.000000 
#    z 0.026300 0.000000 1.792130 
# 
# From -- ./inp_files/235451.got.cif
#   From: 2010.06.25/outbox.cif.g09.slc.cpg/sg15_118_cif.got.tgz:235451.got - 2010.06.28 07:06:18.
