data_PCOD8149704
_publ_section_title
;
Structure prediction by ZEFSAII (Michael W. Deem and Ramdas Pophale) SiO2 
 PCOD8149704
Probable space group: C 2/C
;
_chemical_formula_sum "Si O2"
_cell_formula_units_Z 40
_cell_length_a 22.719909
_cell_length_b 13.642259
_cell_length_c 8.638457
_cell_angle_alpha 90.000000
_cell_angle_beta 137.392644
_cell_angle_gamma 90.000000
_cell_volume 1812.586654
_symmetry_space_group_name_H-M "C 2/C"
_symmetry_group_IT_number 15
_symmetry_cell_setting 'monoclinic'
loop_
_space_group_symop_operation_xyz
x,y,z
-x,y,1/2-z
-x,-y,-z
x,-y,1/2+z
1/2+x,1/2+y,z
1/2-x,1/2+y,1/2-z
1/2-x,1/2-y,-z
1/2+x,1/2-y,1/2+z
loop_
_atom_site_type_symbol
_atom_site_label
_atom_site_fract_x
_atom_site_fract_y
_atom_site_fract_z
Si Si1 0.015627 0.606211 0.962649
Si Si2 0.686819 0.599959 0.354747
Si Si3 0.150820 0.685713 0.727531
Si Si4 0.403150 0.565001 0.628922
Si Si5 0.654688 0.234166 0.379835
O O1 0.000000 0.606865 0.750000
O O2 0.948990 0.672183 0.927615
O O3 0.109340 0.653062 0.182714
O O4 0.000000 0.500000 0.000000
O O5 0.789858 0.593352 0.596640
O O6 0.669754 0.714020 0.357177
O O7 0.622302 0.532125 0.327907
O O8 0.670052 0.575912 0.143997
O O9 0.162416 0.692565 0.566900
O O10 0.500000 0.552768 0.750000
O O11 0.397902 0.662248 0.725529
O O12 0.750000 0.250000 0.500000
#
# Coordination Sequence:
#
# PCOD8149704 Si02
#       5
#     8   8   8   8   8
#     4  12  28  46  77 105 141 194 244 301 370 437
#     4  10  24  40  70  97 137 184 226 295 353 440
#     4  10  24  47  67  99 147 178 240 296 361 432
#     4  11  24  43  67 100 140 181 236 298 372 424
#     4  11  26  46  72 106 143 189 239 305 362 438
#
# _framework density 22.067913000000001
#
# number of rings (size 3 to 8) (size 9 to 14) (size 15 to 20)
#    0.000    1.200    0.000    4.800   14.000    0.800 
#    0.000    0.000    0.000    0.000    0.000    0.000 
#    0.000    0.000    0.000    0.000    0.000    0.000 
#
# Total GULP energy -247948.440655 kJ/mol
# GULP energy per Si atom -12397.422033 kJ/mol
# Density = 2.201769 g / cm^3
# Si number density = 22.067913 Si / 1000 Ang^3
#
#
#
# Elastic Constant Matrix: (Units=GPa)
#
#
# Indices 1 2 3 4 5 6 
#
# 1 132.4930 55.3956 52.7795 0.0000 0.7190 0.0000
# 2 55.3956 133.1108 56.0251 0.0000 -0.5568 0.0000
# 3 52.7795 56.0251 134.6306 0.0000 -6.3675 0.0000
# 4 0.0000 0.0000 0.0000 30.4431 0.0000 3.2135
# 5 0.7190 -0.5568 -6.3675 0.0000 38.4172 0.0000
# 6 0.0000 0.0000 0.0000 3.2135 0.0000 41.5763
#
#
#
# Elastic Compliance Matrix: (Units=1/GPa)
#
#
# Indices 1 2 3 4 5 6 
#
# 1 0.009857 -0.002989 -0.002652 0.000000 -0.000667 0.000000
# 2 -0.002989 0.010023 -0.003014 0.000000 -0.000298 0.000000
# 3 -0.002652 -0.003014 0.009799 0.000000 0.001630 0.000000
# 4 0.000000 0.000000 0.000000 0.033118 0.000000 -0.002560
# 5 -0.000667 -0.000298 0.001630 0.000000 0.026308 0.000000
# 6 0.000000 0.000000 0.000000 -0.002560 0.000000 0.024250
#
#
# Mechanical properties :
#
#
# Convention : Reuss Voigt Hill
#
# Bulk Modulus (GPa) = 80.83838 80.95942 80.89890
# Shear Modulus (GPa) = 37.09508 37.82292 37.45900
#
# Velocity S-wave (km/s) = 4.10439 4.14446 4.12447
# Velocity P-wave (km/s) = 7.69237 7.72452 7.70846
#
# Compressibility (1/GPa) = 0.01237036
#
# Stress axis : x y z
#
# Youngs Moduli (GPa) = 101.44744 99.76567 102.05481
#
# Poissons Ratio (x) = 0.29817 0.27067
# Poissons Ratio (y) = 0.30320 0.30755
# Poissons Ratio (z) = 0.26906 0.30065
#
# Static dielectric constant tensor:
#      x y z
#    x 3.990040 0.000000 0.139860 
#    y 0.000000 4.205450 0.000000 
#    z 0.139860 0.000000 4.122190 
# 
# 
# High freq. dielectric constant tensor:
#      x y z
#    x 1.869170 0.000000 0.005890 
#    y 0.000000 1.874900 0.000000 
#    z 0.005890 0.000000 1.881940 
# 
# From -- ./inp_files/61725.got.cif
#   From: 2010.06.25/outbox.cif.g09.slc.cpg/sg15_31_cif.got.tgz:61725.got - 2010.06.28 07:06:18.
