data_PCOD8149236
_publ_section_title
;
Structure prediction by ZEFSAII (Michael W. Deem and Ramdas Pophale) SiO2 
 PCOD8149236
Probable space group: C 2/C
;
_chemical_formula_sum "Si O2"
_cell_formula_units_Z 32
_cell_length_a 21.964344
_cell_length_b 7.648412
_cell_length_c 9.014822
_cell_angle_alpha 90.000000
_cell_angle_beta 68.625479
_cell_angle_gamma 90.000000
_cell_volume 1410.256209
_symmetry_space_group_name_H-M "C 2/C"
_symmetry_group_IT_number 15
_symmetry_cell_setting 'monoclinic'
loop_
_space_group_symop_operation_xyz
x,y,z
-x,y,1/2-z
-x,-y,-z
x,-y,1/2+z
1/2+x,1/2+y,z
1/2-x,1/2+y,1/2-z
1/2-x,1/2-y,-z
1/2+x,1/2-y,1/2+z
loop_
_atom_site_type_symbol
_atom_site_label
_atom_site_fract_x
_atom_site_fract_y
_atom_site_fract_z
Si Si1 0.457484 0.613336 0.427377
Si Si2 0.189579 0.413233 0.083706
Si Si3 0.640809 0.805025 0.820776
Si Si4 0.171366 0.028445 0.114784
O O1 0.500000 0.677675 0.250000
O O2 0.500000 0.500000 0.500000
O O3 0.431694 0.779197 0.545326
O O4 0.393733 0.505463 0.428179
O O5 0.138621 0.558088 0.187491
O O6 0.173197 0.228055 0.178863
O O7 0.185659 0.386784 0.909744
O O8 0.263190 0.486399 0.045436
O O9 0.669761 0.617854 0.743202
#
# Coordination Sequence:
#
# PCOD8149236 Si02
#       4
#     8   8   8   8
#     4  11  23  45  73  97 133 195 241 275 342 415
#     4  10  25  41  70 111 138 178 234 287 367 412
#     4  11  24  44  71 102 143 183 226 293 349 420
#     4  10  23  44  72 100 145 182 227 294 349 419
#
# _framework density 22.690912000000001
#
# number of rings (size 3 to 8) (size 9 to 14) (size 15 to 20)
#    0.000    1.500    2.500    0.750   10.500    4.000 
#    0.000    5.000   11.000    0.000    0.000    0.000 
#    0.000    0.000    0.000    0.000    0.000    0.000 
#
# Total GULP energy -198226.452086 kJ/mol
# GULP energy per Si atom -12389.153255 kJ/mol
# Density = 2.263927 g / cm^3
# Si number density = 22.690912 Si / 1000 Ang^3
#
#
#
# Elastic Constant Matrix: (Units=GPa)
#
#
# Indices 1 2 3 4 5 6 
#
# 1 142.5242 43.1353 60.8406 0.0000 -8.7732 0.0000
# 2 43.1353 140.8242 99.8524 0.0000 -11.7459 0.0000
# 3 60.8406 99.8524 157.7368 0.0000 -19.3769 0.0000
# 4 0.0000 0.0000 0.0000 66.1542 0.0000 -8.9083
# 5 -8.7732 -11.7459 -19.3769 0.0000 33.0767 0.0000
# 6 0.0000 0.0000 0.0000 -8.9083 0.0000 23.1114
#
#
#
# Elastic Compliance Matrix: (Units=1/GPa)
#
#
# Indices 1 2 3 4 5 6 
#
# 1 0.008423 -0.000504 -0.002885 0.000000 0.000365 0.000000
# 2 -0.000504 0.012916 -0.008011 0.000000 -0.000240 0.000000
# 3 -0.002885 -0.008011 0.013017 0.000000 0.004016 0.000000
# 4 0.000000 0.000000 0.000000 0.015944 0.000000 0.006146
# 5 0.000365 -0.000240 0.004016 0.000000 0.032597 0.000000
# 6 0.000000 0.000000 0.000000 0.006146 0.000000 0.045637
#
#
# Mechanical properties :
#
#
# Convention : Reuss Voigt Hill
#
# Bulk Modulus (GPa) = 86.53884 94.30465 90.42174
# Shear Modulus (GPa) = 32.21948 40.28559 36.25254
#
# Velocity S-wave (km/s) = 3.77228 4.21813 4.00142
# Velocity P-wave (km/s) = 7.56270 8.08543 7.82843
#
# Compressibility (1/GPa) = 0.01155551
#
# Stress axis : x y z
#
# Youngs Moduli (GPa) = 118.72457 77.42456 76.82221
#
# Poissons Ratio (x) = 0.03902 0.22163
# Poissons Ratio (y) = 0.05983 0.61544
# Poissons Ratio (z) = 0.34251 0.62027
#
# Static dielectric constant tensor:
#      x y z
#    x 4.168170 0.000000 -0.245590 
#    y 0.000000 4.078270 0.000000 
#    z -0.245590 0.000000 4.229770 
# 
# 
# High freq. dielectric constant tensor:
#      x y z
#    x 1.890050 0.000000 -0.008090 
#    y 0.000000 1.877430 0.000000 
#    z -0.008090 0.000000 1.899830 
# 
# From -- ./inp_files/59607.got.cif
#   From: 2010.06.25/outbox.cif.g09.slc.cpg/sg15_30_cif.got.tgz:59607.got - 2010.06.28 07:06:18.
