data_PCOD8149200
_publ_section_title
;
Structure prediction by ZEFSAII (Michael W. Deem and Ramdas Pophale) SiO2 
 PCOD8149200
Probable space group: C 2/C
;
_chemical_formula_sum "Si O2"
_cell_formula_units_Z 56
_cell_length_a 29.395520
_cell_length_b 8.781833
_cell_length_c 13.541336
_cell_angle_alpha 90.000000
_cell_angle_beta 132.175612
_cell_angle_gamma 90.000000
_cell_volume 2590.592185
_symmetry_space_group_name_H-M "C 2/C"
_symmetry_group_IT_number 15
_symmetry_cell_setting 'monoclinic'
loop_
_space_group_symop_operation_xyz
x,y,z
-x,y,1/2-z
-x,-y,-z
x,-y,1/2+z
1/2+x,1/2+y,z
1/2-x,1/2+y,1/2-z
1/2-x,1/2-y,-z
1/2+x,1/2-y,1/2+z
loop_
_atom_site_type_symbol
_atom_site_label
_atom_site_fract_x
_atom_site_fract_y
_atom_site_fract_z
Si Si1 0.597575 0.418448 0.668200
Si Si2 0.169791 0.509903 0.420076
Si Si3 0.938855 0.980740 0.095869
Si Si4 0.644620 0.357210 0.381645
Si Si5 0.753188 0.041813 0.879250
Si Si6 0.566938 0.223761 0.809739
Si Si7 0.235991 0.873734 0.803555
O O1 0.552722 0.448912 0.508400
O O2 0.602446 0.580260 0.731161
O O3 0.566727 0.295217 0.697821
O O4 0.664386 0.367050 0.726760
O O5 0.162884 0.686742 0.387177
O O6 0.187776 0.440837 0.339550
O O7 0.109482 0.425807 0.373733
O O8 0.225960 0.495292 0.577913
O O9 0.892411 0.853702 0.068961
O O10 0.000000 0.973768 0.250000
O O11 0.909057 0.147565 0.077418
O O12 0.699958 0.479524 0.469551
O O13 0.769246 0.210497 0.865546
O O14 0.754428 0.917907 0.795511
O O15 0.500000 0.170243 0.750000
#
# Coordination Sequence:
#
# PCOD8149200 Si02
#       7
#     8   8   8   8   8   8   8
#     4  11  22  43  70  97 132 181 220 285 336 398
#     4  12  25  41  64 101 141 179 218 280 341 396
#     4  10  23  44  70  95 129 174 235 281 334 399
#     4  11  24  39  65  99 136 174 225 271 333 413
#     4  12  24  41  62 101 138 180 216 270 334 409
#     4  10  24  45  69  96 132 180 232 281 331 398
#     4  12  24  38  69  98 143 177 220 275 339 407
#
# _framework density 21.616679000000001
#
# number of rings (size 3 to 8) (size 9 to 14) (size 15 to 20)
#    0.000    0.857    4.286    3.429    2.000    5.714 
#    0.000    0.000    0.000    6.000    0.000    0.000 
#    0.000    0.000    0.000    0.000    0.000    0.000 
#
# Total GULP energy -347028.120547 kJ/mol
# GULP energy per Si atom -12393.861448 kJ/mol
# Density = 2.156748 g / cm^3
# Si number density = 21.616679 Si / 1000 Ang^3
#
#
#
# Elastic Constant Matrix: (Units=GPa)
#
#
# Indices 1 2 3 4 5 6 
#
# 1 125.0850 -1.5094 43.6176 0.0000 -3.1659 0.0000
# 2 -1.5094 65.3337 36.0602 0.0000 6.1783 0.0000
# 3 43.6176 36.0602 114.8225 0.0000 -13.3858 0.0000
# 4 0.0000 0.0000 0.0000 25.4486 0.0000 0.6287
# 5 -3.1659 6.1783 -13.3858 0.0000 32.5993 0.0000
# 6 0.0000 0.0000 0.0000 0.6287 0.0000 30.7719
#
#
#
# Elastic Compliance Matrix: (Units=1/GPa)
#
#
# Indices 1 2 3 4 5 6 
#
# 1 0.009669 0.003032 -0.004813 0.000000 -0.001612 0.000000
# 2 0.003032 0.020739 -0.008496 0.000000 -0.007124 0.000000
# 3 -0.004813 -0.008496 0.014009 0.000000 0.006895 0.000000
# 4 0.000000 0.000000 0.000000 0.039315 0.000000 -0.000803
# 5 -0.001612 -0.007124 0.006895 0.000000 0.034700 0.000000
# 6 0.000000 0.000000 0.000000 -0.000803 0.000000 0.032514
#
#
# Mechanical properties :
#
#
# Convention : Reuss Voigt Hill
#
# Bulk Modulus (GPa) = 41.90356 51.28645 46.59501
# Shear Modulus (GPa) = 27.86245 32.90212 30.38229
#
# Velocity S-wave (km/s) = 3.59407 3.90561 3.75307
# Velocity P-wave (km/s) = 6.05392 6.64193 6.35473
#
# Compressibility (1/GPa) = 0.02386432
#
# Stress axis : x y z
#
# Youngs Moduli (GPa) = 103.42647 48.21871 71.38116
#
# Poissons Ratio (x) = -0.14622 0.34356
# Poissons Ratio (y) = -0.31363 0.60642
# Poissons Ratio (z) = 0.49780 0.40964
#
# Static dielectric constant tensor:
#      x y z
#    x 4.214600 0.000000 -0.079580 
#    y 0.000000 3.683570 0.000000 
#    z -0.079580 0.000000 3.761160 
# 
# 
# High freq. dielectric constant tensor:
#      x y z
#    x 1.870640 0.000000 -0.007240 
#    y 0.000000 1.832970 0.000000 
#    z -0.007240 0.000000 1.835320 
# 
# From -- ./inp_files/180871.got.cif
#   From: 2010.06.25/outbox.cif.g09.slc.cpg/sg15_91_cif.got.tgz:180871.got - 2010.06.28 07:06:18.
