data_PCOD8149754
_publ_section_title
;
Structure prediction by ZEFSAII (Michael W. Deem and Ramdas Pophale) SiO2 
 PCOD8149754
Probable space group: C 2/C
;
_chemical_formula_sum "Si O2"
_cell_formula_units_Z 56
_cell_length_a 13.794613
_cell_length_b 20.510283
_cell_length_c 13.283308
_cell_angle_alpha 90.000000
_cell_angle_beta 43.619633
_cell_angle_gamma 90.000000
_cell_volume 2592.705540
_symmetry_space_group_name_H-M "C 2/C"
_symmetry_group_IT_number 15
_symmetry_cell_setting 'monoclinic'
loop_
_space_group_symop_operation_xyz
x,y,z
-x,y,1/2-z
-x,-y,-z
x,-y,1/2+z
1/2+x,1/2+y,z
1/2-x,1/2+y,1/2-z
1/2-x,1/2-y,-z
1/2+x,1/2-y,1/2+z
loop_
_atom_site_type_symbol
_atom_site_label
_atom_site_fract_x
_atom_site_fract_y
_atom_site_fract_z
Si Si1 0.267602 0.128455 0.234829
Si Si2 0.000000 0.089487 0.750000
Si Si3 0.500000 0.807754 0.250000
Si Si4 0.633758 0.489346 0.331277
Si Si5 0.935791 0.326483 0.009776
Si Si6 0.251582 0.672997 0.023684
Si Si7 0.509292 0.709974 0.419740
Si Si8 0.258516 0.869371 0.325179
O O1 0.285777 0.152010 0.335908
O O2 0.150943 0.175539 0.272586
O O3 0.217692 0.055601 0.251163
O O4 0.420277 0.135994 0.068872
O O5 0.087058 0.043637 0.761307
O O6 0.103774 0.136933 0.611823
O O7 0.461259 0.762923 0.374125
O O8 0.367779 0.855489 0.332427
O O9 0.500000 0.500000 0.500000
O O10 0.742653 0.445347 0.312684
O O11 0.965127 0.247920 0.992731
O O12 0.813518 0.334552 0.183894
O O13 0.877380 0.352931 0.948179
O O14 0.250000 0.750000 0.000000
O O15 0.393248 0.656091 0.527380
#
# Coordination Sequence:
#
# PCOD8149754 Si02
#       8
#     8   4   4   8   8   8   8   8
#     4  12  26  44  69 102 137 183 234 282 343 423
#     4  12  26  49  74 103 136 194 236 288 356 418
#     4  10  24  41  68 105 134 176 228 288 350 394
#     4  12  25  50  70  97 139 186 242 280 333 432
#     4  11  24  41  66 105 138 171 225 293 357 395
#     4  12  25  40  71 106 142 178 228 294 363 414
#     4  11  22  43  70  99 138 177 229 285 343 417
#     4  11  23  46  68  97 140 183 223 283 339 411
#
# _framework density 21.599060000000001
#
# number of rings (size 3 to 8) (size 9 to 14) (size 15 to 20)
#    0.000    0.571    5.714    2.571    2.000    2.286 
#    7.714    0.000    0.000    0.000    0.000    0.000 
#    0.000    0.000    0.000    0.000    0.000    0.000 
#
# Total GULP energy -347101.548739 kJ/mol
# GULP energy per Si atom -12396.483884 kJ/mol
# Density = 2.154990 g / cm^3
# Si number density = 21.599060 Si / 1000 Ang^3
#
#
#
# Elastic Constant Matrix: (Units=GPa)
#
#
# Indices 1 2 3 4 5 6 
#
# 1 118.1792 49.1413 17.1871 -0.0021 -8.2496 0.0004
# 2 49.1413 133.9768 13.1576 -0.0019 -11.2870 0.0006
# 3 17.1871 13.1576 66.0319 -0.0039 -16.0540 0.0011
# 4 -0.0021 -0.0019 -0.0039 27.7927 0.0022 -4.5796
# 5 -8.2496 -11.2870 -16.0540 0.0022 39.6340 -0.0004
# 6 0.0004 0.0006 0.0011 -4.5796 -0.0004 34.8435
#
#
#
# Elastic Compliance Matrix: (Units=1/GPa)
#
#
# Indices 1 2 3 4 5 6 
#
# 1 0.010230 -0.003538 -0.001869 0.000000 0.000365 0.000000
# 2 -0.003538 0.008944 -0.000467 0.000000 0.001622 0.000000
# 3 -0.001869 -0.000467 0.017301 0.000002 0.006486 0.000000
# 4 0.000000 0.000000 0.000002 0.036777 -0.000001 0.004834
# 5 0.000365 0.001622 0.006486 -0.000001 0.028396 0.000000
# 6 0.000000 0.000000 0.000000 0.004834 0.000000 0.029335
#
#
# Mechanical properties :
#
#
# Convention : Reuss Voigt Hill
#
# Bulk Modulus (GPa) = 40.44252 53.01778 46.73015
# Shear Modulus (GPa) = 33.11842 36.36752 34.74297
#
# Velocity S-wave (km/s) = 3.92002 4.10781 4.01501
# Velocity P-wave (km/s) = 6.26527 6.86283 6.57085
#
# Compressibility (1/GPa) = 0.02472645
#
# Stress axis : x y z
#
# Youngs Moduli (GPa) = 97.74977 111.80457 57.80156
#
# Poissons Ratio (x) = 0.39557 0.10804
# Poissons Ratio (y) = 0.34584 0.02700
# Poissons Ratio (z) = 0.18270 0.05222
#
# Static dielectric constant tensor:
#      x y z
#    x 4.482400 0.000000 -0.170630 
#    y 0.000000 4.171550 0.000000 
#    z -0.170630 0.000000 3.828330 
# 
# 
# High freq. dielectric constant tensor:
#      x y z
#    x 1.862900 0.000000 -0.011270 
#    y 0.000000 1.844380 0.000000 
#    z -0.011270 0.000000 1.846450 
# 
# From -- ./inp_files/156194.got.cif
#   From: 2010.06.25/outbox.cif.g09.slc.cpg/sg15_79_cif.got.tgz:156194.got - 2010.06.28 07:06:18.
