data_PCOD8149351
_publ_section_title
;
Structure prediction by ZEFSAII (Michael W. Deem and Ramdas Pophale) SiO2 
 PCOD8149351
Probable space group: C 2/C
;
_chemical_formula_sum "Si O2"
_cell_formula_units_Z 56
_cell_length_a 14.195389
_cell_length_b 15.319070
_cell_length_c 20.940769
_cell_angle_alpha 90.000000
_cell_angle_beta 33.348475
_cell_angle_gamma 90.000000
_cell_volume 2503.349974
_symmetry_space_group_name_H-M "C 2/C"
_symmetry_group_IT_number 15
_symmetry_cell_setting 'monoclinic'
loop_
_space_group_symop_operation_xyz
x,y,z
-x,y,1/2-z
-x,-y,-z
x,-y,1/2+z
1/2+x,1/2+y,z
1/2-x,1/2+y,1/2-z
1/2-x,1/2-y,-z
1/2+x,1/2-y,1/2+z
loop_
_atom_site_type_symbol
_atom_site_label
_atom_site_fract_x
_atom_site_fract_y
_atom_site_fract_z
Si Si1 0.139474 0.934098 0.450998
Si Si2 0.959601 0.626484 0.449488
Si Si3 0.652779 0.918292 0.623307
Si Si4 0.357680 0.592870 0.785380
Si Si5 0.192768 0.102224 0.183451
Si Si6 0.982848 0.172411 0.587567
Si Si7 0.639508 0.335259 0.580739
O O1 0.138012 0.849376 0.405457
O O2 0.106266 0.900176 0.540855
O O3 0.317223 0.987791 0.358454
O O4 0.000000 0.000000 0.500000
O O5 0.898103 0.573370 0.422144
O O6 0.829507 0.613199 0.581244
O O7 0.141555 0.590273 0.367325
O O8 0.988334 0.726731 0.416874
O O9 0.500000 0.871940 0.750000
O O10 0.827750 0.865236 0.528454
O O11 0.500000 0.637605 0.750000
O O12 0.400789 0.490557 0.756959
O O13 0.374792 0.633869 0.706479
O O14 0.243017 0.120485 0.081002
O O15 0.058728 0.178061 0.282878
O O16 0.750000 0.250000 0.500000
#
# Coordination Sequence:
#
# PCOD8149351 Si02
#       7
#     8   8   8   8   8   8   8
#     4  10  23  45  70 100 142 195 235 288 367 436
#     4  12  27  43  73 110 142 188 248 307 366 432
#     4  11  25  42  69 102 144 185 240 290 364 446
#     4  12  24  47  75  96 146 196 246 289 363 449
#     4  11  25  46  72 108 141 196 247 302 368 442
#     4  11  26  44  71 105 143 188 237 307 372 418
#     4  11  23  45  75 100 148 187 240 300 371 434
#
# _framework density 22.370024000000001
#
# number of rings (size 3 to 8) (size 9 to 14) (size 15 to 20)
#    0.000    0.857    2.857    4.286    8.000    1.143 
#    5.143    0.000    0.000    0.000    0.000    0.000 
#    0.000    0.000    0.000    0.000    0.000    0.000 
#
# Total GULP energy -346933.765563 kJ/mol
# GULP energy per Si atom -12390.491627 kJ/mol
# Density = 2.231911 g / cm^3
# Si number density = 22.370024 Si / 1000 Ang^3
#
#
#
# Elastic Constant Matrix: (Units=GPa)
#
#
# Indices 1 2 3 4 5 6 
#
# 1 163.8626 46.6806 43.5930 -0.0017 4.2495 0.0003
# 2 46.6806 80.1387 43.3579 -0.0018 1.4589 0.0004
# 3 43.5930 43.3579 132.8036 -0.0042 12.4864 0.0018
# 4 -0.0017 -0.0018 -0.0042 30.2320 0.0014 1.2485
# 5 4.2495 1.4589 12.4864 0.0014 41.1762 -0.0010
# 6 0.0003 0.0004 0.0018 1.2485 -0.0010 28.5844
#
#
#
# Elastic Compliance Matrix: (Units=1/GPa)
#
#
# Indices 1 2 3 4 5 6 
#
# 1 0.007488 -0.003693 -0.001227 0.000000 -0.000270 0.000000
# 2 -0.003693 0.017016 -0.004449 0.000000 0.001127 0.000000
# 3 -0.001227 -0.004449 0.009633 0.000001 -0.002637 -0.000001
# 4 0.000000 0.000000 0.000001 0.033137 -0.000002 -0.001447
# 5 -0.000270 0.001127 -0.002637 -0.000002 0.025073 0.000001
# 6 0.000000 0.000000 -0.000001 -0.001447 0.000001 0.035047
#
#
# Mechanical properties :
#
#
# Convention : Reuss Voigt Hill
#
# Bulk Modulus (GPa) = 64.93885 71.56313 68.25099
# Shear Modulus (GPa) = 33.05410 36.21007 34.63209
#
# Velocity S-wave (km/s) = 3.84814 4.02766 3.93892
# Velocity P-wave (km/s) = 6.98832 7.32731 7.15982
#
# Compressibility (1/GPa) = 0.01539910
#
# Stress axis : x y z
#
# Youngs Moduli (GPa) = 133.54434 58.76729 103.80803
#
# Poissons Ratio (x) = 0.21704 0.12736
# Poissons Ratio (y) = 0.49320 0.46187
# Poissons Ratio (z) = 0.16384 0.26147
#
# Static dielectric constant tensor:
#      x y z
#    x 4.603050 0.000000 -0.054990 
#    y 0.000000 4.167310 0.000000 
#    z -0.054990 0.000000 4.002390 
# 
# 
# High freq. dielectric constant tensor:
#      x y z
#    x 1.905930 0.000000 0.005430 
#    y 0.000000 1.867890 0.000000 
#    z 0.005430 0.000000 1.877920 
# 
# From -- ./inp_files/245128.got.cif
#   From: 2010.06.25/outbox.cif.g09.slc.cpg/sg15_123_cif.got.tgz:245128.got - 2010.06.28 07:06:18.
