data_PCOD8149922
_publ_section_title
;
Structure prediction by ZEFSAII (Michael W. Deem and Ramdas Pophale) SiO2 
 PCOD8149922
Probable space group: C 2/C
;
_chemical_formula_sum "Si O2"
_cell_formula_units_Z 60
_cell_length_a 16.521033
_cell_length_b 22.442431
_cell_length_c 8.560247
_cell_angle_alpha 90.000000
_cell_angle_beta 55.254763
_cell_angle_gamma 90.000000
_cell_volume 2607.976524
_symmetry_space_group_name_H-M "C 2/C"
_symmetry_group_IT_number 15
_symmetry_cell_setting 'monoclinic'
loop_
_space_group_symop_operation_xyz
x,y,z
-x,y,1/2-z
-x,-y,-z
x,-y,1/2+z
1/2+x,1/2+y,z
1/2-x,1/2+y,1/2-z
1/2-x,1/2-y,-z
1/2+x,1/2-y,1/2+z
loop_
_atom_site_type_symbol
_atom_site_label
_atom_site_fract_x
_atom_site_fract_y
_atom_site_fract_z
Si Si1 0.768091 0.219962 0.265083
Si Si2 0.094639 0.675497 0.964675
Si Si3 0.672553 0.064508 0.751328
Si Si4 0.108043 0.195388 0.087449
Si Si5 0.885046 0.645334 0.217376
Si Si6 0.093346 0.464187 0.034052
Si Si7 0.609717 0.570255 0.917783
Si Si8 0.500000 0.477607 0.250000
O O1 0.845943 0.262939 0.093789
O O2 0.827350 0.181897 0.328924
O O3 0.671525 0.254699 0.430812
O O4 0.722429 0.173021 0.195690
O O5 0.136300 0.633420 0.780612
O O6 0.112618 0.635588 0.099677
O O7 0.978118 0.688482 0.070535
O O8 0.683223 0.042086 0.559895
O O9 0.774908 0.059287 0.728815
O O10 0.593500 0.026565 0.940795
O O11 0.000000 0.221530 0.250000
O O12 0.090534 0.135913 0.007125
O O13 0.898346 0.584386 0.110618
O O14 0.000000 0.455748 0.250000
O O15 0.558937 0.565170 0.804245
O O16 0.573209 0.519630 0.074842
#
# Coordination Sequence:
#
# PCOD8149922 Si02
#       8
#     8   8   8   8   8   8   8   4
#     4  11  24  44  70  98 132 189 232 288 347 414
#     4  11  24  44  67  98 140 179 227 288 340 417
#     4  12  24  42  68  99 137 178 225 283 347 419
#     4  11  23  42  70 100 136 175 237 291 346 411
#     4  11  25  43  68  99 138 177 228 287 347 411
#     4  12  25  41  69 102 139 179 225 280 352 422
#     4  11  22  45  65 101 135 178 230 290 339 424
#     4  10  24  42  72  94 138 180 226 282 358 398
#
# _framework density 23.006342
#
# number of rings (size 3 to 8) (size 9 to 14) (size 15 to 20)
#    0.000    0.800    3.333    4.000    3.733    0.533 
#    2.400    1.333    0.000    0.000    0.000    0.000 
#    0.000    0.000    0.000    0.000    0.000    0.000 
#
# Total GULP energy -371912.536295 kJ/mol
# GULP energy per Si atom -12397.084543 kJ/mol
# Density = 2.295398 g / cm^3
# Si number density = 23.006342 Si / 1000 Ang^3
#
#
#
# Elastic Constant Matrix: (Units=GPa)
#
#
# Indices 1 2 3 4 5 6 
#
# 1 115.7495 26.2451 20.7937 0.0000 4.8024 0.0000
# 2 26.2451 74.1376 16.7362 0.0000 1.6498 0.0000
# 3 20.7937 16.7362 69.8608 0.0000 7.1053 0.0000
# 4 0.0000 0.0000 0.0000 36.6527 0.0000 4.1838
# 5 4.8024 1.6498 7.1053 0.0000 47.6537 0.0000
# 6 0.0000 0.0000 0.0000 4.1838 0.0000 40.8099
#
#
#
# Elastic Compliance Matrix: (Units=1/GPa)
#
#
# Indices 1 2 3 4 5 6 
#
# 1 0.009713 -0.002945 -0.002128 0.000000 -0.000560 0.000000
# 2 -0.002945 0.015153 -0.002772 0.000000 0.000186 0.000000
# 3 -0.002128 -0.002772 0.015820 0.000000 -0.002048 0.000000
# 4 0.000000 0.000000 0.000000 0.027606 0.000000 -0.002830
# 5 -0.000560 0.000186 -0.002048 0.000000 0.021340 0.000000
# 6 0.000000 0.000000 0.000000 -0.002830 0.000000 0.024794
#
#
# Mechanical properties :
#
#
# Convention : Reuss Voigt Hill
#
# Bulk Modulus (GPa) = 40.01041 43.03310 41.52176
# Shear Modulus (GPa) = 36.11424 38.08811 37.10118
#
# Velocity S-wave (km/s) = 3.96631 4.07326 4.02014
# Velocity P-wave (km/s) = 6.19712 6.39276 6.29570
#
# Compressibility (1/GPa) = 0.02499349
#
# Stress axis : x y z
#
# Youngs Moduli (GPa) = 102.95720 65.99428 63.21047
#
# Poissons Ratio (x) = 0.19438 0.13454
# Poissons Ratio (y) = 0.30325 0.17524
# Poissons Ratio (z) = 0.21914 0.18295
#
# Static dielectric constant tensor:
#      x y z
#    x 4.623090 0.000000 0.112190 
#    y 0.000000 3.803990 0.000000 
#    z 0.112190 0.000000 4.160680 
# 
# 
# High freq. dielectric constant tensor:
#      x y z
#    x 1.932150 0.000000 0.002120 
#    y 0.000000 1.895140 0.000000 
#    z 0.002120 0.000000 1.905090 
# 
# From -- ./inp_files/50630.got.cif
#   From: 2010.06.25/outbox.cif.g09.slc.cpg/sg15_26_cif.got.tgz:50630.got - 2010.06.28 07:06:18.
