data_PCOD8149063
_publ_section_title
;
Structure prediction by ZEFSAII (Michael W. Deem and Ramdas Pophale) SiO2 
 PCOD8149063
Probable space group: C 2/C
;
_chemical_formula_sum "Si O2"
_cell_formula_units_Z 56
_cell_length_a 18.001424
_cell_length_b 5.051519
_cell_length_c 28.886361
_cell_angle_alpha 90.000000
_cell_angle_beta 118.523486
_cell_angle_gamma 90.000000
_cell_volume 2307.934541
_symmetry_space_group_name_H-M "C 2/C"
_symmetry_group_IT_number 15
_symmetry_cell_setting 'monoclinic'
loop_
_space_group_symop_operation_xyz
x,y,z
-x,y,1/2-z
-x,-y,-z
x,-y,1/2+z
1/2+x,1/2+y,z
1/2-x,1/2+y,1/2-z
1/2-x,1/2-y,-z
1/2+x,1/2-y,1/2+z
loop_
_atom_site_type_symbol
_atom_site_label
_atom_site_fract_x
_atom_site_fract_y
_atom_site_fract_z
Si Si1 0.406383 0.963396 0.991228
Si Si2 0.806004 0.023674 0.436503
Si Si3 0.764955 0.527153 0.179738
Si Si4 0.863505 0.867016 0.284817
Si Si5 0.411051 0.690482 0.221461
Si Si6 0.946158 0.823595 0.151913
Si Si7 0.130385 0.337322 0.416184
O O1 0.352822 0.234617 0.975139
O O2 0.367512 0.727980 0.948338
O O3 0.500000 0.000000 0.000000
O O4 0.409606 0.878395 0.045518
O O5 0.779652 0.150715 0.378632
O O6 0.730705 0.900771 0.445849
O O7 0.815898 0.715847 0.229087
O O8 0.694679 0.370047 0.187733
O O9 0.832480 0.334850 0.174386
O O10 0.954826 0.768461 0.328711
O O11 0.882068 0.151166 0.266569
O O12 0.500000 0.854791 0.250000
O O13 0.430689 0.415141 0.200369
O O14 0.907924 0.535903 0.133180
O O15 0.898065 0.039187 0.105487
#
# Coordination Sequence:
#
# PCOD8149063 Si02
#       7
#     8   8   8   8   8   8   8
#     4  12  29  50  76 108 144 182 243 308 375 429
#     4  12  27  48  78 105 144 192 240 301 361 436
#     4  12  25  42  72 102 149 186 245 287 359 419
#     4  11  26  41  68 105 150 190 236 292 355 418
#     4  10  23  44  64 101 142 191 235 286 344 419
#     4  11  26  44  75 108 144 194 235 294 349 438
#     4  12  25  49  77 106 143 184 245 293 368 424
#
# _framework density 24.264120999999999
#
# number of rings (size 3 to 8) (size 9 to 14) (size 15 to 20)
#    0.000    0.571    2.857    3.857   10.000    0.571 
#    0.000    0.000    0.000    0.000    0.000    0.000 
#    0.000    0.000    0.000    0.000    0.000    0.000 
#
# Total GULP energy -346946.019364 kJ/mol
# GULP energy per Si atom -12390.929263 kJ/mol
# Density = 2.420889 g / cm^3
# Si number density = 24.264121 Si / 1000 Ang^3
#
#
#
# Elastic Constant Matrix: (Units=GPa)
#
#
# Indices 1 2 3 4 5 6 
#
# 1 159.5594 20.3239 41.4280 0.0010 3.3428 -0.0006
# 2 20.3239 61.1118 5.8549 0.0016 8.7163 -0.0012
# 3 41.4280 5.8549 75.3985 0.0006 -1.8849 -0.0001
# 4 0.0010 0.0016 0.0006 52.3246 -0.0002 8.0310
# 5 3.3428 8.7163 -1.8849 -0.0002 39.8314 0.0007
# 6 -0.0006 -0.0012 -0.0001 8.0310 0.0007 28.5933
#
#
#
# Elastic Compliance Matrix: (Units=1/GPa)
#
#
# Indices 1 2 3 4 5 6 
#
# 1 0.007583 -0.002084 -0.004014 0.000000 -0.000370 0.000000
# 2 -0.002084 0.017614 -0.000315 -0.000001 -0.003694 0.000001
# 3 -0.004014 -0.000315 0.015521 0.000000 0.001140 0.000000
# 4 0.000000 -0.000001 0.000000 0.019972 0.000000 -0.005610
# 5 -0.000370 -0.003694 0.001140 0.000000 0.025999 -0.000001
# 6 0.000000 0.000001 0.000000 -0.005610 -0.000001 0.036549
#
#
# Mechanical properties :
#
#
# Convention : Reuss Voigt Hill
#
# Bulk Modulus (GPa) = 35.85300 47.92038 41.88669
# Shear Modulus (GPa) = 34.39706 39.38072 36.88889
#
# Velocity S-wave (km/s) = 3.76920 4.03302 3.90334
# Velocity P-wave (km/s) = 5.80954 6.44045 6.13311
#
# Compressibility (1/GPa) = 0.02789167
#
# Stress axis : x y z
#
# Youngs Moduli (GPa) = 131.88027 56.77376 64.42813
#
# Poissons Ratio (x) = 0.11834 0.25860
# Poissons Ratio (y) = 0.27489 0.02028
# Poissons Ratio (z) = 0.52933 0.01787
#
# Static dielectric constant tensor:
#      x y z
#    x 4.800720 0.000000 0.140720 
#    y 0.000000 4.218200 0.000000 
#    z 0.140720 0.000000 4.469940 
# 
# 
# High freq. dielectric constant tensor:
#      x y z
#    x 1.985210 0.000000 0.007550 
#    y 0.000000 1.951900 0.000000 
#    z 0.007550 0.000000 1.972440 
# 
# From -- ./inp_files/315134.got.cif
#   From: 2010.06.25/outbox.cif.g09.slc.cpg/sg15_158_cif.got.tgz:315134.got - 2010.06.28 07:06:18.
