data_PCOD8149889
_publ_section_title
;
Structure prediction by ZEFSAII (Michael W. Deem and Ramdas Pophale) SiO2 
 PCOD8149889
Probable space group: C 2/C
;
_chemical_formula_sum "Si O2"
_cell_formula_units_Z 48
_cell_length_a 24.338887
_cell_length_b 9.101252
_cell_length_c 10.526378
_cell_angle_alpha 90.000000
_cell_angle_beta 110.869907
_cell_angle_gamma 90.000000
_cell_volume 2178.762004
_symmetry_space_group_name_H-M "C 2/C"
_symmetry_group_IT_number 15
_symmetry_cell_setting 'monoclinic'
loop_
_space_group_symop_operation_xyz
x,y,z
-x,y,1/2-z
-x,-y,-z
x,-y,1/2+z
1/2+x,1/2+y,z
1/2-x,1/2+y,1/2-z
1/2-x,1/2-y,-z
1/2+x,1/2-y,1/2+z
loop_
_atom_site_type_symbol
_atom_site_label
_atom_site_fract_x
_atom_site_fract_y
_atom_site_fract_z
Si Si1 0.721024 0.015842 0.192127
Si Si2 0.307935 0.846030 0.079380
Si Si3 0.000000 0.000518 0.750000
Si Si4 0.920819 0.751035 0.290419
Si Si5 0.000000 0.498995 0.250000
Si Si6 0.707861 0.720862 0.849079
Si Si7 0.423556 0.250092 0.578462
O O1 0.690714 0.921865 0.280690
O O2 0.782772 0.942554 0.200231
O O3 0.732139 0.176148 0.256394
O O4 0.684440 0.032353 0.028619
O O5 0.367310 0.748064 0.125945
O O6 0.250000 0.750000 0.000000
O O7 0.959607 0.104783 0.802226
O O8 0.960536 0.898479 0.628006
O O9 0.955245 0.601740 0.289797
O O10 0.859543 0.757276 0.162148
O O11 0.899053 0.748194 0.416482
O O12 0.964133 0.393972 0.126168
O O13 0.750000 0.750000 0.000000
#
# Coordination Sequence:
#
# PCOD8149889 Si02
#       7
#     8   8   4   8   4   8   8
#     4  12  24  43  66 102 137 177 225 271 346 406
#     4  12  25  43  70 104 138 180 222 286 344 409
#     4  10  26  42  68  98 128 178 234 276 338 396
#     4  11  23  45  67  95 136 178 224 284 332 409
#     4  10  24  42  68  98 128 174 234 278 332 394
#     4  12  26  41  68 102 138 178 226 278 344 406
#     4  11  23  44  69  95 136 174 228 277 343 399
#
# _framework density 22.030859
#
# number of rings (size 3 to 8) (size 9 to 14) (size 15 to 20)
#    0.000    0.667    5.000    2.000    2.333    1.333 
#    0.000    0.000    0.000    0.000    0.000    0.000 
#    0.000    0.000    0.000    0.000    0.000    0.000 
#
# Total GULP energy -297449.235675 kJ/mol
# GULP energy per Si atom -12393.718153 kJ/mol
# Density = 2.198072 g / cm^3
# Si number density = 22.030859 Si / 1000 Ang^3
#
#
#
# Elastic Constant Matrix: (Units=GPa)
#
#
# Indices 1 2 3 4 5 6 
#
# 1 140.2601 55.7623 50.9990 0.0000 17.6639 0.0000
# 2 55.7623 123.4654 23.6506 0.0000 10.3956 0.0000
# 3 50.9990 23.6506 99.9868 0.0000 0.3121 0.0000
# 4 0.0000 0.0000 0.0000 23.3964 0.0000 -6.4674
# 5 17.6639 10.3956 0.3121 0.0000 41.9504 0.0000
# 6 0.0000 0.0000 0.0000 -6.4674 0.0000 22.2076
#
#
#
# Elastic Compliance Matrix: (Units=1/GPa)
#
#
# Indices 1 2 3 4 5 6 
#
# 1 0.010696 -0.003653 -0.004581 0.000000 -0.003564 0.000000
# 2 -0.003653 0.009919 -0.000480 0.000000 -0.000916 0.000000
# 3 -0.004581 -0.000480 0.012445 0.000000 0.001955 0.000000
# 4 0.000000 0.000000 0.000000 0.046484 0.000000 0.013537
# 5 -0.003564 -0.000916 0.001955 0.000000 0.025551 0.000000
# 6 0.000000 0.000000 0.000000 0.013537 0.000000 0.048972
#
#
# Mechanical properties :
#
#
# Convention : Reuss Voigt Hill
#
# Bulk Modulus (GPa) = 63.96905 69.39289 66.68097
# Shear Modulus (GPa) = 28.29576 33.06425 30.68000
#
# Velocity S-wave (km/s) = 3.58770 3.87824 3.73579
# Velocity P-wave (km/s) = 6.80156 7.18476 6.99578
#
# Compressibility (1/GPa) = 0.01563256
#
# Stress axis : x y z
#
# Youngs Moduli (GPa) = 93.48879 100.82157 80.35343
#
# Poissons Ratio (x) = 0.36834 0.36806
# Poissons Ratio (y) = 0.34156 0.03855
# Poissons Ratio (z) = 0.42823 0.04837
#
# Static dielectric constant tensor:
#      x y z
#    x 4.006900 0.000000 -0.125850 
#    y 0.000000 4.333920 0.000000 
#    z -0.125850 0.000000 4.061160 
# 
# 
# High freq. dielectric constant tensor:
#      x y z
#    x 1.869470 0.000000 -0.003190 
#    y 0.000000 1.879090 0.000000 
#    z -0.003190 0.000000 1.864980 
# 
# From -- ./inp_files/121657.got.cif
#   From: 2010.06.25/outbox.cif.g09.slc.cpg/sg15_61_cif.got.tgz:121657.got - 2010.06.28 07:06:18.
