data_PCOD8149944
_publ_section_title
;
Structure prediction by ZEFSAII (Michael W. Deem and Ramdas Pophale) SiO2 
 PCOD8149944
Probable space group: C 2/C
;
_chemical_formula_sum "Si O2"
_cell_formula_units_Z 44
_cell_length_a 8.740706
_cell_length_b 12.066803
_cell_length_c 25.589027
_cell_angle_alpha 90.000000
_cell_angle_beta 132.162231
_cell_angle_gamma 90.000000
_cell_volume 2000.578470
_symmetry_space_group_name_H-M "C 2/C"
_symmetry_group_IT_number 15
_symmetry_cell_setting 'monoclinic'
loop_
_space_group_symop_operation_xyz
x,y,z
-x,y,1/2-z
-x,-y,-z
x,-y,1/2+z
1/2+x,1/2+y,z
1/2-x,1/2+y,1/2-z
1/2-x,1/2-y,-z
1/2+x,1/2-y,1/2+z
loop_
_atom_site_type_symbol
_atom_site_label
_atom_site_fract_x
_atom_site_fract_y
_atom_site_fract_z
Si Si1 0.655064 0.144505 0.506237
Si Si2 0.324766 0.439245 0.491414
Si Si3 0.458035 0.367513 0.343287
Si Si4 0.752108 0.756035 0.396090
Si Si5 0.087826 0.883709 0.648467
Si Si6 0.000000 0.739687 0.250000
O O1 0.750000 0.250000 0.500000
O O2 0.415904 0.171816 0.462045
O O3 0.794432 0.127600 0.589905
O O4 0.663072 0.031525 0.474300
O O5 0.500000 0.500000 0.500000
O O6 0.206415 0.356437 0.425519
O O7 0.443360 0.374849 0.564422
O O8 0.338429 0.298887 0.360657
O O9 0.373553 0.492287 0.322507
O O10 0.415247 0.313982 0.277734
O O11 0.537902 0.689901 0.337518
O O12 0.312205 0.835517 0.686995
#
# Coordination Sequence:
#
# PCOD8149944 Si02
#       6
#     8   8   8   8   8   4
#     4   9  18  35  65  94 127 158 195 265 327 376
#     4  11  19  38  68 102 129 158 208 263 335 394
#     4  10  24  43  63  91 127 166 217 261 314 383
#     4  11  22  39  68  98 129 162 206 267 333 377
#     4  11  26  43  66  95 129 172 216 264 321 381
#     4  12  28  44  64  86 128 182 226 256 310 382
#
# _framework density 21.993639999999999
#
# number of rings (size 3 to 8) (size 9 to 14) (size 15 to 20)
#    0.000    1.455    5.455    1.636    2.545    8.000 
#    0.000    0.000    0.000    0.000    0.000    0.000 
#    0.000    0.000    0.000    0.000    0.000    0.000 
#
# Total GULP energy -272759.899652 kJ/mol
# GULP energy per Si atom -12398.177257 kJ/mol
# Density = 2.194358 g / cm^3
# Si number density = 21.993640 Si / 1000 Ang^3
#
#
#
# Elastic Constant Matrix: (Units=GPa)
#
#
# Indices 1 2 3 4 5 6 
#
# 1 84.6691 47.2617 39.5659 0.0000 4.1132 0.0000
# 2 47.2617 110.3542 32.8653 0.0000 -8.8460 0.0000
# 3 39.5659 32.8653 54.9484 0.0000 -13.6660 0.0000
# 4 0.0000 0.0000 0.0000 19.1998 0.0000 1.1426
# 5 4.1132 -8.8460 -13.6660 0.0000 38.7753 0.0000
# 6 0.0000 0.0000 0.0000 1.1426 0.0000 34.5413
#
#
#
# Elastic Compliance Matrix: (Units=1/GPa)
#
#
# Indices 1 2 3 4 5 6 
#
# 1 0.022524 -0.005927 -0.014911 0.000000 -0.008997 0.000000
# 2 -0.005927 0.012587 -0.002620 0.000000 0.002577 0.000000
# 3 -0.014911 -0.002620 0.033702 0.000000 0.012862 0.000000
# 4 0.000000 0.000000 0.000000 0.052187 0.000000 -0.001726
# 5 -0.008997 0.002577 0.012862 0.000000 0.031865 0.000000
# 6 0.000000 0.000000 0.000000 -0.001726 0.000000 0.029008
#
#
# Mechanical properties :
#
#
# Convention : Reuss Voigt Hill
#
# Bulk Modulus (GPa) = 45.66882 54.37305 50.02094
# Shear Modulus (GPa) = 21.17866 27.18853 24.18359
#
# Velocity S-wave (km/s) = 3.10650 3.51978 3.31958
# Velocity P-wave (km/s) = 5.80317 6.42606 6.12254
#
# Compressibility (1/GPa) = 0.02189678
#
# Stress axis : x y z
#
# Youngs Moduli (GPa) = 44.39689 79.44825 29.67216
#
# Poissons Ratio (x) = 0.47088 0.44245
# Poissons Ratio (y) = 0.26313 0.07774
# Poissons Ratio (z) = 0.66201 0.20814
#
# Static dielectric constant tensor:
#      x y z
#    x 9.981610 0.000000 -0.935440 
#    y 0.000000 4.522460 0.000000 
#    z -0.935440 0.000000 4.011320 
# 
# 
# High freq. dielectric constant tensor:
#      x y z
#    x 1.864140 0.000000 0.003180 
#    y 0.000000 1.884820 0.000000 
#    z 0.003180 0.000000 1.834220 
# 
# From -- ./inp_files/230307.got.cif
#   From: 2010.06.25/outbox.cif.g09.slc.cpg/sg15_116_cif.got.tgz:230307.got - 2010.06.28 07:06:18.
