data_PCOD8149278
_publ_section_title
;
Structure prediction by ZEFSAII (Michael W. Deem and Ramdas Pophale) SiO2 
 PCOD8149278
Probable space group: C 2/C
;
_chemical_formula_sum "Si O2"
_cell_formula_units_Z 56
_cell_length_a 24.739528
_cell_length_b 17.090360
_cell_length_c 9.459322
_cell_angle_alpha 90.000000
_cell_angle_beta 138.121949
_cell_angle_gamma 90.000000
_cell_volume 2669.836841
_symmetry_space_group_name_H-M "C 2/C"
_symmetry_group_IT_number 15
_symmetry_cell_setting 'monoclinic'
loop_
_space_group_symop_operation_xyz
x,y,z
-x,y,1/2-z
-x,-y,-z
x,-y,1/2+z
1/2+x,1/2+y,z
1/2-x,1/2+y,1/2-z
1/2-x,1/2-y,-z
1/2+x,1/2-y,1/2+z
loop_
_atom_site_type_symbol
_atom_site_label
_atom_site_fract_x
_atom_site_fract_y
_atom_site_fract_z
Si Si1 0.500000 0.295589 0.250000
Si Si2 0.086158 0.921502 0.880728
Si Si3 0.722627 0.146560 0.057249
Si Si4 0.919803 0.388406 0.031543
Si Si5 0.500000 0.035920 0.250000
Si Si6 0.106697 0.334838 0.820737
Si Si7 0.392839 0.423087 0.903456
Si Si8 0.243258 0.822289 0.189358
O O1 0.441001 0.243352 0.230869
O O2 0.551763 0.348336 0.456226
O O3 0.093447 0.944352 0.731980
O O4 0.000000 0.880009 0.750000
O O5 0.160065 0.865660 0.069675
O O6 0.085431 0.002507 0.962797
O O7 0.801182 0.099766 0.259816
O O8 0.722773 0.232827 0.122152
O O9 0.645080 0.103771 0.969128
O O10 0.715961 0.144470 0.874143
O O11 0.000000 0.344431 0.250000
O O12 0.944917 0.478596 0.043360
O O13 0.883218 0.340295 0.828766
O O14 0.443186 0.088975 0.234903
O O15 0.195317 0.334217 0.062155
#
# Coordination Sequence:
#
# PCOD8149278 Si02
#       8
#     4   8   8   8   4   8   8   8
#     4  11  24  42  74  91 130 170 224 277 330 390
#     4  11  25  43  69  97 130 176 224 275 330 395
#     4  10  23  45  63  94 138 167 221 272 335 380
#     4  10  25  40  65 101 133 172 212 275 321 388
#     4   9  24  42  66  95 136 170 214 267 330 396
#     4  11  23  43  69 100 127 176 222 264 333 401
#     4  11  24  46  66  96 131 176 221 279 330 388
#     4  10  24  42  69  94 130 180 215 270 332 393
#
# _framework density 20.975064
#
# number of rings (size 3 to 8) (size 9 to 14) (size 15 to 20)
#    0.429    1.143    2.143    0.857    6.000    3.429 
#    0.000    0.000    0.000    0.000    0.000    0.000 
#    0.000    0.000    0.000    0.000    0.000    0.000 
#
# Total GULP energy -347179.092903 kJ/mol
# GULP energy per Si atom -12399.253318 kJ/mol
# Density = 2.092732 g / cm^3
# Si number density = 20.975064 Si / 1000 Ang^3
#
#
#
# Elastic Constant Matrix: (Units=GPa)
#
#
# Indices 1 2 3 4 5 6 
#
# 1 131.7992 42.8403 68.8436 0.0000 26.5631 0.0000
# 2 42.8403 55.3971 29.7522 0.0000 14.2499 0.0000
# 3 68.8436 29.7522 146.4205 0.0000 14.2472 0.0000
# 4 0.0000 0.0000 0.0000 18.7866 0.0000 6.0968
# 5 26.5631 14.2499 14.2472 0.0000 34.1064 0.0000
# 6 0.0000 0.0000 0.0000 6.0968 0.0000 20.1241
#
#
#
# Elastic Compliance Matrix: (Units=1/GPa)
#
#
# Indices 1 2 3 4 5 6 
#
# 1 0.013029 -0.006300 -0.004289 0.000000 -0.005724 0.000000
# 2 -0.006300 0.025067 -0.001657 0.000000 -0.004875 0.000000
# 3 -0.004289 -0.001657 0.009163 0.000000 0.000205 0.000000
# 4 0.000000 0.000000 0.000000 0.059034 0.000000 -0.017885
# 5 -0.005724 -0.004875 0.000205 0.000000 0.035729 0.000000
# 6 0.000000 0.000000 0.000000 -0.017885 0.000000 0.055110
#
#
# Mechanical properties :
#
#
# Convention : Reuss Voigt Hill
#
# Bulk Modulus (GPa) = 43.92285 68.49877 56.21081
# Shear Modulus (GPa) = 21.81385 27.41545 24.61465
#
# Velocity S-wave (km/s) = 3.22839 3.61924 3.42938
# Velocity P-wave (km/s) = 5.90615 7.08472 6.52211
#
# Compressibility (1/GPa) = 0.02276719
#
# Stress axis : x y z
#
# Youngs Moduli (GPa) = 76.75336 39.89258 109.13538
#
# Poissons Ratio (x) = 0.25132 0.46806
# Poissons Ratio (y) = 0.48354 0.18086
# Poissons Ratio (z) = 0.32918 0.06611
#
# Static dielectric constant tensor:
#      x y z
#    x 3.760160 0.000000 0.175480 
#    y 0.000000 3.716780 0.000000 
#    z 0.175480 0.000000 3.874500 
# 
# 
# High freq. dielectric constant tensor:
#      x y z
#    x 1.828090 0.000000 0.009120 
#    y 0.000000 1.821600 0.000000 
#    z 0.009120 0.000000 1.825270 
# 
# From -- ./inp_files/62814.got.cif
#   From: 2010.06.25/outbox.cif.g09.slc.cpg/sg15_32_cif.got.tgz:62814.got - 2010.06.28 07:06:18.
