data_PCOD8149974
_publ_section_title
;
Structure prediction by ZEFSAII (Michael W. Deem and Ramdas Pophale) SiO2 
 PCOD8149974
Probable space group: C 2/C
;
_chemical_formula_sum "Si O2"
_cell_formula_units_Z 48
_cell_length_a 20.990049
_cell_length_b 11.939513
_cell_length_c 11.712245
_cell_angle_alpha 90.000000
_cell_angle_beta 48.618650
_cell_angle_gamma 90.000000
_cell_volume 2202.370478
_symmetry_space_group_name_H-M "C 2/C"
_symmetry_group_IT_number 15
_symmetry_cell_setting 'monoclinic'
loop_
_space_group_symop_operation_xyz
x,y,z
-x,y,1/2-z
-x,-y,-z
x,-y,1/2+z
1/2+x,1/2+y,z
1/2-x,1/2+y,1/2-z
1/2-x,1/2-y,-z
1/2+x,1/2-y,1/2+z
loop_
_atom_site_type_symbol
_atom_site_label
_atom_site_fract_x
_atom_site_fract_y
_atom_site_fract_z
Si Si1 0.387402 0.258677 0.662869
Si Si2 0.077465 0.333531 0.944398
Si Si3 0.178383 0.036962 0.392152
Si Si4 0.331078 0.947443 0.102692
Si Si5 0.401167 0.330652 0.891458
Si Si6 0.309697 0.151136 0.392932
O O1 0.480447 0.204103 0.556295
O O2 0.380750 0.360407 0.579368
O O3 0.327323 0.158151 0.693646
O O4 0.356276 0.304240 0.823235
O O5 0.094845 0.465037 0.948650
O O6 0.116332 0.300804 0.775845
O O7 0.125108 0.266739 0.989126
O O8 0.252706 0.063951 0.392670
O O9 0.233725 0.992651 0.218659
O O10 0.119166 0.948556 0.525647
O O11 0.353917 0.908197 0.948172
O O12 0.500000 0.332370 0.750000
O O13 0.250000 0.250000 0.500000
#
# Coordination Sequence:
#
# PCOD8149974 Si02
#       6
#     8   8   8   8   8   8
#     4  11  24  46  66 100 135 176 228 276 340 403
#     4  10  25  42  68  99 133 180 221 279 334 401
#     4  11  24  41  69 100 127 179 222 279 339 397
#     4  11  24  42  68  98 136 176 225 278 338 399
#     4  10  24  43  66  96 136 174 222 275 333 403
#     4  11  22  42  63 100 134 171 224 273 335 399
#
# _framework density 21.794698
#
# number of rings (size 3 to 8) (size 9 to 14) (size 15 to 20)
#    0.000    1.333    1.667    2.500    7.000    5.333 
#    3.000    0.000    0.000    0.000    0.000    0.000 
#    0.000    0.000    0.000    0.000    0.000    0.000 
#
# Total GULP energy -297526.807290 kJ/mol
# GULP energy per Si atom -12396.950304 kJ/mol
# Density = 2.174509 g / cm^3
# Si number density = 21.794698 Si / 1000 Ang^3
#
#
#
# Elastic Constant Matrix: (Units=GPa)
#
#
# Indices 1 2 3 4 5 6 
#
# 1 88.9496 43.8725 33.9529 0.0000 18.6731 0.0000
# 2 43.8725 145.5050 51.2089 0.0000 13.0102 0.0000
# 3 33.9529 51.2089 121.4445 0.0000 14.1342 0.0000
# 4 0.0000 0.0000 0.0000 39.9747 0.0000 3.1767
# 5 18.6731 13.0102 14.1342 0.0000 25.7830 0.0000
# 6 0.0000 0.0000 0.0000 3.1767 0.0000 32.7512
#
#
#
# Elastic Compliance Matrix: (Units=1/GPa)
#
#
# Indices 1 2 3 4 5 6 
#
# 1 0.015327 -0.003177 -0.001966 0.000000 -0.008420 0.000000
# 2 -0.003177 0.008865 -0.002774 0.000000 -0.000652 0.000000
# 3 -0.001966 -0.002774 0.010281 0.000000 -0.002813 0.000000
# 4 0.000000 0.000000 0.000000 0.025210 0.000000 -0.002445
# 5 -0.008420 -0.000652 -0.002813 0.000000 0.046754 0.000000
# 6 0.000000 0.000000 0.000000 -0.002445 0.000000 0.030770
#
#
# Mechanical properties :
#
#
# Convention : Reuss Voigt Hill
#
# Bulk Modulus (GPa) = 53.64791 68.21864 60.93327
# Shear Modulus (GPa) = 31.39643 34.82609 33.11126
#
# Velocity S-wave (km/s) = 3.79958 4.00173 3.90196
# Velocity P-wave (km/s) = 6.62704 7.26088 6.95119
#
# Compressibility (1/GPa) = 0.01864006
#
# Stress axis : x y z
#
# Youngs Moduli (GPa) = 65.24410 112.80236 97.26864
#
# Poissons Ratio (x) = 0.35835 0.19119
# Poissons Ratio (y) = 0.20726 0.26983
# Poissons Ratio (z) = 0.12824 0.31292
#
# Static dielectric constant tensor:
#      x y z
#    x 3.600620 0.000000 -0.167660 
#    y 0.000000 3.702600 0.000000 
#    z -0.167660 0.000000 3.459450 
# 
# 
# High freq. dielectric constant tensor:
#      x y z
#    x 1.853240 0.000000 0.013640 
#    y 0.000000 1.867060 0.000000 
#    z 0.013640 0.000000 1.861570 
# 
# From -- ./inp_files/111426.got.cif
#   From: 2010.06.25/outbox.cif.g09.slc.cpg/sg15_56_cif.got.tgz:111426.got - 2010.06.28 07:06:18.
