data_PCOD8149525
_publ_section_title
;
Structure prediction by ZEFSAII (Michael W. Deem and Ramdas Pophale) SiO2 
 PCOD8149525
Probable space group: C 2/C
;
_chemical_formula_sum "Si O2"
_cell_formula_units_Z 64
_cell_length_a 9.573583
_cell_length_b 20.490662
_cell_length_c 32.192992
_cell_angle_alpha 90.000000
_cell_angle_beta 152.366203
_cell_angle_gamma 90.000000
_cell_volume 2929.139739
_symmetry_space_group_name_H-M "C 2/C"
_symmetry_group_IT_number 15
_symmetry_cell_setting 'monoclinic'
loop_
_space_group_symop_operation_xyz
x,y,z
-x,y,1/2-z
-x,-y,-z
x,-y,1/2+z
1/2+x,1/2+y,z
1/2-x,1/2+y,1/2-z
1/2-x,1/2-y,-z
1/2+x,1/2-y,1/2+z
loop_
_atom_site_type_symbol
_atom_site_label
_atom_site_fract_x
_atom_site_fract_y
_atom_site_fract_z
Si Si1 0.800081 0.397606 0.303934
Si Si2 0.416128 0.117086 0.133190
Si Si3 0.700761 0.578028 0.990742
Si Si4 0.518826 0.317317 0.710060
Si Si5 0.363277 0.828202 0.171200
Si Si6 0.193003 0.930993 0.999601
Si Si7 0.270513 0.914175 0.928728
Si Si8 0.792029 0.505945 0.235523
O O1 0.500000 0.380648 0.250000
O O2 0.744965 0.440612 0.248715
O O3 0.935322 0.333395 0.317701
O O4 0.038492 0.431672 0.396809
O O5 0.611022 0.181942 0.197846
O O6 0.577854 0.058751 0.199262
O O7 0.068741 0.119283 0.055781
O O8 0.418337 0.104590 0.084328
O O9 0.445999 0.632186 0.916148
O O10 0.564384 0.505956 0.964861
O O11 0.906503 0.567036 0.004604
O O12 0.500000 0.355189 0.750000
O O13 0.338620 0.249750 0.668624
O O14 0.362392 0.351787 0.630034
O O15 0.500000 0.856413 0.250000
O O16 0.320083 0.900850 0.990457
O O17 0.040466 0.974318 0.866473
O O18 0.000000 0.495576 0.250000
#
# Coordination Sequence:
#
# PCOD8149525 Si02
#       8
#     8   8   8   8   8   8   8   8
#     4  12  26  43  64  98 147 181 224 287 362 409
#     4  11  21  41  68  96 133 178 219 286 332 415
#     4  12  23  43  70 100 142 174 229 282 353 422
#     4  10  23  48  69  97 131 181 246 278 337 402
#     4  11  27  46  68  96 133 186 237 289 343 407
#     4  12  24  42  64 111 139 174 225 280 361 421
#     4  11  25  40  70 104 135 182 228 285 339 418
#     4  11  22  39  65 101 141 183 223 275 354 421
#
# _framework density 21.849416999999999
#
# number of rings (size 3 to 8) (size 9 to 14) (size 15 to 20)
#    0.000    0.750    5.000    2.625    3.500    0.500 
#    2.250    0.625    0.000    0.000    0.000    0.000 
#    0.000    0.000    0.000    0.000    0.000    0.000 
#
# Total GULP energy -396516.122589 kJ/mol
# GULP energy per Si atom -12391.128831 kJ/mol
# Density = 2.179969 g / cm^3
# Si number density = 21.849417 Si / 1000 Ang^3
#
#
#
# Elastic Constant Matrix: (Units=GPa)
#
#
# Indices 1 2 3 4 5 6 
#
# 1 130.1102 26.8670 40.5480 0.0049 4.7763 0.0046
# 2 26.8670 60.8629 32.8034 -0.0219 -4.0035 -0.0125
# 3 40.5480 32.8034 94.9239 -0.0058 3.9670 -0.0057
# 4 0.0049 -0.0219 -0.0058 -3.6065 -0.0131 -0.2387
# 5 4.7763 -4.0035 3.9670 -0.0131 50.6824 -0.0083
# 6 0.0046 -0.0125 -0.0057 -0.2387 -0.0083 21.6107
#
#
#
# Elastic Compliance Matrix: (Units=1/GPa)
#
#
# Indices 1 2 3 4 5 6 
#
# 1 0.009170 -0.002469 -0.003029 0.000036 -0.000822 -0.000004
# 2 -0.002469 0.021092 -0.006334 -0.000131 0.002395 0.000011
# 3 -0.003029 -0.006334 0.014073 0.000016 -0.001316 0.000000
# 4 0.000036 -0.000131 0.000016 -0.277071 -0.000087 -0.003060
# 5 -0.000822 0.002395 -0.001316 -0.000087 0.020100 0.000008
# 6 -0.000004 0.000011 0.000000 -0.003060 0.000008 0.046240
#
#
# Mechanical properties :
#
#
# Convention : Reuss Voigt Hill
#
# Bulk Modulus (GPa) = 48.38177 54.03709 51.20943
# Shear Modulus (GPa) = -36.80753 26.11589 -5.34582
#
# Velocity S-wave (km/s) = -4.10884 3.46101 -1.56588
# Velocity P-wave (km/s) = 0.56458 6.38410 4.49656
#
# Compressibility (1/GPa) = 0.02066894
#
# Stress axis : x y z
#
# Youngs Moduli (GPa) = 109.05196 47.41188 71.05944
#
# Poissons Ratio (x) = 0.11707 0.21527
# Poissons Ratio (y) = 0.26928 0.45010
# Poissons Ratio (z) = 0.33036 0.30031
#
# Static dielectric constant tensor:
#      x y z
#    x 4.350750 0.000000 -0.121190 
#    y 0.000000 3.586140 -0.000040 
#    z -0.121190 -0.000040 4.223510 
# 
# 
# High freq. dielectric constant tensor:
#      x y z
#    x 1.877330 0.000000 -0.011810 
#    y 0.000000 1.820610 0.000000 
#    z -0.011810 0.000000 1.877310 
# 
# From -- ./inp_files/309138.got.cif
#   From: 2010.06.25/outbox.cif.g09.slc.cpg/sg15_155_cif.got.tgz:309138.got - 2010.06.28 07:06:18.
