data_PCOD8149884
_publ_section_title
;
Structure prediction by ZEFSAII (Michael W. Deem and Ramdas Pophale) SiO2 
 PCOD8149884
Probable space group: C 2/C
;
_chemical_formula_sum "Si O2"
_cell_formula_units_Z 44
_cell_length_a 16.924291
_cell_length_b 9.431256
_cell_length_c 13.839755
_cell_angle_alpha 90.000000
_cell_angle_beta 85.736732
_cell_angle_gamma 90.000000
_cell_volume 2202.952129
_symmetry_space_group_name_H-M "C 2/C"
_symmetry_group_IT_number 15
_symmetry_cell_setting 'monoclinic'
loop_
_space_group_symop_operation_xyz
x,y,z
-x,y,1/2-z
-x,-y,-z
x,-y,1/2+z
1/2+x,1/2+y,z
1/2-x,1/2+y,1/2-z
1/2-x,1/2-y,-z
1/2+x,1/2-y,1/2+z
loop_
_atom_site_type_symbol
_atom_site_label
_atom_site_fract_x
_atom_site_fract_y
_atom_site_fract_z
Si Si1 0.500000 0.242440 0.250000
Si Si2 0.495906 0.660268 0.535952
Si Si3 0.322225 0.295067 0.058902
Si Si4 0.351558 0.922700 0.710048
Si Si5 0.142801 0.336249 0.442084
Si Si6 0.750220 0.578156 0.397281
O O1 0.498884 0.338945 0.347029
O O2 0.574204 0.138190 0.239035
O O3 0.500000 0.500000 0.500000
O O4 0.411662 0.729644 0.510311
O O5 0.563994 0.755267 0.482297
O O6 0.310614 0.205497 0.156574
O O7 0.317271 0.463597 0.074493
O O8 0.250000 0.250000 0.000000
O O9 0.287720 0.973124 0.793527
O O10 0.378644 0.051515 0.638940
O O11 0.181438 0.420808 0.527657
O O12 0.208265 0.229871 0.393127
#
# Coordination Sequence:
#
# PCOD8149884 Si02
#       6
#     4   8   8   8   8   8
#     4  10  24  42  68  96 134 182 216 296 334 402
#     4  11  23  46  68  97 140 178 229 275 346 406
#     4  11  23  41  65  98 130 175 214 281 333 391
#     4  11  23  41  68  97 135 172 230 275 343 399
#     4  11  23  41  72  96 131 188 219 280 339 407
#     4  11  22  42  64 100 136 171 231 273 335 404
#
# _framework density 19.973199000000001
#
# number of rings (size 3 to 8) (size 9 to 14) (size 15 to 20)
#    0.000    1.091    5.455    1.091    0.000    4.364 
#    6.545    0.909    0.000    0.000    0.000    0.000 
#    0.000    0.000    0.000    0.000    0.000    0.000 
#
# Total GULP energy -272765.737529 kJ/mol
# GULP energy per Si atom -12398.442615 kJ/mol
# Density = 1.992774 g / cm^3
# Si number density = 19.973199 Si / 1000 Ang^3
#
#
#
# Elastic Constant Matrix: (Units=GPa)
#
#
# Indices 1 2 3 4 5 6 
#
# 1 132.4344 28.8227 56.3852 0.0000 2.3690 0.0000
# 2 28.8227 99.5968 49.1109 0.0000 0.2278 0.0000
# 3 56.3852 49.1109 109.6622 0.0000 -11.9458 0.0000
# 4 0.0000 0.0000 0.0000 37.4474 0.0000 -2.4558
# 5 2.3690 0.2278 -11.9458 0.0000 32.5400 0.0000
# 6 0.0000 0.0000 0.0000 -2.4558 0.0000 35.9856
#
#
#
# Elastic Compliance Matrix: (Units=1/GPa)
#
#
# Indices 1 2 3 4 5 6 
#
# 1 0.009894 -0.000265 -0.005257 0.000000 -0.002648 0.000000
# 2 -0.000265 0.013061 -0.005959 0.000000 -0.002260 0.000000
# 3 -0.005257 -0.005959 0.015142 0.000000 0.005983 0.000000
# 4 0.000000 0.000000 0.000000 0.026824 0.000000 0.001831
# 5 -0.002648 -0.002260 0.005983 0.000000 0.033137 0.000000
# 6 0.000000 0.000000 0.000000 0.001831 0.000000 0.027914
#
#
# Mechanical properties :
#
#
# Convention : Reuss Voigt Hill
#
# Bulk Modulus (GPa) = 66.07154 67.81455 66.94305
# Shear Modulus (GPa) = 32.47187 35.01957 33.74572
#
# Velocity S-wave (km/s) = 4.03646 4.19182 4.11487
# Velocity P-wave (km/s) = 7.40783 7.57990 7.49436
#
# Compressibility (1/GPa) = 0.01513511
#
# Stress axis : x y z
#
# Youngs Moduli (GPa) = 101.06882 76.56553 66.03938
#
# Poissons Ratio (x) = 0.02029 0.34718
# Poissons Ratio (y) = 0.02678 0.39353
# Poissons Ratio (z) = 0.53134 0.45625
#
# Static dielectric constant tensor:
#      x y z
#    x 3.585060 0.000000 -0.032130 
#    y 0.000000 3.213260 0.000000 
#    z -0.032130 0.000000 3.551700 
# 
# 
# High freq. dielectric constant tensor:
#      x y z
#    x 1.793940 0.000000 -0.002100 
#    y 0.000000 1.785440 0.000000 
#    z -0.002100 0.000000 1.772760 
# 
# From -- ./inp_files/159307.got.cif
#   From: 2010.06.25/outbox.cif.g09.slc.cpg/sg15_80_cif.got.tgz:159307.got - 2010.06.28 07:06:18.
