data_PCOD8149674
_publ_section_title
;
Structure prediction by ZEFSAII (Michael W. Deem and Ramdas Pophale) SiO2 
 PCOD8149674
Probable space group: C 2/C
;
_chemical_formula_sum "Si O2"
_cell_formula_units_Z 40
_cell_length_a 13.390706
_cell_length_b 18.347821
_cell_length_c 8.286363
_cell_angle_alpha 90.000000
_cell_angle_beta 62.042228
_cell_angle_gamma 90.000000
_cell_volume 1798.278246
_symmetry_space_group_name_H-M "C 2/C"
_symmetry_group_IT_number 15
_symmetry_cell_setting 'monoclinic'
loop_
_space_group_symop_operation_xyz
x,y,z
-x,y,1/2-z
-x,-y,-z
x,-y,1/2+z
1/2+x,1/2+y,z
1/2-x,1/2+y,1/2-z
1/2-x,1/2-y,-z
1/2+x,1/2-y,1/2+z
loop_
_atom_site_type_symbol
_atom_site_label
_atom_site_fract_x
_atom_site_fract_y
_atom_site_fract_z
Si Si1 0.219697 0.954031 0.164710
Si Si2 0.381761 0.204568 0.039612
Si Si3 0.466014 0.651200 0.598676
Si Si4 0.202786 0.103690 0.321701
Si Si5 0.910699 0.629250 0.704800
O O1 0.105047 0.923229 0.330101
O O2 0.327419 0.923590 0.177516
O O3 0.218138 0.041554 0.174197
O O4 0.229398 0.932421 0.972544
O O5 0.385034 0.290754 0.071481
O O6 0.289996 0.168882 0.227141
O O7 0.349933 0.187388 0.875034
O O8 0.509603 0.174478 0.980806
O O9 0.500000 0.680868 0.750000
O O10 0.576244 0.635108 0.408189
O O11 0.000000 0.582578 0.750000
#
# Coordination Sequence:
#
# PCOD8149674 Si02
#       5
#     8   8   8   8   8
#     4  11  23  43  65  94 131 170 214 263 321 381
#     4   9  22  41  64  94 129 164 215 263 317 375
#     4  10  24  40  66  96 131 170 214 260 322 382
#     4  11  24  42  67  95 130 171 214 263 318 384
#     4   8  22  42  60  98 125 163 214 259 320 372
#
# _framework density 22.243500999999998
#
# number of rings (size 3 to 8) (size 9 to 14) (size 15 to 20)
#    1.200    0.800    0.000    1.800    5.600    3.200 
#   10.800    0.000    0.000    0.000    0.000    0.000 
#    0.000    0.000    0.000    0.000    0.000    0.000 
#
# Total GULP energy -247884.658112 kJ/mol
# GULP energy per Si atom -12394.232906 kJ/mol
# Density = 2.219287 g / cm^3
# Si number density = 22.243501 Si / 1000 Ang^3
#
#
#
# Elastic Constant Matrix: (Units=GPa)
#
#
# Indices 1 2 3 4 5 6 
#
# 1 75.5379 20.2620 18.6787 0.0000 2.0035 0.0000
# 2 20.2620 87.2043 9.0698 0.0000 6.8280 0.0000
# 3 18.6787 9.0698 68.4191 0.0000 -10.7876 0.0000
# 4 0.0000 0.0000 0.0000 29.6117 0.0000 -4.9975
# 5 2.0035 6.8280 -10.7876 0.0000 18.9910 0.0000
# 6 0.0000 0.0000 0.0000 -4.9975 0.0000 28.7419
#
#
#
# Elastic Compliance Matrix: (Units=1/GPa)
#
#
# Indices 1 2 3 4 5 6 
#
# 1 0.015123 -0.002842 -0.004220 0.000000 -0.002971 0.000000
# 2 -0.002842 0.012721 -0.001740 0.000000 -0.005262 0.000000
# 3 -0.004220 -0.001740 0.017758 0.000000 0.011158 0.000000
# 4 0.000000 0.000000 0.000000 0.034791 0.000000 0.006049
# 5 -0.002971 -0.005262 0.011158 0.000000 0.061200 0.000000
# 6 0.000000 0.000000 0.000000 0.006049 0.000000 0.035844
#
#
# Mechanical properties :
#
#
# Convention : Reuss Voigt Hill
#
# Bulk Modulus (GPa) = 35.71871 36.35358 36.03615
# Shear Modulus (GPa) = 24.46481 27.67896 26.07188
#
# Velocity S-wave (km/s) = 3.32002 3.53138 3.42733
# Velocity P-wave (km/s) = 5.54884 5.74512 5.64783
#
# Compressibility (1/GPa) = 0.02799653
#
# Stress axis : x y z
#
# Youngs Moduli (GPa) = 66.12370 78.61177 56.31293
#
# Poissons Ratio (x) = 0.22344 0.23766
# Poissons Ratio (y) = 0.18795 0.09799
# Poissons Ratio (z) = 0.27906 0.13679
#
# Static dielectric constant tensor:
#      x y z
#    x 3.894000 0.000000 -0.137320 
#    y 0.000000 3.692190 0.000000 
#    z -0.137320 0.000000 4.032100 
# 
# 
# High freq. dielectric constant tensor:
#      x y z
#    x 1.874190 0.000000 -0.014630 
#    y 0.000000 1.858980 0.000000 
#    z -0.014630 0.000000 1.877680 
# 
# From -- ./inp_files/38951.got.cif
#   From: 2010.06.25/outbox.cif.g09.slc.cpg/sg15_20_cif.got.tgz:38951.got - 2010.06.28 07:06:18.
