data_PCOD8149769
_publ_section_title
;
Structure prediction by ZEFSAII (Michael W. Deem and Ramdas Pophale) SiO2 
 PCOD8149769
Probable space group: C 2/C
;
_chemical_formula_sum "Si O2"
_cell_formula_units_Z 40
_cell_length_a 25.628559
_cell_length_b 12.095808
_cell_length_c 10.873154
_cell_angle_alpha 90.000000
_cell_angle_beta 148.462555
_cell_angle_gamma 90.000000
_cell_volume 1763.041518
_symmetry_space_group_name_H-M "C 2/C"
_symmetry_group_IT_number 15
_symmetry_cell_setting 'monoclinic'
loop_
_space_group_symop_operation_xyz
x,y,z
-x,y,1/2-z
-x,-y,-z
x,-y,1/2+z
1/2+x,1/2+y,z
1/2-x,1/2+y,1/2-z
1/2-x,1/2-y,-z
1/2+x,1/2-y,1/2+z
loop_
_atom_site_type_symbol
_atom_site_label
_atom_site_fract_x
_atom_site_fract_y
_atom_site_fract_z
Si Si1 0.801277 0.722527 0.976305
Si Si2 0.062811 0.076315 0.761917
Si Si3 0.060126 0.516717 0.251064
Si Si4 0.694391 0.816708 0.544206
Si Si5 0.867344 0.882713 0.735848
O O1 0.715983 0.733932 0.700953
O O2 0.750000 0.750000 0.000000
O O3 0.882640 0.810811 0.095526
O O4 0.850305 0.602861 0.088822
O O5 0.000000 0.028240 0.750000
O O6 0.984120 0.110073 0.499518
O O7 0.145967 0.986344 0.884739
O O8 0.105490 0.401749 0.390929
O O9 0.000000 0.560856 0.250000
O O10 0.000000 0.500000 0.000000
O O11 0.790583 0.891336 0.696052
O O12 0.653797 0.738587 0.356299
#
# Coordination Sequence:
#
# PCOD8149769 Si02
#       5
#     8   8   8   8   8
#     4  12  26  43  73 100 140 182 238 285 352 418
#     4  11  22  42  67 101 136 176 227 281 344 407
#     4  12  28  47  73 104 148 190 236 293 362 427
#     4  11  25  44  69 100 140 179 235 282 347 414
#     4  10  24  41  70  97 138 177 224 284 344 405
#
# _framework density 22.688063
#
# number of rings (size 3 to 8) (size 9 to 14) (size 15 to 20)
#    0.000    0.800    2.000    4.200    8.400    4.000 
#    0.000    0.000    0.000    0.000    0.000    0.000 
#    0.000    0.000    0.000    0.000    0.000    0.000 
#
# Total GULP energy -247865.702446 kJ/mol
# GULP energy per Si atom -12393.285122 kJ/mol
# Density = 2.263642 g / cm^3
# Si number density = 22.688063 Si / 1000 Ang^3
#
#
#
# Elastic Constant Matrix: (Units=GPa)
#
#
# Indices 1 2 3 4 5 6 
#
# 1 135.0081 22.1162 34.7872 0.0000 -10.3319 0.0000
# 2 22.1162 105.8845 46.1974 0.0000 -1.4421 0.0000
# 3 34.7872 46.1974 95.6370 0.0000 -9.9135 0.0000
# 4 0.0000 0.0000 0.0000 49.4167 0.0000 8.8641
# 5 -10.3319 -1.4421 -9.9135 0.0000 33.0439 0.0000
# 6 0.0000 0.0000 0.0000 8.8641 0.0000 35.3710
#
#
#
# Elastic Compliance Matrix: (Units=1/GPa)
#
#
# Indices 1 2 3 4 5 6 
#
# 1 0.008298 -0.000600 -0.002541 0.000000 0.001806 0.000000
# 2 -0.000600 0.012060 -0.005751 0.000000 -0.001387 0.000000
# 3 -0.002541 -0.005751 0.014501 0.000000 0.003305 0.000000
# 4 0.000000 0.000000 0.000000 0.021189 0.000000 -0.005310
# 5 0.001806 -0.001387 0.003305 0.000000 0.031758 0.000000
# 6 0.000000 0.000000 0.000000 -0.005310 0.000000 0.029602
#
#
# Mechanical properties :
#
#
# Convention : Reuss Voigt Hill
#
# Bulk Modulus (GPa) = 58.56629 60.30347 59.43488
# Shear Modulus (GPa) = 35.48994 39.12825 37.30909
#
# Velocity S-wave (km/s) = 3.95936 4.15736 4.05957
# Velocity P-wave (km/s) = 6.83899 7.04854 6.94455
#
# Compressibility (1/GPa) = 0.01707467
#
# Stress axis : x y z
#
# Youngs Moduli (GPa) = 120.50673 82.91991 68.95953
#
# Poissons Ratio (x) = 0.04974 0.17526
# Poissons Ratio (y) = 0.07228 0.39659
# Poissons Ratio (z) = 0.30627 0.47688
#
# Static dielectric constant tensor:
#      x y z
#    x 4.182820 0.000000 0.111770 
#    y 0.000000 4.158510 0.000000 
#    z 0.111770 0.000000 4.686630 
# 
# 
# High freq. dielectric constant tensor:
#      x y z
#    x 1.899260 0.000000 -0.002330 
#    y 0.000000 1.899700 0.000000 
#    z -0.002330 0.000000 1.898210 
# 
# From -- ./inp_files/122838.got.cif
#   From: 2010.06.25/outbox.cif.g09.slc.cpg/sg15_62_cif.got.tgz:122838.got - 2010.06.28 07:06:18.
