data_PCOD8149012
_publ_section_title
;
Structure prediction by ZEFSAII (Michael W. Deem and Ramdas Pophale) SiO2 
 PCOD8149012
Probable space group: C 2/C
;
_chemical_formula_sum "Si O2"
_cell_formula_units_Z 36
_cell_length_a 15.577168
_cell_length_b 21.975351
_cell_length_c 8.989858
_cell_angle_alpha 90.000000
_cell_angle_beta 148.225046
_cell_angle_gamma 90.000000
_cell_volume 1620.484953
_symmetry_space_group_name_H-M "C 2/C"
_symmetry_group_IT_number 15
_symmetry_cell_setting 'monoclinic'
loop_
_space_group_symop_operation_xyz
x,y,z
-x,y,1/2-z
-x,-y,-z
x,-y,1/2+z
1/2+x,1/2+y,z
1/2-x,1/2+y,1/2-z
1/2-x,1/2-y,-z
1/2+x,1/2-y,1/2+z
loop_
_atom_site_type_symbol
_atom_site_label
_atom_site_fract_x
_atom_site_fract_y
_atom_site_fract_z
Si Si1 0.084537 0.769458 0.677110
Si Si2 0.731350 0.206935 0.331803
Si Si3 0.296064 0.950545 0.090164
Si Si4 0.837746 0.427233 0.811882
Si Si5 0.500000 0.376467 0.750000
O O1 0.118918 0.775487 0.553439
O O2 0.944795 0.719881 0.503245
O O3 0.013311 0.834009 0.624897
O O4 0.250000 0.750000 0.000000
O O5 0.750000 0.250000 0.500000
O O6 0.735943 0.134607 0.366450
O O7 0.467683 0.921511 0.389201
O O8 0.290165 0.021694 0.121977
O O9 0.263445 0.942086 0.865765
O O10 0.160635 0.917804 0.991490
#
# Coordination Sequence:
#
# PCOD8149012 Si02
#       5
#     8   8   8   8   4
#     4  12  24  44  71 103 136 189 233 281 350 424
#     4  12  26  45  67 104 143 178 226 295 353 408
#     4  10  23  43  71  99 131 186 236 284 344 412
#     4  10  23  46  68  95 138 184 230 285 350 419
#     4  12  22  40  74 100 132 180 246 280 336 420
#
# _framework density 22.21557
#
# number of rings (size 3 to 8) (size 9 to 14) (size 15 to 20)
#    0.000    0.889    4.444    2.000    3.111    2.667 
#   16.000    0.000    0.000    0.000    0.000    0.000 
#    0.000    0.000    0.000    0.000    0.000    0.000 
#
# Total GULP energy -223195.507089 kJ/mol
# GULP energy per Si atom -12399.750394 kJ/mol
# Density = 2.216501 g / cm^3
# Si number density = 22.215570 Si / 1000 Ang^3
#
#
#
# Elastic Constant Matrix: (Units=GPa)
#
#
# Indices 1 2 3 4 5 6 
#
# 1 168.3051 63.9051 39.4683 0.0000 5.7402 0.0000
# 2 63.9051 159.1022 41.1576 0.0000 -8.7948 0.0000
# 3 39.4683 41.1576 54.2196 0.0000 -2.7127 0.0000
# 4 0.0000 0.0000 0.0000 25.3891 0.0000 -3.0271
# 5 5.7402 -8.7948 -2.7127 0.0000 39.7291 0.0000
# 6 0.0000 0.0000 0.0000 -3.0271 0.0000 49.0033
#
#
#
# Elastic Compliance Matrix: (Units=1/GPa)
#
#
# Indices 1 2 3 4 5 6 
#
# 1 0.007797 -0.002169 -0.004123 0.000000 -0.001888 0.000000
# 2 -0.002169 0.008495 -0.004776 0.000000 0.001868 0.000000
# 3 -0.004123 -0.004776 0.025133 0.000000 0.001255 0.000000
# 4 0.000000 0.000000 0.000000 0.039679 0.000000 0.002451
# 5 -0.001888 0.001868 0.001255 0.000000 0.025942 0.000000
# 6 0.000000 0.000000 0.000000 0.002451 0.000000 0.020558
#
#
# Mechanical properties :
#
#
# Convention : Reuss Voigt Hill
#
# Bulk Modulus (GPa) = 51.84607 74.52098 63.18353
# Shear Modulus (GPa) = 32.01604 38.63070 35.32337
#
# Velocity S-wave (km/s) = 3.80037 4.17454 3.99184
# Velocity P-wave (km/s) = 6.53035 7.54009 7.05331
#
# Compressibility (1/GPa) = 0.01928786
#
# Stress axis : x y z
#
# Youngs Moduli (GPa) = 128.26125 117.71065 39.78798
#
# Poissons Ratio (x) = 0.25536 0.16405
# Poissons Ratio (y) = 0.27825 0.19003
# Poissons Ratio (z) = 0.52884 0.56221
#
# Static dielectric constant tensor:
#      x y z
#    x 4.424350 0.000000 0.320760 
#    y 0.000000 4.130800 0.000000 
#    z 0.320760 0.000000 3.858720 
# 
# 
# High freq. dielectric constant tensor:
#      x y z
#    x 1.895360 0.000000 0.015340 
#    y 0.000000 1.882020 0.000000 
#    z 0.015340 0.000000 1.855110 
# 
# From -- ./inp_files/41319.got.cif
#   From: 2010.06.25/outbox.cif.g09.slc.cpg/sg15_21_cif.got.tgz:41319.got - 2010.06.28 07:06:18.
