data_PCOD8149712
_publ_section_title
;
Structure prediction by ZEFSAII (Michael W. Deem and Ramdas Pophale) SiO2 
 PCOD8149712
Probable space group: C 2/C
;
_chemical_formula_sum "Si O2"
_cell_formula_units_Z 40
_cell_length_a 19.663401
_cell_length_b 8.799758
_cell_length_c 24.798117
_cell_angle_alpha 90.000000
_cell_angle_beta 24.383021
_cell_angle_gamma 90.000000
_cell_volume 1771.430408
_symmetry_space_group_name_H-M "C 2/C"
_symmetry_group_IT_number 15
_symmetry_cell_setting 'monoclinic'
loop_
_space_group_symop_operation_xyz
x,y,z
-x,y,1/2-z
-x,-y,-z
x,-y,1/2+z
1/2+x,1/2+y,z
1/2-x,1/2+y,1/2-z
1/2-x,1/2-y,-z
1/2+x,1/2-y,1/2+z
loop_
_atom_site_type_symbol
_atom_site_label
_atom_site_fract_x
_atom_site_fract_y
_atom_site_fract_z
Si Si1 0.199066 0.654625 0.332129
Si Si2 0.655332 0.191918 0.877379
Si Si3 0.818242 0.782916 0.371924
Si Si4 0.703031 0.000075 0.542119
Si Si5 0.497197 0.710585 0.313802
O O1 0.279671 0.705265 0.218007
O O2 0.156041 0.479056 0.355597
O O3 0.324053 0.682478 0.290774
O O4 0.028807 0.741141 0.470603
O O5 0.779736 0.211939 0.836952
O O6 0.809708 0.608322 0.396945
O O7 0.000000 0.848485 0.250000
O O8 0.699352 0.894466 0.491443
O O9 0.547297 0.111429 0.647815
O O10 0.863222 0.102416 0.438738
O O11 0.500000 0.662237 0.250000
#
# Coordination Sequence:
#
# PCOD8149712 Si02
#       5
#     8   8   8   8   8
#     4  11  28  47  73 107 149 191 237 300 365 430
#     4  11  28  48  72 107 148 192 240 297 363 432
#     4  11  24  45  70 102 136 187 238 296 350 424
#     4  10  24  40  73  99 137 178 247 289 357 415
#     4  11  24  44  69 104 137 185 237 296 352 424
#
# _framework density 22.580622999999999
#
# number of rings (size 3 to 8) (size 9 to 14) (size 15 to 20)
#    0.000    1.200    0.000    3.600   19.600    2.400 
#    0.000    0.000    0.000    0.000    0.000    0.000 
#    0.000    0.000    0.000    0.000    0.000    0.000 
#
# Total GULP energy -248094.389652 kJ/mol
# GULP energy per Si atom -12404.719483 kJ/mol
# Density = 2.252923 g / cm^3
# Si number density = 22.580623 Si / 1000 Ang^3
#
#
#
# Elastic Constant Matrix: (Units=GPa)
#
#
# Indices 1 2 3 4 5 6 
#
# 1 144.9879 -0.1433 38.5112 -0.0033 1.0187 0.0000
# 2 -0.1433 93.7988 13.4439 0.0002 11.1206 0.0003
# 3 38.5112 13.4439 104.1914 0.0098 -0.1330 0.0009
# 4 -0.0033 0.0002 0.0098 33.2633 -0.0014 6.7760
# 5 1.0187 11.1206 -0.1330 -0.0014 44.7311 -0.0004
# 6 0.0000 0.0003 0.0009 6.7760 -0.0004 31.7786
#
#
#
# Elastic Compliance Matrix: (Units=1/GPa)
#
#
# Indices 1 2 3 4 5 6 
#
# 1 0.007668 0.000462 -0.002894 0.000002 -0.000298 0.000000
# 2 0.000462 0.011227 -0.001623 0.000000 -0.002807 0.000000
# 3 -0.002894 -0.001623 0.010878 -0.000004 0.000502 0.000000
# 4 0.000002 0.000000 -0.000004 0.031428 0.000001 -0.006701
# 5 -0.000298 -0.002807 0.000502 0.000001 0.023062 0.000000
# 6 0.000000 0.000000 0.000000 -0.006701 0.000000 0.032897
#
#
# Mechanical properties :
#
#
# Convention : Reuss Voigt Hill
#
# Bulk Modulus (GPa) = 46.16309 49.62241 47.89275
# Shear Modulus (GPa) = 37.73823 41.36568 39.55195
#
# Velocity S-wave (km/s) = 4.09255 4.28473 4.18974
# Velocity P-wave (km/s) = 6.54370 6.81923 6.68288
#
# Compressibility (1/GPa) = 0.02166233
#
# Stress axis : x y z
#
# Youngs Moduli (GPa) = 130.40395 89.06966 91.93209
#
# Poissons Ratio (x) = -0.04114 0.26609
# Poissons Ratio (y) = -0.06023 0.14920
# Poissons Ratio (z) = 0.37744 0.14456
#
# Static dielectric constant tensor:
#      x y z
#    x 3.858150 0.000000 -0.005980 
#    y 0.000000 4.187890 0.000010 
#    z -0.005980 0.000010 4.386910 
# 
# 
# High freq. dielectric constant tensor:
#      x y z
#    x 1.882280 0.000000 0.004480 
#    y 0.000000 1.902370 0.000000 
#    z 0.004480 0.000000 1.902930 
# 
# From -- ./inp_files/276730.got.cif
#   From: 2010.06.25/outbox.cif.g09.slc.cpg/sg15_139_cif.got.tgz:276730.got - 2010.06.28 07:06:18.
