data_PCOD8149183
_publ_section_title
;
Structure prediction by ZEFSAII (Michael W. Deem and Ramdas Pophale) SiO2 
 PCOD8149183
Probable space group: C 2/C
;
_chemical_formula_sum "Si O2"
_cell_formula_units_Z 40
_cell_length_a 12.464405
_cell_length_b 14.499731
_cell_length_c 15.901213
_cell_angle_alpha 90.000000
_cell_angle_beta 39.305600
_cell_angle_gamma 90.000000
_cell_volume 1820.449146
_symmetry_space_group_name_H-M "C 2/C"
_symmetry_group_IT_number 15
_symmetry_cell_setting 'monoclinic'
loop_
_space_group_symop_operation_xyz
x,y,z
-x,y,1/2-z
-x,-y,-z
x,-y,1/2+z
1/2+x,1/2+y,z
1/2-x,1/2+y,1/2-z
1/2-x,1/2-y,-z
1/2+x,1/2-y,1/2+z
loop_
_atom_site_type_symbol
_atom_site_label
_atom_site_fract_x
_atom_site_fract_y
_atom_site_fract_z
Si Si1 0.000000 0.636091 0.250000
Si Si2 0.160794 0.821833 0.455572
Si Si3 0.130318 0.207672 0.792207
Si Si4 0.028033 0.677413 0.837139
Si Si5 0.721317 0.015156 0.527883
Si Si6 0.000000 0.060656 0.750000
O O1 0.914004 0.697874 0.229226
O O2 0.851497 0.575848 0.382583
O O3 0.062175 0.792428 0.430426
O O4 0.367323 0.811386 0.315385
O O5 0.148746 0.929964 0.488347
O O6 0.104761 0.759789 0.567630
O O7 0.331773 0.188650 0.673261
O O8 0.036292 0.122261 0.808595
O O9 0.938115 0.578357 0.902780
O O10 0.831572 0.995985 0.377017
#
# Coordination Sequence:
#
# PCOD8149183 Si02
#       6
#     4   8   8   8   8   4
#     4  11  22  44  73  92 138 170 217 274 332 373
#     4  10  23  44  69  96 131 173 216 269 330 390
#     4   9  25  44  67  99 133 178 213 270 333 399
#     4  10  23  44  69  96 131 173 216 269 330 390
#     4  12  25  45  67 102 131 171 221 280 312 397
#     4  11  28  38  67 100 140 168 225 262 338 375
#
# _framework density 21.972598999999999
#
# number of rings (size 3 to 8) (size 9 to 14) (size 15 to 20)
#    1.200    0.400    2.000    0.600    8.400    3.200 
#    7.200    0.000    0.000    0.000    0.000    0.000 
#    0.000    0.000    0.000    0.000    0.000    0.000 
#
# Total GULP energy -247792.150471 kJ/mol
# GULP energy per Si atom -12389.607524 kJ/mol
# Density = 2.192259 g / cm^3
# Si number density = 21.972599 Si / 1000 Ang^3
#
#
#
# Elastic Constant Matrix: (Units=GPa)
#
#
# Indices 1 2 3 4 5 6 
#
# 1 81.3474 52.5430 21.7161 -0.0005 3.3407 0.0001
# 2 52.5430 142.3248 60.0723 -0.0002 9.6525 0.0002
# 3 21.7161 60.0723 147.1060 -0.0001 11.7149 0.0002
# 4 -0.0005 -0.0002 -0.0001 17.5677 0.0004 -2.6932
# 5 3.3407 9.6525 11.7149 0.0004 30.4420 -0.0002
# 6 0.0001 0.0002 0.0002 -2.6932 -0.0002 19.4392
#
#
#
# Elastic Compliance Matrix: (Units=1/GPa)
#
#
# Indices 1 2 3 4 5 6 
#
# 1 0.016143 -0.005990 0.000054 0.000000 0.000107 0.000000
# 2 -0.005990 0.010770 -0.003398 0.000000 -0.001450 0.000000
# 3 0.000054 -0.003398 0.008348 0.000000 -0.002141 0.000000
# 4 0.000000 0.000000 0.000000 0.058158 -0.000001 0.008058
# 5 0.000107 -0.001450 -0.002141 -0.000001 0.034121 0.000000
# 6 0.000000 0.000000 0.000000 0.008058 0.000000 0.052559
#
#
# Mechanical properties :
#
#
# Convention : Reuss Voigt Hill
#
# Bulk Modulus (GPa) = 60.26424 71.04902 65.65663
# Shear Modulus (GPa) = 24.47405 29.25289 26.86347
#
# Velocity S-wave (km/s) = 3.34105 3.65270 3.50035
# Velocity P-wave (km/s) = 6.50923 7.08485 6.80313
#
# Compressibility (1/GPa) = 0.01659359
#
# Stress axis : x y z
#
# Youngs Moduli (GPa) = 61.94674 92.84856 119.78813
#
# Poissons Ratio (x) = 0.55615 -0.00652
# Poissons Ratio (y) = 0.37105 0.40709
# Poissons Ratio (z) = -0.00337 0.31554
#
# Static dielectric constant tensor:
#      x y z
#    x 4.020750 0.000000 -0.038660 
#    y 0.000000 3.790940 0.000000 
#    z -0.038660 0.000000 3.998300 
# 
# 
# High freq. dielectric constant tensor:
#      x y z
#    x 1.873890 0.000000 -0.000630 
#    y 0.000000 1.856630 0.000000 
#    z -0.000630 0.000000 1.877580 
# 
# From -- ./inp_files/205626.got.cif
#   From: 2010.06.25/outbox.cif.g09.slc.cpg/sg15_103_cif.got.tgz:205626.got - 2010.06.28 07:06:18.
