data_PCOD8149888
_publ_section_title
;
Structure prediction by ZEFSAII (Michael W. Deem and Ramdas Pophale) SiO2 
 PCOD8149888
Probable space group: C 2/C
;
_chemical_formula_sum "Si O2"
_cell_formula_units_Z 32
_cell_length_a 29.827844
_cell_length_b 5.114490
_cell_length_c 9.484184
_cell_angle_alpha 90.000000
_cell_angle_beta 108.860620
_cell_angle_gamma 90.000000
_cell_volume 1369.167471
_symmetry_space_group_name_H-M "C 2/C"
_symmetry_group_IT_number 15
_symmetry_cell_setting 'monoclinic'
loop_
_space_group_symop_operation_xyz
x,y,z
-x,y,1/2-z
-x,-y,-z
x,-y,1/2+z
1/2+x,1/2+y,z
1/2-x,1/2+y,1/2-z
1/2-x,1/2-y,-z
1/2+x,1/2-y,1/2+z
loop_
_atom_site_type_symbol
_atom_site_label
_atom_site_fract_x
_atom_site_fract_y
_atom_site_fract_z
Si Si1 0.126982 0.773602 0.658350
Si Si2 0.266373 0.759879 0.180090
Si Si3 0.918828 0.963916 0.136653
Si Si4 0.952671 0.523893 0.539320
O O1 0.177586 0.684999 0.766980
O O2 0.100263 0.983166 0.728795
O O3 0.093354 0.516886 0.609884
O O4 0.128502 0.922398 0.509195
O O5 0.257787 0.489047 0.253773
O O6 0.250000 0.750000 0.000000
O O7 0.951435 0.199232 0.114121
O O8 0.951063 0.702917 0.158935
O O9 0.000000 0.500000 0.500000
#
# Coordination Sequence:
#
# PCOD8149888 Si02
#       4
#     8   8   8   8
#     4  10  26  43  74  95 145 174 238 280 356 407
#     4  12  28  47  75 107 147 189 247 299 366 433
#     4  10  24  42  68  97 136 178 225 284 342 410
#     4  10  24  43  67  98 138 177 230 276 349 410
#
# _framework density 23.371866000000001
#
# number of rings (size 3 to 8) (size 9 to 14) (size 15 to 20)
#    1.500    0.000    0.000    3.000   10.500    1.000 
#    0.000    0.000    0.000    0.000    0.000    0.000 
#    0.000    0.000    0.000    0.000    0.000    0.000 
#
# Total GULP energy -198223.537512 kJ/mol
# GULP energy per Si atom -12388.971095 kJ/mol
# Density = 2.331867 g / cm^3
# Si number density = 23.371866 Si / 1000 Ang^3
#
#
#
# Elastic Constant Matrix: (Units=GPa)
#
#
# Indices 1 2 3 4 5 6 
#
# 1 110.1424 6.2917 2.1577 0.0000 7.9261 0.0000
# 2 6.2917 99.7606 8.7701 0.0000 6.5179 0.0000
# 3 2.1577 8.7701 101.0471 0.0000 -0.4665 0.0000
# 4 0.0000 0.0000 0.0000 25.3343 0.0000 -20.0602
# 5 7.9261 6.5179 -0.4665 0.0000 24.4685 0.0000
# 6 0.0000 0.0000 0.0000 -20.0602 0.0000 30.8656
#
#
#
# Elastic Compliance Matrix: (Units=1/GPa)
#
#
# Indices 1 2 3 4 5 6 
#
# 1 0.009315 -0.000381 -0.000179 0.000000 -0.002919 0.000000
# 2 -0.000381 0.010299 -0.000898 0.000000 -0.002637 0.000000
# 3 -0.000179 -0.000898 0.009980 0.000000 0.000488 0.000000
# 4 0.000000 0.000000 0.000000 0.081323 0.000000 0.052853
# 5 -0.002919 -0.002637 0.000488 0.000000 0.042526 0.000000
# 6 0.000000 0.000000 0.000000 0.052853 0.000000 0.066749
#
#
# Mechanical properties :
#
#
# Convention : Reuss Voigt Hill
#
# Bulk Modulus (GPa) = 37.48443 38.37657 37.93050
# Shear Modulus (GPa) = 21.55163 35.71572 28.63368
#
# Velocity S-wave (km/s) = 3.03993 3.91340 3.50399
# Velocity P-wave (km/s) = 5.32867 6.07250 5.71270
#
# Compressibility (1/GPa) = 0.02667774
#
# Stress axis : x y z
#
# Youngs Moduli (GPa) = 107.35945 97.09433 100.19647
#
# Poissons Ratio (x) = 0.03699 0.01797
# Poissons Ratio (y) = 0.04090 0.08997
# Poissons Ratio (z) = 0.01925 0.08718
#
# Static dielectric constant tensor:
#      x y z
#    x 3.974760 0.000000 0.102310 
#    y 0.000000 4.172470 0.000000 
#    z 0.102310 0.000000 4.336440 
# 
# 
# High freq. dielectric constant tensor:
#      x y z
#    x 1.914690 0.000000 0.000600 
#    y 0.000000 1.931130 0.000000 
#    z 0.000600 0.000000 1.935790 
# 
# From -- ./inp_files/68012.got.cif
#   From: 2010.06.25/outbox.cif.g09.slc.cpg/sg15_35_cif.got.tgz:68012.got - 2010.06.28 07:06:18.
