data_PCOD8149535
_publ_section_title
;
Structure prediction by ZEFSAII (Michael W. Deem and Ramdas Pophale) SiO2 
 PCOD8149535
Probable space group: C 2/C
;
_chemical_formula_sum "Si O2"
_cell_formula_units_Z 48
_cell_length_a 17.730134
_cell_length_b 11.157955
_cell_length_c 11.481965
_cell_angle_alpha 90.000000
_cell_angle_beta 79.319836
_cell_angle_gamma 90.000000
_cell_volume 2232.151361
_symmetry_space_group_name_H-M "C 2/C"
_symmetry_group_IT_number 15
_symmetry_cell_setting 'monoclinic'
loop_
_space_group_symop_operation_xyz
x,y,z
-x,y,1/2-z
-x,-y,-z
x,-y,1/2+z
1/2+x,1/2+y,z
1/2-x,1/2+y,1/2-z
1/2-x,1/2-y,-z
1/2+x,1/2-y,1/2+z
loop_
_atom_site_type_symbol
_atom_site_label
_atom_site_fract_x
_atom_site_fract_y
_atom_site_fract_z
Si Si1 0.157579 0.842684 0.291100
Si Si2 0.920492 0.316457 0.115140
Si Si3 0.316698 0.918180 0.337569
Si Si4 0.680254 0.821774 0.576026
Si Si5 0.913966 0.914182 0.757320
Si Si6 0.093378 0.260923 0.035948
O O1 0.245173 0.842279 0.309079
O O2 0.143091 0.759082 0.185486
O O3 0.100365 0.791241 0.404881
O O4 0.140402 0.976751 0.256667
O O5 0.886364 0.405865 0.223728
O O6 0.904160 0.178791 0.153930
O O7 0.012300 0.327720 0.079942
O O8 0.883638 0.348868 0.002299
O O9 0.342393 0.860505 0.453422
O O10 0.293163 0.054733 0.370593
O O11 0.750000 0.750000 0.500000
O O12 0.890189 0.850661 0.883715
O O13 0.000000 0.962242 0.750000
#
# Coordination Sequence:
#
# PCOD8149535 Si02
#       6
#     8   8   8   8   8   8
#     4  12  26  39  71 102 133 176 231 280 345 406
#     4  10  23  49  68  97 138 180 225 280 341 404
#     4  11  25  46  70  93 139 183 223 277 348 397
#     4  12  27  44  69 100 137 179 227 284 336 408
#     4   9  22  42  68  97 137 174 217 279 346 396
#     4  10  25  45  70  99 135 180 232 282 337 406
#
# _framework density 21.503917000000001
#
# number of rings (size 3 to 8) (size 9 to 14) (size 15 to 20)
#    0.000    1.333    1.667    3.000   11.667    2.000 
#    3.000    0.000    0.000    0.000    0.000    0.000 
#    0.000    0.000    0.000    0.000    0.000    0.000 
#
# Total GULP energy -297642.463264 kJ/mol
# GULP energy per Si atom -12401.769303 kJ/mol
# Density = 2.145497 g / cm^3
# Si number density = 21.503917 Si / 1000 Ang^3
#
#
#
# Elastic Constant Matrix: (Units=GPa)
#
#
# Indices 1 2 3 4 5 6 
#
# 1 85.7954 30.7638 30.8014 0.0000 -2.5140 0.0000
# 2 30.7638 101.2521 34.7252 0.0000 -3.1859 0.0000
# 3 30.8014 34.7252 117.7713 0.0000 -1.1643 0.0000
# 4 0.0000 0.0000 0.0000 24.7075 0.0000 5.8701
# 5 -2.5140 -3.1859 -1.1643 0.0000 37.2780 0.0000
# 6 0.0000 0.0000 0.0000 5.8701 0.0000 33.4935
#
#
#
# Elastic Compliance Matrix: (Units=1/GPa)
#
#
# Indices 1 2 3 4 5 6 
#
# 1 0.013791 -0.003268 -0.002638 0.000000 0.000568 0.000000
# 2 -0.003268 0.011788 -0.002614 0.000000 0.000705 0.000000
# 3 -0.002638 -0.002614 0.009951 0.000000 -0.000090 0.000000
# 4 0.000000 0.000000 0.000000 0.042232 0.000000 -0.007402
# 5 0.000568 0.000705 -0.000090 0.000000 0.026921 0.000000
# 6 0.000000 0.000000 0.000000 -0.007402 0.000000 0.031154
#
#
# Mechanical properties :
#
#
# Convention : Reuss Voigt Hill
#
# Bulk Modulus (GPa) = 54.08141 55.26661 54.67401
# Shear Modulus (GPa) = 31.43880 32.99770 32.21825
#
# Velocity S-wave (km/s) = 3.82776 3.92152 3.87492
# Velocity P-wave (km/s) = 6.68879 6.80154 6.74540
#
# Compressibility (1/GPa) = 0.01849064
#
# Stress axis : x y z
#
# Youngs Moduli (GPa) = 72.51129 84.83287 100.49473
#
# Poissons Ratio (x) = 0.27720 0.26508
# Poissons Ratio (y) = 0.23694 0.26270
# Poissons Ratio (z) = 0.19127 0.22176
#
# Static dielectric constant tensor:
#      x y z
#    x 3.859480 0.000000 0.150110 
#    y 0.000000 3.779500 0.000000 
#    z 0.150110 0.000000 4.246240 
# 
# 
# High freq. dielectric constant tensor:
#      x y z
#    x 1.848090 0.000000 0.008840 
#    y 0.000000 1.839160 0.000000 
#    z 0.008840 0.000000 1.849780 
# 
# From -- ./inp_files/103666.got.cif
#   From: 2010.06.25/outbox.cif.g09.slc.cpg/sg15_52_cif.got.tgz:103666.got - 2010.06.28 07:06:18.
