data_PCOD8149102
_publ_section_title
;
Structure prediction by ZEFSAII (Michael W. Deem and Ramdas Pophale) SiO2 
 PCOD8149102
Probable space group: C 2/C
;
_chemical_formula_sum "Si O2"
_cell_formula_units_Z 36
_cell_length_a 25.656823
_cell_length_b 11.821433
_cell_length_c 12.322392
_cell_angle_alpha 90.000000
_cell_angle_beta 22.271890
_cell_angle_gamma 90.000000
_cell_volume 1416.477723
_symmetry_space_group_name_H-M "C 2/C"
_symmetry_group_IT_number 15
_symmetry_cell_setting 'monoclinic'
loop_
_space_group_symop_operation_xyz
x,y,z
-x,y,1/2-z
-x,-y,-z
x,-y,1/2+z
1/2+x,1/2+y,z
1/2-x,1/2+y,1/2-z
1/2-x,1/2-y,-z
1/2+x,1/2-y,1/2+z
loop_
_atom_site_type_symbol
_atom_site_label
_atom_site_fract_x
_atom_site_fract_y
_atom_site_fract_z
Si Si1 0.500000 0.858156 0.250000
Si Si2 0.453691 0.775532 0.955778
Si Si3 0.836822 0.469350 0.922534
Si Si4 0.675790 0.654223 0.899699
Si Si5 0.889607 0.085011 0.251065
O O1 0.377387 0.778476 0.535757
O O2 0.437053 0.936731 0.278825
O O3 0.500000 0.719209 0.750000
O O4 0.573789 0.856919 0.773280
O O5 0.320720 0.846935 0.182818
O O6 0.405239 0.692291 0.142933
O O7 0.701594 0.434766 0.253980
O O8 0.764142 0.528798 0.959233
O O9 0.572280 0.614304 0.196489
O O10 0.000000 0.000000 0.000000
#
# Coordination Sequence:
#
# PCOD8149102 Si02
#       5
#     4   8   8   8   8
#     4  12  22  42  74  94 136 192 216 282 352 388
#     4  10  23  44  66  97 135 175 232 277 331 417
#     4  11  25  46  70 100 138 190 223 283 354 398
#     4  11  24  43  67 103 134 175 240 276 334 427
#     4  12  27  42  70 104 140 181 228 291 342 405
#
# _framework density 25.415156
#
# number of rings (size 3 to 8) (size 9 to 14) (size 15 to 20)
#    0.000    0.889    5.556    2.000    3.111    3.556 
#    0.000    0.000    0.000    0.000    0.000    0.000 
#    0.000    0.000    0.000    0.000    0.000    0.000 
#
# Total GULP energy -223028.369332 kJ/mol
# GULP energy per Si atom -12390.464963 kJ/mol
# Density = 2.535731 g / cm^3
# Si number density = 25.415156 Si / 1000 Ang^3
#
#
#
# Elastic Constant Matrix: (Units=GPa)
#
#
# Indices 1 2 3 4 5 6 
#
# 1 52.9513 20.1426 -12.0531 0.0000 2.3334 0.0000
# 2 20.1426 67.7384 27.9122 0.0000 -0.4545 0.0000
# 3 -12.0531 27.9122 83.3444 0.0000 2.4797 0.0000
# 4 0.0000 0.0000 0.0000 46.2073 0.0000 -26.7705
# 5 2.3334 -0.4545 2.4797 0.0000 45.1618 0.0000
# 6 0.0000 0.0000 0.0000 -26.7705 0.0000 23.7123
#
#
#
# Elastic Compliance Matrix: (Units=1/GPa)
#
#
# Indices 1 2 3 4 5 6 
#
# 1 0.024411 -0.010147 0.006980 0.000000 -0.001747 0.000000
# 2 -0.010147 0.021355 -0.008655 0.000000 0.001214 0.000000
# 3 0.006980 -0.008655 0.015946 0.000000 -0.001323 0.000000
# 4 0.000000 0.000000 0.000000 0.062562 0.000000 0.070631
# 5 -0.001747 0.001214 -0.001323 0.000000 0.022318 0.000000
# 6 0.000000 0.000000 0.000000 0.070631 0.000000 0.121912
#
#
# Mechanical properties :
#
#
# Convention : Reuss Voigt Hill
#
# Bulk Modulus (GPa) = 26.26867 30.67084 28.46976
# Shear Modulus (GPa) = 16.40224 34.21844 25.31034
#
# Velocity S-wave (km/s) = 2.54317 3.67329 3.15917
# Velocity P-wave (km/s) = 4.35682 5.48496 4.95312
#
# Compressibility (1/GPa) = 0.03806816
#
# Stress axis : x y z
#
# Youngs Moduli (GPa) = 40.96502 46.82828 62.71179
#
# Poissons Ratio (x) = 0.47516 -0.43776
# Poissons Ratio (y) = 0.41567 0.54279
# Poissons Ratio (z) = -0.28596 0.40531
#
# Static dielectric constant tensor:
#      x y z
#    x 5.504850 0.000000 -0.447780 
#    y 0.000000 4.223130 0.000000 
#    z -0.447780 0.000000 5.215800 
# 
# 
# High freq. dielectric constant tensor:
#      x y z
#    x 2.018410 0.000000 -0.024670 
#    y 0.000000 2.008140 0.000000 
#    z -0.024670 0.000000 2.039120 
# 
# From -- ./inp_files/181681.got.cif
#   From: 2010.06.25/outbox.cif.g09.slc.cpg/sg15_91_cif.got.tgz:181681.got - 2010.06.28 07:06:18.
