data_PCOD8149467
_publ_section_title
;
Structure prediction by ZEFSAII (Michael W. Deem and Ramdas Pophale) SiO2 
 PCOD8149467
Probable space group: C 2/C
;
_chemical_formula_sum "Si O2"
_cell_formula_units_Z 40
_cell_length_a 16.300638
_cell_length_b 20.697400
_cell_length_c 9.445493
_cell_angle_alpha 90.000000
_cell_angle_beta 33.082236
_cell_angle_gamma 90.000000
_cell_volume 1739.450769
_symmetry_space_group_name_H-M "C 2/C"
_symmetry_group_IT_number 15
_symmetry_cell_setting 'monoclinic'
loop_
_space_group_symop_operation_xyz
x,y,z
-x,y,1/2-z
-x,-y,-z
x,-y,1/2+z
1/2+x,1/2+y,z
1/2-x,1/2+y,1/2-z
1/2-x,1/2-y,-z
1/2+x,1/2-y,1/2+z
loop_
_atom_site_type_symbol
_atom_site_label
_atom_site_fract_x
_atom_site_fract_y
_atom_site_fract_z
Si Si1 0.239963 0.927781 0.968170
Si Si2 0.500000 0.325747 0.250000
Si Si3 0.875693 0.245123 0.697000
Si Si4 0.000000 0.032061 0.250000
Si Si5 0.272745 0.380232 0.214583
Si Si6 0.491573 0.118349 0.927832
O O1 0.384330 0.935751 0.656599
O O2 0.300935 0.907842 0.034792
O O3 0.148783 0.868123 0.036133
O O4 0.133503 0.990474 0.128371
O O5 0.482483 0.283010 0.418696
O O6 0.821206 0.194649 0.656635
O O7 0.923009 0.310977 0.554282
O O8 0.750000 0.250000 0.000000
O O9 0.924303 0.077925 0.475938
O O10 0.158200 0.387868 0.250635
O O11 0.500000 0.103017 0.750000
#
# Coordination Sequence:
#
# PCOD8149467 Si02
#       6
#     8   4   8   4   8   8
#     4  10  23  46  72  98 138 191 236 289 352 426
#     4   9  18  36  68  96 130 180 247 268 346 423
#     4  11  21  41  69 103 142 189 228 285 353 437
#     4  11  26  48  74 108 134 182 251 304 340 423
#     4  11  25  45  74 104 143 189 240 288 367 417
#     4  12  27  42  67 111 148 184 238 300 357 419
#
# _framework density 22.995764000000001
#
# number of rings (size 3 to 8) (size 9 to 14) (size 15 to 20)
#    0.000    1.200    4.000    2.400    1.400    8.000 
#    0.000    0.000    0.000    0.000    0.000    0.000 
#    0.000    0.000    0.000    0.000    0.000    0.000 
#
# Total GULP energy -247932.308485 kJ/mol
# GULP energy per Si atom -12396.615424 kJ/mol
# Density = 2.294342 g / cm^3
# Si number density = 22.995764 Si / 1000 Ang^3
#
#
#
# Elastic Constant Matrix: (Units=GPa)
#
#
# Indices 1 2 3 4 5 6 
#
# 1 150.1330 25.4495 50.9764 -0.0008 6.3622 0.0006
# 2 25.4495 90.8239 48.2830 0.0017 -11.3831 0.0007
# 3 50.9764 48.2830 130.2113 0.0046 10.5287 0.0021
# 4 -0.0008 0.0017 0.0046 33.7098 0.0009 -2.7805
# 5 6.3622 -11.3831 10.5287 0.0009 32.2859 -0.0017
# 6 0.0006 0.0007 0.0021 -2.7805 -0.0017 18.4088
#
#
#
# Elastic Compliance Matrix: (Units=1/GPa)
#
#
# Indices 1 2 3 4 5 6 
#
# 1 0.007744 -0.000903 -0.002617 0.000001 -0.000991 0.000000
# 2 -0.000903 0.015376 -0.005958 0.000000 0.007542 0.000001
# 3 -0.002617 -0.005958 0.011341 -0.000001 -0.005283 -0.000002
# 4 0.000001 0.000000 -0.000001 0.030039 0.000000 0.004537
# 5 -0.000991 0.007542 -0.005283 0.000000 0.035550 0.000004
# 6 0.000000 0.000001 -0.000002 0.004537 0.000004 0.055007
#
#
# Mechanical properties :
#
#
# Convention : Reuss Voigt Hill
#
# Bulk Modulus (GPa) = 64.49317 68.95401 66.72359
# Shear Modulus (GPa) = 27.90467 33.31152 30.60809
#
# Velocity S-wave (km/s) = 3.48727 3.81017 3.65229
# Velocity P-wave (km/s) = 6.65742 7.02902 6.84574
#
# Compressibility (1/GPa) = 0.01550552
#
# Stress axis : x y z
#
# Youngs Moduli (GPa) = 129.12601 65.03731 88.17864
#
# Poissons Ratio (x) = 0.05874 0.23075
# Poissons Ratio (y) = 0.11662 0.52534
# Poissons Ratio (z) = 0.33790 0.38747
#
# Static dielectric constant tensor:
#      x y z
#    x 6.002560 0.000000 0.004340 
#    y 0.000000 4.457870 0.000000 
#    z 0.004340 0.000000 4.014840 
# 
# 
# High freq. dielectric constant tensor:
#      x y z
#    x 1.910500 0.000000 -0.011090 
#    y 0.000000 1.917280 0.000000 
#    z -0.011090 0.000000 1.894790 
# 
# From -- ./inp_files/51685.got.cif
#   From: 2010.06.25/outbox.cif.g09.slc.cpg/sg15_26_cif.got.tgz:51685.got - 2010.06.28 07:06:18.
