data_PCOD8149672
_publ_section_title
;
Structure prediction by ZEFSAII (Michael W. Deem and Ramdas Pophale) SiO2 
 PCOD8149672
Probable space group: C 2/C
;
_chemical_formula_sum "Si O2"
_cell_formula_units_Z 44
_cell_length_a 8.615947
_cell_length_b 15.181281
_cell_length_c 16.840008
_cell_angle_alpha 90.000000
_cell_angle_beta 66.559861
_cell_angle_gamma 90.000000
_cell_volume 2020.917231
_symmetry_space_group_name_H-M "C 2/C"
_symmetry_group_IT_number 15
_symmetry_cell_setting 'monoclinic'
loop_
_space_group_symop_operation_xyz
x,y,z
-x,y,1/2-z
-x,-y,-z
x,-y,1/2+z
1/2+x,1/2+y,z
1/2-x,1/2+y,1/2-z
1/2-x,1/2-y,-z
1/2+x,1/2-y,1/2+z
loop_
_atom_site_type_symbol
_atom_site_label
_atom_site_fract_x
_atom_site_fract_y
_atom_site_fract_z
Si Si1 0.004427 0.481360 0.337203
Si Si2 0.018629 0.259316 0.983413
Si Si3 0.864714 0.975310 0.340209
Si Si4 0.320081 0.281857 0.371167
Si Si5 0.000000 0.350366 0.750000
Si Si6 0.272394 0.395628 0.994106
O O1 0.178423 0.461175 0.344185
O O2 0.001948 0.587692 0.327737
O O3 0.000000 0.436458 0.250000
O O4 0.845852 0.448713 0.420725
O O5 0.090059 0.160997 0.985260
O O6 0.881026 0.287167 0.077491
O O7 0.167699 0.330821 0.957887
O O8 0.922357 0.267374 0.920225
O O9 0.916097 0.875232 0.348229
O O10 0.000000 0.015449 0.250000
O O11 0.868703 0.034512 0.418477
O O12 0.342191 0.218022 0.289725
#
# Coordination Sequence:
#
# PCOD8149672 Si02
#       6
#     8   8   8   8   4   8
#     4  10  25  43  69  95 134 179 219 271 338 395
#     4  10  25  43  67  98 129 182 221 269 334 394
#     4  12  26  43  68 102 132 175 226 277 333 396
#     4  11  23  42  66  96 138 169 222 275 332 395
#     4  10  24  40  66  92 134 174 214 268 332 392
#     4  11  24  47  69  95 136 177 225 271 331 400
#
# _framework density 21.772293000000001
#
# number of rings (size 3 to 8) (size 9 to 14) (size 15 to 20)
#    0.545    0.727    2.727    1.636   10.182    0.727 
#    0.000    1.818    0.000    0.000    0.000    0.000 
#    0.000    0.000    0.000    0.000    0.000    0.000 
#
# Total GULP energy -272609.862370 kJ/mol
# GULP energy per Si atom -12391.357380 kJ/mol
# Density = 2.172274 g / cm^3
# Si number density = 21.772293 Si / 1000 Ang^3
#
#
#
# Elastic Constant Matrix: (Units=GPa)
#
#
# Indices 1 2 3 4 5 6 
#
# 1 52.6758 9.2308 9.7877 0.0000 -6.8477 0.0000
# 2 9.2308 130.1198 58.9169 0.0000 -4.5988 0.0000
# 3 9.7877 58.9169 140.9962 0.0000 -19.8369 0.0000
# 4 0.0000 0.0000 0.0000 44.5124 0.0000 -6.6245
# 5 -6.8477 -4.5988 -19.8369 0.0000 27.6316 0.0000
# 6 0.0000 0.0000 0.0000 -6.6245 0.0000 16.1766
#
#
#
# Elastic Compliance Matrix: (Units=1/GPa)
#
#
# Indices 1 2 3 4 5 6 
#
# 1 0.019820 -0.001124 -0.000268 0.000000 0.004532 0.000000
# 2 -0.001124 0.009592 -0.004165 0.000000 -0.001673 0.000000
# 3 -0.000268 -0.004165 0.009727 0.000000 0.006223 0.000000
# 4 0.000000 0.000000 0.000000 0.023924 0.000000 0.009797
# 5 0.004532 -0.001673 0.006223 0.000000 0.041503 0.000000
# 6 0.000000 0.000000 0.000000 0.009797 0.000000 0.065830
#
#
# Mechanical properties :
#
#
# Convention : Reuss Voigt Hill
#
# Bulk Modulus (GPa) = 35.68511 53.29584 44.49048
# Shear Modulus (GPa) = 26.19822 34.05454 30.12638
#
# Velocity S-wave (km/s) = 3.47260 3.95919 3.72385
# Velocity P-wave (km/s) = 5.70126 6.74034 6.24245
#
# Compressibility (1/GPa) = 0.02802289
#
# Stress axis : x y z
#
# Youngs Moduli (GPa) = 50.45380 104.25458 102.80508
#
# Poissons Ratio (x) = 0.11722 0.02760
# Poissons Ratio (y) = 0.05673 0.42822
# Poissons Ratio (z) = 0.01354 0.43426
#
# Static dielectric constant tensor:
#      x y z
#    x 3.651900 0.000000 -0.143680 
#    y 0.000000 4.026960 0.000000 
#    z -0.143680 0.000000 4.024320 
# 
# 
# High freq. dielectric constant tensor:
#      x y z
#    x 1.835140 0.000000 -0.007360 
#    y 0.000000 1.869850 0.000000 
#    z -0.007360 0.000000 1.861220 
# 
# From -- ./inp_files/231000.got.cif
#   From: 2010.06.25/outbox.cif.g09.slc.cpg/sg15_116_cif.got.tgz:231000.got - 2010.06.28 07:06:18.
