data_PCOD8149445
_publ_section_title
;
Structure prediction by ZEFSAII (Michael W. Deem and Ramdas Pophale) SiO2 
 PCOD8149445
Probable space group: C 2/C
;
_chemical_formula_sum "Si O2"
_cell_formula_units_Z 60
_cell_length_a 14.214561
_cell_length_b 15.179531
_cell_length_c 26.110858
_cell_angle_alpha 90.000000
_cell_angle_beta 28.710522
_cell_angle_gamma 90.000000
_cell_volume 2706.462405
_symmetry_space_group_name_H-M "C 2/C"
_symmetry_group_IT_number 15
_symmetry_cell_setting 'monoclinic'
loop_
_space_group_symop_operation_xyz
x,y,z
-x,y,1/2-z
-x,-y,-z
x,-y,1/2+z
1/2+x,1/2+y,z
1/2-x,1/2+y,1/2-z
1/2-x,1/2-y,-z
1/2+x,1/2-y,1/2+z
loop_
_atom_site_type_symbol
_atom_site_label
_atom_site_fract_x
_atom_site_fract_y
_atom_site_fract_z
Si Si1 0.976635 0.595152 0.848381
Si Si2 0.686307 0.748586 0.124710
Si Si3 0.815639 0.956190 0.562141
Si Si4 0.124692 0.837857 0.377212
Si Si5 0.516584 0.964515 0.571594
Si Si6 0.213038 0.945636 0.629715
Si Si7 0.000000 0.662755 0.250000
Si Si8 0.546411 0.211723 0.115399
O O1 0.868508 0.691179 0.898813
O O2 0.827321 0.527175 0.893930
O O3 0.022446 0.559790 0.883415
O O4 0.184982 0.599019 0.719246
O O5 0.500000 0.751206 0.250000
O O6 0.866415 0.790282 0.071198
O O7 0.724661 0.646623 0.092354
O O8 0.693546 0.897995 0.660869
O O9 0.918920 0.891276 0.471114
O O10 0.000000 0.000000 0.500000
O O11 0.125856 0.764658 0.331595
O O12 0.337553 0.935831 0.621845
O O13 0.543584 0.891775 0.602681
O O14 0.708472 0.976305 0.444184
O O15 0.000000 0.972809 0.750000
O O16 0.989162 0.721844 0.306677
O O17 0.750000 0.250000 0.000000
#
# Coordination Sequence:
#
# PCOD8149445 Si02
#       8
#     8   8   8   8   8   8   4   8
#     4  11  23  41  69 107 138 184 242 302 357 431
#     4   9  19  38  68  96 137 183 231 284 352 425
#     4  12  23  40  70 107 140 184 233 292 365 431
#     4  11  22  43  69  98 146 188 225 304 364 423
#     4  11  24  44  71 102 142 179 245 301 349 436
#     4  10  23  46  70  97 139 198 234 289 367 437
#     4  12  26  46  70 102 142 192 240 296 362 448
#     4  12  25  48  71 103 146 188 240 296 366 434
#
# _framework density 22.169160999999999
#
# number of rings (size 3 to 8) (size 9 to 14) (size 15 to 20)
#    0.000    1.067    5.333    0.800    0.933    2.667 
#    8.400    0.000    0.000    0.000    0.000    0.000 
#    0.000    0.000    0.000    0.000    0.000    0.000 
#
# Total GULP energy -371829.179139 kJ/mol
# GULP energy per Si atom -12394.305971 kJ/mol
# Density = 2.211870 g / cm^3
# Si number density = 22.169161 Si / 1000 Ang^3
#
#
#
# Elastic Constant Matrix: (Units=GPa)
#
#
# Indices 1 2 3 4 5 6 
#
# 1 66.3995 52.3964 38.3631 0.0011 2.1861 -0.0068
# 2 52.3964 98.0154 43.0610 0.0162 -4.5274 -0.0036
# 3 38.3631 43.0610 126.7446 -0.0108 -15.4120 -0.0156
# 4 0.0011 0.0162 -0.0108 28.6409 -0.0038 3.7175
# 5 2.1861 -4.5274 -15.4120 -0.0038 34.2093 0.0060
# 6 -0.0068 -0.0036 -0.0156 3.7175 0.0060 42.7490
#
#
#
# Elastic Compliance Matrix: (Units=1/GPa)
#
#
# Indices 1 2 3 4 5 6 
#
# 1 0.028659 -0.013480 -0.004797 0.000004 -0.005777 0.000002
# 2 -0.013480 0.018335 -0.001851 -0.000010 0.002454 -0.000001
# 3 -0.004797 -0.001851 0.010557 0.000006 0.004818 0.000002
# 4 0.000004 -0.000010 0.000006 0.035314 0.000005 -0.003071
# 5 -0.005777 0.002454 0.004818 0.000005 0.032096 -0.000004
# 6 0.000002 -0.000001 0.000002 -0.003071 -0.000004 0.023659
#
#
# Mechanical properties :
#
#
# Convention : Reuss Voigt Hill
#
# Bulk Modulus (GPa) = 57.82005 62.08894 59.95449
# Shear Modulus (GPa) = 25.68843 31.60911 28.64877
#
# Velocity S-wave (km/s) = 3.40773 3.78009 3.59873
# Velocity P-wave (km/s) = 6.45147 6.86439 6.66113
#
# Compressibility (1/GPa) = 0.01729504
#
# Stress axis : x y z
#
# Youngs Moduli (GPa) = 34.89282 54.54124 94.72795
#
# Poissons Ratio (x) = 0.73520 0.45445
# Poissons Ratio (y) = 0.47034 0.17531
# Poissons Ratio (z) = 0.16739 0.10094
#
# Static dielectric constant tensor:
#      x y z
#    x 4.870380 0.000040 -0.300140 
#    y 0.000040 4.582610 0.000060 
#    z -0.300140 0.000060 4.076280 
# 
# 
# High freq. dielectric constant tensor:
#      x y z
#    x 1.871180 0.000000 -0.017570 
#    y 0.000000 1.878410 0.000000 
#    z -0.017570 0.000000 1.862060 
# 
# From -- ./inp_files/296694.got.cif
#   From: 2010.06.25/outbox.cif.g09.slc.cpg/sg15_149_cif.got.tgz:296694.got - 2010.06.28 07:06:18.
