data_PCOD8149992
_publ_section_title
;
Structure prediction by ZEFSAII (Michael W. Deem and Ramdas Pophale) SiO2 
 PCOD8149992
Probable space group: C 2/C
;
_chemical_formula_sum "Si O2"
_cell_formula_units_Z 56
_cell_length_a 11.900489
_cell_length_b 19.220992
_cell_length_c 11.239587
_cell_angle_alpha 90.000000
_cell_angle_beta 89.323206
_cell_angle_gamma 90.000000
_cell_volume 2570.754823
_symmetry_space_group_name_H-M "C 2/C"
_symmetry_group_IT_number 15
_symmetry_cell_setting 'monoclinic'
loop_
_space_group_symop_operation_xyz
x,y,z
-x,y,1/2-z
-x,-y,-z
x,-y,1/2+z
1/2+x,1/2+y,z
1/2-x,1/2+y,1/2-z
1/2-x,1/2-y,-z
1/2+x,1/2-y,1/2+z
loop_
_atom_site_type_symbol
_atom_site_label
_atom_site_fract_x
_atom_site_fract_y
_atom_site_fract_z
Si Si1 0.500000 0.805836 0.750000
Si Si2 0.000000 0.960577 0.750000
Si Si3 0.205340 0.390667 0.799186
Si Si4 0.717390 0.467254 0.151833
Si Si5 0.074770 0.249832 0.506438
Si Si6 0.337398 0.271130 0.900103
Si Si7 0.156652 0.891548 0.923887
Si Si8 0.377412 0.843706 0.205872
O O1 0.586996 0.853145 0.822385
O O2 0.566302 0.761518 0.649267
O O3 0.106268 0.010741 0.725517
O O4 0.040126 0.909959 0.856827
O O5 0.199651 0.466363 0.859487
O O6 0.308198 0.347856 0.854628
O O7 0.232636 0.396467 0.659275
O O8 0.787178 0.405819 0.215100
O O9 0.674531 0.449013 0.022924
O O10 0.157619 0.185176 0.483110
O O11 0.115388 0.317377 0.431513
O O12 0.956920 0.224787 0.457979
O O13 0.333283 0.218776 0.788772
O O14 0.250000 0.250000 0.000000
O O15 0.500000 0.869275 0.250000
#
# Coordination Sequence:
#
# PCOD8149992 Si02
#       8
#     4   4   8   8   8   8   8   8
#     4  12  26  41  64 103 132 182 228 284 334 399
#     4  10  24  45  66 101 136 174 222 286 356 403
#     4  11  25  45  65  95 141 174 223 281 347 398
#     4  11  25  42  68  99 134 181 226 277 337 415
#     4  11  23  42  69  97 134 174 231 281 339 405
#     4  11  22  42  68  98 131 175 223 279 337 397
#     4  11  23  43  72  95 133 180 221 282 349 406
#     4  10  24  43  68 100 135 184 229 277 339 405
#
# _framework density 21.783486
#
# number of rings (size 3 to 8) (size 9 to 14) (size 15 to 20)
#    0.000    1.143    2.857    3.000    4.000    5.143 
#    0.000    1.429    0.000    0.000    0.000    0.000 
#    0.000    0.000    0.000    0.000    0.000    0.000 
#
# Total GULP energy -347227.462906 kJ/mol
# GULP energy per Si atom -12400.980818 kJ/mol
# Density = 2.173391 g / cm^3
# Si number density = 21.783486 Si / 1000 Ang^3
#
#
#
# Elastic Constant Matrix: (Units=GPa)
#
#
# Indices 1 2 3 4 5 6 
#
# 1 65.6850 16.5757 2.1158 0.0000 4.4661 0.0000
# 2 16.5757 111.4905 29.8073 0.0000 10.5394 0.0000
# 3 2.1158 29.8073 99.1727 0.0000 2.7776 0.0000
# 4 0.0000 0.0000 0.0000 29.9911 0.0000 0.1938
# 5 4.4661 10.5394 2.7776 0.0000 32.7435 0.0000
# 6 0.0000 0.0000 0.0000 0.1938 0.0000 29.8873
#
#
#
# Elastic Compliance Matrix: (Units=1/GPa)
#
#
# Indices 1 2 3 4 5 6 
#
# 1 0.015899 -0.002334 0.000403 0.000000 -0.001451 0.000000
# 2 -0.002334 0.010378 -0.002992 0.000000 -0.002768 0.000000
# 3 0.000403 -0.002992 0.010975 0.000000 -0.000023 0.000000
# 4 0.000000 0.000000 0.000000 0.033345 0.000000 -0.000216
# 5 -0.001451 -0.002768 -0.000023 0.000000 0.031631 0.000000
# 6 0.000000 0.000000 0.000000 -0.000216 0.000000 0.033460
#
#
# Mechanical properties :
#
#
# Convention : Reuss Voigt Hill
#
# Bulk Modulus (GPa) = 36.48919 41.48287 38.98603
# Shear Modulus (GPa) = 32.32700 33.71433 33.02067
#
# Velocity S-wave (km/s) = 3.85647 3.93835 3.89763
# Velocity P-wave (km/s) = 6.05120 6.30598 6.17991
#
# Compressibility (1/GPa) = 0.02740538
#
# Stress axis : x y z
#
# Youngs Moduli (GPa) = 62.89722 96.35771 91.11872
#
# Poissons Ratio (x) = 0.22493 -0.03673
# Poissons Ratio (y) = 0.14682 0.27262
# Poissons Ratio (z) = -0.02535 0.28829
#
# Static dielectric constant tensor:
#      x y z
#    x 2.342790 0.000000 2.514170 
#    y 0.000000 4.217530 0.000000 
#    z 2.514170 0.000000 0.025200 
# 
# 
# High freq. dielectric constant tensor:
#      x y z
#    x 1.866900 0.000000 0.007690 
#    y 0.000000 1.854100 0.000000 
#    z 0.007690 0.000000 1.857100 
# 
# From -- ./inp_files/89010.got.cif
#   From: 2010.06.25/outbox.cif.g09.slc.cpg/sg15_45_cif.got.tgz:89010.got - 2010.06.28 07:06:18.
