data_PCOD8149026
_publ_section_title
;
Structure prediction by ZEFSAII (Michael W. Deem and Ramdas Pophale) SiO2 
 PCOD8149026
Probable space group: C 2/C
;
_chemical_formula_sum "Si O2"
_cell_formula_units_Z 36
_cell_length_a 8.783262
_cell_length_b 26.117074
_cell_length_c 12.281597
_cell_angle_alpha 90.000000
_cell_angle_beta 144.195009
_cell_angle_gamma 90.000000
_cell_volume 1648.208285
_symmetry_space_group_name_H-M "C 2/C"
_symmetry_group_IT_number 15
_symmetry_cell_setting 'monoclinic'
loop_
_space_group_symop_operation_xyz
x,y,z
-x,y,1/2-z
-x,-y,-z
x,-y,1/2+z
1/2+x,1/2+y,z
1/2-x,1/2+y,1/2-z
1/2-x,1/2-y,-z
1/2+x,1/2-y,1/2+z
loop_
_atom_site_type_symbol
_atom_site_label
_atom_site_fract_x
_atom_site_fract_y
_atom_site_fract_z
Si Si1 0.123752 0.457682 0.935404
Si Si2 0.787375 0.569678 0.449758
Si Si3 0.500000 0.614601 0.750000
Si Si4 0.935934 0.806063 0.373217
Si Si5 0.000000 0.647759 0.750000
Si Si6 0.500000 0.783649 0.750000
O O1 0.000000 0.443859 0.750000
O O2 0.943140 0.440961 0.930092
O O3 0.217506 0.516299 0.987778
O O4 0.372373 0.421680 0.086453
O O5 0.500000 0.587624 0.250000
O O6 0.918196 0.612564 0.600778
O O7 0.675058 0.652958 0.779124
O O8 0.740816 0.813873 0.361415
O O9 0.241500 0.817943 0.579434
O O10 0.927449 0.749658 0.315458
#
# Coordination Sequence:
#
# PCOD8149026 Si02
#       6
#     8   8   4   8   4   4
#     4  11  24  40  64  90 135 188 233 268 315 388
#     4  11  25  41  60  97 139 184 226 277 332 378
#     4  11  22  40  64 100 120 182 236 262 314 409
#     4  10  23  43  72  96 135 164 229 280 343 412
#     4  12  24  44  65 106 140 174 219 292 330 402
#     4   9  22  48  71  98 126 178 215 280 356 425
#
# _framework density 21.841899999999999
#
# number of rings (size 3 to 8) (size 9 to 14) (size 15 to 20)
#    0.000    1.333    4.444    0.000    4.667    1.778 
#    4.000    0.000    0.000    0.000    0.000    0.000 
#    0.000    0.000    0.000    0.000    0.000    0.000 
#
# Total GULP energy -223038.491646 kJ/mol
# GULP energy per Si atom -12391.027314 kJ/mol
# Density = 2.179219 g / cm^3
# Si number density = 21.841900 Si / 1000 Ang^3
#
#
#
# Elastic Constant Matrix: (Units=GPa)
#
#
# Indices 1 2 3 4 5 6 
#
# 1 104.5018 46.2969 37.7252 0.0000 6.3114 0.0000
# 2 46.2969 85.8333 38.0824 0.0000 3.1605 0.0000
# 3 37.7252 38.0824 138.6013 0.0000 -5.2260 0.0000
# 4 0.0000 0.0000 0.0000 30.0502 0.0000 -3.5169
# 5 6.3114 3.1605 -5.2260 0.0000 34.6761 0.0000
# 6 0.0000 0.0000 0.0000 -3.5169 0.0000 -29.6280
#
#
#
# Elastic Compliance Matrix: (Units=1/GPa)
#
#
# Indices 1 2 3 4 5 6 
#
# 1 0.013122 -0.006126 -0.001969 0.000000 -0.002127 0.000000
# 2 -0.006126 0.016237 -0.002824 0.000000 -0.000790 0.000000
# 3 -0.001969 -0.002824 0.008599 0.000000 0.001912 0.000000
# 4 0.000000 0.000000 0.000000 0.032822 0.000000 -0.003896
# 5 -0.002127 -0.000790 0.001912 0.000000 0.029586 0.000000
# 6 0.000000 0.000000 0.000000 -0.003896 0.000000 -0.033289
#
#
# Mechanical properties :
#
#
# Convention : Reuss Voigt Hill
#
# Bulk Modulus (GPa) = 62.03133 63.68284 62.85708
# Shear Modulus (GPa) = 53.03002 20.80845 36.91924
#
# Velocity S-wave (km/s) = 4.93272 3.08991 4.11578
# Velocity P-wave (km/s) = 7.80411 6.47685 7.17125
#
# Compressibility (1/GPa) = 0.01612089
#
# Stress axis : x y z
#
# Youngs Moduli (GPa) = 76.20548 61.58871 116.29710
#
# Poissons Ratio (x) = 0.37731 0.22895
# Poissons Ratio (y) = 0.46685 0.32837
# Poissons Ratio (z) = 0.15002 0.17390
#
# Static dielectric constant tensor:
#      x y z
#    x 4.125310 0.000000 0.206210 
#    y 0.000000 3.896790 0.000000 
#    z 0.206210 0.000000 4.498190 
# 
# 
# High freq. dielectric constant tensor:
#      x y z
#    x 1.850900 0.000000 -0.005030 
#    y 0.000000 1.856480 0.000000 
#    z -0.005030 0.000000 1.864290 
# 
# From -- ./inp_files/81051.got.cif
#   From: 2010.06.25/outbox.cif.g09.slc.cpg/sg15_41_cif.got.tgz:81051.got - 2010.06.28 07:06:18.
