data_PCOD8149382
_publ_section_title
;
Structure prediction by ZEFSAII (Michael W. Deem and Ramdas Pophale) SiO2 
 PCOD8149382
Probable space group: C 2/C
;
_chemical_formula_sum "Si O2"
_cell_formula_units_Z 64
_cell_length_a 16.573116
_cell_length_b 9.270901
_cell_length_c 29.229317
_cell_angle_alpha 90.000000
_cell_angle_beta 39.888852
_cell_angle_gamma 90.000000
_cell_volume 2880.091329
_symmetry_space_group_name_H-M "C 2/C"
_symmetry_group_IT_number 15
_symmetry_cell_setting 'monoclinic'
loop_
_space_group_symop_operation_xyz
x,y,z
-x,y,1/2-z
-x,-y,-z
x,-y,1/2+z
1/2+x,1/2+y,z
1/2-x,1/2+y,1/2-z
1/2-x,1/2-y,-z
1/2+x,1/2-y,1/2+z
loop_
_atom_site_type_symbol
_atom_site_label
_atom_site_fract_x
_atom_site_fract_y
_atom_site_fract_z
Si Si1 0.162892 0.673422 0.256502
Si Si2 0.304511 0.496590 0.768198
Si Si3 0.721500 0.950916 0.906869
Si Si4 0.151517 0.649875 0.017635
Si Si5 0.690987 0.557577 0.393017
Si Si6 0.083140 0.485255 0.635488
Si Si7 0.034700 0.783798 0.461210
Si Si8 0.968801 0.200631 0.316044
O O1 0.195281 0.585821 0.288496
O O2 0.254830 0.625586 0.176177
O O3 0.019169 0.635760 0.306019
O O4 0.175616 0.843354 0.259706
O O5 0.268073 0.505631 0.837332
O O6 0.432821 0.407885 0.703476
O O7 0.594239 0.857538 0.959143
O O8 0.828627 0.856975 0.884884
O O9 0.699923 0.090375 0.947866
O O10 0.118505 0.521671 0.066607
O O11 0.027026 0.743246 0.060694
O O12 0.250000 0.750000 0.000000
O O13 0.794518 0.547120 0.387595
O O14 0.646180 0.395263 0.401984
O O15 0.571273 0.652392 0.459299
O O16 0.020519 0.641118 0.667525
O O17 0.000000 0.218205 0.250000
#
# Coordination Sequence:
#
# PCOD8149382 Si02
#       8
#     8   8   8   8   8   8   8   8
#     4  12  27  44  75 104 148 185 247 303 371 435
#     4  11  27  45  72 111 144 196 243 303 372 440
#     4  11  25  47  75  99 151 198 243 300 369 433
#     4  12  27  44  73 106 150 190 252 303 364 438
#     4  11  25  45  74 103 145 188 248 297 369 435
#     4  12  25  45  73 111 142 193 241 308 364 435
#     4  11  24  46  72 104 146 198 239 300 366 439
#     4  10  23  45  73 105 149 189 245 302 369 431
#
# _framework density 22.221518
#
# number of rings (size 3 to 8) (size 9 to 14) (size 15 to 20)
#    0.000    0.750    2.500    3.750    7.000    4.500 
#    0.000    0.000    0.000    0.000    0.000    0.000 
#    0.000    0.000    0.000    0.000    0.000    0.000 
#
# Total GULP energy -396981.162316 kJ/mol
# GULP energy per Si atom -12405.661322 kJ/mol
# Density = 2.217094 g / cm^3
# Si number density = 22.221518 Si / 1000 Ang^3
#
#
#
# Elastic Constant Matrix: (Units=GPa)
#
#
# Indices 1 2 3 4 5 6 
#
# 1 133.6671 56.8034 34.4122 0.0004 -19.4388 -0.0009
# 2 56.8034 147.1465 32.0678 0.0013 -10.1551 -0.0022
# 3 34.4122 32.0678 71.3047 0.0000 -13.4211 0.0006
# 4 0.0004 0.0013 0.0000 35.9419 0.0001 -3.1340
# 5 -19.4388 -10.1551 -13.4211 0.0001 35.3714 0.0007
# 6 -0.0009 -0.0022 0.0006 -3.1340 0.0007 46.4640
#
#
#
# Elastic Compliance Matrix: (Units=1/GPa)
#
#
# Indices 1 2 3 4 5 6 
#
# 1 0.009998 -0.003002 -0.002803 0.000000 0.003569 0.000000
# 2 -0.003002 0.008465 -0.002381 0.000000 -0.000123 0.000000
# 3 -0.002803 -0.002381 0.017262 0.000000 0.004326 0.000000
# 4 0.000000 0.000000 0.000000 0.027987 0.000000 0.001888
# 5 0.003569 -0.000123 0.004326 0.000000 0.031839 0.000000
# 6 0.000000 0.000000 0.000000 0.001888 0.000000 0.021649
#
#
# Mechanical properties :
#
#
# Convention : Reuss Voigt Hill
#
# Bulk Modulus (GPa) = 51.67423 66.52057 59.09740
# Shear Modulus (GPa) = 35.70789 38.81110 37.25950
#
# Velocity S-wave (km/s) = 4.01297 4.18371 4.09923
# Velocity P-wave (km/s) = 6.69153 7.30330 7.00410
#
# Compressibility (1/GPa) = 0.01935201
#
# Stress axis : x y z
#
# Youngs Moduli (GPa) = 100.02215 118.12768 57.92984
#
# Poissons Ratio (x) = 0.35465 0.16238
# Poissons Ratio (y) = 0.30030 0.13795
# Poissons Ratio (z) = 0.28037 0.28131
#
# Static dielectric constant tensor:
#      x y z
#    x 4.224100 0.000000 -0.182200 
#    y 0.000000 4.200460 0.000000 
#    z -0.182200 0.000000 4.050410 
# 
# 
# High freq. dielectric constant tensor:
#      x y z
#    x 1.887000 0.000000 -0.012290 
#    y 0.000000 1.885960 0.000000 
#    z -0.012290 0.000000 1.876660 
# 
# From -- ./inp_files/315659.got.cif
#   From: 2010.06.25/outbox.cif.g09.slc.cpg/sg15_158_cif.got.tgz:315659.got - 2010.06.28 07:06:18.
