data_PCOD8149298
_publ_section_title
;
Structure prediction by ZEFSAII (Michael W. Deem and Ramdas Pophale) SiO2 
 PCOD8149298
Probable space group: C 2/C
;
_chemical_formula_sum "Si O2"
_cell_formula_units_Z 60
_cell_length_a 26.246450
_cell_length_b 9.205835
_cell_length_c 24.019901
_cell_angle_alpha 90.000000
_cell_angle_beta 150.509828
_cell_angle_gamma 90.000000
_cell_volume 2857.012222
_symmetry_space_group_name_H-M "C 2/C"
_symmetry_group_IT_number 15
_symmetry_cell_setting 'monoclinic'
loop_
_space_group_symop_operation_xyz
x,y,z
-x,y,1/2-z
-x,-y,-z
x,-y,1/2+z
1/2+x,1/2+y,z
1/2-x,1/2+y,1/2-z
1/2-x,1/2-y,-z
1/2+x,1/2-y,1/2+z
loop_
_atom_site_type_symbol
_atom_site_label
_atom_site_fract_x
_atom_site_fract_y
_atom_site_fract_z
Si Si1 0.555572 0.234665 0.703393
Si Si2 0.036516 0.048661 0.722077
Si Si3 0.500000 0.026773 0.750000
Si Si4 0.673991 0.810514 0.881849
Si Si5 0.236944 0.642662 0.798941
Si Si6 0.925708 0.323477 0.978675
Si Si7 0.158266 0.896222 0.541326
Si Si8 0.096632 0.355136 0.060524
O O1 0.587680 0.392133 0.758206
O O2 0.503853 0.130066 0.699956
O O3 0.658466 0.164302 0.775469
O O4 0.468589 0.259064 0.573716
O O5 0.942349 0.073237 0.590710
O O6 0.000000 0.046815 0.750000
O O7 0.116919 0.181332 0.793681
O O8 0.598905 0.920948 0.843111
O O9 0.739883 0.897491 0.899566
O O10 0.750000 0.750000 0.000000
O O11 0.305900 0.786130 0.854490
O O12 0.320485 0.517311 0.891705
O O13 0.177896 0.605891 0.686285
O O14 0.937369 0.495352 0.000817
O O15 0.995349 0.278737 0.991257
O O16 0.145574 0.743114 0.559688
#
# Coordination Sequence:
#
# PCOD8149298 Si02
#       8
#     8   8   4   8   8   8   8   8
#     4  11  25  42  68 100 133 184 221 281 343 407
#     4  12  25  45  66  99 143 175 229 279 343 409
#     4  12  24  44  72  96 140 178 224 280 338 400
#     4  12  26  44  67 103 137 179 231 281 338 414
#     4  11  23  45  66 101 135 176 239 280 343 419
#     4  10  23  45  65  96 138 171 231 285 337 413
#     4  12  25  45  70 102 137 183 229 287 347 410
#     4  10  25  42  70  96 132 182 229 288 351 398
#
# _framework density 21.000961
#
# number of rings (size 3 to 8) (size 9 to 14) (size 15 to 20)
#    0.000    0.800    5.333    0.800    5.600    2.667 
#    0.000    2.667    0.000    0.000    0.000    0.000 
#    0.000    0.000    0.000    0.000    0.000    0.000 
#
# Total GULP energy -372056.919281 kJ/mol
# GULP energy per Si atom -12401.897309 kJ/mol
# Density = 2.095316 g / cm^3
# Si number density = 21.000961 Si / 1000 Ang^3
#
#
#
# Elastic Constant Matrix: (Units=GPa)
#
#
# Indices 1 2 3 4 5 6 
#
# 1 82.9793 16.7826 29.5103 0.0000 6.3223 0.0000
# 2 16.7826 87.6185 32.4288 0.0000 0.5327 0.0000
# 3 29.5103 32.4288 106.0675 0.0000 6.7330 0.0000
# 4 0.0000 0.0000 0.0000 37.7440 0.0000 4.1779
# 5 6.3223 0.5327 6.7330 0.0000 30.1605 0.0000
# 6 0.0000 0.0000 0.0000 4.1779 0.0000 37.5433
#
#
#
# Elastic Compliance Matrix: (Units=1/GPa)
#
#
# Indices 1 2 3 4 5 6 
#
# 1 0.013646 -0.001404 -0.003233 0.000000 -0.002114 0.000000
# 2 -0.001404 0.013027 -0.003648 0.000000 0.000879 0.000000
# 3 -0.003233 -0.003648 0.011559 0.000000 -0.001838 0.000000
# 4 0.000000 0.000000 0.000000 0.026825 0.000000 -0.002985
# 5 -0.002114 0.000879 -0.001838 0.000000 0.033994 0.000000
# 6 0.000000 0.000000 0.000000 -0.002985 0.000000 0.026968
#
#
# Mechanical properties :
#
#
# Convention : Reuss Voigt Hill
#
# Bulk Modulus (GPa) = 46.16408 48.23429 47.19919
# Shear Modulus (GPa) = 33.37551 34.28579 33.83065
#
# Velocity S-wave (km/s) = 3.99085 4.04491 4.01797
# Velocity P-wave (km/s) = 6.57765 6.69571 6.63694
#
# Compressibility (1/GPa) = 0.02166186
#
# Stress axis : x y z
#
# Youngs Moduli (GPa) = 73.28103 76.76426 86.50922
#
# Poissons Ratio (x) = 0.10780 0.27969
# Poissons Ratio (y) = 0.10291 0.31557
# Poissons Ratio (z) = 0.23692 0.28003
#
# Static dielectric constant tensor:
#      x y z
#    x 3.934440 0.000000 0.017040 
#    y 0.000000 4.332390 0.000000 
#    z 0.017040 0.000000 3.667690 
# 
# 
# High freq. dielectric constant tensor:
#      x y z
#    x 1.827650 0.000000 0.001580 
#    y 0.000000 1.831050 0.000000 
#    z 0.001580 0.000000 1.826250 
# 
# From -- ./inp_files/283423.got.cif
#   From: 2010.06.25/outbox.cif.g09.slc.cpg/sg15_142_cif.got.tgz:283423.got - 2010.06.28 07:06:18.
