data_PCOD8149016
_publ_section_title
;
Structure prediction by ZEFSAII (Michael W. Deem and Ramdas Pophale) SiO2 
 PCOD8149016
Probable space group: C 2/C
;
_chemical_formula_sum "Si O2"
_cell_formula_units_Z 52
_cell_length_a 8.867633
_cell_length_b 17.506863
_cell_length_c 20.203633
_cell_angle_alpha 90.000000
_cell_angle_beta 130.185306
_cell_angle_gamma 90.000000
_cell_volume 2396.166591
_symmetry_space_group_name_H-M "C 2/C"
_symmetry_group_IT_number 15
_symmetry_cell_setting 'monoclinic'
loop_
_space_group_symop_operation_xyz
x,y,z
-x,y,1/2-z
-x,-y,-z
x,-y,1/2+z
1/2+x,1/2+y,z
1/2-x,1/2+y,1/2-z
1/2-x,1/2-y,-z
1/2+x,1/2-y,1/2+z
loop_
_atom_site_type_symbol
_atom_site_label
_atom_site_fract_x
_atom_site_fract_y
_atom_site_fract_z
Si Si1 0.847008 0.434010 0.462813
Si Si2 0.585201 0.799573 0.920053
Si Si3 0.820672 0.764844 0.745116
Si Si4 0.723640 0.370548 0.649563
Si Si5 0.000000 0.496132 0.250000
Si Si6 0.555813 0.109274 0.649766
Si Si7 0.633087 0.545007 0.486954
O O1 0.939728 0.373886 0.540902
O O2 0.810369 0.399408 0.378748
O O3 0.659000 0.478313 0.438966
O O4 0.000000 0.500000 0.500000
O O5 0.378624 0.751755 0.855196
O O6 0.673255 0.815308 0.873041
O O7 0.750000 0.750000 0.000000
O O8 0.750830 0.834958 0.770893
O O9 0.900988 0.694185 0.811292
O O10 0.000000 0.791881 0.750000
O O11 0.490648 0.382513 0.573947
O O12 0.829104 0.452184 0.670698
O O13 0.887741 0.446374 0.274006
O O14 0.328726 0.087277 0.569607
O O15 0.500000 0.500000 0.500000
#
# Coordination Sequence:
#
# PCOD8149016 Si02
#       7
#     8   8   8   8   4   8   8
#     4  10  23  43  72 103 138 183 238 301 361 429
#     4  12  26  47  72  98 147 193 242 294 372 448
#     4  12  29  45  68 109 150 191 244 306 370 430
#     4  12  25  44  73 100 142 192 244 293 375 437
#     4  12  22  46  72  96 142 192 236 302 354 442
#     4  11  25  45  71 104 151 184 242 305 364 436
#     4  11  22  42  75 108 135 188 241 300 366 434
#
# _framework density 21.701329000000001
#
# number of rings (size 3 to 8) (size 9 to 14) (size 15 to 20)
#    0.000    0.615    5.385    1.846    6.462    1.846 
#    0.000    1.538    0.000    0.000    0.000    0.000 
#    0.000    0.000    0.000    0.000    0.000    0.000 
#
# Total GULP energy -322136.679679 kJ/mol
# GULP energy per Si atom -12389.872295 kJ/mol
# Density = 2.165194 g / cm^3
# Si number density = 21.701329 Si / 1000 Ang^3
#
#
#
# Elastic Constant Matrix: (Units=GPa)
#
#
# Indices 1 2 3 4 5 6 
#
# 1 156.2903 43.4362 56.9819 0.0000 -13.4468 0.0001
# 2 43.4362 90.3008 33.1111 0.0000 1.6587 0.0000
# 3 56.9819 33.1111 107.7638 0.0000 12.0701 0.0001
# 4 0.0000 0.0000 0.0000 47.7164 0.0000 -7.1675
# 5 -13.4468 1.6587 12.0701 0.0000 49.5414 0.0001
# 6 0.0001 0.0000 0.0001 -7.1675 0.0001 32.6743
#
#
#
# Elastic Compliance Matrix: (Units=1/GPa)
#
#
# Indices 1 2 3 4 5 6 
#
# 1 0.009079 -0.002846 -0.004331 0.000000 0.003615 0.000000
# 2 -0.002846 0.013386 -0.002541 0.000000 -0.000601 0.000000
# 3 -0.004331 -0.002541 0.012823 0.000000 -0.004215 0.000000
# 4 0.000000 0.000000 0.000000 0.021671 0.000000 0.004754
# 5 0.003615 -0.000601 -0.004215 0.000000 0.022213 0.000000
# 6 0.000000 0.000000 0.000000 0.004754 0.000000 0.031648
#
#
# Mechanical properties :
#
#
# Convention : Reuss Voigt Hill
#
# Bulk Modulus (GPa) = 63.08355 69.04592 66.06473
# Shear Modulus (GPa) = 36.88957 40.70813 38.79885
#
# Velocity S-wave (km/s) = 4.12743 4.33579 4.23289
# Velocity P-wave (km/s) = 7.20044 7.54659 7.37554
#
# Compressibility (1/GPa) = 0.01585199
#
# Stress axis : x y z
#
# Youngs Moduli (GPa) = 110.13926 74.70747 77.98703
#
# Poissons Ratio (x) = 0.21258 0.33780
# Poissons Ratio (y) = 0.31340 0.19815
# Poissons Ratio (z) = 0.47707 0.18982
#
# Static dielectric constant tensor:
#      x y z
#    x 3.994300 0.000040 -0.263960 
#    y 0.000040 -2.993860 0.000000 
#    z -0.263960 0.000000 4.393150 
# 
# 
# High freq. dielectric constant tensor:
#      x y z
#    x 1.867590 0.000000 -0.009150 
#    y 0.000000 1.853860 0.000000 
#    z -0.009150 0.000000 1.854610 
# 
# From -- ./inp_files/233127.got.cif
#   From: 2010.06.25/outbox.cif.g09.slc.cpg/sg15_117_cif.got.tgz:233127.got - 2010.06.28 07:06:18.
