data_PCOD8149656
_publ_section_title
;
Structure prediction by ZEFSAII (Michael W. Deem and Ramdas Pophale) SiO2 
 PCOD8149656
Probable space group: C 2/C
;
_chemical_formula_sum "Si O2"
_cell_formula_units_Z 36
_cell_length_a 14.308233
_cell_length_b 19.234919
_cell_length_c 8.631100
_cell_angle_alpha 90.000000
_cell_angle_beta 137.428105
_cell_angle_gamma 90.000000
_cell_volume 1607.014610
_symmetry_space_group_name_H-M "C 2/C"
_symmetry_group_IT_number 15
_symmetry_cell_setting 'monoclinic'
loop_
_space_group_symop_operation_xyz
x,y,z
-x,y,1/2-z
-x,-y,-z
x,-y,1/2+z
1/2+x,1/2+y,z
1/2-x,1/2+y,1/2-z
1/2-x,1/2-y,-z
1/2+x,1/2-y,1/2+z
loop_
_atom_site_type_symbol
_atom_site_label
_atom_site_fract_x
_atom_site_fract_y
_atom_site_fract_z
Si Si1 0.145855 0.222109 0.002710
Si Si2 0.000000 0.985049 0.250000
Si Si3 0.810677 0.614929 0.394140
Si Si4 0.695094 0.538340 0.737179
Si Si5 0.884503 0.647551 0.822960
O O1 0.200471 0.152527 0.150573
O O2 0.123427 0.276736 0.113548
O O3 0.250000 0.250000 0.000000
O O4 0.000000 0.203584 0.750000
O O5 0.085797 0.036467 0.464919
O O6 0.891399 0.938862 0.215401
O O7 0.769656 0.534804 0.358408
O O8 0.812734 0.648940 0.567283
O O9 0.959460 0.620977 0.496704
O O10 0.809308 0.595921 0.849342
#
# Coordination Sequence:
#
# PCOD8149656 Si02
#       5
#     8   4   8   8   8
#     4  12  27  48  72 106 143 185 239 296 351 421
#     4  10  24  40  64 108 142 180 230 284 362 410
#     4  11  25  47  73 104 140 192 233 291 358 420
#     4  11  23  45  69 106 142 184 237 292 353 424
#     4  11  25  48  71 103 142 187 238 288 360 422
#
# _framework density 22.401788
#
# number of rings (size 3 to 8) (size 9 to 14) (size 15 to 20)
#    0.000    0.889    4.444    1.333    4.667    1.778 
#    4.000    0.000    0.000    0.000    0.000    0.000 
#    0.000    0.000    0.000    0.000    0.000    0.000 
#
# Total GULP energy -223280.463558 kJ/mol
# GULP energy per Si atom -12404.470198 kJ/mol
# Density = 2.235080 g / cm^3
# Si number density = 22.401788 Si / 1000 Ang^3
#
#
#
# Elastic Constant Matrix: (Units=GPa)
#
#
# Indices 1 2 3 4 5 6 
#
# 1 174.8955 31.7577 49.8770 0.0000 7.1849 0.0000
# 2 31.7577 61.3738 37.1839 0.0000 1.5674 0.0000
# 3 49.8770 37.1839 141.0886 0.0000 3.0801 0.0000
# 4 0.0000 0.0000 0.0000 23.7185 0.0000 -3.7744
# 5 7.1849 1.5674 3.0801 0.0000 33.7082 0.0000
# 6 0.0000 0.0000 0.0000 -3.7744 0.0000 28.7520
#
#
#
# Elastic Compliance Matrix: (Units=1/GPa)
#
#
# Indices 1 2 3 4 5 6 
#
# 1 0.006687 -0.002396 -0.001707 0.000000 -0.001158 0.000000
# 2 -0.002396 0.020255 -0.004491 0.000000 -0.000021 0.000000
# 3 -0.001707 -0.004491 0.008880 0.000000 -0.000239 0.000000
# 4 0.000000 0.000000 0.000000 0.043061 0.000000 0.005653
# 5 -0.001158 -0.000021 -0.000239 0.000000 0.029936 0.000000
# 6 0.000000 0.000000 0.000000 0.005653 0.000000 0.035522
#
#
# Mechanical properties :
#
#
# Convention : Reuss Voigt Hill
#
# Bulk Modulus (GPa) = 53.66614 68.33277 60.99946
# Shear Modulus (GPa) = 29.80796 34.47170 32.13983
#
# Velocity S-wave (km/s) = 3.65171 3.92700 3.79185
# Velocity P-wave (km/s) = 6.46437 7.15061 6.81613
#
# Compressibility (1/GPa) = 0.01863372
#
# Stress axis : x y z
#
# Youngs Moduli (GPa) = 149.53769 49.37113 112.61320
#
# Poissons Ratio (x) = 0.11831 0.19225
# Poissons Ratio (y) = 0.35835 0.50569
# Poissons Ratio (z) = 0.25529 0.22170
#
# Static dielectric constant tensor:
#      x y z
#    x 4.499110 0.000000 -0.025510 
#    y 0.000000 3.747680 0.000000 
#    z -0.025510 0.000000 4.197900 
# 
# 
# High freq. dielectric constant tensor:
#      x y z
#    x 1.908430 0.000000 -0.001530 
#    y 0.000000 1.870460 0.000000 
#    z -0.001530 0.000000 1.898680 
# 
# From -- ./inp_files/41312.got.cif
#   From: 2010.06.25/outbox.cif.g09.slc.cpg/sg15_21_cif.got.tgz:41312.got - 2010.06.28 07:06:18.
