data_PCOD8149926
_publ_section_title
;
Structure prediction by ZEFSAII (Michael W. Deem and Ramdas Pophale) SiO2 
 PCOD8149926
Probable space group: C 2/C
;
_chemical_formula_sum "Si O2"
_cell_formula_units_Z 40
_cell_length_a 9.465115
_cell_length_b 21.438850
_cell_length_c 9.376578
_cell_angle_alpha 90.000000
_cell_angle_beta 105.133941
_cell_angle_gamma 90.000000
_cell_volume 1836.716892
_symmetry_space_group_name_H-M "C 2/C"
_symmetry_group_IT_number 15
_symmetry_cell_setting 'monoclinic'
loop_
_space_group_symop_operation_xyz
x,y,z
-x,y,1/2-z
-x,-y,-z
x,-y,1/2+z
1/2+x,1/2+y,z
1/2-x,1/2+y,1/2-z
1/2-x,1/2-y,-z
1/2+x,1/2-y,1/2+z
loop_
_atom_site_type_symbol
_atom_site_label
_atom_site_fract_x
_atom_site_fract_y
_atom_site_fract_z
Si Si1 0.245445 0.293216 0.362675
Si Si2 0.500000 0.289757 0.750000
Si Si3 0.500000 0.332539 0.250000
Si Si4 0.946408 0.107742 0.456234
Si Si5 0.754813 0.433570 0.047181
Si Si6 0.338904 0.952371 0.751603
O O1 0.250000 0.250000 0.500000
O O2 0.126995 0.257686 0.235692
O O3 0.390164 0.288763 0.306079
O O4 0.204312 0.364090 0.391637
O O5 0.476457 0.333650 0.605141
O O6 0.585214 0.376238 0.386813
O O7 0.793886 0.090032 0.343321
O O8 0.078007 0.056553 0.484976
O O9 0.817365 0.478257 0.186343
O O10 0.832674 0.452066 0.920531
O O11 0.500000 0.926659 0.750000
#
# Coordination Sequence:
#
# PCOD8149926 Si02
#       6
#     8   4   4   8   8   8
#     4  11  23  46  69 101 146 177 237 294 348 425
#     4  12  22  46  75  98 143 192 230 300 354 414
#     4  10  24  42  73 108 131 186 246 278 362 412
#     4  11  23  47  71 105 137 190 242 287 353 428
#     4  11  25  46  71 102 145 190 234 290 359 425
#     4  12  26  44  70 105 144 183 240 294 355 415
#
# _framework density 21.777989000000002
#
# number of rings (size 3 to 8) (size 9 to 14) (size 15 to 20)
#    0.000    0.800    6.000    1.200    7.000    2.400 
#    7.200    0.000    0.000    0.000    0.000    0.000 
#    0.000    0.000    0.000    0.000    0.000    0.000 
#
# Total GULP energy -247856.619248 kJ/mol
# GULP energy per Si atom -12392.830962 kJ/mol
# Density = 2.172842 g / cm^3
# Si number density = 21.777989 Si / 1000 Ang^3
#
#
#
# Elastic Constant Matrix: (Units=GPa)
#
#
# Indices 1 2 3 4 5 6 
#
# 1 137.4102 36.3854 31.2185 0.0000 -21.2116 0.0000
# 2 36.3854 101.3482 36.1473 0.0000 -15.4167 0.0000
# 3 31.2185 36.1473 102.0375 0.0000 -34.8639 0.0000
# 4 0.0000 0.0000 0.0000 39.9645 0.0000 4.8536
# 5 -21.2116 -15.4167 -34.8639 0.0000 41.1120 0.0000
# 6 0.0000 0.0000 0.0000 4.8536 0.0000 39.3012
#
#
#
# Elastic Compliance Matrix: (Units=1/GPa)
#
#
# Indices 1 2 3 4 5 6 
#
# 1 0.008518 -0.002338 -0.000811 0.000000 0.002830 0.000000
# 2 -0.002338 0.011977 -0.003386 0.000000 0.000413 0.000000
# 3 -0.000811 -0.003386 0.015025 0.000000 0.011053 0.000000
# 4 0.000000 0.000000 0.000000 0.025403 0.000000 -0.003137
# 5 0.002830 0.000413 0.011053 0.000000 0.035312 0.000000
# 6 0.000000 0.000000 0.000000 -0.003137 0.000000 0.025832
#
#
# Mechanical properties :
#
#
# Convention : Reuss Voigt Hill
#
# Bulk Modulus (GPa) = 44.54560 60.92203 52.73382
# Shear Modulus (GPa) = 35.05811 39.87852 37.46832
#
# Velocity S-wave (km/s) = 4.01658 4.28382 4.15235
# Velocity P-wave (km/s) = 6.48146 7.24590 6.87431
#
# Compressibility (1/GPa) = 0.02244890
#
# Stress axis : x y z
#
# Youngs Moduli (GPa) = 117.40208 83.49256 66.55782
#
# Poissons Ratio (x) = 0.19523 0.05395
# Poissons Ratio (y) = 0.27453 0.22539
# Poissons Ratio (z) = 0.09516 0.28274
#
# Static dielectric constant tensor:
#      x y z
#    x 4.893920 0.000000 0.454220 
#    y 0.000000 4.199010 0.000000 
#    z 0.454220 0.000000 4.438630 
# 
# 
# High freq. dielectric constant tensor:
#      x y z
#    x 1.859800 0.000000 0.000950 
#    y 0.000000 1.849350 0.000000 
#    z 0.000950 0.000000 1.869960 
# 
# From -- ./inp_files/23820.got.cif
#   From: 2010.06.25/outbox.cif.g09.slc.cpg/sg15_12_cif.got.tgz:23820.got - 2010.06.28 07:06:18.
