data_PCOD8149471
_publ_section_title
;
Structure prediction by ZEFSAII (Michael W. Deem and Ramdas Pophale) SiO2 
 PCOD8149471
Probable space group: C 2/C
;
_chemical_formula_sum "Si O2"
_cell_formula_units_Z 56
_cell_length_a 23.003096
_cell_length_b 23.170882
_cell_length_c 14.532933
_cell_angle_alpha 90.000000
_cell_angle_beta 20.682680
_cell_angle_gamma 90.000000
_cell_volume 2735.854835
_symmetry_space_group_name_H-M "C 2/C"
_symmetry_group_IT_number 15
_symmetry_cell_setting 'monoclinic'
loop_
_space_group_symop_operation_xyz
x,y,z
-x,y,1/2-z
-x,-y,-z
x,-y,1/2+z
1/2+x,1/2+y,z
1/2-x,1/2+y,1/2-z
1/2-x,1/2-y,-z
1/2+x,1/2-y,1/2+z
loop_
_atom_site_type_symbol
_atom_site_label
_atom_site_fract_x
_atom_site_fract_y
_atom_site_fract_z
Si Si1 0.500000 0.773227 0.750000
Si Si2 0.837915 0.431712 0.253309
Si Si3 0.581377 0.724301 0.284579
Si Si4 0.277334 0.856382 0.984745
Si Si5 0.603963 0.835886 0.887970
Si Si6 0.950422 0.475776 0.722757
Si Si7 0.500000 0.364620 0.750000
Si Si8 0.920971 0.178524 0.013938
O O1 0.340333 0.814053 0.971985
O O2 0.456113 0.735778 0.903345
O O3 0.836165 0.479471 0.336372
O O4 0.657973 0.405576 0.507222
O O5 0.962122 0.382962 0.105754
O O6 0.893699 0.459060 0.072833
O O7 0.448987 0.775116 0.490568
O O8 0.506874 0.675887 0.328700
O O9 0.624951 0.695167 0.315697
O O10 0.750000 0.750000 0.000000
O O11 0.345085 0.826520 0.792476
O O12 0.342457 0.920052 0.903872
O O13 0.080855 0.861928 0.275072
O O14 0.766559 0.857212 0.701847
O O15 0.000000 0.501083 0.750000
#
# Coordination Sequence:
#
# PCOD8149471 Si02
#       8
#     4   8   8   8   8   8   4   8
#     4  12  20  38  61 103 140 164 208 268 332 392
#     4  10  25  47  68  96 129 175 219 279 332 384
#     4  12  25  41  64  95 134 186 217 253 327 399
#     4  11  22  39  68 101 132 174 210 277 334 384
#     4  11  22  41  63  93 139 173 213 268 323 391
#     4  10  23  46  73  95 125 169 222 277 344 383
#     4  12  26  48  67  93 136 176 230 268 320 406
#     4  12  24  37  64 105 134 169 219 263 326 404
#
# _framework density 20.468923
#
# number of rings (size 3 to 8) (size 9 to 14) (size 15 to 20)
#    0.000    0.857    5.000    2.143    2.000    1.143 
#    9.000    0.714    0.000    0.000    0.000    0.000 
#    0.000    0.000    0.000    0.000    0.000    0.000 
#
# Total GULP energy -347278.388019 kJ/mol
# GULP energy per Si atom -12402.799572 kJ/mol
# Density = 2.042233 g / cm^3
# Si number density = 20.468923 Si / 1000 Ang^3
#
#
#
# Elastic Constant Matrix: (Units=GPa)
#
#
# Indices 1 2 3 4 5 6 
#
# 1 128.5671 46.4886 38.3008 0.0038 0.1589 -0.0099
# 2 46.4886 71.1261 35.3202 -0.0250 3.1001 0.0065
# 3 38.3008 35.3202 109.7831 -0.0523 -19.2325 0.0104
# 4 0.0038 -0.0250 -0.0523 22.8646 0.0251 0.1095
# 5 0.1589 3.1001 -19.2325 0.0251 42.0471 -0.0069
# 6 -0.0099 0.0065 0.0104 0.1095 -0.0069 24.4326
#
#
#
# Elastic Compliance Matrix: (Units=1/GPa)
#
#
# Indices 1 2 3 4 5 6 
#
# 1 0.010460 -0.005912 -0.001824 -0.000012 -0.000438 0.000007
# 2 -0.005912 0.020723 -0.005292 0.000016 -0.003926 -0.000007
# 3 -0.001824 -0.005292 0.012521 0.000016 0.006124 -0.000003
# 4 -0.000012 0.000016 0.000016 0.043737 -0.000020 -0.000196
# 5 -0.000438 -0.003926 0.006124 -0.000020 0.026875 0.000006
# 6 0.000007 -0.000007 -0.000003 -0.000196 0.000006 0.040930
#
#
# Mechanical properties :
#
#
# Convention : Reuss Voigt Hill
#
# Bulk Modulus (GPa) = 56.66660 61.07728 58.87194
# Shear Modulus (GPa) = 26.71181 30.49330 28.60256
#
# Velocity S-wave (km/s) = 3.61639 3.86390 3.74219
# Velocity P-wave (km/s) = 6.72176 7.05763 6.89174
#
# Compressibility (1/GPa) = 0.01764708
#
# Stress axis : x y z
#
# Youngs Moduli (GPa) = 95.60682 48.25622 79.86721
#
# Poissons Ratio (x) = 0.28527 0.14567
# Poissons Ratio (y) = 0.56519 0.42269
# Poissons Ratio (z) = 0.17437 0.25539
#
# Static dielectric constant tensor:
#      x y z
#    x 4.060620 0.000060 -0.017420 
#    y 0.000060 3.842300 -0.000050 
#    z -0.017420 -0.000050 3.789340 
# 
# 
# High freq. dielectric constant tensor:
#      x y z
#    x 1.815790 0.000000 -0.002080 
#    y 0.000000 1.788230 0.000010 
#    z -0.002080 0.000010 1.802820 
# 
# From -- ./inp_files/174744.got.cif
#   From: 2010.06.25/outbox.cif.g09.slc.cpg/sg15_88_cif.got.tgz:174744.got - 2010.06.28 07:06:18.
