data_PCOD8149139
_publ_section_title
;
Structure prediction by ZEFSAII (Michael W. Deem and Ramdas Pophale) SiO2 
 PCOD8149139
Probable space group: C 2/C
;
_chemical_formula_sum "Si O2"
_cell_formula_units_Z 36
_cell_length_a 22.265742
_cell_length_b 13.207923
_cell_length_c 8.606941
_cell_angle_alpha 90.000000
_cell_angle_beta 38.159673
_cell_angle_gamma 90.000000
_cell_volume 1563.893522
_symmetry_space_group_name_H-M "C 2/C"
_symmetry_group_IT_number 15
_symmetry_cell_setting 'monoclinic'
loop_
_space_group_symop_operation_xyz
x,y,z
-x,y,1/2-z
-x,-y,-z
x,-y,1/2+z
1/2+x,1/2+y,z
1/2-x,1/2+y,1/2-z
1/2-x,1/2-y,-z
1/2+x,1/2-y,1/2+z
loop_
_atom_site_type_symbol
_atom_site_label
_atom_site_fract_x
_atom_site_fract_y
_atom_site_fract_z
Si Si1 0.500000 0.009337 0.750000
Si Si2 0.476388 0.321364 0.968826
Si Si3 0.308690 0.355343 0.896028
Si Si4 0.800124 0.946853 0.252182
Si Si5 0.888288 0.621129 0.227574
O O1 0.581313 0.078058 0.501958
O O2 0.556366 0.939895 0.753846
O O3 0.500000 0.278717 0.750000
O O4 0.576433 0.338998 0.855934
O O5 0.409717 0.421929 0.088104
O O6 0.416119 0.238263 0.185505
O O7 0.280452 0.432512 0.814057
O O8 0.250000 0.250000 0.000000
O O9 0.283560 0.411236 0.109080
O O10 0.726615 0.886239 0.512853
#
# Coordination Sequence:
#
# PCOD8149139 Si02
#       5
#     4   8   8   8   8
#     4  10  24  36  64  98 142 178 236 304 338 414
#     4  10  23  44  67  99 139 183 229 289 346 416
#     4  11  27  47  72 103 144 185 233 290 351 419
#     4  11  25  45  71 101 137 185 235 288 350 421
#     4  11  22  40  66  98 136 180 236 287 353 401
#
# _framework density 23.019469999999998
#
# number of rings (size 3 to 8) (size 9 to 14) (size 15 to 20)
#    0.000    1.333    1.111    2.667    9.333    5.333 
#    0.000    0.000    0.000    0.000    0.000    0.000 
#    0.000    0.000    0.000    0.000    0.000    0.000 
#
# Total GULP energy -223187.674160 kJ/mol
# GULP energy per Si atom -12399.315231 kJ/mol
# Density = 2.296708 g / cm^3
# Si number density = 23.019470 Si / 1000 Ang^3
#
#
#
# Elastic Constant Matrix: (Units=GPa)
#
#
# Indices 1 2 3 4 5 6 
#
# 1 82.9044 51.7083 39.3088 0.0000 -5.7878 0.0000
# 2 51.7083 169.4360 50.4519 0.0000 3.9904 0.0000
# 3 39.3088 50.4519 115.5668 0.0000 -16.5683 0.0000
# 4 0.0000 0.0000 0.0000 41.8906 0.0000 26.7936
# 5 -5.7878 3.9904 -16.5683 0.0000 34.5303 0.0000
# 6 0.0000 0.0000 0.0000 26.7936 0.0000 107.8400
#
#
#
# Elastic Compliance Matrix: (Units=1/GPa)
#
#
# Indices 1 2 3 4 5 6 
#
# 1 0.016343 -0.003941 -0.003630 0.000000 0.001453 0.000000
# 2 -0.003941 0.007919 -0.002516 0.000000 -0.002783 0.000000
# 3 -0.003630 -0.002516 0.011749 0.000000 0.005319 0.000000
# 4 0.000000 0.000000 0.000000 0.028382 0.000000 -0.007052
# 5 0.001453 -0.002783 0.005319 0.000000 0.032078 0.000000
# 6 0.000000 0.000000 0.000000 -0.007052 0.000000 0.011025
#
#
# Mechanical properties :
#
#
# Convention : Reuss Voigt Hill
#
# Bulk Modulus (GPa) = 63.14224 72.31613 67.72918
# Shear Modulus (GPa) = 37.60886 51.94806 44.77846
#
# Velocity S-wave (km/s) = 4.04640 4.75563 4.41528
# Velocity P-wave (km/s) = 7.02286 7.85099 7.44844
#
# Compressibility (1/GPa) = 0.01583726
#
# Stress axis : x y z
#
# Youngs Moduli (GPa) = 61.18984 126.27533 85.11607
#
# Poissons Ratio (x) = 0.49762 0.30898
# Poissons Ratio (y) = 0.24113 0.21413
# Poissons Ratio (z) = 0.22213 0.31768
#
# Static dielectric constant tensor:
#      x y z
#    x 3.913110 0.000000 -0.072440 
#    y 0.000000 4.106100 0.000000 
#    z -0.072440 0.000000 4.603370 
# 
# 
# High freq. dielectric constant tensor:
#      x y z
#    x 1.898440 0.000000 -0.010210 
#    y 0.000000 1.912170 0.000000 
#    z -0.010210 0.000000 1.924840 
# 
# From -- ./inp_files/61134.got.cif
#   From: 2010.06.25/outbox.cif.g09.slc.cpg/sg15_31_cif.got.tgz:61134.got - 2010.06.28 07:06:18.
