data_PCOD8149237
_publ_section_title
;
Structure prediction by ZEFSAII (Michael W. Deem and Ramdas Pophale) SiO2 
 PCOD8149237
Probable space group: C 2/C
;
_chemical_formula_sum "Si O2"
_cell_formula_units_Z 40
_cell_length_a 10.575011
_cell_length_b 12.305168
_cell_length_c 24.314241
_cell_angle_alpha 90.000000
_cell_angle_beta 146.446426
_cell_angle_gamma 90.000000
_cell_volume 1748.765161
_symmetry_space_group_name_H-M "C 2/C"
_symmetry_group_IT_number 15
_symmetry_cell_setting 'monoclinic'
loop_
_space_group_symop_operation_xyz
x,y,z
-x,y,1/2-z
-x,-y,-z
x,-y,1/2+z
1/2+x,1/2+y,z
1/2-x,1/2+y,1/2-z
1/2-x,1/2-y,-z
1/2+x,1/2-y,1/2+z
loop_
_atom_site_type_symbol
_atom_site_label
_atom_site_fract_x
_atom_site_fract_y
_atom_site_fract_z
Si Si1 0.035733 0.030965 0.075393
Si Si2 0.242826 0.744775 0.313542
Si Si3 0.235874 0.594736 0.140003
Si Si4 0.913370 0.584128 0.534302
Si Si5 0.759809 0.681866 0.692964
O O1 0.233666 0.117031 0.163345
O O2 0.797631 0.090150 0.001446
O O3 0.090234 0.920866 0.129161
O O4 0.000000 0.000000 0.000000
O O5 0.446253 0.804761 0.419441
O O6 0.281236 0.775185 0.263375
O O7 0.000000 0.784694 0.250000
O O8 0.500000 0.581549 0.250000
O O9 0.201122 0.557697 0.065250
O O10 0.150667 0.717273 0.120022
O O11 0.080771 0.510862 0.118395
O O12 0.000000 0.651254 0.750000
#
# Coordination Sequence:
#
# PCOD8149237 Si02
#       5
#     8   8   8   8   8
#     4  12  26  45  71 104 149 188 242 299 365 426
#     4  12  28  45  74 108 147 188 244 296 363 432
#     4  10  23  44  72 101 137 186 241 292 352 426
#     4  11  25  43  73 102 143 182 243 292 357 430
#     4  11  25  45  73  99 146 191 239 290 365 427
#
# _framework density 22.873284000000002
#
# number of rings (size 3 to 8) (size 9 to 14) (size 15 to 20)
#    0.000    0.800    0.000    6.600   14.000    0.800 
#    0.000    0.000    0.000    0.000    0.000    0.000 
#    0.000    0.000    0.000    0.000    0.000    0.000 
#
# Total GULP energy -247919.834506 kJ/mol
# GULP energy per Si atom -12395.991725 kJ/mol
# Density = 2.282122 g / cm^3
# Si number density = 22.873284 Si / 1000 Ang^3
#
#
#
# Elastic Constant Matrix: (Units=GPa)
#
#
# Indices 1 2 3 4 5 6 
#
# 1 124.6588 17.5106 49.9664 0.0000 10.2140 0.0000
# 2 17.5106 139.9909 57.5684 0.0000 6.4663 0.0000
# 3 49.9664 57.5684 119.7876 0.0000 -0.4785 0.0000
# 4 0.0000 0.0000 0.0000 33.3814 0.0000 -5.7784
# 5 10.2140 6.4663 -0.4785 0.0000 39.5052 0.0000
# 6 0.0000 0.0000 0.0000 -5.7784 0.0000 28.7029
#
#
#
# Elastic Compliance Matrix: (Units=1/GPa)
#
#
# Indices 1 2 3 4 5 6 
#
# 1 0.009955 0.000740 -0.004519 0.000000 -0.002750 0.000000
# 2 0.000740 0.009049 -0.004664 0.000000 -0.001729 0.000000
# 3 -0.004519 -0.004664 0.012483 0.000000 0.002083 0.000000
# 4 0.000000 0.000000 0.000000 0.031038 0.000000 0.006249
# 5 -0.002750 -0.001729 0.002083 0.000000 0.026332 0.000000
# 6 0.000000 0.000000 0.000000 0.006249 0.000000 0.036098
#
#
# Mechanical properties :
#
#
# Convention : Reuss Voigt Hill
#
# Bulk Modulus (GPa) = 68.49321 70.50312 69.49816
# Shear Modulus (GPa) = 34.08136 37.61068 35.84602
#
# Velocity S-wave (km/s) = 3.86425 4.05940 3.96303
# Velocity P-wave (km/s) = 7.06538 7.27062 7.16873
#
# Compressibility (1/GPa) = 0.01459999
#
# Stress axis : x y z
#
# Youngs Moduli (GPa) = 100.45669 110.51282 80.10860
#
# Poissons Ratio (x) = -0.08180 0.36201
# Poissons Ratio (y) = -0.07436 0.37366
# Poissons Ratio (z) = 0.45396 0.51547
#
# Static dielectric constant tensor:
#      x y z
#    x 4.662510 0.000000 0.417100 
#    y 0.000000 4.380750 0.000000 
#    z 0.417100 0.000000 4.308920 
# 
# 
# High freq. dielectric constant tensor:
#      x y z
#    x 1.901460 0.000000 0.000750 
#    y 0.000000 1.920260 0.000000 
#    z 0.000750 0.000000 1.907220 
# 
# From -- ./inp_files/292416.got.cif
#   From: 2010.06.25/outbox.cif.g09.slc.cpg/sg15_147_cif.got.tgz:292416.got - 2010.06.28 07:06:18.
