data_PCOD8149358
_publ_section_title
;
Structure prediction by ZEFSAII (Michael W. Deem and Ramdas Pophale) SiO2 
 PCOD8149358
Probable space group: C 2/C
;
_chemical_formula_sum "Si O2"
_cell_formula_units_Z 36
_cell_length_a 19.951325
_cell_length_b 8.691558
_cell_length_c 11.789010
_cell_angle_alpha 90.000000
_cell_angle_beta 56.838807
_cell_angle_gamma 90.000000
_cell_volume 1711.363272
_symmetry_space_group_name_H-M "C 2/C"
_symmetry_group_IT_number 15
_symmetry_cell_setting 'monoclinic'
loop_
_space_group_symop_operation_xyz
x,y,z
-x,y,1/2-z
-x,-y,-z
x,-y,1/2+z
1/2+x,1/2+y,z
1/2-x,1/2+y,1/2-z
1/2-x,1/2-y,-z
1/2+x,1/2-y,1/2+z
loop_
_atom_site_type_symbol
_atom_site_label
_atom_site_fract_x
_atom_site_fract_y
_atom_site_fract_z
Si Si1 0.920394 0.593949 0.391779
Si Si2 0.370590 0.419247 0.469255
Si Si3 0.000000 0.147389 0.250000
Si Si4 0.408107 0.777555 0.131604
Si Si5 0.712915 0.898412 0.090287
O O1 0.883488 0.760000 0.387411
O O2 0.940852 0.600997 0.507529
O O3 0.856086 0.461611 0.428333
O O4 0.000000 0.555315 0.250000
O O5 0.426254 0.547575 0.361969
O O6 0.391979 0.386411 0.582407
O O7 0.279008 0.471177 0.548274
O O8 0.027956 0.255682 0.327348
O O9 0.325092 0.847430 0.254955
O O10 0.750000 0.750000 0.000000
#
# Coordination Sequence:
#
# PCOD8149358 Si02
#       5
#     8   8   4   8   8
#     4  10  25  47  68 105 135 180 231 284 341 404
#     4  10  23  45  71 100 137 182 228 280 341 408
#     4  12  20  48  72 104 138 182 236 272 352 406
#     4  10  26  42  70 103 136 187 222 292 334 409
#     4  12  25  44  69 102 143 179 228 282 346 413
#
# _framework density 21.035861000000001
#
# number of rings (size 3 to 8) (size 9 to 14) (size 15 to 20)
#    1.333    0.000    3.333    1.333    4.667    0.889 
#    4.000    0.000    0.000    0.000    0.000    0.000 
#    0.000    0.000    0.000    0.000    0.000    0.000 
#
# Total GULP energy -223113.920043 kJ/mol
# GULP energy per Si atom -12395.217780 kJ/mol
# Density = 2.098798 g / cm^3
# Si number density = 21.035861 Si / 1000 Ang^3
#
#
#
# Elastic Constant Matrix: (Units=GPa)
#
#
# Indices 1 2 3 4 5 6 
#
# 1 141.4090 55.8256 74.8987 0.0000 2.3821 0.0000
# 2 55.8256 88.5296 48.6456 0.0000 0.2209 0.0000
# 3 74.8987 48.6456 155.2228 0.0000 0.3316 0.0000
# 4 0.0000 0.0000 0.0000 17.3094 0.0000 4.6124
# 5 2.3821 0.2209 0.3316 0.0000 40.6279 0.0000
# 6 0.0000 0.0000 0.0000 4.6124 0.0000 46.9199
#
#
#
# Elastic Compliance Matrix: (Units=1/GPa)
#
#
# Indices 1 2 3 4 5 6 
#
# 1 0.011005 -0.004857 -0.003787 0.000000 -0.000588 0.000000
# 2 -0.004857 0.015789 -0.002605 0.000000 0.000220 0.000000
# 3 -0.003787 -0.002605 0.009085 0.000000 0.000162 0.000000
# 4 0.000000 0.000000 0.000000 0.059326 0.000000 -0.005832
# 5 -0.000588 0.000220 0.000162 0.000000 0.024646 0.000000
# 6 0.000000 0.000000 0.000000 -0.005832 0.000000 0.021886
#
#
# Mechanical properties :
#
#
# Convention : Reuss Voigt Hill
#
# Bulk Modulus (GPa) = 74.72738 82.65569 78.69153
# Shear Modulus (GPa) = 29.63910 34.69087 32.16499
#
# Velocity S-wave (km/s) = 3.75771 4.06535 3.91456
# Velocity P-wave (km/s) = 7.37754 7.83672 7.61059
#
# Compressibility (1/GPa) = 0.01338198
#
# Stress axis : x y z
#
# Youngs Moduli (GPa) = 90.86980 63.33331 110.06569
#
# Poissons Ratio (x) = 0.30763 0.41677
# Poissons Ratio (y) = 0.44139 0.28672
# Poissons Ratio (z) = 0.34408 0.16498
#
# Static dielectric constant tensor:
#      x y z
#    x 3.662680 0.000000 -0.101590 
#    y 0.000000 3.825060 0.000000 
#    z -0.101590 0.000000 4.008650 
# 
# 
# High freq. dielectric constant tensor:
#      x y z
#    x 1.814580 0.000000 -0.011720 
#    y 0.000000 1.831810 0.000000 
#    z -0.011720 0.000000 1.832210 
# 
# From -- ./inp_files/109527.got.cif
#   From: 2010.06.25/outbox.cif.g09.slc.cpg/sg15_55_cif.got.tgz:109527.got - 2010.06.28 07:06:18.
