data_PCOD8149110
_publ_section_title
;
Structure prediction by ZEFSAII (Michael W. Deem and Ramdas Pophale) SiO2 
 PCOD8149110
Probable space group: C 2/C
;
_chemical_formula_sum "Si O2"
_cell_formula_units_Z 56
_cell_length_a 12.519348
_cell_length_b 7.959978
_cell_length_c 27.821562
_cell_angle_alpha 90.000000
_cell_angle_beta 66.371832
_cell_angle_gamma 90.000000
_cell_volume 2540.090340
_symmetry_space_group_name_H-M "C 2/C"
_symmetry_group_IT_number 15
_symmetry_cell_setting 'monoclinic'
loop_
_space_group_symop_operation_xyz
x,y,z
-x,y,1/2-z
-x,-y,-z
x,-y,1/2+z
1/2+x,1/2+y,z
1/2-x,1/2+y,1/2-z
1/2-x,1/2-y,-z
1/2+x,1/2-y,1/2+z
loop_
_atom_site_type_symbol
_atom_site_label
_atom_site_fract_x
_atom_site_fract_y
_atom_site_fract_z
Si Si1 0.507902 0.849762 0.614518
Si Si2 0.095185 0.515918 0.269024
Si Si3 0.778777 0.742472 0.693797
Si Si4 0.781316 0.878383 0.553518
Si Si5 0.180886 0.544454 0.905787
Si Si6 0.435530 0.476218 0.606639
Si Si7 0.180867 0.896502 0.538896
O O1 0.465321 0.911643 0.673279
O O2 0.643984 0.884990 0.586592
O O3 0.484240 0.652797 0.615339
O O4 0.440211 0.952939 0.585208
O O5 0.180220 0.362952 0.267333
O O6 0.161040 0.664811 0.229405
O O7 0.000000 0.440794 0.250000
O O8 0.754631 0.617074 0.653334
O O9 0.876537 0.878443 0.661495
O O10 0.840889 0.698056 0.553306
O O11 0.843209 0.005946 0.580043
O O12 0.808757 0.930847 0.493943
O O13 0.266350 0.415398 0.917241
O O14 0.543607 0.359009 0.569317
O O15 0.250000 0.750000 0.500000
#
# Coordination Sequence:
#
# PCOD8149110 Si02
#       7
#     8   8   8   8   8   8   8
#     4  11  24  44  73  99 138 180 221 292 348 406
#     4  11  23  44  71 100 131 175 223 279 356 413
#     4  10  24  46  67 101 136 171 227 285 342 418
#     4  11  24  44  68  99 138 182 229 281 333 408
#     4  10  23  44  67 100 136 177 226 281 341 406
#     4  11  24  46  65  99 142 176 231 284 336 407
#     4  12  26  42  69 101 139 192 237 276 345 407
#
# _framework density 22.046461000000001
#
# number of rings (size 3 to 8) (size 9 to 14) (size 15 to 20)
#    0.000    1.143    1.429    4.286    6.000    0.571 
#    7.714    0.714    0.000    0.000    0.000    0.000 
#    0.000    0.000    0.000    0.000    0.000    0.000 
#
# Total GULP energy -347243.127263 kJ/mol
# GULP energy per Si atom -12401.540259 kJ/mol
# Density = 2.199628 g / cm^3
# Si number density = 22.046461 Si / 1000 Ang^3
#
#
#
# Elastic Constant Matrix: (Units=GPa)
#
#
# Indices 1 2 3 4 5 6 
#
# 1 156.2093 40.2414 48.9839 0.0000 14.6469 0.0000
# 2 40.2414 67.5133 25.8284 0.0000 10.0116 0.0000
# 3 48.9839 25.8284 73.3729 0.0000 9.9159 0.0000
# 4 0.0000 0.0000 0.0000 31.7048 0.0000 9.8823
# 5 14.6469 10.0116 9.9159 0.0000 38.5120 0.0000
# 6 0.0000 0.0000 0.0000 9.8823 0.0000 33.5453
#
#
#
# Elastic Compliance Matrix: (Units=1/GPa)
#
#
# Indices 1 2 3 4 5 6 
#
# 1 0.008800 -0.003317 -0.004529 0.000000 -0.001318 0.000000
# 2 -0.003317 0.018709 -0.004025 0.000000 -0.002566 0.000000
# 3 -0.004529 -0.004025 0.018333 0.000000 -0.001952 0.000000
# 4 0.000000 0.000000 0.000000 0.034730 0.000000 -0.010231
# 5 -0.001318 -0.002566 -0.001952 0.000000 0.027637 0.000000
# 6 0.000000 0.000000 0.000000 -0.010231 0.000000 0.032824
#
#
# Mechanical properties :
#
#
# Convention : Reuss Voigt Hill
#
# Bulk Modulus (GPa) = 45.24745 58.57812 51.91278
# Shear Modulus (GPa) = 29.04572 32.88855 30.96713
#
# Velocity S-wave (km/s) = 3.63365 3.86655 3.75191
# Velocity P-wave (km/s) = 6.17841 6.82361 6.50901
#
# Compressibility (1/GPa) = 0.02210069
#
# Stress axis : x y z
#
# Youngs Moduli (GPa) = 113.63591 53.44950 54.54608
#
# Poissons Ratio (x) = 0.17730 0.24704
# Poissons Ratio (y) = 0.37694 0.21953
# Poissons Ratio (z) = 0.51467 0.21512
#
# Static dielectric constant tensor:
#      x y z
#    x 4.294250 0.000000 0.237580 
#    y 0.000000 4.042540 0.000000 
#    z 0.237580 0.000000 4.035590 
# 
# 
# High freq. dielectric constant tensor:
#      x y z
#    x 1.882350 0.000000 0.009950 
#    y 0.000000 1.867460 0.000000 
#    z 0.009950 0.000000 1.866380 
# 
# From -- ./inp_files/291519.got.cif
#   From: 2010.06.25/outbox.cif.g09.slc.cpg/sg15_146_cif.got.tgz:291519.got - 2010.06.28 07:06:18.
