data_PCOD8149408
_publ_section_title
;
Structure prediction by ZEFSAII (Michael W. Deem and Ramdas Pophale) SiO2 
 PCOD8149408
Probable space group: C 2/C
;
_chemical_formula_sum "Si O2"
_cell_formula_units_Z 56
_cell_length_a 11.193319
_cell_length_b 20.260067
_cell_length_c 11.785129
_cell_angle_alpha 90.000000
_cell_angle_beta 75.205817
_cell_angle_gamma 90.000000
_cell_volume 2584.002289
_symmetry_space_group_name_H-M "C 2/C"
_symmetry_group_IT_number 15
_symmetry_cell_setting 'monoclinic'
loop_
_space_group_symop_operation_xyz
x,y,z
-x,y,1/2-z
-x,-y,-z
x,-y,1/2+z
1/2+x,1/2+y,z
1/2-x,1/2+y,1/2-z
1/2-x,1/2-y,-z
1/2+x,1/2-y,1/2+z
loop_
_atom_site_type_symbol
_atom_site_label
_atom_site_fract_x
_atom_site_fract_y
_atom_site_fract_z
Si Si1 0.242063 0.911588 0.553301
Si Si2 0.831219 0.185848 0.609496
Si Si3 0.383730 0.759996 0.209018
Si Si4 0.541623 0.185489 0.480261
Si Si5 0.615094 0.462098 0.025105
Si Si6 0.727568 0.377634 0.803146
Si Si7 0.000000 0.354745 0.750000
Si Si8 0.500000 0.620217 0.750000
O O1 0.157362 0.872082 0.484792
O O2 0.382277 0.882642 0.515603
O O3 0.181325 0.904312 0.692742
O O4 0.230503 0.988322 0.520778
O O5 0.691252 0.192221 0.688511
O O6 0.865769 0.252762 0.534770
O O7 0.917393 0.168592 0.694482
O O8 0.500000 0.730861 0.250000
O O9 0.295124 0.701315 0.186971
O O10 0.428567 0.805916 0.094164
O O11 0.487039 0.188391 0.366802
O O12 0.654541 0.408332 0.924093
O O13 0.500000 0.500000 0.000000
O O14 0.583623 0.426318 0.150444
O O15 0.873096 0.396532 0.775549
#
# Coordination Sequence:
#
# PCOD8149408 Si02
#       8
#     8   8   8   8   8   8   4   4
#     4  11  23  45  67  93 142 179 226 282 331 412
#     4  12  23  43  66 105 142 171 223 286 350 399
#     4  12  24  38  72 106 137 180 225 280 352 419
#     4  11  23  42  66 100 139 176 222 281 342 414
#     4  12  26  46  69 101 136 185 237 285 342 408
#     4  11  26  44  71 100 136 185 231 277 349 414
#     4  10  23  46  64  98 138 177 220 278 344 410
#     4  12  27  44  68 106 144 177 224 300 342 408
#
# _framework density 21.671807000000001
#
# number of rings (size 3 to 8) (size 9 to 14) (size 15 to 20)
#    0.000    0.571    5.714    3.429    4.000    0.571 
#    0.000    4.286    0.000    0.000    0.000    0.000 
#    0.000    0.000    0.000    0.000    0.000    0.000 
#
# Total GULP energy -347189.515211 kJ/mol
# GULP energy per Si atom -12399.625543 kJ/mol
# Density = 2.162248 g / cm^3
# Si number density = 21.671807 Si / 1000 Ang^3
#
#
#
# Elastic Constant Matrix: (Units=GPa)
#
#
# Indices 1 2 3 4 5 6 
#
# 1 95.7831 25.0269 30.1150 0.0000 2.3139 0.0000
# 2 25.0269 84.4827 36.8295 0.0000 -6.9320 0.0000
# 3 30.1150 36.8295 153.5559 0.0000 -7.8233 0.0000
# 4 0.0000 0.0000 0.0000 25.6165 0.0000 0.0637
# 5 2.3139 -6.9320 -7.8233 0.0000 36.3243 0.0000
# 6 0.0000 0.0000 0.0000 0.0637 0.0000 28.6191
#
#
#
# Elastic Compliance Matrix: (Units=1/GPa)
#
#
# Indices 1 2 3 4 5 6 
#
# 1 0.011768 -0.002881 -0.001702 0.000000 -0.001666 0.000000
# 2 -0.002881 0.014050 -0.002688 0.000000 0.002286 0.000000
# 3 -0.001702 -0.002688 0.007553 0.000000 0.001222 0.000000
# 4 0.000000 0.000000 0.000000 0.039038 0.000000 -0.000087
# 5 -0.001666 0.002286 0.001222 0.000000 0.028335 0.000000
# 6 0.000000 0.000000 0.000000 -0.000087 0.000000 0.034942
#
#
# Mechanical properties :
#
#
# Convention : Reuss Voigt Hill
#
# Bulk Modulus (GPa) = 53.11001 57.52938 55.31969
# Shear Modulus (GPa) = 31.94798 34.23533 33.09165
#
# Velocity S-wave (km/s) = 3.84366 3.97888 3.91185
# Velocity P-wave (km/s) = 6.65267 6.90739 6.78122
#
# Compressibility (1/GPa) = 0.01882884
#
# Stress axis : x y z
#
# Youngs Moduli (GPa) = 84.97368 71.17602 132.39629
#
# Poissons Ratio (x) = 0.20506 0.22532
# Poissons Ratio (y) = 0.24481 0.35592
# Poissons Ratio (z) = 0.14461 0.19134
#
# Static dielectric constant tensor:
#      x y z
#    x 3.867760 0.000000 0.090740 
#    y 0.000000 3.712080 0.000000 
#    z 0.090740 0.000000 4.243720 
# 
# 
# High freq. dielectric constant tensor:
#      x y z
#    x 1.848770 0.000000 0.011620 
#    y 0.000000 1.826510 0.000000 
#    z 0.011620 0.000000 1.876690 
# 
# From -- ./inp_files/89596.got.cif
#   From: 2010.06.25/outbox.cif.g09.slc.cpg/sg15_45_cif.got.tgz:89596.got - 2010.06.28 07:06:18.
