data_PCOD8149981
_publ_section_title
;
Structure prediction by ZEFSAII (Michael W. Deem and Ramdas Pophale) SiO2 
 PCOD8149981
Probable space group: C 2/C
;
_chemical_formula_sum "Si O2"
_cell_formula_units_Z 56
_cell_length_a 28.697972
_cell_length_b 12.803162
_cell_length_c 9.081243
_cell_angle_alpha 90.000000
_cell_angle_beta 130.186172
_cell_angle_gamma 90.000000
_cell_volume 2549.057866
_symmetry_space_group_name_H-M "C 2/C"
_symmetry_group_IT_number 15
_symmetry_cell_setting 'monoclinic'
loop_
_space_group_symop_operation_xyz
x,y,z
-x,y,1/2-z
-x,-y,-z
x,-y,1/2+z
1/2+x,1/2+y,z
1/2-x,1/2+y,1/2-z
1/2-x,1/2-y,-z
1/2+x,1/2-y,1/2+z
loop_
_atom_site_type_symbol
_atom_site_label
_atom_site_fract_x
_atom_site_fract_y
_atom_site_fract_z
Si Si1 0.166249 0.640056 0.569378
Si Si2 0.951159 0.752370 0.265293
Si Si3 0.466748 0.166871 0.830732
Si Si4 0.606531 0.375233 0.874007
Si Si5 0.566314 0.544220 0.598754
Si Si6 0.224607 0.746248 0.111510
Si Si7 0.656509 0.941165 0.371653
O O1 0.101504 0.697140 0.436300
O O2 0.219664 0.727871 0.663738
O O3 0.170876 0.560566 0.442081
O O4 0.175064 0.578097 0.740540
O O5 0.921890 0.845127 0.299490
O O6 0.000000 0.798605 0.250000
O O7 0.983272 0.667487 0.437259
O O8 0.500000 0.132610 0.750000
O O9 0.439397 0.283121 0.763816
O O10 0.415309 0.081235 0.757521
O O11 0.613364 0.456982 0.753596
O O12 0.577881 0.439796 0.950393
O O13 0.673572 0.332794 0.042535
O O14 0.500000 0.500000 0.500000
O O15 0.250000 0.750000 0.000000
O O16 0.194274 0.631804 0.064245
#
# Coordination Sequence:
#
# PCOD8149981 Si02
#       7
#     8   8   8   8   8   8   8
#     4  11  25  43  65  98 122 171 220 273 332 393
#     4  12  24  40  64  96 136 173 220 273 336 407
#     4  11  21  41  63  90 132 171 214 267 335 395
#     4  11  23  39  64  97 131 179 221 271 341 396
#     4  12  23  38  64 103 137 172 220 276 333 413
#     4   9  23  46  68  89 130 173 222 275 330 394
#     4  10  24  43  67  91 130 165 217 272 327 398
#
# _framework density 21.968902
#
# number of rings (size 3 to 8) (size 9 to 14) (size 15 to 20)
#    0.000    1.143    4.286    1.286    2.000    4.571 
#    0.000    1.429    0.000    0.000    0.000    0.000 
#    0.000    0.000    0.000    0.000    0.000    0.000 
#
# Total GULP energy -347239.680302 kJ/mol
# GULP energy per Si atom -12401.417154 kJ/mol
# Density = 2.191890 g / cm^3
# Si number density = 21.968902 Si / 1000 Ang^3
#
#
#
# Elastic Constant Matrix: (Units=GPa)
#
#
# Indices 1 2 3 4 5 6 
#
# 1 66.7213 -0.8054 19.8846 0.0000 10.3459 0.0000
# 2 -0.8054 62.1033 26.8801 0.0000 11.1930 0.0000
# 3 19.8846 26.8801 105.8319 0.0000 16.8329 0.0000
# 4 0.0000 0.0000 0.0000 34.0324 0.0000 -7.3598
# 5 10.3459 11.1930 16.8329 0.0000 39.2911 0.0000
# 6 0.0000 0.0000 0.0000 -7.3598 0.0000 30.0253
#
#
#
# Elastic Compliance Matrix: (Units=1/GPa)
#
#
# Indices 1 2 3 4 5 6 
#
# 1 0.016498 0.002205 -0.003079 0.000000 -0.003653 0.000000
# 2 0.002205 0.018824 -0.004561 0.000000 -0.003989 0.000000
# 3 -0.003079 -0.004561 0.011644 0.000000 -0.002878 0.000000
# 4 0.000000 0.000000 0.000000 0.031029 0.000000 0.007606
# 5 -0.003653 -0.003989 -0.002878 0.000000 0.028783 0.000000
# 6 0.000000 0.000000 0.000000 0.007606 0.000000 0.035170
#
#
# Mechanical properties :
#
#
# Convention : Reuss Voigt Hill
#
# Bulk Modulus (GPa) = 27.70345 36.28612 31.99478
# Shear Modulus (GPa) = 30.33094 33.24956 31.79025
#
# Velocity S-wave (km/s) = 3.71971 3.89457 3.80815
# Velocity P-wave (km/s) = 5.57549 6.06436 5.82505
#
# Compressibility (1/GPa) = 0.03609659
#
# Stress axis : x y z
#
# Youngs Moduli (GPa) = 60.61185 53.12406 85.88371
#
# Poissons Ratio (x) = -0.11714 0.26442
# Poissons Ratio (y) = -0.13365 0.39171
# Poissons Ratio (z) = 0.18661 0.24229
#
# Static dielectric constant tensor:
#      x y z
#    x 6.323300 0.000000 1.081800 
#    y 0.000000 3.876610 0.000000 
#    z 1.081800 0.000000 4.515200 
# 
# 
# High freq. dielectric constant tensor:
#      x y z
#    x 1.857820 0.000000 0.003810 
#    y 0.000000 1.857830 0.000000 
#    z 0.003810 0.000000 1.864160 
# 
# From -- ./inp_files/69977.got.cif
#   From: 2010.06.25/outbox.cif.g09.slc.cpg/sg15_35_cif.got.tgz:69977.got - 2010.06.28 07:06:18.
