data_PCOD8149170
_publ_section_title
;
Structure prediction by ZEFSAII (Michael W. Deem and Ramdas Pophale) SiO2 
 PCOD8149170
Probable space group: C 2/C
;
_chemical_formula_sum "Si O2"
_cell_formula_units_Z 40
_cell_length_a 9.233988
_cell_length_b 24.014453
_cell_length_c 17.367559
_cell_angle_alpha 90.000000
_cell_angle_beta 151.178533
_cell_angle_gamma 90.000000
_cell_volume 1856.614222
_symmetry_space_group_name_H-M "C 2/C"
_symmetry_group_IT_number 15
_symmetry_cell_setting 'monoclinic'
loop_
_space_group_symop_operation_xyz
x,y,z
-x,y,1/2-z
-x,-y,-z
x,-y,1/2+z
1/2+x,1/2+y,z
1/2-x,1/2+y,1/2-z
1/2-x,1/2-y,-z
1/2+x,1/2-y,1/2+z
loop_
_atom_site_type_symbol
_atom_site_label
_atom_site_fract_x
_atom_site_fract_y
_atom_site_fract_z
Si Si1 0.310461 0.541782 0.358604
Si Si2 0.809584 0.628059 0.593782
Si Si3 0.354673 0.146866 0.911013
Si Si4 0.211814 0.750591 0.072574
Si Si5 0.673267 0.045881 0.127976
O O1 0.500000 0.500000 0.500000
O O2 0.516152 0.594294 0.434342
O O3 0.206183 0.517946 0.227618
O O4 0.000000 0.562355 0.250000
O O5 0.684386 0.683929 0.578783
O O6 0.000000 0.596614 0.750000
O O7 0.014250 0.635532 0.613433
O O8 0.000000 0.139601 0.750000
O O9 0.435626 0.211122 0.970381
O O10 0.491019 0.104042 0.037258
O O11 0.500000 0.724867 0.250000
O O12 0.250000 0.750000 0.000000
O O13 0.000000 0.058733 0.250000
O O14 0.500000 0.000000 0.000000
#
# Coordination Sequence:
#
# PCOD8149170 Si02
#       5
#     8   8   8   8   8
#     4  12  27  44  69  95 133 177 222 277 340 401
#     4  10  23  44  68  99 138 177 219 275 335 399
#     4  11  24  42  70 102 136 177 227 279 331 398
#     4   9  20  41  68  96 134 175 217 270 330 392
#     4  12  25  44  68  97 132 174 226 280 332 398
#
# _framework density 21.544594
#
# number of rings (size 3 to 8) (size 9 to 14) (size 15 to 20)
#    0.000    1.200    2.000    3.000    8.400    0.800 
#    0.000    9.000    0.000    0.000    0.000    0.000 
#    0.000    0.000    0.000    0.000    0.000    0.000 
#
# Total GULP energy -247834.708373 kJ/mol
# GULP energy per Si atom -12391.735419 kJ/mol
# Density = 2.149556 g / cm^3
# Si number density = 21.544594 Si / 1000 Ang^3
#
#
#
# Elastic Constant Matrix: (Units=GPa)
#
#
# Indices 1 2 3 4 5 6 
#
# 1 110.6183 33.9894 73.0739 -0.0050 -0.2982 0.0133
# 2 33.9894 97.8722 60.9046 -0.0038 8.3596 0.0260
# 3 73.0739 60.9046 175.0332 0.0708 3.7357 -0.0925
# 4 -0.0050 -0.0038 0.0708 -24.5917 0.0028 -15.4938
# 5 -0.2982 8.3596 3.7357 0.0028 61.6157 0.0014
# 6 0.0133 0.0260 -0.0925 -15.4938 0.0014 23.8887
#
#
#
# Elastic Compliance Matrix: (Units=1/GPa)
#
#
# Indices 1 2 3 4 5 6 
#
# 1 0.012652 -0.001463 -0.004785 -0.000001 0.000550 -0.000024
# 2 -0.001463 0.013350 -0.004001 0.000003 -0.001576 -0.000027
# 3 -0.004785 -0.004001 0.009103 0.000001 -0.000032 0.000043
# 4 -0.000001 0.000003 0.000001 -0.028868 0.000001 -0.018723
# 5 0.000550 -0.001576 -0.000032 0.000001 0.016448 0.000001
# 6 -0.000024 -0.000027 0.000043 -0.018723 0.000001 0.029718
#
#
# Mechanical properties :
#
#
# Convention : Reuss Voigt Hill
#
# Bulk Modulus (GPa) = 68.45577 79.93997 74.19787
# Shear Modulus (GPa) = 64.29274 26.55291 45.42283
#
# Velocity S-wave (km/s) = 5.46868 3.51445 4.59662
# Velocity P-wave (km/s) = 8.46866 7.32485 7.91744
#
# Compressibility (1/GPa) = 0.01460797
#
# Stress axis : x y z
#
# Youngs Moduli (GPa) = 79.03978 74.90775 109.84865
#
# Poissons Ratio (x) = 0.10962 0.52557
# Poissons Ratio (y) = 0.11567 0.43946
# Poissons Ratio (z) = 0.37817 0.29968
#
# Static dielectric constant tensor:
#      x y z
#    x 3.769330 -0.000730 -0.065900 
#    y -0.000730 4.690190 0.002190 
#    z -0.065900 0.002190 4.151740 
# 
# 
# High freq. dielectric constant tensor:
#      x y z
#    x 1.831500 0.000000 -0.016740 
#    y 0.000000 1.849100 -0.000010 
#    z -0.016740 -0.000010 1.870650 
# 
# From -- ./inp_files/193429.got.cif
#   From: 2010.06.25/outbox.cif.g09.slc.cpg/sg15_97_cif.got.tgz:193429.got - 2010.06.28 07:06:18.
