data_PCOD8149122
_publ_section_title
;
Structure prediction by ZEFSAII (Michael W. Deem and Ramdas Pophale) SiO2 
 PCOD8149122
Probable space group: C 2/C
;
_chemical_formula_sum "Si O2"
_cell_formula_units_Z 64
_cell_length_a 18.800329
_cell_length_b 23.460805
_cell_length_c 14.122193
_cell_angle_alpha 90.000000
_cell_angle_beta 151.379802
_cell_angle_gamma 90.000000
_cell_volume 2983.645534
_symmetry_space_group_name_H-M "C 2/C"
_symmetry_group_IT_number 15
_symmetry_cell_setting 'monoclinic'
loop_
_space_group_symop_operation_xyz
x,y,z
-x,y,1/2-z
-x,-y,-z
x,-y,1/2+z
1/2+x,1/2+y,z
1/2-x,1/2+y,1/2-z
1/2-x,1/2-y,-z
1/2+x,1/2-y,1/2+z
loop_
_atom_site_type_symbol
_atom_site_label
_atom_site_fract_x
_atom_site_fract_y
_atom_site_fract_z
Si Si1 0.578112 0.712841 0.551875
Si Si2 0.882502 0.915164 0.037740
Si Si3 0.534981 0.168790 0.897616
Si Si4 0.447624 0.116440 0.290296
Si Si5 0.091307 0.251974 0.772646
Si Si6 0.349130 0.622323 0.283790
Si Si7 0.951438 0.030460 0.038690
Si Si8 0.688432 0.880482 0.223839
O O1 0.580806 0.775142 0.509424
O O2 0.573351 0.714839 0.659113
O O3 0.428925 0.680810 0.344264
O O4 0.727596 0.678201 0.703682
O O5 0.000000 0.887277 0.250000
O O6 0.715734 0.907297 0.880145
O O7 0.895578 0.889141 0.947609
O O8 0.924356 0.982422 0.085520
O O9 0.500000 0.187000 0.750000
O O10 0.394921 0.134369 0.775405
O O11 0.673857 0.125910 0.065477
O O12 0.500000 0.092776 0.250000
O O13 0.456730 0.184175 0.305699
O O14 0.566248 0.097087 0.506809
O O15 0.000000 0.222890 0.750000
O O16 0.250000 0.250000 0.000000
O O17 0.410818 0.573893 0.283392
O O18 0.801142 0.067255 0.860163
O O19 0.000000 0.000000 0.000000
#
# Coordination Sequence:
#
# PCOD8149122 Si02
#       8
#     8   8   8   8   8   8   8   8
#     4  11  23  40  67  97 138 183 219 271 330 398
#     4  11  24  42  69  98 133 172 220 277 339 413
#     4  12  26  44  68 100 132 180 233 279 331 390
#     4  11  24  39  61 104 140 174 223 266 336 398
#     4  11  24  35  59  99 144 181 214 254 324 407
#     4  10  23  44  67  94 134 172 222 275 332 399
#     4   9  23  45  69  93 125 177 221 272 350 398
#     4  11  23  45  69  96 139 175 225 292 329 401
#
# _framework density 21.450268999999999
#
# number of rings (size 3 to 8) (size 9 to 14) (size 15 to 20)
#    0.000    1.250    2.500    2.250   10.500    3.500 
#    0.000    3.125    0.000    0.000    0.000    0.000 
#    0.000    0.000    0.000    0.000    0.000    0.000 
#
# Total GULP energy -396616.466306 kJ/mol
# GULP energy per Si atom -12394.264572 kJ/mol
# Density = 2.140145 g / cm^3
# Si number density = 21.450269 Si / 1000 Ang^3
#
#
#
# Elastic Constant Matrix: (Units=GPa)
#
#
# Indices 1 2 3 4 5 6 
#
# 1 106.7159 16.6642 52.8475 0.0000 17.7857 0.0000
# 2 16.6642 69.4565 29.7439 0.0000 15.0875 0.0000
# 3 52.8475 29.7439 110.6065 0.0000 20.6517 0.0000
# 4 0.0000 0.0000 0.0000 22.7564 0.0000 7.6847
# 5 17.7857 15.0875 20.6517 0.0000 47.3116 0.0000
# 6 0.0000 0.0000 0.0000 7.6847 0.0000 17.7736
#
#
#
# Elastic Compliance Matrix: (Units=1/GPa)
#
#
# Indices 1 2 3 4 5 6 
#
# 1 0.012498 -0.000151 -0.005512 0.000000 -0.002244 0.000000
# 2 -0.000151 0.016846 -0.003773 0.000000 -0.003669 0.000000
# 3 -0.005512 -0.003773 0.013149 0.000000 -0.002464 0.000000
# 4 0.000000 0.000000 0.000000 0.051457 0.000000 -0.022248
# 5 -0.002244 -0.003669 -0.002464 0.000000 0.024226 0.000000
# 6 0.000000 0.000000 0.000000 -0.022248 0.000000 0.065883
#
#
# Mechanical properties :
#
#
# Convention : Reuss Voigt Hill
#
# Bulk Modulus (GPa) = 42.33334 53.92111 48.12722
# Shear Modulus (GPa) = 23.71866 30.06988 26.89427
#
# Velocity S-wave (km/s) = 3.32889 3.74818 3.54474
# Velocity P-wave (km/s) = 5.87825 6.62753 6.26410
#
# Compressibility (1/GPa) = 0.02362204
#
# Stress axis : x y z
#
# Youngs Moduli (GPa) = 80.01407 59.35981 76.04869
#
# Poissons Ratio (x) = 0.00894 0.41917
# Poissons Ratio (y) = 0.01205 0.28696
# Poissons Ratio (z) = 0.44103 0.22398
#
# Static dielectric constant tensor:
#      x y z
#    x 4.152230 0.000000 0.191540 
#    y 0.000000 3.931560 0.000000 
#    z 0.191540 0.000000 3.800180 
# 
# 
# High freq. dielectric constant tensor:
#      x y z
#    x 1.851520 0.000000 0.018200 
#    y 0.000000 1.839090 0.000000 
#    z 0.018200 0.000000 1.842460 
# 
# From -- ./inp_files/164260.got.cif
#   From: 2010.06.25/outbox.cif.g09.slc.cpg/sg15_83_cif.got.tgz:164260.got - 2010.06.28 07:06:18.
