data_PCOD8149664
_publ_section_title
;
Structure prediction by ZEFSAII (Michael W. Deem and Ramdas Pophale) SiO2 
 PCOD8149664
Probable space group: C 2/C
;
_chemical_formula_sum "Si O2"
_cell_formula_units_Z 56
_cell_length_a 21.532464
_cell_length_b 16.247121
_cell_length_c 17.839226
_cell_angle_alpha 90.000000
_cell_angle_beta 26.010223
_cell_angle_gamma 90.000000
_cell_volume 2736.824530
_symmetry_space_group_name_H-M "C 2/C"
_symmetry_group_IT_number 15
_symmetry_cell_setting 'monoclinic'
loop_
_space_group_symop_operation_xyz
x,y,z
-x,y,1/2-z
-x,-y,-z
x,-y,1/2+z
1/2+x,1/2+y,z
1/2-x,1/2+y,1/2-z
1/2-x,1/2-y,-z
1/2+x,1/2-y,1/2+z
loop_
_atom_site_type_symbol
_atom_site_label
_atom_site_fract_x
_atom_site_fract_y
_atom_site_fract_z
Si Si1 0.217364 0.948320 0.644550
Si Si2 0.191454 0.834726 0.818195
Si Si3 0.565218 0.489562 0.010637
Si Si4 0.650437 0.070528 0.756868
Si Si5 0.656337 0.170910 0.609692
Si Si6 0.001170 0.677416 0.033139
Si Si7 0.026677 0.563798 0.132994
O O1 0.214292 0.882726 0.715436
O O2 0.273596 0.905095 0.509245
O O3 0.322234 0.023092 0.549401
O O4 0.062637 0.987366 0.794085
O O5 0.092228 0.756638 0.912701
O O6 0.339582 0.801869 0.689054
O O7 0.120710 0.895632 0.956873
O O8 0.500000 0.500000 0.000000
O O9 0.692593 0.553222 0.883525
O O10 0.651567 0.149744 0.702114
O O11 0.549666 0.095768 0.935012
O O12 0.595447 0.992106 0.770905
O O13 0.500000 0.189439 0.750000
O O14 0.750000 0.250000 0.500000
O O15 0.019358 0.653309 0.101118
O O16 0.000000 0.575063 0.250000
#
# Coordination Sequence:
#
# PCOD8149664 Si02
#       7
#     8   8   8   8   8   8   8
#     4  11  22  42  65  94 136 170 219 275 320 394
#     4  11  24  41  63 100 129 170 221 272 329 389
#     4  10  24  40  65  96 128 169 228 273 321 388
#     4  12  22  44  69  95 128 180 222 266 327 400
#     4  12  25  41  63 100 143 176 212 263 340 406
#     4  12  25  40  69  94 133 172 217 276 331 386
#     4  12  23  46  71  94 127 179 227 271 323 391
#
# _framework density 20.461669000000001
#
# number of rings (size 3 to 8) (size 9 to 14) (size 15 to 20)
#    0.000    0.571    5.714    3.000    8.000    0.000 
#    0.000    0.714    3.143    0.000    0.000    0.000 
#    0.000    0.000    0.000    0.000    0.000    0.000 
#
# Total GULP energy -347261.412142 kJ/mol
# GULP energy per Si atom -12402.193291 kJ/mol
# Density = 2.041510 g / cm^3
# Si number density = 20.461669 Si / 1000 Ang^3
#
#
#
# Elastic Constant Matrix: (Units=GPa)
#
#
# Indices 1 2 3 4 5 6 
#
# 1 102.0970 33.2099 51.1633 -0.0018 -12.7493 0.0014
# 2 33.2099 72.7057 36.6027 -0.0028 -6.2097 0.0020
# 3 51.1633 36.6027 128.2404 -0.0027 -26.8027 0.0030
# 4 -0.0018 -0.0028 -0.0027 42.3398 0.0017 -7.3511
# 5 -12.7493 -6.2097 -26.8027 0.0017 45.0583 -0.0017
# 6 0.0014 0.0020 0.0030 -7.3511 -0.0017 24.3052
#
#
#
# Elastic Compliance Matrix: (Units=1/GPa)
#
#
# Indices 1 2 3 4 5 6 
#
# 1 0.013164 -0.003953 -0.003950 0.000000 0.000830 0.000000
# 2 -0.003953 0.017263 -0.003525 0.000001 -0.000836 -0.000001
# 3 -0.003950 -0.003525 0.011471 0.000000 0.005220 -0.000001
# 4 0.000000 0.000001 0.000000 0.024927 -0.000001 0.007539
# 5 0.000830 -0.000836 0.005220 -0.000001 0.025418 0.000001
# 6 0.000000 -0.000001 -0.000001 0.007539 0.000001 0.043424
#
#
# Mechanical properties :
#
#
# Convention : Reuss Voigt Hill
#
# Bulk Modulus (GPa) = 52.51745 60.55499 56.53622
# Shear Modulus (GPa) = 30.32697 34.47846 32.40271
#
# Velocity S-wave (km/s) = 3.85403 4.10936 3.98374
# Velocity P-wave (km/s) = 6.74735 7.22318 6.98932
#
# Compressibility (1/GPa) = 0.01904129
#
# Stress axis : x y z
#
# Youngs Moduli (GPa) = 75.96700 57.92763 87.17824
#
# Poissons Ratio (x) = 0.22901 0.34435
# Poissons Ratio (y) = 0.30032 0.30728
# Poissons Ratio (z) = 0.30006 0.20418
#
# Static dielectric constant tensor:
#      x y z
#    x 3.704270 0.000000 -0.105280 
#    y 0.000000 3.612540 0.000010 
#    z -0.105280 0.000010 4.484390 
# 
# 
# High freq. dielectric constant tensor:
#      x y z
#    x 1.797320 0.000000 -0.011660 
#    y 0.000000 1.790060 0.000000 
#    z -0.011660 0.000000 1.814230 
# 
# From -- ./inp_files/49169.got.cif
#   From: 2010.06.25/outbox.cif.g09.slc.cpg/sg15_25_cif.got.tgz:49169.got - 2010.06.28 07:06:18.
