data_PCOD8149160
_publ_section_title
;
Structure prediction by ZEFSAII (Michael W. Deem and Ramdas Pophale) SiO2 
 PCOD8149160
Probable space group: C 2/C
;
_chemical_formula_sum "Si O2"
_cell_formula_units_Z 56
_cell_length_a 14.819863
_cell_length_b 19.073062
_cell_length_c 8.608535
_cell_angle_alpha 90.000000
_cell_angle_beta 91.809696
_cell_angle_gamma 90.000000
_cell_volume 2432.076280
_symmetry_space_group_name_H-M "C 2/C"
_symmetry_group_IT_number 15
_symmetry_cell_setting 'monoclinic'
loop_
_space_group_symop_operation_xyz
x,y,z
-x,y,1/2-z
-x,-y,-z
x,-y,1/2+z
1/2+x,1/2+y,z
1/2-x,1/2+y,1/2-z
1/2-x,1/2-y,-z
1/2+x,1/2-y,1/2+z
loop_
_atom_site_type_symbol
_atom_site_label
_atom_site_fract_x
_atom_site_fract_y
_atom_site_fract_z
Si Si1 0.329045 0.348471 0.459979
Si Si2 0.064114 0.031939 0.379249
Si Si3 0.149111 0.891123 0.373905
Si Si4 0.021216 0.634169 0.571046
Si Si5 0.185273 0.444343 0.937148
Si Si6 0.165261 0.407998 0.577271
Si Si7 0.493371 0.276078 0.070663
O O1 0.362140 0.419674 0.540896
O O2 0.312251 0.351313 0.274106
O O3 0.231048 0.340876 0.538378
O O4 0.406081 0.290219 0.494311
O O5 0.000000 0.070879 0.250000
O O6 0.114975 0.965461 0.304899
O O7 0.000000 0.000000 0.500000
O O8 0.225400 0.902055 0.507547
O O9 0.067431 0.846283 0.446742
O O10 0.935965 0.615706 0.460132
O O11 0.000000 0.625023 0.750000
O O12 0.101260 0.581844 0.533889
O O13 0.050704 0.713823 0.532107
O O14 0.171941 0.430280 0.755633
O O15 0.193453 0.527391 0.966995
O O16 0.500000 0.252625 0.250000
#
# Coordination Sequence:
#
# PCOD8149160 Si02
#       7
#     8   8   8   8   8   8   8
#     4  11  23  39  64  99 136 174 217 267 324 392
#     4  12  21  34  59  93 136 177 212 263 325 386
#     4  11  22  40  63 100 135 175 215 268 326 387
#     4  12  27  49  70  93 126 173 226 277 326 390
#     4  12  26  44  71  99 133 169 219 274 333 387
#     4  12  26  44  70 100 132 170 219 274 332 387
#     4  10  23  44  68  95 137 178 220 266 323 388
#
# _framework density 23.025593000000001
#
# number of rings (size 3 to 8) (size 9 to 14) (size 15 to 20)
#    0.000    0.571    4.286    4.714    2.000    2.857 
#    0.000    0.000    0.000    0.000    0.000    0.000 
#    0.000    0.000    0.000    0.000    0.000    0.000 
#
# Total GULP energy -347159.750917 kJ/mol
# GULP energy per Si atom -12398.562533 kJ/mol
# Density = 2.297319 g / cm^3
# Si number density = 23.025593 Si / 1000 Ang^3
#
#
#
# Elastic Constant Matrix: (Units=GPa)
#
#
# Indices 1 2 3 4 5 6 
#
# 1 112.0202 15.0816 25.6625 0.0000 8.0017 0.0000
# 2 15.0816 43.6634 8.8661 0.0000 0.8680 0.0000
# 3 25.6625 8.8661 116.5648 0.0000 7.6409 0.0000
# 4 0.0000 0.0000 0.0000 31.9774 0.0000 -0.7554
# 5 8.0017 0.8680 7.6409 0.0000 43.8437 0.0000
# 6 0.0000 0.0000 0.0000 -0.7554 0.0000 25.8797
#
#
#
# Elastic Compliance Matrix: (Units=1/GPa)
#
#
# Indices 1 2 3 4 5 6 
#
# 1 0.009856 -0.003001 -0.001849 0.000000 -0.001417 0.000000
# 2 -0.003001 0.024176 -0.001196 0.000000 0.000278 0.000000
# 3 -0.001849 -0.001196 0.009158 0.000000 -0.001235 0.000000
# 4 0.000000 0.000000 0.000000 0.031294 0.000000 0.000913
# 5 -0.001417 0.000278 -0.001235 0.000000 0.023277 0.000000
# 6 0.000000 0.000000 0.000000 0.000913 0.000000 0.038667
#
#
# Mechanical properties :
#
#
# Convention : Reuss Voigt Hill
#
# Bulk Modulus (GPa) = 32.15606 41.27430 36.71518
# Shear Modulus (GPa) = 31.46933 35.18272 33.32603
#
# Velocity S-wave (km/s) = 3.70092 3.91318 3.80853
# Velocity P-wave (km/s) = 5.67962 6.19529 5.94305
#
# Compressibility (1/GPa) = 0.03109833
#
# Stress axis : x y z
#
# Youngs Moduli (GPa) = 101.46431 41.36270 109.19569
#
# Poissons Ratio (x) = 0.12412 0.20187
# Poissons Ratio (y) = 0.30446 0.13065
# Poissons Ratio (z) = 0.18757 0.04949
#
# Static dielectric constant tensor:
#      x y z
#    x 4.305690 0.000000 -0.077190 
#    y 0.000000 3.792340 0.000000 
#    z -0.077190 0.000000 4.005140 
# 
# 
# High freq. dielectric constant tensor:
#      x y z
#    x 1.924490 0.000000 -0.000670 
#    y 0.000000 1.891960 0.000000 
#    z -0.000670 0.000000 1.913430 
# 
# From -- ./inp_files/41223.got.cif
#   From: 2010.06.25/outbox.cif.g09.slc.cpg/sg15_21_cif.got.tgz:41223.got - 2010.06.28 07:06:18.
