data_PCOD8149975
_publ_section_title
;
Structure prediction by ZEFSAII (Michael W. Deem and Ramdas Pophale) SiO2 
 PCOD8149975
Probable space group: C 2/C
;
_chemical_formula_sum "Si O2"
_cell_formula_units_Z 48
_cell_length_a 22.224615
_cell_length_b 11.262112
_cell_length_c 9.054958
_cell_angle_alpha 90.000000
_cell_angle_beta 104.900322
_cell_angle_gamma 90.000000
_cell_volume 2190.211478
_symmetry_space_group_name_H-M "C 2/C"
_symmetry_group_IT_number 15
_symmetry_cell_setting 'monoclinic'
loop_
_space_group_symop_operation_xyz
x,y,z
-x,y,1/2-z
-x,-y,-z
x,-y,1/2+z
1/2+x,1/2+y,z
1/2-x,1/2+y,1/2-z
1/2-x,1/2-y,-z
1/2+x,1/2-y,1/2+z
loop_
_atom_site_type_symbol
_atom_site_label
_atom_site_fract_x
_atom_site_fract_y
_atom_site_fract_z
Si Si1 0.716719 0.369572 0.315912
Si Si2 0.419706 0.727513 0.337658
Si Si3 0.650737 0.527284 0.056930
Si Si4 0.861760 0.652443 0.292048
Si Si5 0.558596 0.317186 0.975299
Si Si6 0.855124 0.576544 0.967403
O O1 0.706943 0.451113 0.164300
O O2 0.671903 0.421866 0.413621
O O3 0.699314 0.233811 0.267284
O O4 0.787853 0.363243 0.408258
O O5 0.365365 0.636634 0.346870
O O6 0.420814 0.746721 0.163223
O O7 0.484411 0.673470 0.438583
O O8 0.406005 0.855226 0.401021
O O9 0.588943 0.447443 0.998436
O O10 0.918732 0.738191 0.372411
O O11 0.850082 0.559720 0.415911
O O12 0.877194 0.583180 0.150898
#
# Coordination Sequence:
#
# PCOD8149975 Si02
#       6
#     8   8   8   8   8   8
#     4  11  24  41  69 100 138 170 225 275 341 402
#     4  11  23  42  67  96 134 177 221 276 336 395
#     4  11  21  42  67 101 133 173 218 281 340 396
#     4  11  25  44  64  98 132 177 230 271 336 391
#     4  10  24  43  66  97 132 175 228 276 331 402
#     4  12  25  42  68  95 138 181 222 275 333 405
#
# _framework density 21.915693000000001
#
# number of rings (size 3 to 8) (size 9 to 14) (size 15 to 20)
#    0.000    1.000    3.333    3.000    2.333    1.333 
#    0.000    4.167    0.000    0.000    0.000    0.000 
#    0.000    0.000    0.000    0.000    0.000    0.000 
#
# Total GULP energy -297736.347298 kJ/mol
# GULP energy per Si atom -12405.681137 kJ/mol
# Density = 2.186581 g / cm^3
# Si number density = 21.915693 Si / 1000 Ang^3
#
#
#
# Elastic Constant Matrix: (Units=GPa)
#
#
# Indices 1 2 3 4 5 6 
#
# 1 66.9049 19.0194 16.8427 0.0000 2.8040 0.0000
# 2 19.0194 105.5203 37.3761 0.0000 -13.9006 0.0000
# 3 16.8427 37.3761 105.1858 0.0000 -1.0920 0.0000
# 4 0.0000 0.0000 0.0000 49.1992 0.0000 -4.9524
# 5 2.8040 -13.9006 -1.0920 0.0000 27.4031 0.0000
# 6 0.0000 0.0000 0.0000 -4.9524 0.0000 24.4061
#
#
#
# Elastic Compliance Matrix: (Units=1/GPa)
#
#
# Indices 1 2 3 4 5 6 
#
# 1 0.016280 -0.002759 -0.001659 0.000000 -0.003132 0.000000
# 2 -0.002759 0.012154 -0.003811 0.000000 0.006296 0.000000
# 3 -0.001659 -0.003811 0.011113 0.000000 -0.001321 0.000000
# 4 0.000000 0.000000 0.000000 0.020749 0.000000 0.004210
# 5 -0.003132 0.006296 -0.001321 0.000000 0.039954 0.000000
# 6 0.000000 0.000000 0.000000 0.004210 0.000000 0.041828
#
#
# Mechanical properties :
#
#
# Convention : Reuss Voigt Hill
#
# Bulk Modulus (GPa) = 43.31336 47.12081 45.21709
# Shear Modulus (GPa) = 30.07842 33.82652 31.95247
#
# Velocity S-wave (km/s) = 3.70869 3.93298 3.82248
# Velocity P-wave (km/s) = 6.17622 6.49400 6.33711
#
# Compressibility (1/GPa) = 0.02308756
#
# Stress axis : x y z
#
# Youngs Moduli (GPa) = 61.42571 82.28041 89.98311
#
# Poissons Ratio (x) = 0.22704 0.14927
# Poissons Ratio (y) = 0.16949 0.34296
# Poissons Ratio (z) = 0.10189 0.31360
#
# Static dielectric constant tensor:
#      x y z
#    x 3.669530 0.000000 0.034000 
#    y 0.000000 3.918440 0.000000 
#    z 0.034000 0.000000 4.077340 
# 
# 
# High freq. dielectric constant tensor:
#      x y z
#    x 1.842780 0.000000 0.003370 
#    y 0.000000 1.869730 0.000000 
#    z 0.003370 0.000000 1.875590 
# 
# From -- ./inp_files/60889.got.cif
#   From: 2010.06.25/outbox.cif.g09.slc.cpg/sg15_31_cif.got.tgz:60889.got - 2010.06.28 07:06:18.
