data_PCOD8149596
_publ_section_title
;
Structure prediction by ZEFSAII (Michael W. Deem and Ramdas Pophale) SiO2 
 PCOD8149596
Probable space group: C 2/C
;
_chemical_formula_sum "Si O2"
_cell_formula_units_Z 28
_cell_length_a 9.766562
_cell_length_b 25.630317
_cell_length_c 5.296390
_cell_angle_alpha 90.000000
_cell_angle_beta 103.344776
_cell_angle_gamma 90.000000
_cell_volume 1289.994766
_symmetry_space_group_name_H-M "C 2/C"
_symmetry_group_IT_number 15
_symmetry_cell_setting 'monoclinic'
loop_
_space_group_symop_operation_xyz
x,y,z
-x,y,1/2-z
-x,-y,-z
x,-y,1/2+z
1/2+x,1/2+y,z
1/2-x,1/2+y,1/2-z
1/2-x,1/2-y,-z
1/2+x,1/2-y,1/2+z
loop_
_atom_site_type_symbol
_atom_site_label
_atom_site_fract_x
_atom_site_fract_y
_atom_site_fract_z
Si Si1 0.346902 0.855992 0.302355
Si Si2 0.924768 0.803618 0.463616
Si Si3 0.000000 0.703237 0.250000
Si Si4 0.334356 0.026060 0.716085
O O1 0.500000 0.852088 0.250000
O O2 0.237378 0.820794 0.101466
O O3 0.370582 0.832864 0.594941
O O4 0.293475 0.915295 0.277021
O O5 0.000000 0.830015 0.250000
O O6 0.936270 0.740551 0.443512
O O7 0.000000 0.822883 0.750000
O O8 0.500000 0.018127 0.750000
O O9 0.270827 0.009852 0.415641
#
# Coordination Sequence:
#
# PCOD8149596 Si02
#       4
#     8   8   4   8
#     4  11  24  38  69  93 123 165 211 253 310 366
#     4  10  25  44  60  88 135 166 202 252 309 367
#     4  10  24  38  64  94 128 162 208 254 302 372
#     4   9  20  36  57  90 123 150 198 260 309 354
#
# _framework density 21.705517
#
# number of rings (size 3 to 8) (size 9 to 14) (size 15 to 20)
#    0.857    1.143    0.000    1.714   14.000    2.286 
#    0.000    0.000    0.000    5.143    0.000    0.000 
#    0.000    0.000    0.000    0.000    0.000    0.000 
#
# Total GULP energy -173469.050377 kJ/mol
# GULP energy per Si atom -12390.646455 kJ/mol
# Density = 2.165611 g / cm^3
# Si number density = 21.705517 Si / 1000 Ang^3
#
#
#
# Elastic Constant Matrix: (Units=GPa)
#
#
# Indices 1 2 3 4 5 6 
#
# 1 52.6443 31.6779 43.0005 0.0000 5.4116 0.0000
# 2 31.6779 133.5348 57.7354 0.0000 3.6320 0.0000
# 3 43.0005 57.7354 185.5839 0.0000 -1.1600 0.0000
# 4 0.0000 0.0000 0.0000 55.6177 0.0000 -12.2174
# 5 5.4116 3.6320 -1.1600 0.0000 33.4135 0.0000
# 6 0.0000 0.0000 0.0000 -12.2174 0.0000 10.7648
#
#
#
# Elastic Compliance Matrix: (Units=1/GPa)
#
#
# Indices 1 2 3 4 5 6 
#
# 1 0.025630 -0.003924 -0.004742 0.000000 -0.003889 0.000000
# 2 -0.003924 0.009289 -0.001983 0.000000 -0.000443 0.000000
# 3 -0.004742 -0.001983 0.007112 0.000000 0.001231 0.000000
# 4 0.000000 0.000000 0.000000 0.023951 0.000000 0.027183
# 5 -0.003889 -0.000443 0.001231 0.000000 0.030649 0.000000
# 6 0.000000 0.000000 0.000000 0.027183 0.000000 0.123746
#
#
# Mechanical properties :
#
#
# Convention : Reuss Voigt Hill
#
# Bulk Modulus (GPa) = 48.23495 70.73228 59.48361
# Shear Modulus (GPa) = 20.11373 35.91583 28.01478
#
# Velocity S-wave (km/s) = 3.04742 4.07220 3.59649
# Velocity P-wave (km/s) = 5.88668 7.40057 6.68661
#
# Compressibility (1/GPa) = 0.02073186
#
# Stress axis : x y z
#
# Youngs Moduli (GPa) = 39.01717 107.65225 140.60946
#
# Poissons Ratio (x) = 0.42242 0.66678
# Poissons Ratio (y) = 0.15310 0.27889
# Poissons Ratio (z) = 0.18502 0.21352
#
# Static dielectric constant tensor:
#      x y z
#    x 3.446320 0.000000 -0.212790 
#    y 0.000000 3.870870 0.000000 
#    z -0.212790 0.000000 4.297650 
# 
# 
# High freq. dielectric constant tensor:
#      x y z
#    x 1.809730 0.000000 -0.019740 
#    y 0.000000 1.842210 0.000000 
#    z -0.019740 0.000000 1.859770 
# 
# From -- ./inp_files/2768.got.cif
#   From: 2010.06.25/outbox.cif.g09.slc.cpg/sg15_2_cif.got.tgz:2768.got - 2010.06.28 07:06:18.
