data_PCOD8149585
_publ_section_title
;
Structure prediction by ZEFSAII (Michael W. Deem and Ramdas Pophale) SiO2 
 PCOD8149585
Probable space group: C 2/C
;
_chemical_formula_sum "Si O2"
_cell_formula_units_Z 40
_cell_length_a 23.997152
_cell_length_b 8.977647
_cell_length_c 9.167823
_cell_angle_alpha 90.000000
_cell_angle_beta 112.529883
_cell_angle_gamma 90.000000
_cell_volume 1824.357308
_symmetry_space_group_name_H-M "C 2/C"
_symmetry_group_IT_number 15
_symmetry_cell_setting 'monoclinic'
loop_
_space_group_symop_operation_xyz
x,y,z
-x,y,1/2-z
-x,-y,-z
x,-y,1/2+z
1/2+x,1/2+y,z
1/2-x,1/2+y,1/2-z
1/2-x,1/2-y,-z
1/2+x,1/2-y,1/2+z
loop_
_atom_site_type_symbol
_atom_site_label
_atom_site_fract_x
_atom_site_fract_y
_atom_site_fract_z
Si Si1 0.749855 0.500324 0.003942
Si Si2 0.058884 0.153851 0.731994
Si Si3 0.441217 0.664956 0.116460
Si Si4 0.666173 0.757358 0.010278
Si Si5 0.833285 0.244877 0.178765
O O1 0.714904 0.623673 0.063182
O O2 0.700777 0.413778 0.858514
O O3 0.799656 0.585314 0.958653
O O4 0.784430 0.377073 0.134224
O O5 0.051328 0.146764 0.549653
O O6 0.118126 0.249846 0.830261
O O7 0.000000 0.227145 0.750000
O O8 0.067917 0.992235 0.811896
O O9 0.500000 0.741351 0.250000
O O10 0.381657 0.761540 0.095428
O O11 0.631766 0.749001 0.131202
#
# Coordination Sequence:
#
# PCOD8149585 Si02
#       5
#     8   8   8   8   8
#     4  10  24  38  62  92 128 164 206 248 306 362
#     4  11  22  38  62  90 121 159 204 255 307 364
#     4  11  22  38  62  90 121 159 204 255 307 364
#     4  11  22  40  63  92 126 164 206 253 303 365
#     4  11  22  40  63  92 126 164 206 253 303 365
#
# _framework density 21.925529999999998
#
# number of rings (size 3 to 8) (size 9 to 14) (size 15 to 20)
#    0.000    1.200    2.000    6.000    0.000    8.000 
#    0.000    1.000    0.000    4.800    0.000    0.000 
#    0.000    0.000    0.000    0.000    0.000    0.000 
#
# Total GULP energy -247848.513917 kJ/mol
# GULP energy per Si atom -12392.425696 kJ/mol
# Density = 2.187563 g / cm^3
# Si number density = 21.925530 Si / 1000 Ang^3
#
#
#
# Elastic Constant Matrix: (Units=GPa)
#
#
# Indices 1 2 3 4 5 6 
#
# 1 128.6609 24.0033 51.8533 0.0000 1.7011 0.0000
# 2 24.0033 73.2649 11.5324 0.0000 0.9895 0.0000
# 3 51.8533 11.5324 174.3030 0.0000 -16.8895 0.0000
# 4 0.0000 0.0000 0.0000 7.6498 0.0000 -1.4455
# 5 1.7011 0.9895 -16.8895 0.0000 38.3149 0.0000
# 6 0.0000 0.0000 0.0000 -1.4455 0.0000 22.7037
#
#
#
# Elastic Compliance Matrix: (Units=1/GPa)
#
#
# Indices 1 2 3 4 5 6 
#
# 1 0.009401 -0.002622 -0.002776 0.000000 -0.001573 0.000000
# 2 -0.002622 0.014547 -0.000217 0.000000 -0.000355 0.000000
# 3 -0.002776 -0.000217 0.006884 0.000000 0.003163 0.000000
# 4 0.000000 0.000000 0.000000 0.132314 0.000000 0.008424
# 5 -0.001573 -0.000355 0.003163 0.000000 0.027573 0.000000
# 6 0.000000 0.000000 0.000000 0.008424 0.000000 0.044582
#
#
# Mechanical properties :
#
#
# Convention : Reuss Voigt Hill
#
# Bulk Modulus (GPa) = 51.01274 61.22297 56.11785
# Shear Modulus (GPa) = 19.75790 32.98968 26.37379
#
# Velocity S-wave (km/s) = 3.00515 3.88316 3.47202
# Velocity P-wave (km/s) = 5.94627 6.93462 6.45938
#
# Compressibility (1/GPa) = 0.01960295
#
# Stress axis : x y z
#
# Youngs Moduli (GPa) = 106.37220 68.74264 145.27016
#
# Poissons Ratio (x) = 0.18023 0.40322
# Poissons Ratio (y) = 0.27889 0.03151
# Poissons Ratio (z) = 0.29525 0.01491
#
# Static dielectric constant tensor:
#      x y z
#    x 4.335030 0.000000 0.135820 
#    y 0.000000 3.775690 0.000000 
#    z 0.135820 0.000000 3.844930 
# 
# 
# High freq. dielectric constant tensor:
#      x y z
#    x 1.872320 0.000000 0.001680 
#    y 0.000000 1.832610 0.000000 
#    z 0.001680 0.000000 1.864410 
# 
# From -- ./inp_files/64600.got.cif
#   From: 2010.06.25/outbox.cif.g09.slc.cpg/sg15_33_cif.got.tgz:64600.got - 2010.06.28 07:06:18.
