data_PCOD8149907
_publ_section_title
;
Structure prediction by ZEFSAII (Michael W. Deem and Ramdas Pophale) SiO2 
 PCOD8149907
Probable space group: C 2/C
;
_chemical_formula_sum "Si O2"
_cell_formula_units_Z 52
_cell_length_a 11.663226
_cell_length_b 14.359255
_cell_length_c 23.629158
_cell_angle_alpha 90.000000
_cell_angle_beta 142.701294
_cell_angle_gamma 90.000000
_cell_volume 2398.006085
_symmetry_space_group_name_H-M "C 2/C"
_symmetry_group_IT_number 15
_symmetry_cell_setting 'monoclinic'
loop_
_space_group_symop_operation_xyz
x,y,z
-x,y,1/2-z
-x,-y,-z
x,-y,1/2+z
1/2+x,1/2+y,z
1/2-x,1/2+y,1/2-z
1/2-x,1/2-y,-z
1/2+x,1/2-y,1/2+z
loop_
_atom_site_type_symbol
_atom_site_label
_atom_site_fract_x
_atom_site_fract_y
_atom_site_fract_z
Si Si1 0.874063 0.088727 0.951695
Si Si2 0.447021 0.607719 0.107015
Si Si3 0.704073 0.222295 0.731675
Si Si4 0.370034 0.918275 0.927444
Si Si5 0.500000 0.870680 0.250000
Si Si6 0.144225 0.962730 0.257852
Si Si7 0.959543 0.248722 0.559419
O O1 0.669841 0.067356 0.842665
O O2 0.990339 0.163800 0.961764
O O3 0.843430 0.110476 0.005831
O O4 0.000000 0.000000 0.000000
O O5 0.602035 0.690518 0.161762
O O6 0.281730 0.623871 0.087951
O O7 0.544423 0.507395 0.162284
O O8 0.572063 0.201091 0.732362
O O9 0.726351 0.127468 0.703809
O O10 0.911423 0.251342 0.833965
O O11 0.516054 0.838799 0.969233
O O12 0.265865 0.951896 0.829785
O O13 0.500000 0.000000 0.000000
O O14 0.000000 0.930289 0.250000
O O15 0.750000 0.250000 0.500000
#
# Coordination Sequence:
#
# PCOD8149907 Si02
#       7
#     8   8   8   8   4   8   8
#     4  11  26  46  70 103 140 185 236 288 356 422
#     4  11  23  45  73 100 137 184 244 285 343 431
#     4  11  23  43  71  99 135 184 231 287 345 414
#     4  11  26  43  71 102 137 187 235 291 355 420
#     4  10  24  42  70  94 140 178 226 286 354 400
#     4  10  24  43  69 101 139 180 232 288 349 417
#     4  11  26  45  67 101 148 182 229 298 359 408
#
# _framework density 21.684683
#
# number of rings (size 3 to 8) (size 9 to 14) (size 15 to 20)
#    0.000    1.231    1.538    3.692   11.846    1.231 
#    2.769    0.000    1.692    0.000    0.000    0.000 
#    0.000    0.000    0.000    0.000    0.000    0.000 
#
# Total GULP energy -322281.212291 kJ/mol
# GULP energy per Si atom -12395.431242 kJ/mol
# Density = 2.163533 g / cm^3
# Si number density = 21.684683 Si / 1000 Ang^3
#
#
#
# Elastic Constant Matrix: (Units=GPa)
#
#
# Indices 1 2 3 4 5 6 
#
# 1 130.6409 65.3661 58.9148 0.0000 14.6359 0.0000
# 2 65.3661 131.4115 53.5634 0.0000 10.8073 0.0000
# 3 58.9148 53.5634 136.9087 0.0001 5.3783 0.0000
# 4 0.0000 0.0000 0.0001 37.2758 0.0000 7.0200
# 5 14.6359 10.8073 5.3783 0.0000 41.2223 0.0000
# 6 0.0000 0.0000 0.0000 7.0200 0.0000 32.4515
#
#
#
# Elastic Compliance Matrix: (Units=1/GPa)
#
#
# Indices 1 2 3 4 5 6 
#
# 1 0.011485 -0.004198 -0.003199 0.000000 -0.002560 0.000000
# 2 -0.004198 0.010742 -0.002356 0.000000 -0.001018 0.000000
# 3 -0.003199 -0.002356 0.009583 0.000000 0.000503 0.000000
# 4 0.000000 0.000000 0.000000 0.027966 0.000000 -0.006050
# 5 -0.002560 -0.001018 0.000503 0.000000 0.025369 0.000000
# 6 0.000000 0.000000 0.000000 -0.006050 0.000000 0.032124
#
#
# Mechanical properties :
#
#
# Convention : Reuss Voigt Hill
#
# Bulk Modulus (GPa) = 81.28260 83.84995 82.56628
# Shear Modulus (GPa) = 35.49224 36.93103 36.21164
#
# Velocity S-wave (km/s) = 4.05006 4.13133 4.09090
# Velocity P-wave (km/s) = 7.70947 7.84277 7.77640
#
# Compressibility (1/GPa) = 0.01230276
#
# Stress axis : x y z
#
# Youngs Moduli (GPa) = 87.07368 93.09258 104.35404
#
# Poissons Ratio (x) = 0.39082 0.33383
# Poissons Ratio (y) = 0.36555 0.24587
# Poissons Ratio (z) = 0.27855 0.21933
#
# Static dielectric constant tensor:
#      x y z
#    x 3.858490 0.000000 0.346150 
#    y 0.000000 3.811150 0.000000 
#    z 0.346150 0.000000 3.867890 
# 
# 
# High freq. dielectric constant tensor:
#      x y z
#    x 1.854760 0.000000 0.001450 
#    y 0.000000 1.853050 0.000000 
#    z 0.001450 0.000000 1.861520 
# 
# From -- ./inp_files/269997.got.cif
#   From: 2010.06.25/outbox.cif.g09.slc.cpg/sg15_135_cif.got.tgz:269997.got - 2010.06.28 07:06:18.
