data_PCOD8149551
_publ_section_title
;
Structure prediction by ZEFSAII (Michael W. Deem and Ramdas Pophale) SiO2 
 PCOD8149551
Probable space group: C 2/C
;
_chemical_formula_sum "Si O2"
_cell_formula_units_Z 56
_cell_length_a 21.242895
_cell_length_b 17.223774
_cell_length_c 9.081016
_cell_angle_alpha 90.000000
_cell_angle_beta 53.736562
_cell_angle_gamma 90.000000
_cell_volume 2679.022112
_symmetry_space_group_name_H-M "C 2/C"
_symmetry_group_IT_number 15
_symmetry_cell_setting 'monoclinic'
loop_
_space_group_symop_operation_xyz
x,y,z
-x,y,1/2-z
-x,-y,-z
x,-y,1/2+z
1/2+x,1/2+y,z
1/2-x,1/2+y,1/2-z
1/2-x,1/2-y,-z
1/2+x,1/2-y,1/2+z
loop_
_atom_site_type_symbol
_atom_site_label
_atom_site_fract_x
_atom_site_fract_y
_atom_site_fract_z
Si Si1 0.221129 0.640401 0.333617
Si Si2 0.394311 0.968405 0.643976
Si Si3 0.826313 0.189571 0.609326
Si Si4 0.956236 0.105966 0.564444
Si Si5 0.000000 0.999536 0.250000
Si Si6 0.833459 0.635621 0.761577
Si Si7 0.500000 0.001996 0.250000
Si Si8 0.882785 0.807758 0.702074
O O1 0.187484 0.577561 0.262783
O O2 0.192784 0.723489 0.319001
O O3 0.185478 0.622831 0.541694
O O4 0.315400 0.642739 0.211283
O O5 0.436772 0.947902 0.740977
O O6 0.382210 0.061298 0.642705
O O7 0.453353 0.946544 0.428884
O O8 0.881990 0.161599 0.663409
O O9 0.747837 0.138794 0.714571
O O10 0.871288 0.184540 0.392172
O O11 0.944876 0.054420 0.725833
O O12 0.035748 0.155368 0.459575
O O13 0.948924 0.051968 0.429855
O O14 0.880269 0.715938 0.666821
#
# Coordination Sequence:
#
# PCOD8149551 Si02
#       8
#     8   8   8   8   4   8   4   8
#     4   9  19  36  59  86 116 152 195 233 279 350
#     4  11  20  40  56  87 114 152 184 245 288 322
#     4   9  18  36  60  86 114 152 198 232 279 348
#     4  11  20  40  57  90 115 156 184 246 285 328
#     4  10  24  34  56  84 122 136 198 232 280 348
#     4   9  19  36  59  86 116 152 195 233 279 350
#     4  10  24  34  54  82 116 138 196 228 274 348
#     4   9  18  36  60  86 114 152 198 232 279 348
#
# _framework density 20.90315
#
# number of rings (size 3 to 8) (size 9 to 14) (size 15 to 20)
#    0.000    2.286    2.857    1.714    0.000    4.571 
#    0.000    4.286    0.000    3.429    0.000    0.000 
#    0.000    0.000    0.000    0.000    0.000    0.000 
#
# Total GULP energy -347010.736648 kJ/mol
# GULP energy per Si atom -12393.240595 kJ/mol
# Density = 2.085557 g / cm^3
# Si number density = 20.903150 Si / 1000 Ang^3
#
#
#
# Elastic Constant Matrix: (Units=GPa)
#
#
# Indices 1 2 3 4 5 6 
#
# 1 170.5709 73.3902 29.8736 0.0000 0.9930 0.0000
# 2 73.3902 100.5900 19.1212 0.0000 -2.3597 0.0000
# 3 29.8736 19.1212 44.4252 0.0000 7.3492 0.0000
# 4 0.0000 0.0000 0.0000 4.9953 0.0000 7.1299
# 5 0.9930 -2.3597 7.3492 0.0000 28.1515 0.0000
# 6 0.0000 0.0000 0.0000 7.1299 0.0000 38.7046
#
#
#
# Elastic Compliance Matrix: (Units=1/GPa)
#
#
# Indices 1 2 3 4 5 6 
#
# 1 0.009025 -0.005908 -0.003544 0.000000 0.000112 0.000000
# 2 -0.005908 0.014829 -0.002770 0.000000 0.002174 0.000000
# 3 -0.003544 -0.002770 0.027281 0.000000 -0.007229 0.000000
# 4 0.000000 0.000000 0.000000 0.271598 0.000000 -0.050032
# 5 0.000112 0.002174 -0.007229 0.000000 0.037588 0.000000
# 6 0.000000 0.000000 0.000000 -0.050032 0.000000 0.035053
#
#
# Mechanical properties :
#
#
# Convention : Reuss Voigt Hill
#
# Bulk Modulus (GPa) = 37.46536 62.26179 49.86357
# Shear Modulus (GPa) = 11.66275 27.25037 19.45656
#
# Velocity S-wave (km/s) = 2.36464 3.61453 3.05420
# Velocity P-wave (km/s) = 5.04159 6.87533 6.02859
#
# Compressibility (1/GPa) = 0.02669132
#
# Stress axis : x y z
#
# Youngs Moduli (GPa) = 110.80587 67.43368 36.65554
#
# Poissons Ratio (x) = 0.39841 0.12992
# Poissons Ratio (y) = 0.65466 0.10152
# Poissons Ratio (z) = 0.39272 0.18676
#
# Static dielectric constant tensor:
#      x y z
#    x 4.027940 0.000000 0.066080 
#    y 0.000000 3.736410 0.000000 
#    z 0.066080 0.000000 3.371590 
# 
# 
# High freq. dielectric constant tensor:
#      x y z
#    x 1.834320 0.000000 0.002770 
#    y 0.000000 1.808070 0.000000 
#    z 0.002770 0.000000 1.781000 
# 
# From -- ./inp_files/56522.got.cif
#   From: 2010.06.25/outbox.cif.g09.slc.cpg/sg15_29_cif.got.tgz:56522.got - 2010.06.28 07:06:18.
