data_PCOD8149213
_publ_section_title
;
Structure prediction by ZEFSAII (Michael W. Deem and Ramdas Pophale) SiO2 
 PCOD8149213
Probable space group: C 2/C
;
_chemical_formula_sum "Si O2"
_cell_formula_units_Z 48
_cell_length_a 18.929369
_cell_length_b 26.356161
_cell_length_c 10.446100
_cell_angle_alpha 90.000000
_cell_angle_beta 25.419197
_cell_angle_gamma 90.000000
_cell_volume 2237.022749
_symmetry_space_group_name_H-M "C 2/C"
_symmetry_group_IT_number 15
_symmetry_cell_setting 'monoclinic'
loop_
_space_group_symop_operation_xyz
x,y,z
-x,y,1/2-z
-x,-y,-z
x,-y,1/2+z
1/2+x,1/2+y,z
1/2-x,1/2+y,1/2-z
1/2-x,1/2-y,-z
1/2+x,1/2-y,1/2+z
loop_
_atom_site_type_symbol
_atom_site_label
_atom_site_fract_x
_atom_site_fract_y
_atom_site_fract_z
Si Si1 0.575405 0.308803 0.761318
Si Si2 0.255986 0.531287 0.240308
Si Si3 0.000000 0.541719 0.250000
Si Si4 0.876859 0.396774 0.731897
Si Si5 0.971960 0.903752 0.059874
Si Si6 0.000000 0.959878 0.750000
Si Si7 0.960045 0.305571 0.168846
O O1 0.500000 0.327601 0.750000
O O2 0.525970 0.345496 0.957975
O O3 0.771933 0.311717 0.434846
O O4 0.498529 0.253671 0.918929
O O5 0.123105 0.568939 0.395564
O O6 0.395090 0.563418 0.083330
O O7 0.161329 0.493940 0.492838
O O8 0.341839 0.496685 0.989807
O O9 0.991458 0.578411 0.387359
O O10 0.930257 0.339826 0.606376
O O11 0.697830 0.399924 0.087319
O O12 0.958554 0.926687 0.940857
O O13 0.000000 0.321294 0.250000
#
# Coordination Sequence:
#
# PCOD8149213 Si02
#       7
#     8   8   4   8   8   4   8
#     4  10  23  44  71 100 132 179 224 277 352 410
#     4  12  25  44  65  96 139 181 226 274 336 409
#     4  12  28  42  64 102 138 180 224 280 336 396
#     4  12  26  43  66 100 134 174 229 280 334 401
#     4  12  24  42  71  97 130 181 225 278 340 400
#     4  12  22  42  64  94 136 180 218 272 332 412
#     4  10  24  46  71 100 134 175 226 286 344 407
#
# _framework density 21.457090000000001
#
# number of rings (size 3 to 8) (size 9 to 14) (size 15 to 20)
#    0.000    0.667    4.167    3.000    8.167    0.667 
#    0.000    0.000    3.667    0.000    0.000    0.000 
#    0.000    0.000    0.000    0.000    0.000    0.000 
#
# Total GULP energy -297504.141009 kJ/mol
# GULP energy per Si atom -12396.005875 kJ/mol
# Density = 2.140825 g / cm^3
# Si number density = 21.457090 Si / 1000 Ang^3
#
#
#
# Elastic Constant Matrix: (Units=GPa)
#
#
# Indices 1 2 3 4 5 6 
#
# 1 114.1513 50.7746 44.1623 1.0140 -7.8395 0.1383
# 2 50.7746 148.8584 66.0532 0.0679 13.1793 0.0150
# 3 44.1623 66.0532 91.4540 0.7910 -0.5639 0.1105
# 4 1.0140 0.0679 0.7910 -138.7432 -1.0004 -18.2221
# 5 -7.8395 13.1793 -0.5639 -1.0004 30.5223 -0.1400
# 6 0.1383 0.0150 0.1105 -18.2221 -0.1400 22.6508
#
#
#
# Elastic Compliance Matrix: (Units=1/GPa)
#
#
# Indices 1 2 3 4 5 6 
#
# 1 0.011662 -0.002728 -0.003636 0.000033 0.004107 0.000001
# 2 -0.002728 0.011153 -0.006773 -0.000012 -0.005642 -0.000002
# 3 -0.003636 -0.006773 0.017596 0.000054 0.002317 -0.000001
# 4 0.000033 -0.000012 0.000054 -0.006517 -0.000223 -0.005244
# 5 0.004107 -0.005642 0.002317 -0.000223 0.036290 0.000012
# 6 0.000001 -0.000002 -0.000001 -0.005244 0.000012 0.039930
#
#
# Mechanical properties :
#
#
# Convention : Reuss Voigt Hill
#
# Bulk Modulus (GPa) = 70.73534 75.16043 72.94788
# Shear Modulus (GPa) = 35.43578 -4.21577 15.61000
#
# Velocity S-wave (km/s) = 4.06824 -1.40321 2.70014
# Velocity P-wave (km/s) = 7.42327 5.69903 6.61755
#
# Compressibility (1/GPa) = 0.01413720
#
# Stress axis : x y z
#
# Youngs Moduli (GPa) = 85.74646 89.66080 56.83170
#
# Poissons Ratio (x) = 0.24460 0.20665
# Poissons Ratio (y) = 0.23392 0.38491
# Poissons Ratio (z) = 0.31179 0.60725
#
# Static dielectric constant tensor:
#      x y z
#    x 3.983110 -0.000160 -0.042060 
#    y -0.000160 4.266860 0.000120 
#    z -0.042060 0.000120 3.790820 
# 
# 
# High freq. dielectric constant tensor:
#      x y z
#    x 1.840590 0.000000 -0.009810 
#    y 0.000000 1.860000 0.000010 
#    z -0.009810 0.000010 1.837270 
# 
# From -- ./inp_files/80560.got.cif
#   From: 2010.06.25/outbox.cif.g09.slc.cpg/sg15_41_cif.got.tgz:80560.got - 2010.06.28 07:06:18.
