data_PCOD8149849
_publ_section_title
;
Structure prediction by ZEFSAII (Michael W. Deem and Ramdas Pophale) SiO2 
 PCOD8149849
Probable space group: C 2/C
;
_chemical_formula_sum "Si O2"
_cell_formula_units_Z 44
_cell_length_a 25.962058
_cell_length_b 8.918738
_cell_length_c 24.570934
_cell_angle_alpha 90.000000
_cell_angle_beta 19.500025
_cell_angle_gamma 90.000000
_cell_volume 1899.153110
_symmetry_space_group_name_H-M "C 2/C"
_symmetry_group_IT_number 15
_symmetry_cell_setting 'monoclinic'
loop_
_space_group_symop_operation_xyz
x,y,z
-x,y,1/2-z
-x,-y,-z
x,-y,1/2+z
1/2+x,1/2+y,z
1/2-x,1/2+y,1/2-z
1/2-x,1/2-y,-z
1/2+x,1/2-y,1/2+z
loop_
_atom_site_type_symbol
_atom_site_label
_atom_site_fract_x
_atom_site_fract_y
_atom_site_fract_z
Si Si1 0.126263 0.854154 0.241539
Si Si2 0.769192 0.040319 0.457943
Si Si3 0.710542 0.061598 0.334662
Si Si4 0.778899 0.947893 0.573946
Si Si5 0.000000 0.722231 0.750000
Si Si6 0.136821 0.371251 0.304621
O O1 0.152091 0.676343 0.217249
O O2 0.946053 0.888591 0.425106
O O3 0.199404 0.899509 0.110749
O O4 0.216169 0.936458 0.199784
O O5 0.893160 0.170257 0.319614
O O6 0.603293 0.113369 0.609412
O O7 0.778818 0.989460 0.510726
O O8 0.825457 0.202175 0.215029
O O9 0.546485 0.116118 0.521295
O O10 0.694192 0.991093 0.291590
O O11 0.728688 0.095147 0.657207
#
# Coordination Sequence:
#
# PCOD8149849 Si02
#       6
#     8   8   8   8   4   8
#     4  12  26  44  68  98 137 177 224 274 332 395
#     4  11  25  42  67  98 137 177 220 273 332 394
#     4  11  26  46  71 100 134 174 222 275 332 393
#     4  12  26  44  68  98 137 177 224 274 332 395
#     4  10  24  42  66  96 140 170 228 270 328 392
#     4  11  26  46  71 100 134 174 222 275 332 393
#
# _framework density 23.168223000000001
#
# number of rings (size 3 to 8) (size 9 to 14) (size 15 to 20)
#    0.000    0.727    1.818    3.818   10.182    5.818 
#    0.000    0.000    0.000    0.000    0.000    0.000 
#    0.000    0.000    0.000    0.000    0.000    0.000 
#
# Total GULP energy -272883.469992 kJ/mol
# GULP energy per Si atom -12403.794091 kJ/mol
# Density = 2.311549 g / cm^3
# Si number density = 23.168223 Si / 1000 Ang^3
#
#
#
# Elastic Constant Matrix: (Units=GPa)
#
#
# Indices 1 2 3 4 5 6 
#
# 1 78.4150 5.3315 16.9998 0.0005 3.1899 0.0000
# 2 5.3315 89.0144 10.2958 0.0194 -3.8030 -0.0047
# 3 16.9998 10.2958 97.9989 0.0189 -11.5974 -0.0050
# 4 0.0005 0.0194 0.0189 39.4263 -0.0058 7.2556
# 5 3.1899 -3.8030 -11.5974 -0.0058 30.2148 0.0011
# 6 0.0000 -0.0047 -0.0050 7.2556 0.0011 24.2790
#
#
#
# Elastic Compliance Matrix: (Units=1/GPa)
#
#
# Indices 1 2 3 4 5 6 
#
# 1 0.013451 -0.000615 -0.002562 0.000001 -0.002481 -0.000001
# 2 -0.000615 0.011431 -0.000960 -0.000006 0.001135 0.000004
# 3 -0.002562 -0.000960 0.011280 -0.000005 0.004479 0.000003
# 4 0.000001 -0.000006 -0.000005 0.026840 0.000003 -0.008021
# 5 -0.002481 0.001135 0.004479 0.000003 0.035220 -0.000001
# 6 -0.000001 0.000004 0.000003 -0.008021 -0.000001 0.043585
#
#
# Mechanical properties :
#
#
# Convention : Reuss Voigt Hill
#
# Bulk Modulus (GPa) = 35.85993 36.74249 36.30121
# Shear Modulus (GPa) = 31.37229 34.30409 32.83819
#
# Velocity S-wave (km/s) = 3.68381 3.85210 3.76890
# Velocity P-wave (km/s) = 5.79704 5.97313 5.88574
#
# Compressibility (1/GPa) = 0.02788628
#
# Stress axis : x y z
#
# Youngs Moduli (GPa) = 74.34441 87.48512 88.65569
#
# Poissons Ratio (x) = 0.05383 0.22716
# Poissons Ratio (y) = 0.04574 0.08509
# Poissons Ratio (z) = 0.19049 0.08397
#
# Static dielectric constant tensor:
#      x y z
#    x 3.991320 0.000000 -0.154280 
#    y 0.000000 4.249810 0.000010 
#    z -0.154280 0.000010 4.438570 
# 
# 
# High freq. dielectric constant tensor:
#      x y z
#    x 1.909100 0.000000 -0.007310 
#    y 0.000000 1.928140 0.000000 
#    z -0.007310 0.000000 1.932380 
# 
# From -- ./inp_files/68645.got.cif
#   From: 2010.06.25/outbox.cif.g09.slc.cpg/sg15_35_cif.got.tgz:68645.got - 2010.06.28 07:06:18.
