data_PCOD8149669
_publ_section_title
;
Structure prediction by ZEFSAII (Michael W. Deem and Ramdas Pophale) SiO2 
 PCOD8149669
Probable space group: C 2/C
;
_chemical_formula_sum "Si O2"
_cell_formula_units_Z 28
_cell_length_a 9.281530
_cell_length_b 9.453060
_cell_length_c 20.073999
_cell_angle_alpha 90.000000
_cell_angle_beta 143.045470
_cell_angle_gamma 90.000000
_cell_volume 1058.841995
_symmetry_space_group_name_H-M "C 2/C"
_symmetry_group_IT_number 15
_symmetry_cell_setting 'monoclinic'
loop_
_space_group_symop_operation_xyz
x,y,z
-x,y,1/2-z
-x,-y,-z
x,-y,1/2+z
1/2+x,1/2+y,z
1/2-x,1/2+y,1/2-z
1/2-x,1/2-y,-z
1/2+x,1/2-y,1/2+z
loop_
_atom_site_type_symbol
_atom_site_label
_atom_site_fract_x
_atom_site_fract_y
_atom_site_fract_z
Si Si1 0.483002 0.486020 0.915451
Si Si2 0.500000 0.918773 0.250000
Si Si3 0.716605 0.190694 0.063421
Si Si4 0.804996 0.115791 0.625406
O O1 0.638632 0.344958 0.953280
O O2 0.595226 0.617966 0.914462
O O3 0.200600 0.480585 0.789325
O O4 0.500000 0.500000 0.000000
O O5 0.348454 0.823853 0.143654
O O6 0.744872 0.049807 0.119999
O O7 0.427903 0.215661 0.952069
O O8 0.000000 0.172426 0.750000
#
# Coordination Sequence:
#
# PCOD8149669 Si02
#       4
#     8   4   8   8
#     4  10  24  40  66 104 142 171 236 301 327 406
#     4  12  24  42  78 100 138 192 232 278 370 420
#     4   9  21  42  67  95 140 181 233 275 350 413
#     4   9  19  43  68  90 145 183 217 293 344 401
#
# _framework density 26.443984
#
# number of rings (size 3 to 8) (size 9 to 14) (size 15 to 20)
#    1.714    0.571    1.429    0.000    4.000    4.571 
#    0.000    0.000    0.000    0.000    0.000    0.000 
#    0.000    0.000    0.000    0.000    0.000    0.000 
#
# Total GULP energy -173452.734644 kJ/mol
# GULP energy per Si atom -12389.481046 kJ/mol
# Density = 2.638380 g / cm^3
# Si number density = 26.443984 Si / 1000 Ang^3
#
#
#
# Elastic Constant Matrix: (Units=GPa)
#
#
# Indices 1 2 3 4 5 6 
#
# 1 214.8151 43.9748 111.8588 0.0000 22.0155 0.0000
# 2 43.9748 81.5802 68.5033 0.0000 16.8314 0.0000
# 3 111.8588 68.5033 244.1341 0.0000 40.5774 0.0000
# 4 0.0000 0.0000 0.0000 58.4380 0.0000 17.7532
# 5 22.0155 16.8314 40.5774 0.0000 64.0726 0.0000
# 6 0.0000 0.0000 0.0000 17.7532 0.0000 37.0391
#
#
#
# Elastic Compliance Matrix: (Units=1/GPa)
#
#
# Indices 1 2 3 4 5 6 
#
# 1 0.006214 -0.001232 -0.002459 0.000000 -0.000254 0.000000
# 2 -0.001232 0.016415 -0.003794 0.000000 -0.001486 0.000000
# 3 -0.002459 -0.003794 0.006685 0.000000 -0.002392 0.000000
# 4 0.000000 0.000000 0.000000 0.020029 0.000000 -0.009600
# 5 -0.000254 -0.001486 -0.002392 0.000000 0.017600 0.000000
# 6 0.000000 0.000000 0.000000 -0.009600 0.000000 0.031600
#
#
# Mechanical properties :
#
#
# Convention : Reuss Voigt Hill
#
# Bulk Modulus (GPa) = 69.72372 109.91148 89.81760
# Shear Modulus (GPa) = 42.26741 52.98944 47.62843
#
# Velocity S-wave (km/s) = 4.00231 4.48128 4.24855
# Velocity P-wave (km/s) = 6.91243 8.27224 7.62272
#
# Compressibility (1/GPa) = 0.01434232
#
# Stress axis : x y z
#
# Youngs Moduli (GPa) = 160.92707 60.92059 149.58503
#
# Poissons Ratio (x) = 0.07506 0.36786
# Poissons Ratio (y) = 0.19829 0.56759
# Poissons Ratio (z) = 0.39575 0.23116
#
# Static dielectric constant tensor:
#      x y z
#    x 5.129120 0.000000 0.951250 
#    y 0.000000 5.104740 0.000000 
#    z 0.951250 0.000000 5.742160 
# 
# 
# High freq. dielectric constant tensor:
#      x y z
#    x 2.073350 0.000000 0.022230 
#    y 0.000000 2.068740 0.000000 
#    z 0.022230 0.000000 2.068630 
# 
# From -- ./inp_files/132537.got.cif
#   From: 2010.06.25/outbox.cif.g09.slc.cpg/sg15_67_cif.got.tgz:132537.got - 2010.06.28 07:06:18.
