data_PCOD8149069
_publ_section_title
;
Structure prediction by ZEFSAII (Michael W. Deem and Ramdas Pophale) SiO2 
 PCOD8149069
Probable space group: C 2/C
;
_chemical_formula_sum "Si O2"
_cell_formula_units_Z 48
_cell_length_a 17.981526
_cell_length_b 10.537552
_cell_length_c 13.087290
_cell_angle_alpha 90.000000
_cell_angle_beta 67.892654
_cell_angle_gamma 90.000000
_cell_volume 2297.482606
_symmetry_space_group_name_H-M "C 2/C"
_symmetry_group_IT_number 15
_symmetry_cell_setting 'monoclinic'
loop_
_space_group_symop_operation_xyz
x,y,z
-x,y,1/2-z
-x,-y,-z
x,-y,1/2+z
1/2+x,1/2+y,z
1/2-x,1/2+y,1/2-z
1/2-x,1/2-y,-z
1/2+x,1/2-y,1/2+z
loop_
_atom_site_type_symbol
_atom_site_label
_atom_site_fract_x
_atom_site_fract_y
_atom_site_fract_z
Si Si1 0.149526 0.285827 0.671681
Si Si2 0.228780 0.885398 0.467680
Si Si3 0.000000 0.132706 0.750000
Si Si4 0.145701 0.561345 0.753352
Si Si5 0.298694 0.116080 0.561348
Si Si6 0.500000 0.225636 0.750000
Si Si7 0.453460 0.564205 0.430852
O O1 0.145596 0.411766 0.739547
O O2 0.231654 0.208478 0.644710
O O3 0.145445 0.314970 0.551774
O O4 0.071520 0.216835 0.758346
O O5 0.250000 0.750000 0.500000
O O6 0.270252 0.892784 0.336387
O O7 0.135501 0.898706 0.490471
O O8 0.257803 0.992509 0.532468
O O9 0.949575 0.049072 0.853666
O O10 0.141684 0.583638 0.876728
O O11 0.075697 0.634041 0.728134
O O12 0.506619 0.312501 0.644253
O O13 0.500000 0.500000 0.500000
#
# Coordination Sequence:
#
# PCOD8149069 Si02
#       7
#     8   8   4   8   8   4   8
#     4  10  23  44  64  99 136 169 233 279 336 421
#     4  11  23  45  67 102 139 178 240 289 343 431
#     4  11  23  44  66  96 139 173 228 280 338 413
#     4  11  25  41  72  94 137 183 226 288 363 411
#     4  10  24  43  68  97 131 183 227 286 341 421
#     4  11  25  46  60 106 141 171 242 296 338 445
#     4  11  26  41  71 101 141 186 227 293 360 410
#
# _framework density 20.892431999999999
#
# number of rings (size 3 to 8) (size 9 to 14) (size 15 to 20)
#    0.000    1.333    3.333    0.500    7.000    0.000 
#    0.000    4.167    0.000    0.000    0.000    0.000 
#    0.000    0.000    0.000    0.000    0.000    0.000 
#
# Total GULP energy -297442.645701 kJ/mol
# GULP energy per Si atom -12393.443571 kJ/mol
# Density = 2.084488 g / cm^3
# Si number density = 20.892432 Si / 1000 Ang^3
#
#
#
# Elastic Constant Matrix: (Units=GPa)
#
#
# Indices 1 2 3 4 5 6 
#
# 1 106.7148 33.8522 38.7796 0.0000 -7.6302 0.0000
# 2 33.8522 115.4462 18.7508 0.0000 -0.0438 0.0000
# 3 38.7796 18.7508 71.1546 0.0000 5.3599 0.0000
# 4 0.0000 0.0000 0.0000 14.5226 0.0000 -8.4480
# 5 -7.6302 -0.0438 5.3599 0.0000 44.5974 0.0000
# 6 0.0000 0.0000 0.0000 -8.4480 0.0000 33.8123
#
#
#
# Elastic Compliance Matrix: (Units=1/GPa)
#
#
# Indices 1 2 3 4 5 6 
#
# 1 0.012796 -0.002697 -0.006486 0.000000 0.002966 0.000000
# 2 -0.002697 0.009622 -0.001041 0.000000 -0.000327 0.000000
# 3 -0.006486 -0.001041 0.018111 0.000000 -0.003287 0.000000
# 4 0.000000 0.000000 0.000000 0.080568 0.000000 0.020130
# 5 0.002966 -0.000327 -0.003287 0.000000 0.023325 0.000000
# 6 0.000000 0.000000 0.000000 0.020130 0.000000 0.034605
#
#
# Mechanical properties :
#
#
# Convention : Reuss Voigt Hill
#
# Bulk Modulus (GPa) = 49.80246 52.89786 51.35016
# Shear Modulus (GPa) = 24.25204 32.04865 28.15034
#
# Velocity S-wave (km/s) = 3.41075 3.92086 3.67467
# Velocity P-wave (km/s) = 6.27697 6.77286 6.52962
#
# Compressibility (1/GPa) = 0.02007933
#
# Stress axis : x y z
#
# Youngs Moduli (GPa) = 78.15183 103.92922 55.21540
#
# Poissons Ratio (x) = 0.28034 0.35814
# Poissons Ratio (y) = 0.21081 0.05747
# Poissons Ratio (z) = 0.50691 0.10818
#
# Static dielectric constant tensor:
#      x y z
#    x 3.495240 0.000000 -0.117710 
#    y 0.000000 4.065740 0.000000 
#    z -0.117710 0.000000 3.813500 
# 
# 
# High freq. dielectric constant tensor:
#      x y z
#    x 1.806890 0.000000 -0.011460 
#    y 0.000000 1.842070 0.000000 
#    z -0.011460 0.000000 1.820160 
# 
# From -- ./inp_files/103850.got.cif
#   From: 2010.06.25/outbox.cif.g09.slc.cpg/sg15_52_cif.got.tgz:103850.got - 2010.06.28 07:06:18.
