data_PCOD8149985
_publ_section_title
;
Structure prediction by ZEFSAII (Michael W. Deem and Ramdas Pophale) SiO2 
 PCOD8149985
Probable space group: C 2/C
;
_chemical_formula_sum "Si O2"
_cell_formula_units_Z 56
_cell_length_a 8.386031
_cell_length_b 24.341103
_cell_length_c 17.512760
_cell_angle_alpha 90.000000
_cell_angle_beta 48.778052
_cell_angle_gamma 90.000000
_cell_volume 2688.827925
_symmetry_space_group_name_H-M "C 2/C"
_symmetry_group_IT_number 15
_symmetry_cell_setting 'monoclinic'
loop_
_space_group_symop_operation_xyz
x,y,z
-x,y,1/2-z
-x,-y,-z
x,-y,1/2+z
1/2+x,1/2+y,z
1/2-x,1/2+y,1/2-z
1/2-x,1/2-y,-z
1/2+x,1/2-y,1/2+z
loop_
_atom_site_type_symbol
_atom_site_label
_atom_site_fract_x
_atom_site_fract_y
_atom_site_fract_z
Si Si1 0.031728 0.527408 0.571167
Si Si2 0.856303 0.431096 0.726768
Si Si3 0.502891 0.554473 0.047498
Si Si4 0.867893 0.849308 0.476212
Si Si5 0.540354 0.185146 0.325169
Si Si6 0.232725 0.874920 0.159620
Si Si7 0.774259 0.293802 0.280822
O O1 0.253778 0.559660 0.504982
O O2 0.000000 0.500000 0.500000
O O3 0.988763 0.479187 0.644959
O O4 0.872705 0.575087 0.643334
O O5 0.627765 0.450073 0.831352
O O6 0.000000 0.411293 0.750000
O O7 0.850792 0.373186 0.682380
O O8 0.500000 0.500000 0.000000
O O9 0.408568 0.602368 0.024414
O O10 0.695635 0.807217 0.564914
O O11 0.748032 0.867977 0.437050
O O12 0.096253 0.823769 0.387653
O O13 0.500000 0.195019 0.250000
O O14 0.708017 0.230482 0.299779
O O15 0.285640 0.819972 0.191991
O O16 0.000000 0.895679 0.250000
O O17 0.000000 0.300513 0.250000
#
# Coordination Sequence:
#
# PCOD8149985 Si02
#       7
#     8   8   8   8   8   8   8
#     4  12  26  41  65 101 140 173 220 274 329 397
#     4  11  23  42  67  95 132 178 221 269 331 397
#     4  12  23  40  68  97 132 177 220 267 331 400
#     4  11  22  44  71  96 128 177 225 270 334 397
#     4  11  21  45  67  93 129 176 225 272 335 398
#     4  10  24  43  67  96 133 171 221 279 331 392
#     4  11  25  44  67  98 131 171 221 280 337 399
#
# _framework density 20.826920000000001
#
# number of rings (size 3 to 8) (size 9 to 14) (size 15 to 20)
#    0.000    0.857    4.286    4.286    6.000    0.571 
#    5.143    1.429    0.000    0.000    0.000    0.000 
#    0.000    0.000    0.000    0.000    0.000    0.000 
#
# Total GULP energy -346962.503609 kJ/mol
# GULP energy per Si atom -12391.517986 kJ/mol
# Density = 2.077952 g / cm^3
# Si number density = 20.826920 Si / 1000 Ang^3
#
#
#
# Elastic Constant Matrix: (Units=GPa)
#
#
# Indices 1 2 3 4 5 6 
#
# 1 104.5626 29.0064 37.1763 0.0000 -17.6447 0.0000
# 2 29.0064 108.4519 32.5583 0.0000 -15.3553 0.0000
# 3 37.1763 32.5583 114.8552 0.0000 -8.7577 0.0000
# 4 0.0000 0.0000 0.0000 -10.6720 0.0000 -60.5276
# 5 -17.6447 -15.3553 -8.7577 0.0000 33.1798 0.0000
# 6 0.0000 0.0000 0.0000 -60.5276 0.0000 -32.8168
#
#
#
# Elastic Compliance Matrix: (Units=1/GPa)
#
#
# Indices 1 2 3 4 5 6 
#
# 1 0.011891 -0.001592 -0.003033 0.000000 0.004786 0.000000
# 2 -0.001592 0.010837 -0.002285 0.000000 0.003566 0.000000
# 3 -0.003033 -0.002285 0.010340 0.000000 0.000059 0.000000
# 4 0.000000 0.000000 0.000000 0.009904 0.000000 -0.018268
# 5 0.004786 0.003566 0.000059 0.000000 0.034350 0.000000
# 6 0.000000 0.000000 0.000000 -0.018268 0.000000 0.003221
#
#
# Mechanical properties :
#
#
# Convention : Reuss Voigt Hill
#
# Bulk Modulus (GPa) = 51.94944 58.37239 55.16092
# Shear Modulus (GPa) = 49.61298 13.21346 31.41322
#
# Velocity S-wave (km/s) = 4.88603 2.52154 3.88790
# Velocity P-wave (km/s) = 7.53847 6.04697 6.83354
#
# Compressibility (1/GPa) = 0.01924949
#
# Stress axis : x y z
#
# Youngs Moduli (GPa) = 84.09532 92.27386 96.70801
#
# Poissons Ratio (x) = 0.14693 0.29328
# Poissons Ratio (y) = 0.13391 0.22096
# Poissons Ratio (z) = 0.25503 0.21083
#
# Static dielectric constant tensor:
#      x y z
#    x 4.050210 0.000000 0.102820 
#    y 0.000000 4.281200 0.000000 
#    z 0.102820 0.000000 4.667200 
# 
# 
# High freq. dielectric constant tensor:
#      x y z
#    x 1.807310 0.000000 -0.008850 
#    y 0.000000 1.820800 0.000000 
#    z -0.008850 0.000000 1.834920 
# 
# From -- ./inp_files/193214.got.cif
#   From: 2010.06.25/outbox.cif.g09.slc.cpg/sg15_97_cif.got.tgz:193214.got - 2010.06.28 07:06:18.
