data_PCOD8149750
_publ_section_title
;
Structure prediction by ZEFSAII (Michael W. Deem and Ramdas Pophale) SiO2 
 PCOD8149750
Probable space group: C 2/C
;
_chemical_formula_sum "Si O2"
_cell_formula_units_Z 56
_cell_length_a 30.765756
_cell_length_b 18.012004
_cell_length_c 9.475602
_cell_angle_alpha 90.000000
_cell_angle_beta 29.062047
_cell_angle_gamma 90.000000
_cell_volume 2550.674512
_symmetry_space_group_name_H-M "C 2/C"
_symmetry_group_IT_number 15
_symmetry_cell_setting 'monoclinic'
loop_
_space_group_symop_operation_xyz
x,y,z
-x,y,1/2-z
-x,-y,-z
x,-y,1/2+z
1/2+x,1/2+y,z
1/2-x,1/2+y,1/2-z
1/2-x,1/2-y,-z
1/2+x,1/2-y,1/2+z
loop_
_atom_site_type_symbol
_atom_site_label
_atom_site_fract_x
_atom_site_fract_y
_atom_site_fract_z
Si Si1 0.397416 0.165412 0.811010
Si Si2 0.000000 0.416847 0.250000
Si Si3 0.425361 0.412630 0.715800
Si Si4 0.354509 0.983577 0.271369
Si Si5 0.500000 0.491876 0.750000
Si Si6 0.275859 0.082702 0.720138
Si Si7 0.225445 0.253469 0.234310
Si Si8 0.471002 0.281232 0.176524
O O1 0.428198 0.135520 0.875653
O O2 0.365251 0.096725 0.808997
O O3 0.484269 0.202091 0.490023
O O4 0.312537 0.221770 0.070688
O O5 0.947826 0.471051 0.505893
O O6 0.426854 0.444583 0.870838
O O7 0.453810 0.464215 0.506327
O O8 0.487276 0.340276 0.549302
O O9 0.325044 0.394622 0.959785
O O10 0.319417 0.970498 0.213556
O O11 0.284633 0.036235 0.551451
O O12 0.314340 0.165981 0.606380
O O13 0.136248 0.207481 0.525745
O O14 0.250000 0.250000 0.000000
O O15 0.500000 0.303755 0.250000
#
# Coordination Sequence:
#
# PCOD8149750 Si02
#       8
#     8   4   8   8   4   8   8   8
#     4  12  26  46  73 103 148 189 242 304 362 443
#     4  12  28  49  69 114 144 194 240 302 382 433
#     4  11  23  44  69 100 141 184 242 295 364 431
#     4  12  26  44  77 104 150 186 240 309 367 435
#     4  10  24  41  67  98 134 192 230 294 356 435
#     4  12  24  46  70 111 139 187 246 302 363 432
#     4  12  24  43  72 107 141 189 248 299 360 435
#     4  12  23  42  72 101 139 188 241 296 362 434
#
# _framework density 21.954978000000001
#
# number of rings (size 3 to 8) (size 9 to 14) (size 15 to 20)
#    0.000    0.286    6.429    2.143    3.000    2.857 
#    2.571    1.429    0.000    0.000    0.000    0.000 
#    0.000    0.000    0.000    0.000    0.000    0.000 
#
# Total GULP energy -347035.474220 kJ/mol
# GULP energy per Si atom -12394.124079 kJ/mol
# Density = 2.190501 g / cm^3
# Si number density = 21.954978 Si / 1000 Ang^3
#
#
#
# Elastic Constant Matrix: (Units=GPa)
#
#
# Indices 1 2 3 4 5 6 
#
# 1 93.9427 31.7599 30.0236 0.0000 -4.3866 0.0000
# 2 31.7599 114.7620 38.4789 0.0000 2.9525 0.0000
# 3 30.0236 38.4789 117.7258 0.0000 -22.5374 0.0000
# 4 0.0000 0.0000 0.0000 33.5625 0.0000 -5.5085
# 5 -4.3866 2.9525 -22.5374 0.0000 34.7921 0.0000
# 6 0.0000 0.0000 0.0000 -5.5085 0.0000 26.0439
#
#
#
# Elastic Compliance Matrix: (Units=1/GPa)
#
#
# Indices 1 2 3 4 5 6 
#
# 1 0.012263 -0.002670 -0.002187 0.000000 0.000356 0.000000
# 2 -0.002670 0.010714 -0.003493 0.000000 -0.003508 0.000000
# 3 -0.002187 -0.003493 0.011641 0.000000 0.007561 0.000000
# 4 0.000000 0.000000 0.000000 0.030867 0.000000 0.006529
# 5 0.000356 -0.003508 0.007561 0.000000 0.033983 0.000000
# 6 0.000000 0.000000 0.000000 0.006529 0.000000 0.039778
#
#
# Mechanical properties :
#
#
# Convention : Reuss Voigt Hill
#
# Bulk Modulus (GPa) = 55.80368 58.55059 57.17713
# Shear Modulus (GPa) = 30.88024 33.95758 32.41891
#
# Velocity S-wave (km/s) = 3.75444 3.93707 3.84684
# Velocity P-wave (km/s) = 6.65334 6.88431 6.76981
#
# Compressibility (1/GPa) = 0.01791997
#
# Stress axis : x y z
#
# Youngs Moduli (GPa) = 81.54745 93.33746 85.90267
#
# Poissons Ratio (x) = 0.24918 0.18783
# Poissons Ratio (y) = 0.21771 0.30002
# Poissons Ratio (z) = 0.17831 0.32599
#
# Static dielectric constant tensor:
#      x y z
#    x 4.097380 0.000000 -0.138220 
#    y 0.000000 4.211880 0.000000 
#    z -0.138220 0.000000 3.863560 
# 
# 
# High freq. dielectric constant tensor:
#      x y z
#    x 1.856050 0.000000 -0.010690 
#    y 0.000000 1.876720 0.000000 
#    z -0.010690 0.000000 1.865570 
# 
# From -- ./inp_files/70837.got.cif
#   From: 2010.06.25/outbox.cif.g09.slc.cpg/sg15_36_cif.got.tgz:70837.got - 2010.06.28 07:06:18.
