data_PCOD8149052
_publ_section_title
;
Structure prediction by ZEFSAII (Michael W. Deem and Ramdas Pophale) SiO2 
 PCOD8149052
Probable space group: C 2/C
;
_chemical_formula_sum "Si O2"
_cell_formula_units_Z 36
_cell_length_a 9.323108
_cell_length_b 8.804011
_cell_length_c 23.008903
_cell_angle_alpha 90.000000
_cell_angle_beta 62.524932
_cell_angle_gamma 90.000000
_cell_volume 1675.577246
_symmetry_space_group_name_H-M "C 2/C"
_symmetry_group_IT_number 15
_symmetry_cell_setting 'monoclinic'
loop_
_space_group_symop_operation_xyz
x,y,z
-x,y,1/2-z
-x,-y,-z
x,-y,1/2+z
1/2+x,1/2+y,z
1/2-x,1/2+y,1/2-z
1/2-x,1/2-y,-z
1/2+x,1/2-y,1/2+z
loop_
_atom_site_type_symbol
_atom_site_label
_atom_site_fract_x
_atom_site_fract_y
_atom_site_fract_z
Si Si1 0.753645 0.903119 0.536744
Si Si2 0.033841 0.573548 0.866382
Si Si3 0.614445 0.483960 0.681803
Si Si4 0.000000 0.693629 0.750000
Si Si5 0.467709 0.390028 0.923533
O O1 0.750000 0.750000 0.500000
O O2 0.867478 0.897788 0.571523
O O3 0.572532 0.928999 0.594551
O O4 0.814189 0.044735 0.486783
O O5 0.939214 0.715594 0.911790
O O6 0.212675 0.561554 0.859632
O O7 0.054467 0.586003 0.792790
O O8 0.500000 0.572488 0.750000
O O9 0.641191 0.309458 0.700626
O O10 0.517492 0.485692 0.638993
#
# Coordination Sequence:
#
# PCOD8149052 Si02
#       5
#     8   8   8   4   8
#     4  11  25  41  66  99 129 168 216 261 321 381
#     4  11  22  42  68  91 127 171 209 263 323 374
#     4   9  21  42  62  94 128 163 212 264 317 377
#     4   8  22  38  60  94 126 166 206 264 316 380
#     4  10  23  44  62  96 130 165 211 264 318 379
#
# _framework density 21.485132
#
# number of rings (size 3 to 8) (size 9 to 14) (size 15 to 20)
#    0.667    1.333    0.000    2.000    3.111   10.667 
#    4.000    0.000    0.000    0.000    0.000    0.000 
#    0.000    0.000    0.000    0.000    0.000    0.000 
#
# Total GULP energy -223037.425533 kJ/mol
# GULP energy per Si atom -12390.968085 kJ/mol
# Density = 2.143623 g / cm^3
# Si number density = 21.485132 Si / 1000 Ang^3
#
#
#
# Elastic Constant Matrix: (Units=GPa)
#
#
# Indices 1 2 3 4 5 6 
#
# 1 118.1716 38.9582 72.2965 0.0000 6.5148 0.0000
# 2 38.9582 73.6620 45.0496 0.0000 4.3152 0.0000
# 3 72.2965 45.0496 133.4082 0.0000 19.4342 0.0000
# 4 0.0000 0.0000 0.0000 31.8475 0.0000 -0.4394
# 5 6.5148 4.3152 19.4342 0.0000 44.8987 0.0000
# 6 0.0000 0.0000 0.0000 -0.4394 0.0000 28.2540
#
#
#
# Elastic Compliance Matrix: (Units=1/GPa)
#
#
# Indices 1 2 3 4 5 6 
#
# 1 0.013318 -0.003272 -0.006272 0.000000 0.001097 0.000000
# 2 -0.003272 0.017948 -0.004382 0.000000 0.000646 0.000000
# 3 -0.006272 -0.004382 0.013000 0.000000 -0.004296 0.000000
# 4 0.000000 0.000000 0.000000 0.031406 0.000000 0.000488
# 5 0.001097 0.000646 -0.004296 0.000000 0.023911 0.000000
# 6 0.000000 0.000000 0.000000 0.000488 0.000000 0.035401
#
#
# Mechanical properties :
#
#
# Convention : Reuss Voigt Hill
#
# Bulk Modulus (GPa) = 60.92228 70.87226 65.89727
# Shear Modulus (GPa) = 29.70777 32.26253 30.98515
#
# Velocity S-wave (km/s) = 3.72252 3.87928 3.80171
# Velocity P-wave (km/s) = 6.84787 7.28858 7.07166
#
# Compressibility (1/GPa) = 0.01641435
#
# Stress axis : x y z
#
# Youngs Moduli (GPa) = 75.08841 55.71703 76.92211
#
# Poissons Ratio (x) = 0.18230 0.48246
# Poissons Ratio (y) = 0.24568 0.33705
# Poissons Ratio (z) = 0.47096 0.24414
#
# Static dielectric constant tensor:
#      x y z
#    x 3.556880 0.000000 0.238880 
#    y 0.000000 3.699840 0.000000 
#    z 0.238880 0.000000 4.057310 
# 
# 
# High freq. dielectric constant tensor:
#      x y z
#    x 1.825960 0.000000 0.017230 
#    y 0.000000 1.823790 0.000000 
#    z 0.017230 0.000000 1.860920 
# 
# From -- ./inp_files/194876.got.cif
#   From: 2010.06.25/outbox.cif.g09.slc.cpg/sg15_98_cif.got.tgz:194876.got - 2010.06.28 07:06:18.
