data_PCOD8149024
_publ_section_title
;
Structure prediction by ZEFSAII (Michael W. Deem and Ramdas Pophale) SiO2 
 PCOD8149024
Probable space group: C 2/C
;
_chemical_formula_sum "Si O2"
_cell_formula_units_Z 36
_cell_length_a 15.424172
_cell_length_b 11.724676
_cell_length_c 14.598042
_cell_angle_alpha 90.000000
_cell_angle_beta 38.567029
_cell_angle_gamma 90.000000
_cell_volume 1645.829538
_symmetry_space_group_name_H-M "C 2/C"
_symmetry_group_IT_number 15
_symmetry_cell_setting 'monoclinic'
loop_
_space_group_symop_operation_xyz
x,y,z
-x,y,1/2-z
-x,-y,-z
x,-y,1/2+z
1/2+x,1/2+y,z
1/2-x,1/2+y,1/2-z
1/2-x,1/2-y,-z
1/2+x,1/2-y,1/2+z
loop_
_atom_site_type_symbol
_atom_site_label
_atom_site_fract_x
_atom_site_fract_y
_atom_site_fract_z
Si Si1 0.661450 0.660282 0.128774
Si Si2 0.081435 0.226872 0.508636
Si Si3 0.276576 0.284524 0.193119
Si Si4 0.264488 0.505213 0.077994
Si Si5 0.000000 0.640287 0.250000
O O1 0.500000 0.688613 0.250000
O O2 0.707232 0.676104 0.196741
O O3 0.750000 0.750000 0.000000
O O4 0.697076 0.536298 0.057124
O O5 0.200525 0.293393 0.353676
O O6 0.117399 0.093418 0.488300
O O7 0.937945 0.241219 0.573450
O O8 0.077654 0.281474 0.612081
O O9 0.258430 0.401419 0.153627
O O10 0.113602 0.562326 0.205730
#
# Coordination Sequence:
#
# PCOD8149024 Si02
#       5
#     8   8   8   8   4
#     4  10  23  43  72 107 141 174 226 286 345 408
#     4  12  26  49  65 104 141 181 228 288 344 415
#     4  11  25  44  75 103 137 173 242 285 330 415
#     4  11  26  44  73  99 141 187 225 282 363 396
#     4  12  28  46  68 100 144 186 228 284 348 424
#
# _framework density 21.873467999999999
#
# number of rings (size 3 to 8) (size 9 to 14) (size 15 to 20)
#    0.000    0.889    2.222    4.000   10.889    2.667 
#    0.000    0.000    0.000    0.000    0.000    0.000 
#    0.000    0.000    0.000    0.000    0.000    0.000 
#
# Total GULP energy -223263.908692 kJ/mol
# GULP energy per Si atom -12403.550483 kJ/mol
# Density = 2.182368 g / cm^3
# Si number density = 21.873468 Si / 1000 Ang^3
#
#
#
# Elastic Constant Matrix: (Units=GPa)
#
#
# Indices 1 2 3 4 5 6 
#
# 1 83.5177 34.3897 27.1086 0.0000 -13.9586 0.0000
# 2 34.3897 99.9842 42.9452 0.0000 3.3115 0.0000
# 3 27.1086 42.9452 130.5131 0.0000 -0.9359 0.0000
# 4 0.0000 0.0000 0.0000 33.2261 0.0000 2.9695
# 5 -13.9586 3.3115 -0.9359 0.0000 50.4675 0.0000
# 6 0.0000 0.0000 0.0000 2.9695 0.0000 36.9963
#
#
#
# Elastic Compliance Matrix: (Units=1/GPa)
#
#
# Indices 1 2 3 4 5 6 
#
# 1 0.015162 -0.004687 -0.001575 0.000000 0.004472 0.000000
# 2 -0.004687 0.013132 -0.003363 0.000000 -0.002220 0.000000
# 3 -0.001575 -0.003363 0.009096 0.000000 -0.000046 0.000000
# 4 0.000000 0.000000 0.000000 0.030314 0.000000 -0.002433
# 5 0.004472 -0.002220 -0.000046 0.000000 0.021196 0.000000
# 6 0.000000 0.000000 0.000000 -0.002433 0.000000 0.027225
#
#
# Mechanical properties :
#
#
# Convention : Reuss Voigt Hill
#
# Bulk Modulus (GPa) = 55.12952 58.10021 56.61487
# Shear Modulus (GPa) = 35.35527 38.10941 36.73234
#
# Velocity S-wave (km/s) = 4.02475 4.17857 4.10238
# Velocity P-wave (km/s) = 6.84520 7.06401 6.95547
#
# Compressibility (1/GPa) = 0.01813910
#
# Stress axis : x y z
#
# Youngs Moduli (GPa) = 65.95469 76.15136 109.94279
#
# Poissons Ratio (x) = 0.35689 0.17317
# Poissons Ratio (y) = 0.30910 0.36979
# Poissons Ratio (z) = 0.10388 0.25613
#
# Static dielectric constant tensor:
#      x y z
#    x 3.730500 0.000000 0.307230 
#    y 0.000000 4.145320 0.000000 
#    z 0.307230 0.000000 4.213160 
# 
# 
# High freq. dielectric constant tensor:
#      x y z
#    x 1.871740 0.000000 -0.002650 
#    y 0.000000 1.852920 0.000000 
#    z -0.002650 0.000000 1.876840 
# 
# From -- ./inp_files/46015.got.cif
#   From: 2010.06.25/outbox.cif.g09.slc.cpg/sg15_24_cif.got.tgz:46015.got - 2010.06.28 07:06:18.
