data_PCOD8149618
_publ_section_title
;
Structure prediction by ZEFSAII (Michael W. Deem and Ramdas Pophale) SiO2 
 PCOD8149618
Probable space group: C 2/C
;
_chemical_formula_sum "Si O2"
_cell_formula_units_Z 28
_cell_length_a 5.170510
_cell_length_b 21.585127
_cell_length_c 11.318576
_cell_angle_alpha 90.000000
_cell_angle_beta 75.630242
_cell_angle_gamma 90.000000
_cell_volume 1223.701489
_symmetry_space_group_name_H-M "C 2/C"
_symmetry_group_IT_number 15
_symmetry_cell_setting 'monoclinic'
loop_
_space_group_symop_operation_xyz
x,y,z
-x,y,1/2-z
-x,-y,-z
x,-y,1/2+z
1/2+x,1/2+y,z
1/2-x,1/2+y,1/2-z
1/2-x,1/2-y,-z
1/2+x,1/2-y,1/2+z
loop_
_atom_site_type_symbol
_atom_site_label
_atom_site_fract_x
_atom_site_fract_y
_atom_site_fract_z
Si Si1 0.500000 0.479987 0.750000
Si Si2 0.789968 0.900472 0.184388
Si Si3 0.837009 0.131025 0.413931
Si Si4 0.152040 0.292356 0.619755
O O1 0.695597 0.524335 0.804960
O O2 0.669500 0.436577 0.644023
O O3 0.500000 0.875555 0.250000
O O4 0.000000 0.868811 0.250000
O O5 0.869563 0.876822 0.048677
O O6 0.555996 0.161125 0.415886
O O7 0.098928 0.171112 0.347998
O O8 0.250000 0.250000 0.500000
O O9 0.000000 0.259552 0.750000
#
# Coordination Sequence:
#
# PCOD8149618 Si02
#       4
#     4   8   8   8
#     4  10  24  40  70 100 150 176 236 256 354 412
#     4  10  24  39  65 106 143 186 220 274 331 418
#     4  12  24  45  72 100 140 184 226 281 352 409
#     4  12  27  48  73 101 133 182 240 299 349 407
#
# _framework density 22.881399999999999
#
# number of rings (size 3 to 8) (size 9 to 14) (size 15 to 20)
#    0.857    0.000    2.857    3.429    4.000    4.571 
#    0.000    0.000    0.000    0.000    0.000    0.000 
#    0.000    0.000    0.000    0.000    0.000    0.000 
#
# Total GULP energy -173495.401159 kJ/mol
# GULP energy per Si atom -12392.528654 kJ/mol
# Density = 2.282932 g / cm^3
# Si number density = 22.881400 Si / 1000 Ang^3
#
#
#
# Elastic Constant Matrix: (Units=GPa)
#
#
# Indices 1 2 3 4 5 6 
#
# 1 156.7794 22.7499 24.8612 0.0000 -4.9013 0.0000
# 2 22.7499 30.9196 16.8948 0.0000 -6.6797 0.0000
# 3 24.8612 16.8948 154.9997 0.0000 -10.9131 0.0000
# 4 0.0000 0.0000 0.0000 27.7218 0.0000 26.9698
# 5 -4.9013 -6.6797 -10.9131 0.0000 41.0700 0.0000
# 6 0.0000 0.0000 0.0000 26.9698 0.0000 -52.1458
#
#
#
# Elastic Compliance Matrix: (Units=1/GPa)
#
#
# Indices 1 2 3 4 5 6 
#
# 1 0.007196 -0.004981 -0.000619 0.000000 -0.000116 0.000000
# 2 -0.004981 0.038746 -0.003080 0.000000 0.004889 0.000000
# 3 -0.000619 -0.003080 0.006977 0.000000 0.001279 0.000000
# 4 0.000000 0.000000 0.000000 0.023998 0.000000 0.012412
# 5 -0.000116 0.004889 0.001279 0.000000 0.025470 0.000000
# 6 0.000000 0.000000 0.000000 0.012412 0.000000 -0.012758
#
#
# Mechanical properties :
#
#
# Convention : Reuss Voigt Hill
#
# Bulk Modulus (GPa) = 28.12357 52.41229 40.26793
# Shear Modulus (GPa) = 42.07260 21.87539 31.97399
#
# Velocity S-wave (km/s) = 4.29269 3.09533 3.74221
# Velocity P-wave (km/s) = 6.07349 5.97751 6.02569
#
# Compressibility (1/GPa) = 0.03555736
#
# Stress axis : x y z
#
# Youngs Moduli (GPa) = 138.97036 25.80905 143.33312
#
# Poissons Ratio (x) = 0.12856 0.08878
# Poissons Ratio (y) = 0.69222 0.44149
# Poissons Ratio (z) = 0.08608 0.07950
#
# Static dielectric constant tensor:
#      x y z
#    x 4.158430 0.000000 0.061000 
#    y 0.000000 3.867630 0.000000 
#    z 0.061000 0.000000 4.338960 
# 
# 
# High freq. dielectric constant tensor:
#      x y z
#    x 1.912880 0.000000 0.003790 
#    y 0.000000 1.885460 0.000000 
#    z 0.003790 0.000000 1.927940 
# 
# From -- ./inp_files/71829.got.cif
#   From: 2010.06.25/outbox.cif.g09.slc.cpg/sg15_36_cif.got.tgz:71829.got - 2010.06.28 07:06:18.
