data_PCOD8149931
_publ_section_title
;
Structure prediction by ZEFSAII (Michael W. Deem and Ramdas Pophale) SiO2 
 PCOD8149931
Probable space group: C 2/C
;
_chemical_formula_sum "Si O2"
_cell_formula_units_Z 44
_cell_length_a 15.263575
_cell_length_b 17.354578
_cell_length_c 7.925294
_cell_angle_alpha 90.000000
_cell_angle_beta 58.836063
_cell_angle_gamma 90.000000
_cell_volume 1796.396646
_symmetry_space_group_name_H-M "C 2/C"
_symmetry_group_IT_number 15
_symmetry_cell_setting 'monoclinic'
loop_
_space_group_symop_operation_xyz
x,y,z
-x,y,1/2-z
-x,-y,-z
x,-y,1/2+z
1/2+x,1/2+y,z
1/2-x,1/2+y,1/2-z
1/2-x,1/2-y,-z
1/2+x,1/2-y,1/2+z
loop_
_atom_site_type_symbol
_atom_site_label
_atom_site_fract_x
_atom_site_fract_y
_atom_site_fract_z
Si Si1 0.000000 0.044036 0.750000
Si Si2 0.318200 0.945215 0.085811
Si Si3 0.805006 0.390519 0.727198
Si Si4 0.344517 0.291884 0.819153
Si Si5 0.113874 0.911723 0.457990
Si Si6 0.984140 0.345616 0.078995
O O1 0.088304 0.990478 0.582240
O O2 0.047386 0.096420 0.852359
O O3 0.234153 0.913207 0.299397
O O4 0.427206 0.909591 0.025585
O O5 0.325671 0.037478 0.082453
O O6 0.286478 0.919220 0.932750
O O7 0.700148 0.348914 0.778208
O O8 0.903127 0.333080 0.615434
O O9 0.421684 0.234218 0.648431
O O10 0.250000 0.250000 0.000000
O O11 0.407517 0.339319 0.898449
O O12 0.000000 0.378819 0.250000
#
# Coordination Sequence:
#
# PCOD8149931 Si02
#       6
#     4   8   8   8   8   8
#     4  10  24  42  74 110 142 190 258 300 360 438
#     4  12  25  48  77 110 148 185 252 315 360 433
#     4  12  26  46  79 111 146 194 246 306 369 432
#     4  12  25  48  71 101 151 195 240 296 371 441
#     4  11  23  45  71 108 147 194 245 305 369 429
#     4  12  25  47  73 105 146 195 244 296 371 436
#
# _framework density 24.493476000000001
#
# number of rings (size 3 to 8) (size 9 to 14) (size 15 to 20)
#    0.000    0.364    3.636    5.455    1.273    2.182 
#    0.000    0.000    0.000    0.000    0.000    0.000 
#    0.000    0.000    0.000    0.000    0.000    0.000 
#
# Total GULP energy -272924.435119 kJ/mol
# GULP energy per Si atom -12405.656142 kJ/mol
# Density = 2.443773 g / cm^3
# Si number density = 24.493476 Si / 1000 Ang^3
#
#
#
# Elastic Constant Matrix: (Units=GPa)
#
#
# Indices 1 2 3 4 5 6 
#
# 1 139.0379 66.8552 45.9266 0.0000 24.4780 0.0000
# 2 66.8552 127.3684 35.0101 0.0000 12.5492 0.0000
# 3 45.9266 35.0101 104.5407 0.0000 3.6141 0.0000
# 4 0.0000 0.0000 0.0000 26.6574 0.0000 2.5231
# 5 24.4780 12.5492 3.6141 0.0000 51.1736 0.0000
# 6 0.0000 0.0000 0.0000 2.5231 0.0000 35.8075
#
#
#
# Elastic Compliance Matrix: (Units=1/GPa)
#
#
# Indices 1 2 3 4 5 6 
#
# 1 0.011164 -0.004578 -0.003233 0.000000 -0.003989 0.000000
# 2 -0.004578 0.010717 -0.001567 0.000000 -0.000328 0.000000
# 3 -0.003233 -0.001567 0.011472 0.000000 0.001121 0.000000
# 4 0.000000 0.000000 0.000000 0.037765 0.000000 -0.002661
# 5 -0.003989 -0.000328 0.001121 0.000000 0.021451 0.000000
# 6 0.000000 0.000000 0.000000 -0.002661 0.000000 0.028115
#
#
# Mechanical properties :
#
#
# Convention : Reuss Voigt Hill
#
# Bulk Modulus (GPa) = 68.50731 74.05898 71.28315
# Shear Modulus (GPa) = 34.64880 37.60471 36.12676
#
# Velocity S-wave (km/s) = 3.76522 3.92253 3.84468
# Velocity P-wave (km/s) = 6.85075 7.12860 6.99105
#
# Compressibility (1/GPa) = 0.01459698
#
# Stress axis : x y z
#
# Youngs Moduli (GPa) = 89.57384 93.30832 87.16838
#
# Poissons Ratio (x) = 0.42718 0.28185
# Poissons Ratio (y) = 0.41008 0.13655
# Poissons Ratio (z) = 0.28963 0.14617
#
# Static dielectric constant tensor:
#      x y z
#    x 4.776860 0.000000 -0.050500 
#    y 0.000000 4.347350 0.000000 
#    z -0.050500 0.000000 4.409400 
# 
# 
# High freq. dielectric constant tensor:
#      x y z
#    x 1.996530 0.000000 -0.006710 
#    y 0.000000 1.959110 0.000000 
#    z -0.006710 0.000000 1.976180 
# 
# From -- ./inp_files/39534.got.cif
#   From: 2010.06.25/outbox.cif.g09.slc.cpg/sg15_20_cif.got.tgz:39534.got - 2010.06.28 07:06:18.
