data_PCOD8149165
_publ_section_title
;
Structure prediction by ZEFSAII (Michael W. Deem and Ramdas Pophale) SiO2 
 PCOD8149165
Probable space group: C 2/C
;
_chemical_formula_sum "Si O2"
_cell_formula_units_Z 44
_cell_length_a 6.056202
_cell_length_b 12.971503
_cell_length_c 25.757654
_cell_angle_alpha 90.000000
_cell_angle_beta 100.093980
_cell_angle_gamma 90.000000
_cell_volume 1992.150784
_symmetry_space_group_name_H-M "C 2/C"
_symmetry_group_IT_number 15
_symmetry_cell_setting 'monoclinic'
loop_
_space_group_symop_operation_xyz
x,y,z
-x,y,1/2-z
-x,-y,-z
x,-y,1/2+z
1/2+x,1/2+y,z
1/2-x,1/2+y,1/2-z
1/2-x,1/2-y,-z
1/2+x,1/2-y,1/2+z
loop_
_atom_site_type_symbol
_atom_site_label
_atom_site_fract_x
_atom_site_fract_y
_atom_site_fract_z
Si Si1 0.561846 0.415294 0.884930
Si Si2 0.631399 0.276671 0.703604
Si Si3 0.500000 0.063315 0.250000
Si Si4 0.226620 0.038962 0.036555
Si Si5 0.880975 0.355031 0.989247
Si Si6 0.684490 0.438781 0.301558
O O1 0.543595 0.314870 0.847214
O O2 0.328688 0.431378 0.906581
O O3 0.764468 0.398116 0.932697
O O4 0.604584 0.517360 0.853136
O O5 0.500000 0.243661 0.750000
O O6 0.796319 0.370338 0.720609
O O7 0.775207 0.181867 0.688296
O O8 0.415702 0.992868 0.293976
O O9 0.352363 0.140341 0.015731
O O10 0.377435 0.935724 0.037374
O O11 0.000000 0.000000 0.000000
O O12 0.750000 0.250000 0.000000
O O13 0.500000 0.459547 0.250000
#
# Coordination Sequence:
#
# PCOD8149165 Si02
#       6
#     8   8   4   8   8   8
#     4  11  24  41  65 101 132 173 236 279 346 422
#     4  12  25  42  66 100 135 184 227 277 347 410
#     4  12  22  44  66  86 146 172 226 282 330 402
#     4   9  22  43  66  93 133 173 220 287 345 415
#     4  10  23  44  68  97 134 178 225 291 361 421
#     4  12  25  43  67  97 137 183 223 285 338 406
#
# _framework density 22.086680999999999
#
# number of rings (size 3 to 8) (size 9 to 14) (size 15 to 20)
#    0.000    1.091    5.455    0.000    2.545    8.727 
#    3.273    0.000    0.000    0.000    0.000    0.000 
#    0.000    0.000    0.000    0.000    0.000    0.000 
#
# Total GULP energy -272589.530337 kJ/mol
# GULP energy per Si atom -12390.433197 kJ/mol
# Density = 2.203641 g / cm^3
# Si number density = 22.086681 Si / 1000 Ang^3
#
#
#
# Elastic Constant Matrix: (Units=GPa)
#
#
# Indices 1 2 3 4 5 6 
#
# 1 116.7657 37.4144 35.2362 0.0000 -27.8762 0.0000
# 2 37.4144 117.3131 41.2019 0.0000 -18.3972 0.0000
# 3 35.2362 41.2019 107.6180 0.0000 -18.6431 0.0000
# 4 0.0000 0.0000 0.0000 12.3325 0.0000 -9.3072
# 5 -27.8762 -18.3972 -18.6431 0.0000 47.4271 0.0000
# 6 0.0000 0.0000 0.0000 -9.3072 0.0000 54.9547
#
#
#
# Elastic Compliance Matrix: (Units=1/GPa)
#
#
# Indices 1 2 3 4 5 6 
#
# 1 0.010979 -0.002045 -0.001965 0.000000 0.004888 0.000000
# 2 -0.002045 0.010516 -0.003067 0.000000 0.001672 0.000000
# 3 -0.001965 -0.003067 0.011486 0.000000 0.002170 0.000000
# 4 0.000000 0.000000 0.000000 0.092969 0.000000 0.015745
# 5 0.004888 0.001672 0.002170 0.000000 0.025459 0.000000
# 6 0.000000 0.000000 0.000000 0.015745 0.000000 0.020863
#
#
# Mechanical properties :
#
#
# Convention : Reuss Voigt Hill
#
# Bulk Modulus (GPa) = 53.11624 63.26688 58.19156
# Shear Modulus (GPa) = 25.94682 38.13249 32.03966
#
# Velocity S-wave (km/s) = 3.43121 4.15962 3.81285
# Velocity P-wave (km/s) = 6.30863 7.19561 6.76667
#
# Compressibility (1/GPa) = 0.01882663
#
# Stress axis : x y z
#
# Youngs Moduli (GPa) = 91.08073 95.09652 87.06496
#
# Poissons Ratio (x) = 0.19446 0.17110
# Poissons Ratio (y) = 0.18625 0.26701
# Poissons Ratio (z) = 0.17900 0.29164
#
# Static dielectric constant tensor:
#      x y z
#    x 4.545610 0.000000 -0.417660 
#    y 0.000000 3.997450 0.000000 
#    z -0.417660 0.000000 4.107010 
# 
# 
# High freq. dielectric constant tensor:
#      x y z
#    x 1.884670 0.000000 -0.013820 
#    y 0.000000 1.865490 0.000000 
#    z -0.013820 0.000000 1.858590 
# 
# From -- ./inp_files/260399.got.cif
#   From: 2010.06.25/outbox.cif.g09.slc.cpg/sg15_131_cif.got.tgz:260399.got - 2010.06.28 07:06:18.
