data_PCOD8149238
_publ_section_title
;
Structure prediction by ZEFSAII (Michael W. Deem and Ramdas Pophale) SiO2 
 PCOD8149238
Probable space group: C 2/C
;
_chemical_formula_sum "Si O2"
_cell_formula_units_Z 24
_cell_length_a 24.895859
_cell_length_b 7.542922
_cell_length_c 16.614359
_cell_angle_alpha 90.000000
_cell_angle_beta 164.411675
_cell_angle_gamma 90.000000
_cell_volume 838.409243
_symmetry_space_group_name_H-M "C 2/C"
_symmetry_group_IT_number 15
_symmetry_cell_setting 'monoclinic'
loop_
_space_group_symop_operation_xyz
x,y,z
-x,y,1/2-z
-x,-y,-z
x,-y,1/2+z
1/2+x,1/2+y,z
1/2-x,1/2+y,1/2-z
1/2-x,1/2-y,-z
1/2+x,1/2-y,1/2+z
loop_
_atom_site_type_symbol
_atom_site_label
_atom_site_fract_x
_atom_site_fract_y
_atom_site_fract_z
Si Si1 0.008913 0.767720 0.668182
Si Si2 0.112122 0.153758 0.006676
Si Si3 0.363238 0.054231 0.229499
O O1 0.810610 0.672315 0.346598
O O2 0.000000 0.744079 0.750000
O O3 0.186839 0.637225 0.886065
O O4 0.002963 0.974097 0.631980
O O5 0.167573 0.141933 0.989786
O O6 0.962293 0.314452 0.808946
O O7 0.500000 0.000000 0.500000
#
# Coordination Sequence:
#
# PCOD8149238 Si02
#       3
#     8   8   8
#     4  11  24  43  70 102 138 182 226 280 348 404
#     4  11  23  47  71 101 141 179 230 286 338 407
#     4  10  23  44  72 101 138 185 222 287 346 397
#
# _framework density 28.625637000000001
#
# number of rings (size 3 to 8) (size 9 to 14) (size 15 to 20)
#    0.000    1.333    6.667    0.000    0.000   10.667 
#    0.000    3.333    0.000    0.000    0.000    0.000 
#    0.000    0.000    0.000    0.000    0.000    0.000 
#
# Total GULP energy -148825.607205 kJ/mol
# GULP energy per Si atom -12402.133934 kJ/mol
# Density = 2.856048 g / cm^3
# Si number density = 28.625637 Si / 1000 Ang^3
#
#
#
# Elastic Constant Matrix: (Units=GPa)
#
#
# Indices 1 2 3 4 5 6 
#
# 1 190.8858 141.7160 69.8889 -0.0002 17.4127 -0.0001
# 2 141.7160 291.6134 97.2340 -0.0001 15.0409 -0.0001
# 3 69.8889 97.2340 125.8836 -0.0002 19.9060 -0.0001
# 4 -0.0002 -0.0001 -0.0002 53.4961 -0.0001 -1.2005
# 5 17.4127 15.0409 19.9060 -0.0001 50.0407 -0.0001
# 6 -0.0001 -0.0001 -0.0001 -1.2005 -0.0001 70.1444
#
#
#
# Elastic Compliance Matrix: (Units=1/GPa)
#
#
# Indices 1 2 3 4 5 6 
#
# 1 0.008648 -0.003506 -0.001904 0.000000 -0.001198 0.000000
# 2 -0.003506 0.006040 -0.002801 0.000000 0.000519 0.000000
# 3 -0.001904 -0.002801 0.011660 0.000000 -0.003134 0.000000
# 4 0.000000 0.000000 0.000000 0.018700 0.000000 0.000320
# 5 -0.001198 0.000519 -0.003134 0.000000 0.021491 0.000000
# 6 0.000000 0.000000 0.000000 0.000320 0.000000 0.014262
#
#
# Mechanical properties :
#
#
# Convention : Reuss Voigt Hill
#
# Bulk Modulus (GPa) = 100.74025 136.22897 118.48461
# Shear Modulus (GPa) = 49.73544 54.70585 52.22064
#
# Velocity S-wave (km/s) = 4.17279 4.37633 4.27577
# Velocity P-wave (km/s) = 7.64754 8.55743 8.11525
#
# Compressibility (1/GPa) = 0.00992652
#
# Stress axis : x y z
#
# Youngs Moduli (GPa) = 115.63342 165.55436 85.76455
#
# Poissons Ratio (x) = 0.58046 0.16326
# Poissons Ratio (y) = 0.40543 0.24023
# Poissons Ratio (z) = 0.22012 0.46373
#
# Static dielectric constant tensor:
#      x y z
#    x 7.316490 0.000000 0.971390 
#    y 0.000000 6.257010 0.000000 
#    z 0.971390 0.000000 7.479380 
# 
# 
# High freq. dielectric constant tensor:
#      x y z
#    x 2.160400 0.000000 -0.021110 
#    y 0.000000 2.191510 0.000000 
#    z -0.021110 0.000000 2.265050 
# 
# From -- ./inp_files/53529.got.cif
#   From: 2010.06.25/outbox.cif.g09.slc.cpg/sg15_27_cif.got.tgz:53529.got - 2010.06.28 07:06:18.
