data_PCOD8149210
_publ_section_title
;
Structure prediction by ZEFSAII (Michael W. Deem and Ramdas Pophale) SiO2 
 PCOD8149210
Probable space group: C 2/C
;
_chemical_formula_sum "Si O2"
_cell_formula_units_Z 40
_cell_length_a 10.732154
_cell_length_b 21.701421
_cell_length_c 9.259495
_cell_angle_alpha 90.000000
_cell_angle_beta 124.137718
_cell_angle_gamma 90.000000
_cell_volume 1784.968872
_symmetry_space_group_name_H-M "C 2/C"
_symmetry_group_IT_number 15
_symmetry_cell_setting 'monoclinic'
loop_
_space_group_symop_operation_xyz
x,y,z
-x,y,1/2-z
-x,-y,-z
x,-y,1/2+z
1/2+x,1/2+y,z
1/2-x,1/2+y,1/2-z
1/2-x,1/2-y,-z
1/2+x,1/2-y,1/2+z
loop_
_atom_site_type_symbol
_atom_site_label
_atom_site_fract_x
_atom_site_fract_y
_atom_site_fract_z
Si Si1 0.188076 0.532734 0.624635
Si Si2 0.500000 0.907533 0.250000
Si Si3 0.045885 0.122599 0.630331
Si Si4 0.274326 0.678233 0.001446
Si Si5 0.500000 0.913493 0.750000
Si Si6 0.773541 0.102095 0.261521
O O1 0.065630 0.548571 0.667765
O O2 0.340296 0.569350 0.750321
O O3 0.112242 0.545063 0.420561
O O4 0.232904 0.461340 0.654973
O O5 0.622769 0.860950 0.392194
O O6 0.120811 0.170652 0.570007
O O7 0.000000 0.157313 0.750000
O O8 0.899679 0.090943 0.464781
O O9 0.344802 0.651617 0.196009
O O10 0.250000 0.750000 0.000000
O O11 0.383924 0.872458 0.769849
#
# Coordination Sequence:
#
# PCOD8149210 Si02
#       6
#     8   4   8   8   4   8
#     4  11  24  42  68 107 142 182 232 294 364 424
#     4  10  23  44  70  98 142 188 231 302 352 417
#     4  11  25  46  69 103 141 183 233 292 352 424
#     4  11  27  47  70  99 142 193 244 285 348 424
#     4  12  23  40  68 104 146 174 235 288 352 425
#     4  12  25  43  71 102 144 187 232 293 357 423
#
# _framework density 22.409355000000001
#
# number of rings (size 3 to 8) (size 9 to 14) (size 15 to 20)
#    0.000    0.800    4.000    2.400    8.400    1.600 
#    1.800    1.000    0.000    0.000    0.000    0.000 
#    0.000    0.000    0.000    0.000    0.000    0.000 
#
# Total GULP energy -247934.482130 kJ/mol
# GULP energy per Si atom -12396.724107 kJ/mol
# Density = 2.235835 g / cm^3
# Si number density = 22.409355 Si / 1000 Ang^3
#
#
#
# Elastic Constant Matrix: (Units=GPa)
#
#
# Indices 1 2 3 4 5 6 
#
# 1 158.2310 51.2631 58.5561 0.0000 -22.2744 0.0000
# 2 51.2631 127.5940 37.3970 0.0000 -18.5424 0.0000
# 3 58.5561 37.3970 142.9315 0.0000 -4.0450 0.0000
# 4 0.0000 0.0000 0.0000 10.6516 0.0000 -8.7579
# 5 -22.2744 -18.5424 -4.0450 0.0000 53.4601 0.0000
# 6 0.0000 0.0000 0.0000 -8.7579 0.0000 17.0808
#
#
#
# Elastic Compliance Matrix: (Units=1/GPa)
#
#
# Indices 1 2 3 4 5 6 
#
# 1 0.008426 -0.002194 -0.002806 0.000000 0.002538 0.000000
# 2 -0.002194 0.009494 -0.001521 0.000000 0.002264 0.000000
# 3 -0.002806 -0.001521 0.008514 0.000000 -0.001053 0.000000
# 4 0.000000 0.000000 0.000000 0.162308 0.000000 0.083221
# 5 0.002538 0.002264 -0.001053 0.000000 0.020468 0.000000
# 6 0.000000 0.000000 0.000000 0.083221 0.000000 0.101216
#
#
# Mechanical properties :
#
#
# Convention : Reuss Voigt Hill
#
# Bulk Modulus (GPa) = 74.67447 80.35431 77.51439
# Shear Modulus (GPa) = 15.24704 35.00785 25.12744
#
# Velocity S-wave (km/s) = 2.61125 3.95675 3.35220
# Velocity P-wave (km/s) = 6.51819 7.53723 7.04616
#
# Compressibility (1/GPa) = 0.01339146
#
# Stress axis : x y z
#
# Youngs Moduli (GPa) = 118.67387 105.33353 117.45120
#
# Poissons Ratio (x) = 0.23113 0.32960
# Poissons Ratio (y) = 0.26040 0.17864
# Poissons Ratio (z) = 0.33303 0.16021
#
# Static dielectric constant tensor:
#      x y z
#    x 4.719180 0.000000 -0.162540 
#    y 0.000000 3.503980 0.000000 
#    z -0.162540 0.000000 4.571070 
# 
# 
# High freq. dielectric constant tensor:
#      x y z
#    x 1.909850 0.000000 0.001490 
#    y 0.000000 1.831380 0.000000 
#    z 0.001490 0.000000 1.917350 
# 
# From -- ./inp_files/32309.got.cif
#   From: 2010.06.25/outbox.cif.g09.slc.cpg/sg15_17_cif.got.tgz:32309.got - 2010.06.28 07:06:18.
