data_PCOD8149049
_publ_section_title
;
Structure prediction by ZEFSAII (Michael W. Deem and Ramdas Pophale) SiO2 
 PCOD8149049
Probable space group: C 2/C
;
_chemical_formula_sum "Si O2"
_cell_formula_units_Z 48
_cell_length_a 14.936713
_cell_length_b 17.923594
_cell_length_c 18.755313
_cell_angle_alpha 90.000000
_cell_angle_beta 151.385938
_cell_angle_gamma 90.000000
_cell_volume 2404.672465
_symmetry_space_group_name_H-M "C 2/C"
_symmetry_group_IT_number 15
_symmetry_cell_setting 'monoclinic'
loop_
_space_group_symop_operation_xyz
x,y,z
-x,y,1/2-z
-x,-y,-z
x,-y,1/2+z
1/2+x,1/2+y,z
1/2-x,1/2+y,1/2-z
1/2-x,1/2-y,-z
1/2+x,1/2-y,1/2+z
loop_
_atom_site_type_symbol
_atom_site_label
_atom_site_fract_x
_atom_site_fract_y
_atom_site_fract_z
Si Si1 0.508353 0.415457 0.928004
Si Si2 0.447922 0.838358 0.400595
Si Si3 0.410629 0.420674 0.351368
Si Si4 0.331690 0.170313 0.576629
Si Si5 0.801362 0.296141 0.793673
Si Si6 0.949300 0.213310 0.635588
O O1 0.469089 0.497085 0.867703
O O2 0.311685 0.372518 0.792120
O O3 0.589229 0.417276 0.063472
O O4 0.662608 0.379589 0.985677
O O5 0.302289 0.902706 0.322331
O O6 0.595633 0.868400 0.445805
O O7 0.336554 0.771523 0.282588
O O8 0.545023 0.803834 0.537568
O O9 0.550735 0.359662 0.415292
O O10 0.500000 0.176280 0.750000
O O11 0.250000 0.250000 0.500000
O O12 0.904563 0.275101 0.791765
O O13 0.750000 0.250000 0.500000
O O14 0.000000 0.186857 0.750000
#
# Coordination Sequence:
#
# PCOD8149049 Si02
#       6
#     8   8   8   8   8   8
#     4  11  23  42  63  91 130 168 208 258 320 385
#     4  11  21  39  64  95 128 162 211 257 314 378
#     4  10  23  44  62  86 129 171 205 260 318 373
#     4  12  23  38  64  99 123 160 211 259 312 375
#     4  11  22  39  67  92 122 169 206 261 323 369
#     4  11  22  41  64  90 119 159 216 264 302 367
#
# _framework density 19.961137999999998
#
# number of rings (size 3 to 8) (size 9 to 14) (size 15 to 20)
#    0.000    1.000    3.333    6.000    0.000    0.667 
#    6.000    0.833    0.000    0.000    0.000    0.000 
#    0.000    0.000    0.000    0.000    0.000    0.000 
#
# Total GULP energy -297636.079602 kJ/mol
# GULP energy per Si atom -12401.503317 kJ/mol
# Density = 1.991571 g / cm^3
# Si number density = 19.961138 Si / 1000 Ang^3
#
#
#
# Elastic Constant Matrix: (Units=GPa)
#
#
# Indices 1 2 3 4 5 6 
#
# 1 126.2768 57.3951 27.0179 -0.0043 18.2962 0.0007
# 2 57.3951 142.7845 50.3772 -0.0206 23.1277 -0.0065
# 3 27.0179 50.3772 96.6174 -0.0104 8.7197 -0.0089
# 4 -0.0043 -0.0206 -0.0104 20.0505 -0.0021 -1.4760
# 5 18.2962 23.1277 8.7197 -0.0021 36.8410 0.0005
# 6 0.0007 -0.0065 -0.0089 -1.4760 0.0005 31.3260
#
#
#
# Elastic Compliance Matrix: (Units=1/GPa)
#
#
# Indices 1 2 3 4 5 6 
#
# 1 0.009980 -0.003279 -0.000837 -0.000002 -0.002700 -0.000001
# 2 -0.003279 0.010428 -0.004166 0.000008 -0.003932 0.000001
# 3 -0.000837 -0.004166 0.012755 0.000002 0.000012 0.000003
# 4 -0.000002 0.000008 0.000002 0.050048 -0.000001 0.002358
# 5 -0.002700 -0.003932 0.000012 -0.000001 0.030950 -0.000001
# 6 -0.000001 0.000001 0.000003 0.002358 -0.000001 0.032034
#
#
# Mechanical properties :
#
#
# Convention : Reuss Voigt Hill
#
# Bulk Modulus (GPa) = 60.24325 70.58435 65.41380
# Shear Modulus (GPa) = 29.71041 33.03605 31.37323
#
# Velocity S-wave (km/s) = 3.86218 4.07260 3.96879
# Velocity P-wave (km/s) = 7.08056 7.58633 7.33781
#
# Compressibility (1/GPa) = 0.01659937
#
# Stress axis : x y z
#
# Youngs Moduli (GPa) = 100.20318 95.89410 78.39952
#
# Poissons Ratio (x) = 0.31442 0.06566
# Poissons Ratio (y) = 0.32855 0.32658
# Poissons Ratio (z) = 0.08392 0.39945
#
# Static dielectric constant tensor:
#      x y z
#    x 3.787870 -0.000010 0.186570 
#    y -0.000010 3.607640 -0.000030 
#    z 0.186570 -0.000030 3.786280 
# 
# 
# High freq. dielectric constant tensor:
#      x y z
#    x 1.792150 0.000000 0.006870 
#    y 0.000000 1.762200 0.000000 
#    z 0.006870 0.000000 1.786180 
# 
# From -- ./inp_files/206499.got.cif
#   From: 2010.06.25/outbox.cif.g09.slc.cpg/sg15_104_cif.got.tgz:206499.got - 2010.06.28 07:06:18.
