data_PCOD8149340
_publ_section_title
;
Structure prediction by ZEFSAII (Michael W. Deem and Ramdas Pophale) SiO2 
 PCOD8149340
Probable space group: C 2/C
;
_chemical_formula_sum "Si O2"
_cell_formula_units_Z 48
_cell_length_a 14.680622
_cell_length_b 15.858883
_cell_length_c 10.867719
_cell_angle_alpha 90.000000
_cell_angle_beta 61.822309
_cell_angle_gamma 90.000000
_cell_volume 2230.342455
_symmetry_space_group_name_H-M "C 2/C"
_symmetry_group_IT_number 15
_symmetry_cell_setting 'monoclinic'
loop_
_space_group_symop_operation_xyz
x,y,z
-x,y,1/2-z
-x,-y,-z
x,-y,1/2+z
1/2+x,1/2+y,z
1/2-x,1/2+y,1/2-z
1/2-x,1/2-y,-z
1/2+x,1/2-y,1/2+z
loop_
_atom_site_type_symbol
_atom_site_label
_atom_site_fract_x
_atom_site_fract_y
_atom_site_fract_z
Si Si1 0.786468 0.865159 0.794463
Si Si2 0.110357 0.722079 0.625505
Si Si3 0.197141 0.454336 0.068238
Si Si4 0.500000 0.649675 0.750000
Si Si5 0.000000 0.429951 0.750000
Si Si6 0.101000 0.047099 0.477009
Si Si7 0.592880 0.792939 0.848158
O O1 0.816553 0.799928 0.883467
O O2 0.882822 0.891656 0.650130
O O3 0.709772 0.822047 0.743861
O O4 0.729175 0.942463 0.903342
O O5 0.160899 0.635918 0.645165
O O6 0.088798 0.719546 0.495409
O O7 0.000000 0.739229 0.750000
O O8 0.100194 0.516356 0.148199
O O9 0.298120 0.487968 0.075886
O O10 0.579483 0.594038 0.619359
O O11 0.569420 0.705721 0.795715
O O12 0.982624 0.368693 0.644255
O O13 0.000000 0.000000 0.500000
#
# Coordination Sequence:
#
# PCOD8149340 Si02
#       7
#     8   8   8   4   4   8   8
#     4  11  25  44  71  99 138 181 230 277 339 411
#     4  11  24  43  70 100 135 186 225 279 340 405
#     4  11  24  44  67 104 133 178 228 280 345 395
#     4  11  26  46  70  97 138 182 222 277 350 406
#     4  11  22  46  70 103 138 174 230 285 344 402
#     4  12  27  46  70 101 139 181 228 286 342 405
#     4  10  23  45  68  99 138 173 227 281 331 417
#
# _framework density 21.521357999999999
#
# number of rings (size 3 to 8) (size 9 to 14) (size 15 to 20)
#    0.000    1.000    2.500    4.000    7.000    4.667 
#    3.000    0.000    0.000    0.000    0.000    0.000 
#    0.000    0.000    0.000    0.000    0.000    0.000 
#
# Total GULP energy -297492.464886 kJ/mol
# GULP energy per Si atom -12395.519370 kJ/mol
# Density = 2.147237 g / cm^3
# Si number density = 21.521358 Si / 1000 Ang^3
#
#
#
# Elastic Constant Matrix: (Units=GPa)
#
#
# Indices 1 2 3 4 5 6 
#
# 1 161.9181 72.4932 48.5482 0.0000 -1.8371 0.0000
# 2 72.4932 114.3740 54.3705 0.0000 6.5654 0.0000
# 3 48.5482 54.3705 107.7960 0.0000 1.2766 0.0000
# 4 0.0000 0.0000 0.0000 34.4892 0.0000 -4.7148
# 5 -1.8371 6.5654 1.2766 0.0000 35.9462 0.0000
# 6 0.0000 0.0000 0.0000 -4.7148 0.0000 35.7083
#
#
#
# Elastic Compliance Matrix: (Units=1/GPa)
#
#
# Indices 1 2 3 4 5 6 
#
# 1 0.008878 -0.004998 -0.001494 0.000000 0.001420 0.000000
# 2 -0.004998 0.014445 -0.005003 0.000000 -0.002716 0.000000
# 3 -0.001494 -0.005003 0.012468 0.000000 0.000395 0.000000
# 4 0.000000 0.000000 0.000000 0.029528 0.000000 0.003899
# 5 0.001420 -0.002716 0.000395 0.000000 0.028374 0.000000
# 6 0.000000 0.000000 0.000000 0.003899 0.000000 0.028519
#
#
# Mechanical properties :
#
#
# Convention : Reuss Voigt Hill
#
# Bulk Modulus (GPa) = 78.11708 81.65687 79.88698
# Shear Modulus (GPa) = 33.45154 35.14047 34.29601
#
# Velocity S-wave (km/s) = 3.94679 4.04520 3.99630
# Velocity P-wave (km/s) = 7.55949 7.73581 7.64816
#
# Compressibility (1/GPa) = 0.01280130
#
# Stress axis : x y z
#
# Youngs Moduli (GPa) = 112.64005 69.22636 80.20322
#
# Poissons Ratio (x) = 0.34601 0.11983
# Poissons Ratio (y) = 0.56300 0.40124
# Poissons Ratio (z) = 0.16830 0.34632
#
# Static dielectric constant tensor:
#      x y z
#    x 4.082940 0.000000 -0.027790 
#    y 0.000000 4.129790 0.000000 
#    z -0.027790 0.000000 2.825060 
# 
# 
# High freq. dielectric constant tensor:
#      x y z
#    x 1.859120 0.000000 -0.010030 
#    y 0.000000 1.851620 0.000000 
#    z -0.010030 0.000000 1.848170 
# 
# From -- ./inp_files/96911.got.cif
#   From: 2010.06.25/outbox.cif.g09.slc.cpg/sg15_49_cif.got.tgz:96911.got - 2010.06.28 07:06:18.
