data_PCOD8149871
_publ_section_title
;
Structure prediction by ZEFSAII (Michael W. Deem and Ramdas Pophale) SiO2 
 PCOD8149871
Probable space group: C 2/C
;
_chemical_formula_sum "Si O2"
_cell_formula_units_Z 48
_cell_length_a 13.176310
_cell_length_b 24.591771
_cell_length_c 8.588387
_cell_angle_alpha 90.000000
_cell_angle_beta 47.616197
_cell_angle_gamma 90.000000
_cell_volume 2055.566471
_symmetry_space_group_name_H-M "C 2/C"
_symmetry_group_IT_number 15
_symmetry_cell_setting 'monoclinic'
loop_
_space_group_symop_operation_xyz
x,y,z
-x,y,1/2-z
-x,-y,-z
x,-y,1/2+z
1/2+x,1/2+y,z
1/2-x,1/2+y,1/2-z
1/2-x,1/2-y,-z
1/2+x,1/2-y,1/2+z
loop_
_atom_site_type_symbol
_atom_site_label
_atom_site_fract_x
_atom_site_fract_y
_atom_site_fract_z
Si Si1 0.883525 0.744213 0.756464
Si Si2 0.919299 0.649155 0.491776
Si Si3 0.730110 0.005416 0.574142
Si Si4 0.068307 0.865981 0.845150
Si Si5 0.664192 0.574538 0.763213
Si Si6 0.858641 0.422729 0.589784
O O1 0.862658 0.703092 0.634787
O O2 0.926519 0.801412 0.636495
O O3 0.000000 0.721272 0.750000
O O4 0.750000 0.750000 0.000000
O O5 0.788161 0.613517 0.581889
O O6 0.000000 0.664283 0.250000
O O7 0.014050 0.617596 0.518795
O O8 0.845584 0.974539 0.350421
O O9 0.643500 0.961121 0.757358
O O10 0.809735 0.048525 0.595816
O O11 0.621486 0.038088 0.579237
O O12 0.219773 0.889315 0.705630
O O13 0.000000 0.879866 0.750000
O O14 0.977109 0.891754 0.078815
#
# Coordination Sequence:
#
# PCOD8149871 Si02
#       6
#     8   8   8   8   8   8
#     4  11  25  47  76 103 133 182 233 288 354 421
#     4  12  26  47  69 105 139 181 230 294 347 411
#     4  10  24  42  68 102 137 190 228 280 341 412
#     4  11  23  45  69 102 133 181 228 289 343 416
#     4  11  24  43  68 100 141 179 234 281 342 414
#     4  11  24  43  69 103 138 184 231 281 343 408
#
# _framework density 23.351226
#
# number of rings (size 3 to 8) (size 9 to 14) (size 15 to 20)
#    0.000    1.000    3.333    3.000    2.333    8.667 
#    3.000    2.500    0.000    0.000    0.000    0.000 
#    0.000    0.000    0.000    0.000    0.000    0.000 
#
# Total GULP energy -297653.347963 kJ/mol
# GULP energy per Si atom -12402.222832 kJ/mol
# Density = 2.329808 g / cm^3
# Si number density = 23.351226 Si / 1000 Ang^3
#
#
#
# Elastic Constant Matrix: (Units=GPa)
#
#
# Indices 1 2 3 4 5 6 
#
# 1 41.8717 6.3555 3.5798 0.0000 0.6088 0.0000
# 2 6.3555 103.2440 42.7883 0.0000 15.4820 0.0000
# 3 3.5798 42.7883 81.3249 0.0000 5.3334 0.0000
# 4 0.0000 0.0000 0.0000 -14.9246 0.0000 27.4086
# 5 0.6088 15.4820 5.3334 0.0000 46.8198 0.0000
# 6 0.0000 0.0000 0.0000 27.4086 0.0000 22.4350
#
#
#
# Elastic Compliance Matrix: (Units=1/GPa)
#
#
# Indices 1 2 3 4 5 6 
#
# 1 0.024117 -0.001364 -0.000356 0.000000 0.000178 0.000000
# 2 -0.001364 0.013018 -0.006557 0.000000 -0.003540 0.000000
# 3 -0.000356 -0.006557 0.015737 0.000000 0.000380 0.000000
# 4 0.000000 0.000000 0.000000 -0.020657 0.000000 0.025237
# 5 0.000178 -0.003540 0.000380 0.000000 0.022483 0.000000
# 6 0.000000 0.000000 0.000000 0.025237 0.000000 0.013742
#
#
# Mechanical properties :
#
#
# Convention : Reuss Voigt Hill
#
# Bulk Modulus (GPa) = 27.53377 36.87643 32.20510
# Shear Modulus (GPa) = 51.49293 22.44715 36.97004
#
# Velocity S-wave (km/s) = 4.70100 3.10382 3.98328
# Velocity P-wave (km/s) = 6.42515 5.35456 5.91413
#
# Compressibility (1/GPa) = 0.03631904
#
# Stress axis : x y z
#
# Youngs Moduli (GPa) = 41.46396 76.81582 63.54423
#
# Poissons Ratio (x) = 0.10477 0.02260
# Poissons Ratio (y) = 0.05655 0.41667
# Poissons Ratio (z) = 0.01475 0.50370
#
# Static dielectric constant tensor:
#      x y z
#    x 4.062510 0.000000 0.107970 
#    y 0.000000 4.138480 0.000000 
#    z 0.107970 0.000000 4.172530 
# 
# 
# High freq. dielectric constant tensor:
#      x y z
#    x 1.915490 0.000000 0.002530 
#    y 0.000000 1.935090 0.000000 
#    z 0.002530 0.000000 1.930850 
# 
# From -- ./inp_files/43834.got.cif
#   From: 2010.06.25/outbox.cif.g09.slc.cpg/sg15_22_cif.got.tgz:43834.got - 2010.06.28 07:06:18.
