data_PCOD8149017
_publ_section_title
;
Structure prediction by ZEFSAII (Michael W. Deem and Ramdas Pophale) SiO2 
 PCOD8149017
Probable space group: C 2/C
;
_chemical_formula_sum "Si O2"
_cell_formula_units_Z 44
_cell_length_a 5.394795
_cell_length_b 18.841157
_cell_length_c 18.341688
_cell_angle_alpha 90.000000
_cell_angle_beta 113.040505
_cell_angle_gamma 90.000000
_cell_volume 1715.605570
_symmetry_space_group_name_H-M "C 2/C"
_symmetry_group_IT_number 15
_symmetry_cell_setting 'monoclinic'
loop_
_space_group_symop_operation_xyz
x,y,z
-x,y,1/2-z
-x,-y,-z
x,-y,1/2+z
1/2+x,1/2+y,z
1/2-x,1/2+y,1/2-z
1/2-x,1/2-y,-z
1/2+x,1/2-y,1/2+z
loop_
_atom_site_type_symbol
_atom_site_label
_atom_site_fract_x
_atom_site_fract_y
_atom_site_fract_z
Si Si1 0.702178 0.207999 0.880194
Si Si2 0.613495 0.171726 0.185135
Si Si3 0.022270 0.964035 0.579595
Si Si4 0.422521 0.689662 0.450989
Si Si5 0.157320 0.481547 0.668384
Si Si6 0.500000 0.908645 0.250000
O O1 0.497799 0.236710 0.918549
O O2 0.622616 0.134898 0.831961
O O3 0.684568 0.266279 0.814201
O O4 0.992971 0.196735 0.953915
O O5 0.500000 0.193770 0.250000
O O6 0.392852 0.173678 0.094426
O O7 0.763348 0.095836 0.206699
O O8 0.934621 0.880741 0.566384
O O9 0.805138 0.000441 0.609472
O O10 0.000000 0.000000 0.500000
O O11 0.332976 0.976292 0.635617
O O12 0.228794 0.541353 0.737414
#
# Coordination Sequence:
#
# PCOD8149017 Si02
#       6
#     8   8   8   8   8   4
#     4  11  23  45  69 103 150 184 254 305 384 441
#     4  11  22  44  72 102 141 199 248 300 379 457
#     4  11  23  46  75 104 143 196 251 306 375 447
#     4  10  23  43  72 103 138 196 248 309 370 457
#     4  11  25  46  71 105 147 193 249 307 373 450
#     4  12  26  48  70 116 148 198 246 330 374 450
#
# _framework density 25.646920000000001
#
# number of rings (size 3 to 8) (size 9 to 14) (size 15 to 20)
#    0.000    1.091    2.727    3.273    0.000    0.727 
#   19.636    0.000    0.000    0.000    0.000    0.000 
#    0.000    0.000    0.000    0.000    0.000    0.000 
#
# Total GULP energy -272566.160204 kJ/mol
# GULP energy per Si atom -12389.370918 kJ/mol
# Density = 2.558855 g / cm^3
# Si number density = 25.646920 Si / 1000 Ang^3
#
#
#
# Elastic Constant Matrix: (Units=GPa)
#
#
# Indices 1 2 3 4 5 6 
#
# 1 104.4959 38.8700 49.4492 0.0000 -29.0390 0.0000
# 2 38.8700 152.7652 58.4657 0.0000 -23.7546 0.0000
# 3 49.4492 58.4657 137.3590 0.0000 -18.2978 0.0000
# 4 0.0000 0.0000 0.0000 4.7929 0.0000 -17.5757
# 5 -29.0390 -23.7546 -18.2978 0.0000 55.6584 0.0000
# 6 0.0000 0.0000 0.0000 -17.5757 0.0000 16.1267
#
#
#
# Elastic Compliance Matrix: (Units=1/GPa)
#
#
# Indices 1 2 3 4 5 6 
#
# 1 0.013119 -0.001182 -0.003530 0.000000 0.005180 0.000000
# 2 -0.001182 0.008231 -0.002815 0.000000 0.001971 0.000000
# 3 -0.003530 -0.002815 0.009772 0.000000 0.000169 0.000000
# 4 0.000000 0.000000 0.000000 -0.069628 0.000000 -0.075884
# 5 0.005180 0.001971 0.000169 0.000000 0.021566 0.000000
# 6 0.000000 0.000000 0.000000 -0.075884 0.000000 -0.020694
#
#
# Mechanical properties :
#
#
# Convention : Reuss Voigt Hill
#
# Bulk Modulus (GPa) = 62.23644 76.46555 69.35099
# Shear Modulus (GPa) = -290.29022 31.83795 -129.22614
#
# Velocity S-wave (km/s) = -10.65049 3.52717 -7.10605
# Velocity P-wave (km/s) = 11.26608 6.81669 6.34260
#
# Compressibility (1/GPa) = 0.01606776
#
# Stress axis : x y z
#
# Youngs Moduli (GPa) = 76.22411 121.49814 102.33481
#
# Poissons Ratio (x) = 0.14357 0.36123
# Poissons Ratio (y) = 0.09007 0.28811
# Poissons Ratio (z) = 0.26906 0.34206
#
# Static dielectric constant tensor:
#      x y z
#    x 4.245510 0.000000 -0.262190 
#    y 0.000000 5.211630 0.000000 
#    z -0.262190 0.000000 4.152180 
# 
# 
# High freq. dielectric constant tensor:
#      x y z
#    x 2.006270 0.000000 -0.003520 
#    y 0.000000 2.035210 0.000000 
#    z -0.003520 0.000000 2.039310 
# 
# From -- ./inp_files/184993.got.cif
#   From: 2010.06.25/outbox.cif.g09.slc.cpg/sg15_93_cif.got.tgz:184993.got - 2010.06.28 07:06:18.
