data_PCOD8149524
_publ_section_title
;
Structure prediction by ZEFSAII (Michael W. Deem and Ramdas Pophale) SiO2 
 PCOD8149524
Probable space group: C 2/C
;
_chemical_formula_sum "Si O2"
_cell_formula_units_Z 48
_cell_length_a 11.376187
_cell_length_b 22.534882
_cell_length_c 9.557954
_cell_angle_alpha 90.000000
_cell_angle_beta 71.487687
_cell_angle_gamma 90.000000
_cell_volume 2323.497937
_symmetry_space_group_name_H-M "C 2/C"
_symmetry_group_IT_number 15
_symmetry_cell_setting 'monoclinic'
loop_
_space_group_symop_operation_xyz
x,y,z
-x,y,1/2-z
-x,-y,-z
x,-y,1/2+z
1/2+x,1/2+y,z
1/2-x,1/2+y,1/2-z
1/2-x,1/2-y,-z
1/2+x,1/2-y,1/2+z
loop_
_atom_site_type_symbol
_atom_site_label
_atom_site_fract_x
_atom_site_fract_y
_atom_site_fract_z
Si Si1 0.881287 0.530059 0.616314
Si Si2 0.987460 0.058277 0.096593
Si Si3 0.717628 0.936670 0.627326
Si Si4 0.000000 0.630631 0.750000
Si Si5 0.621008 0.203044 0.464527
Si Si6 0.388330 0.325882 0.900770
Si Si7 0.500000 0.846694 0.750000
O O1 0.821854 0.489171 0.755469
O O2 0.779556 0.540207 0.533829
O O3 0.917877 0.591332 0.676326
O O4 0.000000 0.500000 0.500000
O O5 0.852683 0.086952 0.118986
O O6 0.000000 0.036574 0.250000
O O7 0.089132 0.110427 0.030180
O O8 0.000000 0.000000 0.000000
O O9 0.620218 0.884571 0.673097
O O10 0.086683 0.672391 0.624049
O O11 0.619265 0.274002 0.481600
O O12 0.755764 0.176303 0.370923
O O13 0.523444 0.192241 0.378216
O O14 0.500000 0.315914 0.750000
#
# Coordination Sequence:
#
# PCOD8149524 Si02
#       7
#     8   8   8   4   8   8   4
#     4  12  21  36  59  97 136 168 211 269 333 385
#     4  11  25  45  65  90 129 179 216 256 324 396
#     4  12  23  38  62  95 135 169 214 272 323 392
#     4  12  21  38  66  96 133 174 216 274 334 398
#     4  11  24  42  71  98 130 170 225 277 334 393
#     4  10  23  48  69  91 129 182 222 264 328 409
#     4  12  21  38  62 104 127 160 214 280 336 372
#
# _framework density 20.658507
#
# number of rings (size 3 to 8) (size 9 to 14) (size 15 to 20)
#    0.000    0.667    5.833    3.000    2.333    0.000 
#    1.500    5.000    0.000    0.000    0.000    0.000 
#    0.000    0.000    0.000    0.000    0.000    0.000 
#
# Total GULP energy -297589.277010 kJ/mol
# GULP energy per Si atom -12399.553209 kJ/mol
# Density = 2.061149 g / cm^3
# Si number density = 20.658507 Si / 1000 Ang^3
#
#
#
# Elastic Constant Matrix: (Units=GPa)
#
#
# Indices 1 2 3 4 5 6 
#
# 1 132.2071 44.3668 47.7126 0.0000 12.2699 0.0000
# 2 44.3668 137.2686 44.4602 0.0000 7.6717 0.0000
# 3 47.7126 44.4602 105.2242 0.0000 21.1397 0.0000
# 4 0.0000 0.0000 0.0000 8.4605 0.0000 -14.8634
# 5 12.2699 7.6717 21.1397 0.0000 42.3492 0.0000
# 6 0.0000 0.0000 0.0000 -14.8634 0.0000 21.3875
#
#
#
# Elastic Compliance Matrix: (Units=1/GPa)
#
#
# Indices 1 2 3 4 5 6 
#
# 1 0.009488 -0.001946 -0.003333 0.000000 -0.000733 0.000000
# 2 -0.001946 0.008842 -0.002940 0.000000 0.000430 0.000000
# 3 -0.003333 -0.002940 0.013288 0.000000 -0.005135 0.000000
# 4 0.000000 0.000000 0.000000 -0.535071 0.000000 -0.371851
# 5 -0.000733 0.000430 -0.005135 0.000000 0.026311 0.000000
# 6 0.000000 0.000000 0.000000 -0.371851 0.000000 -0.211663
#
#
# Mechanical properties :
#
#
# Convention : Reuss Voigt Hill
#
# Bulk Modulus (GPa) = 65.87137 71.97546 68.92342
# Shear Modulus (GPa) = -7.49280 30.31679 11.41200
#
# Velocity S-wave (km/s) = -1.90653 3.83498 2.35289
# Velocity P-wave (km/s) = 5.20659 7.38415 6.38883
#
# Compressibility (1/GPa) = 0.01518110
#
# Stress axis : x y z
#
# Youngs Moduli (GPa) = 105.39957 113.09363 75.25316
#
# Poissons Ratio (x) = 0.22010 0.25078
# Poissons Ratio (y) = 0.20513 0.22124
# Poissons Ratio (z) = 0.35125 0.33249
#
# Static dielectric constant tensor:
#      x y z
#    x 4.264230 0.000000 0.115590 
#    y 0.000000 3.842210 0.000000 
#    z 0.115590 0.000000 3.898200 
# 
# 
# High freq. dielectric constant tensor:
#      x y z
#    x 1.819590 0.000000 0.007830 
#    y 0.000000 1.810850 0.000000 
#    z 0.007830 0.000000 1.804200 
# 
# From -- ./inp_files/32581.got.cif
#   From: 2010.06.25/outbox.cif.g09.slc.cpg/sg15_17_cif.got.tgz:32581.got - 2010.06.28 07:06:18.
