data_PCOD8149254
_publ_section_title
;
Structure prediction by ZEFSAII (Michael W. Deem and Ramdas Pophale) SiO2 
 PCOD8149254
Probable space group: C 2/C
;
_chemical_formula_sum "Si O2"
_cell_formula_units_Z 44
_cell_length_a 5.314296
_cell_length_b 20.562897
_cell_length_c 18.721148
_cell_angle_alpha 90.000000
_cell_angle_beta 61.720370
_cell_angle_gamma 90.000000
_cell_volume 1801.622549
_symmetry_space_group_name_H-M "C 2/C"
_symmetry_group_IT_number 15
_symmetry_cell_setting 'monoclinic'
loop_
_space_group_symop_operation_xyz
x,y,z
-x,y,1/2-z
-x,-y,-z
x,-y,1/2+z
1/2+x,1/2+y,z
1/2-x,1/2+y,1/2-z
1/2-x,1/2-y,-z
1/2+x,1/2-y,1/2+z
loop_
_atom_site_type_symbol
_atom_site_label
_atom_site_fract_x
_atom_site_fract_y
_atom_site_fract_z
Si Si1 0.776638 0.083924 0.648128
Si Si2 0.000000 0.023017 0.750000
Si Si3 0.795780 0.730924 0.838542
Si Si4 0.781811 0.362808 0.002656
Si Si5 0.532180 0.982480 0.912344
Si Si6 0.124678 0.246561 0.427858
O O1 0.767413 0.064903 0.734965
O O2 0.635694 0.154324 0.659835
O O3 0.110838 0.090455 0.580587
O O4 0.658269 0.030084 0.609823
O O5 0.846109 0.981892 0.833481
O O6 0.465566 0.747233 0.864529
O O7 0.000000 0.758323 0.750000
O O8 0.916931 0.768648 0.890816
O O9 0.568271 0.312791 0.990361
O O10 0.939809 0.406672 0.921899
O O11 0.983464 0.314739 0.021858
O O12 0.500000 0.000000 0.000000
#
# Coordination Sequence:
#
# PCOD8149254 Si02
#       6
#     8   4   8   8   8   8
#     4  11  25  43  72 102 138 187 244 310 360 438
#     4  12  26  44  66 112 144 182 250 298 380 438
#     4  11  23  41  70  99 145 181 243 300 366 421
#     4  10  23  44  72  97 140 187 241 293 366 429
#     4  12  24  44  72 105 142 188 238 301 375 438
#     4  10  24  44  67 107 134 191 243 295 350 445
#
# _framework density 24.422432000000001
#
# number of rings (size 3 to 8) (size 9 to 14) (size 15 to 20)
#    0.000    1.091    1.818    3.818    7.636    8.000 
#    1.636    1.818    0.000    0.000    0.000    0.000 
#    0.000    0.000    0.000    0.000    0.000    0.000 
#
# Total GULP energy -272548.995857 kJ/mol
# GULP energy per Si atom -12388.590721 kJ/mol
# Density = 2.436685 g / cm^3
# Si number density = 24.422432 Si / 1000 Ang^3
#
#
#
# Elastic Constant Matrix: (Units=GPa)
#
#
# Indices 1 2 3 4 5 6 
#
# 1 98.4495 3.0321 38.4270 0.0000 10.7455 0.0000
# 2 3.0321 73.9017 42.0463 0.0000 -3.5305 0.0000
# 3 38.4270 42.0463 162.4435 0.0000 3.3904 0.0000
# 4 0.0000 0.0000 0.0000 38.6220 0.0000 -4.9211
# 5 10.7455 -3.5305 3.3904 0.0000 49.1035 0.0000
# 6 0.0000 0.0000 0.0000 -4.9211 0.0000 9.8805
#
#
#
# Elastic Compliance Matrix: (Units=1/GPa)
#
#
# Indices 1 2 3 4 5 6 
#
# 1 0.011526 0.001108 -0.002967 0.000000 -0.002238 0.000000
# 2 0.001108 0.016075 -0.004448 0.000000 0.001220 0.000000
# 3 -0.002967 -0.004448 0.008014 0.000000 -0.000224 0.000000
# 4 0.000000 0.000000 0.000000 0.027646 0.000000 0.013770
# 5 -0.002238 0.001220 -0.000224 0.000000 0.020958 0.000000
# 6 0.000000 0.000000 0.000000 0.013770 0.000000 0.108068
#
#
# Mechanical properties :
#
#
# Convention : Reuss Voigt Hill
#
# Bulk Modulus (GPa) = 43.47691 55.75617 49.61654
# Shear Modulus (GPa) = 23.52192 36.27382 29.89787
#
# Velocity S-wave (km/s) = 3.10680 3.85810 3.50265
# Velocity P-wave (km/s) = 5.54168 6.53651 6.05955
#
# Compressibility (1/GPa) = 0.02300071
#
# Stress axis : x y z
#
# Youngs Moduli (GPa) = 86.76411 62.20732 124.78430
#
# Poissons Ratio (x) = -0.06893 0.37018
# Poissons Ratio (y) = -0.09614 0.55510
# Poissons Ratio (z) = 0.25739 0.27673
#
# Static dielectric constant tensor:
#      x y z
#    x 4.196120 0.000000 -0.224360 
#    y 0.000000 4.678200 0.000000 
#    z -0.224360 0.000000 4.902020 
# 
# 
# High freq. dielectric constant tensor:
#      x y z
#    x 1.969200 0.000000 -0.010480 
#    y 0.000000 1.953650 0.000000 
#    z -0.010480 0.000000 1.992920 
# 
# From -- ./inp_files/184807.got.cif
#   From: 2010.06.25/outbox.cif.g09.slc.cpg/sg15_93_cif.got.tgz:184807.got - 2010.06.28 07:06:18.
