data_PCOD8149066
_publ_section_title
;
Structure prediction by ZEFSAII (Michael W. Deem and Ramdas Pophale) SiO2 
 PCOD8149066
Probable space group: C 2/C
;
_chemical_formula_sum "Si O2"
_cell_formula_units_Z 48
_cell_length_a 10.305254
_cell_length_b 12.294570
_cell_length_c 17.524681
_cell_angle_alpha 90.000000
_cell_angle_beta 97.830988
_cell_angle_gamma 90.000000
_cell_volume 2199.647352
_symmetry_space_group_name_H-M "C 2/C"
_symmetry_group_IT_number 15
_symmetry_cell_setting 'monoclinic'
loop_
_space_group_symop_operation_xyz
x,y,z
-x,y,1/2-z
-x,-y,-z
x,-y,1/2+z
1/2+x,1/2+y,z
1/2-x,1/2+y,1/2-z
1/2-x,1/2-y,-z
1/2+x,1/2-y,1/2+z
loop_
_atom_site_type_symbol
_atom_site_label
_atom_site_fract_x
_atom_site_fract_y
_atom_site_fract_z
Si Si1 0.649309 0.006316 0.165072
Si Si2 0.568797 0.882961 0.441043
Si Si3 0.301422 0.497582 0.536895
Si Si4 0.640995 0.166910 0.786104
Si Si5 0.406563 0.755480 0.810005
Si Si6 0.010099 0.169527 0.526964
O O1 0.559311 0.930549 0.106695
O O2 0.785682 0.012496 0.128123
O O3 0.665044 0.952152 0.249834
O O4 0.573634 0.119447 0.166988
O O5 0.656486 0.836561 0.378856
O O6 0.514215 0.790363 0.493179
O O7 0.655979 0.974829 0.490565
O O8 0.364158 0.614371 0.517287
O O9 0.397303 0.402410 0.518631
O O10 0.500000 0.215429 0.750000
O O11 0.757115 0.245206 0.767740
O O12 0.500000 0.718721 0.750000
O O13 0.436525 0.675117 0.882599
#
# Coordination Sequence:
#
# PCOD8149066 Si02
#       6
#     8   8   8   8   8   8
#     4  11  24  43  66  93 132 174 221 278 342 403
#     4  11  21  44  66  92 133 174 218 278 332 410
#     4  11  22  41  66 100 131 168 224 279 336 413
#     4  10  23  44  64  93 129 177 220 273 343 402
#     4  12  23  43  67  95 136 176 224 283 339 410
#     4  11  24  40  69  99 132 177 221 280 349 398
#
# _framework density 21.821681000000002
#
# number of rings (size 3 to 8) (size 9 to 14) (size 15 to 20)
#    0.000    1.000    3.333    4.500    0.000    0.667 
#   12.000    2.500    0.000    0.000    0.000    0.000 
#    0.000    0.000    0.000    0.000    0.000    0.000 
#
# Total GULP energy -297489.120646 kJ/mol
# GULP energy per Si atom -12395.380027 kJ/mol
# Density = 2.177201 g / cm^3
# Si number density = 21.821681 Si / 1000 Ang^3
#
#
#
# Elastic Constant Matrix: (Units=GPa)
#
#
# Indices 1 2 3 4 5 6 
#
# 1 98.0157 44.0698 44.8017 0.0000 -20.6626 0.0000
# 2 44.0698 85.7684 24.9048 0.0000 6.3958 0.0000
# 3 44.8017 24.9048 84.3604 0.0000 -14.0055 0.0000
# 4 0.0000 0.0000 0.0000 25.3504 0.0000 -7.8871
# 5 -20.6626 6.3958 -14.0055 0.0000 30.3159 0.0000
# 6 0.0000 0.0000 0.0000 -7.8871 0.0000 40.8560
#
#
#
# Elastic Compliance Matrix: (Units=1/GPa)
#
#
# Indices 1 2 3 4 5 6 
#
# 1 0.019707 -0.009481 -0.005529 0.000000 0.012878 0.000000
# 2 -0.009481 0.017992 -0.002144 0.000000 -0.011248 0.000000
# 3 -0.005529 -0.002144 0.016108 0.000000 0.004126 0.000000
# 4 0.000000 0.000000 0.000000 0.041968 0.000000 0.008102
# 5 0.012878 -0.011248 0.004126 0.000000 0.046042 0.000000
# 6 0.000000 0.000000 0.000000 0.008102 0.000000 0.026040
#
#
# Mechanical properties :
#
#
# Convention : Reuss Voigt Hill
#
# Bulk Modulus (GPa) = 51.28318 55.07748 53.18033
# Shear Modulus (GPa) = 23.96178 29.59566 26.77872
#
# Velocity S-wave (km/s) = 3.31731 3.68673 3.50689
# Velocity P-wave (km/s) = 6.18262 6.58917 6.38913
#
# Compressibility (1/GPa) = 0.01949957
#
# Stress axis : x y z
#
# Youngs Moduli (GPa) = 50.74270 55.57987 62.08028
#
# Poissons Ratio (x) = 0.52694 0.34325
# Poissons Ratio (y) = 0.48108 0.13310
# Poissons Ratio (z) = 0.28056 0.11916
#
# Static dielectric constant tensor:
#      x y z
#    x 4.200490 0.000000 -0.469030 
#    y 0.000000 3.791860 0.000000 
#    z -0.469030 0.000000 4.337170 
# 
# 
# High freq. dielectric constant tensor:
#      x y z
#    x 1.865990 0.000000 -0.027790 
#    y 0.000000 1.844340 0.000000 
#    z -0.027790 0.000000 1.863020 
# 
# From -- ./inp_files/196216.got.cif
#   From: 2010.06.25/outbox.cif.g09.slc.cpg/sg15_99_cif.got.tgz:196216.got - 2010.06.28 07:06:18.
