data_PCOD8149332
_publ_section_title
;
Structure prediction by ZEFSAII (Michael W. Deem and Ramdas Pophale) SiO2 
 PCOD8149332
Probable space group: C 2/C
;
_chemical_formula_sum "Si O2"
_cell_formula_units_Z 40
_cell_length_a 24.090106
_cell_length_b 8.584162
_cell_length_c 7.100027
_cell_angle_alpha 90.000000
_cell_angle_beta 66.477019
_cell_angle_gamma 90.000000
_cell_volume 1346.228002
_symmetry_space_group_name_H-M "C 2/C"
_symmetry_group_IT_number 15
_symmetry_cell_setting 'monoclinic'
loop_
_space_group_symop_operation_xyz
x,y,z
-x,y,1/2-z
-x,-y,-z
x,-y,1/2+z
1/2+x,1/2+y,z
1/2-x,1/2+y,1/2-z
1/2-x,1/2-y,-z
1/2+x,1/2-y,1/2+z
loop_
_atom_site_type_symbol
_atom_site_label
_atom_site_fract_x
_atom_site_fract_y
_atom_site_fract_z
Si Si1 0.739445 0.717650 0.241626
Si Si2 0.437042 0.682689 0.432265
Si Si3 0.109495 0.132982 0.385226
Si Si4 0.695474 0.975971 0.543843
Si Si5 0.936336 0.386234 0.778616
O O1 0.678157 0.621750 0.363925
O O2 0.721085 0.901856 0.306218
O O3 0.771860 0.649717 0.998730
O O4 0.789148 0.659622 0.327154
O O5 0.500000 0.643116 0.250000
O O6 0.582258 0.460662 0.409091
O O7 0.388980 0.704159 0.327886
O O8 0.440255 0.836160 0.555413
O O9 0.068722 0.239228 0.575869
O O10 0.622710 0.997313 0.625739
O O11 0.000000 0.472071 0.750000
#
# Coordination Sequence:
#
# PCOD8149332 Si02
#       5
#     8   8   8   8   8
#     4  10  23  45  68 105 141 180 231 283 356 413
#     4  12  21  33  58  96 138 183 228 283 358 410
#     4  11  21  35  63  98 141 176 223 300 353 409
#     4  10  24  46  71 103 142 183 231 292 347 422
#     4  11  23  42  62  96 139 182 238 284 341 418
#
# _framework density 29.712648999999999
#
# number of rings (size 3 to 8) (size 9 to 14) (size 15 to 20)
#    0.000    1.200    4.000    2.400    5.600    0.800 
#    7.200    1.000    0.000    0.000    0.000    0.000 
#    0.000    0.000    0.000    0.000    0.000    0.000 
#
# Total GULP energy -247990.077037 kJ/mol
# GULP energy per Si atom -12399.503852 kJ/mol
# Density = 2.964502 g / cm^3
# Si number density = 29.712649 Si / 1000 Ang^3
#
#
#
# Elastic Constant Matrix: (Units=GPa)
#
#
# Indices 1 2 3 4 5 6 
#
# 1 175.9155 45.5482 51.8135 0.0000 -34.0250 0.0000
# 2 45.5482 127.1703 36.4076 0.0000 -28.7883 0.0000
# 3 51.8135 36.4076 124.4596 0.0000 5.0659 0.0000
# 4 0.0000 0.0000 0.0000 36.6562 0.0000 -8.8776
# 5 -34.0250 -28.7883 5.0659 0.0000 64.9806 0.0000
# 6 0.0000 0.0000 0.0000 -8.8776 0.0000 31.8599
#
#
#
# Elastic Compliance Matrix: (Units=1/GPa)
#
#
# Indices 1 2 3 4 5 6 
#
# 1 0.007553 -0.000996 -0.003005 0.000000 0.003748 0.000000
# 2 -0.000996 0.009900 -0.002647 0.000000 0.004070 0.000000
# 3 -0.003005 -0.002647 0.010204 0.000000 -0.003542 0.000000
# 4 0.000000 0.000000 0.000000 0.029255 0.000000 0.008152
# 5 0.003748 0.004070 -0.003542 0.000000 0.019431 0.000000
# 6 0.000000 0.000000 0.000000 0.008152 0.000000 0.033659
#
#
# Mechanical properties :
#
#
# Convention : Reuss Voigt Hill
#
# Bulk Modulus (GPa) = 69.63993 77.23157 73.43575
# Shear Modulus (GPa) = 39.03691 46.28442 42.66066
#
# Velocity S-wave (km/s) = 3.62859 3.95110 3.79327
# Velocity P-wave (km/s) = 6.40658 6.84574 6.62980
#
# Compressibility (1/GPa) = 0.01435958
#
# Stress axis : x y z
#
# Youngs Moduli (GPa) = 132.40643 101.01512 97.99850
#
# Poissons Ratio (x) = 0.10065 0.29451
# Poissons Ratio (y) = 0.13192 0.25938
# Poissons Ratio (z) = 0.39791 0.26736
#
# Static dielectric constant tensor:
#      x y z
#    x 5.688820 0.000000 0.502310 
#    y 0.000000 5.171430 0.000000 
#    z 0.502310 0.000000 6.199020 
# 
# 
# High freq. dielectric constant tensor:
#      x y z
#    x 2.227930 0.000000 0.022470 
#    y 0.000000 2.219280 0.000000 
#    z 0.022470 0.000000 2.249440 
# 
# From -- ./inp_files/60456.got.cif
#   From: 2010.06.25/outbox.cif.g09.slc.cpg/sg15_31_cif.got.tgz:60456.got - 2010.06.28 07:06:18.
