data_PCOD8149033
_publ_section_title
;
Structure prediction by ZEFSAII (Michael W. Deem and Ramdas Pophale) SiO2 
 PCOD8149033
Probable space group: C 2/C
;
_chemical_formula_sum "Si O2"
_cell_formula_units_Z 40
_cell_length_a 20.871703
_cell_length_b 8.971743
_cell_length_c 8.931727
_cell_angle_alpha 90.000000
_cell_angle_beta 110.335470
_cell_angle_gamma 90.000000
_cell_volume 1568.274261
_symmetry_space_group_name_H-M "C 2/C"
_symmetry_group_IT_number 15
_symmetry_cell_setting 'monoclinic'
loop_
_space_group_symop_operation_xyz
x,y,z
-x,y,1/2-z
-x,-y,-z
x,-y,1/2+z
1/2+x,1/2+y,z
1/2-x,1/2+y,1/2-z
1/2-x,1/2-y,-z
1/2+x,1/2-y,1/2+z
loop_
_atom_site_type_symbol
_atom_site_label
_atom_site_fract_x
_atom_site_fract_y
_atom_site_fract_z
Si Si1 0.342491 0.950242 0.298476
Si Si2 0.563676 0.926108 0.390136
Si Si3 0.149744 0.033046 0.844861
Si Si4 0.059874 0.117427 0.521587
Si Si5 0.772456 0.835924 0.830582
O O1 0.372467 0.891359 0.166578
O O2 0.282039 0.839253 0.303736
O O3 0.406933 0.959158 0.463222
O O4 0.306322 0.112554 0.252765
O O5 0.500000 0.001474 0.250000
O O6 0.533347 0.778152 0.445241
O O7 0.099519 0.141036 0.710647
O O8 0.181378 0.919116 0.752947
O O9 0.205116 0.133111 0.978848
O O10 0.108960 0.940148 0.932832
O O11 0.000000 0.000000 0.500000
#
# Coordination Sequence:
#
# PCOD8149033 Si02
#       5
#     8   8   8   8   8
#     4  12  29  50  79 112 160 204 262 319 384 457
#     4  12  28  51  76 110 158 205 252 319 388 462
#     4  10  23  43  73 109 154 188 257 318 382 450
#     4  11  23  45  76 113 147 202 256 317 378 460
#     4  11  26  47  76 113 149 206 254 319 387 454
#
# _framework density 25.505739999999999
#
# number of rings (size 3 to 8) (size 9 to 14) (size 15 to 20)
#    0.000    0.800    2.000    3.600   11.200    3.200 
#    0.000    0.000    0.000    0.000    0.000    0.000 
#    0.000    0.000    0.000    0.000    0.000    0.000 
#
# Total GULP energy -248037.897604 kJ/mol
# GULP energy per Si atom -12401.894880 kJ/mol
# Density = 2.544769 g / cm^3
# Si number density = 25.505740 Si / 1000 Ang^3
#
#
#
# Elastic Constant Matrix: (Units=GPa)
#
#
# Indices 1 2 3 4 5 6 
#
# 1 85.7658 31.7628 33.9343 0.0000 12.0955 0.0000
# 2 31.7628 101.0386 29.4756 0.0000 8.8642 0.0000
# 3 33.9343 29.4756 160.0592 0.0000 11.6058 0.0000
# 4 0.0000 0.0000 0.0000 27.3179 0.0000 2.6779
# 5 12.0955 8.8642 11.6058 0.0000 47.1737 0.0000
# 6 0.0000 0.0000 0.0000 2.6779 0.0000 46.6201
#
#
#
# Elastic Compliance Matrix: (Units=1/GPa)
#
#
# Indices 1 2 3 4 5 6 
#
# 1 0.014200 -0.003618 -0.002168 0.000000 -0.002428 0.000000
# 2 -0.003618 0.011489 -0.001282 0.000000 -0.000916 0.000000
# 3 -0.002168 -0.001282 0.007011 0.000000 -0.000928 0.000000
# 4 0.000000 0.000000 0.000000 0.036813 0.000000 -0.002115
# 5 -0.002428 -0.000916 -0.000928 0.000000 0.022221 0.000000
# 6 0.000000 0.000000 0.000000 -0.002115 0.000000 0.021571
#
#
# Mechanical properties :
#
#
# Convention : Reuss Voigt Hill
#
# Bulk Modulus (GPa) = 53.87312 59.68987 56.78150
# Shear Modulus (GPa) = 37.41656 41.00174 39.20915
#
# Velocity S-wave (km/s) = 3.83428 4.01378 3.92505
# Velocity P-wave (km/s) = 6.38515 6.70327 6.54614
#
# Compressibility (1/GPa) = 0.01856213
#
# Stress axis : x y z
#
# Youngs Moduli (GPa) = 70.42275 87.03902 142.63763
#
# Poissons Ratio (x) = 0.31495 0.30926
# Poissons Ratio (y) = 0.25482 0.18289
# Poissons Ratio (z) = 0.15269 0.11160
#
# Static dielectric constant tensor:
#      x y z
#    x 4.074030 0.000000 0.054640 
#    y 0.000000 4.320080 0.000000 
#    z 0.054640 0.000000 5.149950 
# 
# 
# High freq. dielectric constant tensor:
#      x y z
#    x 2.027080 0.000000 -0.012430 
#    y 0.000000 2.002690 0.000000 
#    z -0.012430 0.000000 2.043950 
# 
# From -- ./inp_files/60073.got.cif
#   From: 2010.06.25/outbox.cif.g09.slc.cpg/sg15_31_cif.got.tgz:60073.got - 2010.06.28 07:06:18.
