data_PCOD8149520
_publ_section_title
;
Structure prediction by ZEFSAII (Michael W. Deem and Ramdas Pophale) SiO2 
 PCOD8149520
Probable space group: C 2/C
;
_chemical_formula_sum "Si O2"
_cell_formula_units_Z 60
_cell_length_a 17.943131
_cell_length_b 7.405671
_cell_length_c 22.150628
_cell_angle_alpha 90.000000
_cell_angle_beta 127.092673
_cell_angle_gamma 90.000000
_cell_volume 2347.832324
_symmetry_space_group_name_H-M "C 2/C"
_symmetry_group_IT_number 15
_symmetry_cell_setting 'monoclinic'
loop_
_space_group_symop_operation_xyz
x,y,z
-x,y,1/2-z
-x,-y,-z
x,-y,1/2+z
1/2+x,1/2+y,z
1/2-x,1/2+y,1/2-z
1/2-x,1/2-y,-z
1/2+x,1/2-y,1/2+z
loop_
_atom_site_type_symbol
_atom_site_label
_atom_site_fract_x
_atom_site_fract_y
_atom_site_fract_z
Si Si1 0.085357 0.961694 0.900962
Si Si2 0.336557 0.661841 0.743268
Si Si3 0.445165 0.835395 0.361250
Si Si4 0.330187 0.764155 0.418282
Si Si5 0.276820 0.256261 0.703872
Si Si6 0.266850 0.576353 0.938774
Si Si7 0.390426 0.886050 0.567572
Si Si8 0.500000 0.431438 0.250000
O O1 0.992476 0.861850 0.878904
O O2 0.086855 0.175828 0.913089
O O3 0.076621 0.944871 0.823237
O O4 0.176721 0.854119 0.972749
O O5 0.270005 0.757579 0.662411
O O6 0.312062 0.453846 0.731602
O O7 0.318349 0.732495 0.802703
O O8 0.443653 0.689052 0.772317
O O9 0.407275 0.838292 0.410552
O O10 0.360476 0.868695 0.271981
O O11 0.515106 0.000293 0.386704
O O12 0.345589 0.558747 0.448967
O O13 0.333266 0.902500 0.476408
O O14 0.256747 0.224930 0.623058
O O15 0.175006 0.463751 0.911672
#
# Coordination Sequence:
#
# PCOD8149520 Si02
#       8
#     8   8   8   8   8   8   8   4
#     4  11  26  45  71 106 142 190 234 302 360 424
#     4  11  24  43  72  97 143 190 233 297 358 420
#     4  11  25  45  70 104 143 183 246 296 358 423
#     4  10  23  48  67 101 146 183 239 300 354 441
#     4  11  25  46  67 107 142 187 241 293 361 437
#     4  11  25  45  72 100 147 188 239 294 364 428
#     4  11  25  44  71 107 143 189 243 293 363 423
#     4  12  24  44  72 102 140 180 248 288 358 434
#
# _framework density 25.555488
#
# number of rings (size 3 to 8) (size 9 to 14) (size 15 to 20)
#    0.000    1.067    1.333    5.200    3.733    7.467 
#    0.000    0.000    0.000    0.000    0.000    0.000 
#    0.000    0.000    0.000    0.000    0.000    0.000 
#
# Total GULP energy -371718.451681 kJ/mol
# GULP energy per Si atom -12390.615056 kJ/mol
# Density = 2.549732 g / cm^3
# Si number density = 25.555488 Si / 1000 Ang^3
#
#
#
# Elastic Constant Matrix: (Units=GPa)
#
#
# Indices 1 2 3 4 5 6 
#
# 1 120.9813 7.4777 11.2389 0.0000 6.8941 0.0000
# 2 7.4777 28.0401 -20.9779 0.0000 6.1609 0.0000
# 3 11.2389 -20.9779 109.2758 0.0000 6.3393 0.0000
# 4 0.0000 0.0000 0.0000 -14.2028 0.0000 26.6253
# 5 6.8941 6.1609 6.3393 0.0000 28.6096 0.0000
# 6 0.0000 0.0000 0.0000 26.6253 0.0000 13.6150
#
#
#
# Elastic Compliance Matrix: (Units=1/GPa)
#
#
# Indices 1 2 3 4 5 6 
#
# 1 0.008655 -0.003137 -0.001429 0.000000 -0.001093 0.000000
# 2 -0.003137 0.046415 0.009896 0.000000 -0.011432 0.000000
# 3 -0.001429 0.009896 0.011449 0.000000 -0.004324 0.000000
# 4 0.000000 0.000000 0.000000 -0.015090 0.000000 0.029509
# 5 -0.001093 -0.011432 -0.004324 0.000000 0.038637 0.000000
# 6 0.000000 0.000000 0.000000 0.029509 0.000000 0.015741
#
#
# Mechanical properties :
#
#
# Convention : Reuss Voigt Hill
#
# Bulk Modulus (GPa) = 12.95673 28.19718 20.57696
# Shear Modulus (GPa) = 41.36605 22.97494 32.17050
#
# Velocity S-wave (km/s) = 4.02764 3.00162 3.55188
# Velocity P-wave (km/s) = 5.16820 4.80319 4.98903
#
# Compressibility (1/GPa) = 0.07717997
#
# Stress axis : x y z
#
# Youngs Moduli (GPa) = 115.54466 21.54463 87.34596
#
# Poissons Ratio (x) = 0.06758 0.12480
# Poissons Ratio (y) = 0.36243 -0.86440
# Poissons Ratio (z) = 0.16510 -0.21321
#
# Static dielectric constant tensor:
#      x y z
#    x 4.835510 0.000000 0.068040 
#    y 0.000000 4.456150 0.000000 
#    z 0.068040 0.000000 6.141710 
# 
# 
# High freq. dielectric constant tensor:
#      x y z
#    x 2.019450 0.000000 -0.004930 
#    y 0.000000 2.009180 0.000000 
#    z -0.004930 0.000000 2.042680 
# 
# From -- ./inp_files/247843.got.cif
#   From: 2010.06.25/outbox.cif.g09.slc.cpg/sg15_124_cif.got.tgz:247843.got - 2010.06.28 07:06:18.
