data_PCOD8149915
_publ_section_title
;
Structure prediction by ZEFSAII (Michael W. Deem and Ramdas Pophale) SiO2 
 PCOD8149915
Probable space group: C 2/C
;
_chemical_formula_sum "Si O2"
_cell_formula_units_Z 64
_cell_length_a 14.531184
_cell_length_b 29.595388
_cell_length_c 8.428557
_cell_angle_alpha 90.000000
_cell_angle_beta 122.493173
_cell_angle_gamma 90.000000
_cell_volume 3057.316658
_symmetry_space_group_name_H-M "C 2/C"
_symmetry_group_IT_number 15
_symmetry_cell_setting 'monoclinic'
loop_
_space_group_symop_operation_xyz
x,y,z
-x,y,1/2-z
-x,-y,-z
x,-y,1/2+z
1/2+x,1/2+y,z
1/2-x,1/2+y,1/2-z
1/2-x,1/2-y,-z
1/2+x,1/2-y,1/2+z
loop_
_atom_site_type_symbol
_atom_site_label
_atom_site_fract_x
_atom_site_fract_y
_atom_site_fract_z
Si Si1 0.421117 0.195658 0.969835
Si Si2 0.846669 0.147871 0.260015
Si Si3 0.487921 0.292432 0.422339
Si Si4 0.376449 0.051672 0.145017
Si Si5 0.277428 0.706390 0.919601
Si Si6 0.365946 0.845704 0.743717
Si Si7 0.747806 0.482188 0.235808
Si Si8 0.374322 0.450037 0.672475
O O1 0.331834 0.184141 0.754262
O O2 0.443374 0.248465 0.969381
O O3 0.530439 0.165473 0.045840
O O4 0.373110 0.187643 0.100718
O O5 0.745944 0.165140 0.272232
O O6 0.846580 0.093921 0.250013
O O7 0.960434 0.164885 0.438267
O O8 0.834809 0.167855 0.074670
O O9 0.500000 0.303932 0.250000
O O10 0.362699 0.282963 0.356909
O O11 0.500000 0.034715 0.250000
O O12 0.371609 0.103068 0.194224
O O13 0.320302 0.020908 0.224312
O O14 0.320712 0.048079 0.920717
O O15 0.250000 0.750000 0.000000
O O16 0.652355 0.505948 0.248206
O O17 0.695791 0.449761 0.054835
O O18 0.500000 0.451656 0.750000
#
# Coordination Sequence:
#
# PCOD8149915 Si02
#       8
#     8   8   8   8   8   8   8   8
#     4  11  24  42  69  93 131 183 222 273 335 393
#     4  12  26  43  66  96 139 170 224 281 333 394
#     4  12  25  45  67  95 130 183 224 273 337 395
#     4  11  21  43  67 100 135 171 221 275 332 407
#     4  12  26  42  67  97 136 172 229 282 336 394
#     4  11  23  43  66  96 134 178 227 272 323 410
#     4  10  24  42  71  96 132 177 216 273 350 396
#     4  11  23  45  67  99 132 173 222 277 337 406
#
# _framework density 20.933388000000001
#
# number of rings (size 3 to 8) (size 9 to 14) (size 15 to 20)
#    0.000    0.750    5.000    3.375    1.750    2.500 
#    2.250    0.625    0.000    0.000    0.000    0.000 
#    0.000    0.000    0.000    0.000    0.000    0.000 
#
# Total GULP energy -396940.590510 kJ/mol
# GULP energy per Si atom -12404.393453 kJ/mol
# Density = 2.088574 g / cm^3
# Si number density = 20.933388 Si / 1000 Ang^3
#
#
#
# Elastic Constant Matrix: (Units=GPa)
#
#
# Indices 1 2 3 4 5 6 
#
# 1 121.5765 17.3735 32.6779 0.0000 12.4648 0.0000
# 2 17.3735 90.0794 42.7786 0.0000 4.8513 0.0000
# 3 32.6779 42.7786 129.2656 0.0000 11.8353 0.0000
# 4 0.0000 0.0000 0.0000 31.3704 0.0000 -18.5520
# 5 12.4648 4.8513 11.8353 0.0000 29.0073 0.0000
# 6 0.0000 0.0000 0.0000 -18.5520 0.0000 -51.8565
#
#
#
# Elastic Compliance Matrix: (Units=1/GPa)
#
#
# Indices 1 2 3 4 5 6 
#
# 1 0.009125 -0.000751 -0.001777 0.000000 -0.003070 0.000000
# 2 -0.000751 0.013238 -0.004174 0.000000 -0.000188 0.000000
# 3 -0.001777 -0.004174 0.009799 0.000000 -0.002536 0.000000
# 4 0.000000 0.000000 0.000000 0.026311 0.000000 -0.009413
# 5 -0.003070 -0.000188 -0.002536 0.000000 0.036860 0.000000
# 6 0.000000 0.000000 0.000000 -0.009413 0.000000 -0.015917
#
#
# Mechanical properties :
#
#
# Convention : Reuss Voigt Hill
#
# Bulk Modulus (GPa) = 53.30897 58.50906 55.90902
# Shear Modulus (GPa) = 50.46783 18.24368 34.35576
#
# Velocity S-wave (km/s) = 4.91540 2.95534 4.05556
# Velocity P-wave (km/s) = 7.59843 6.29731 6.97826
#
# Compressibility (1/GPa) = 0.01875857
#
# Stress axis : x y z
#
# Youngs Moduli (GPa) = 109.58854 75.53727 102.05260
#
# Poissons Ratio (x) = 0.05669 0.18137
# Poissons Ratio (y) = 0.08225 0.42598
# Poissons Ratio (z) = 0.19477 0.31530
#
# Static dielectric constant tensor:
#      x y z
#    x 4.128510 0.000000 0.083030 
#    y 0.000000 3.685470 0.000000 
#    z 0.083030 0.000000 3.910170 
# 
# 
# High freq. dielectric constant tensor:
#      x y z
#    x 1.835710 0.000000 0.003330 
#    y 0.000000 1.816030 0.000000 
#    z 0.003330 0.000000 1.824430 
# 
# From -- ./inp_files/44816.got.cif
#   From: 2010.06.25/outbox.cif.g09.slc.cpg/sg15_23_cif.got.tgz:44816.got - 2010.06.28 07:06:18.
