data_PCOD8149994
_publ_section_title
;
Structure prediction by ZEFSAII (Michael W. Deem and Ramdas Pophale) SiO2 
 PCOD8149994
Probable space group: C 2/C
;
_chemical_formula_sum "Si O2"
_cell_formula_units_Z 48
_cell_length_a 13.891935
_cell_length_b 15.019219
_cell_length_c 15.326786
_cell_angle_alpha 90.000000
_cell_angle_beta 46.740867
_cell_angle_gamma 90.000000
_cell_volume 2328.888421
_symmetry_space_group_name_H-M "C 2/C"
_symmetry_group_IT_number 15
_symmetry_cell_setting 'monoclinic'
loop_
_space_group_symop_operation_xyz
x,y,z
-x,y,1/2-z
-x,-y,-z
x,-y,1/2+z
1/2+x,1/2+y,z
1/2-x,1/2+y,1/2-z
1/2-x,1/2-y,-z
1/2+x,1/2-y,1/2+z
loop_
_atom_site_type_symbol
_atom_site_label
_atom_site_fract_x
_atom_site_fract_y
_atom_site_fract_z
Si Si1 0.496626 0.800251 0.548845
Si Si2 0.483194 0.369485 0.163708
Si Si3 0.374272 0.492823 0.017093
Si Si4 0.791198 0.792954 0.065230
Si Si5 0.816012 0.371083 0.203857
Si Si6 0.601528 0.043290 0.265964
O O1 0.537164 0.711160 0.572772
O O2 0.395443 0.778480 0.534722
O O3 0.630620 0.830252 0.418567
O O4 0.432544 0.870510 0.655512
O O5 0.500000 0.333922 0.250000
O O6 0.582630 0.453471 0.095968
O O7 0.336666 0.396189 0.220873
O O8 0.500000 0.500000 0.000000
O O9 0.347064 0.391000 0.009321
O O10 0.249896 0.544537 0.136140
O O11 0.681475 0.806363 0.211284
O O12 0.750000 0.750000 0.000000
O O13 0.906965 0.456847 0.166674
O O14 0.500000 0.034112 0.250000
#
# Coordination Sequence:
#
# PCOD8149994 Si02
#       6
#     8   8   8   8   8   8
#     4  11  24  41  66  99 137 176 229 291 343 413
#     4  11  25  43  68  99 131 183 232 279 349 424
#     4  11  22  48  68  94 141 184 224 293 346 414
#     4  10  24  43  68 102 131 180 234 284 351 418
#     4  10  24  44  65  98 141 175 227 291 344 419
#     4  11  25  42  69  99 138 182 223 283 355 414
#
# _framework density 20.610690000000002
#
# number of rings (size 3 to 8) (size 9 to 14) (size 15 to 20)
#    0.000    1.333    5.000    1.000   11.667    2.000 
#    3.000    0.000    0.000    0.000    0.000    0.000 
#    0.000    0.000    0.000    0.000    0.000    0.000 
#
# Total GULP energy -297401.720216 kJ/mol
# GULP energy per Si atom -12391.738342 kJ/mol
# Density = 2.056378 g / cm^3
# Si number density = 20.610690 Si / 1000 Ang^3
#
#
#
# Elastic Constant Matrix: (Units=GPa)
#
#
# Indices 1 2 3 4 5 6 
#
# 1 108.7056 55.3451 68.0805 0.0000 17.6113 0.0000
# 2 55.3451 129.7986 64.1145 0.0000 0.8787 0.0000
# 3 68.0805 64.1145 119.3942 0.0000 -5.0171 0.0000
# 4 0.0000 0.0000 0.0000 37.1859 0.0000 1.7309
# 5 17.6113 0.8787 -5.0171 0.0000 36.6974 0.0000
# 6 0.0000 0.0000 0.0000 1.7309 0.0000 27.1800
#
#
#
# Elastic Compliance Matrix: (Units=1/GPa)
#
#
# Indices 1 2 3 4 5 6 
#
# 1 0.018039 -0.003186 -0.008988 0.000000 -0.009810 0.000000
# 2 -0.003186 0.011087 -0.004107 0.000000 0.000702 0.000000
# 3 -0.008988 -0.004107 0.015983 0.000000 0.006597 0.000000
# 4 0.000000 0.000000 0.000000 0.026972 0.000000 -0.001718
# 5 -0.009810 0.000702 0.006597 0.000000 0.032843 0.000000
# 6 0.000000 0.000000 0.000000 -0.001718 0.000000 0.036901
#
#
# Mechanical properties :
#
#
# Convention : Reuss Voigt Hill
#
# Bulk Modulus (GPa) = 79.69738 81.44207 80.56972
# Shear Modulus (GPa) = 28.00027 31.56989 29.78508
#
# Velocity S-wave (km/s) = 3.68982 3.91797 3.80561
# Velocity P-wave (km/s) = 7.54354 7.75033 7.64763
#
# Compressibility (1/GPa) = 0.01254746
#
# Stress axis : x y z
#
# Youngs Moduli (GPa) = 55.43466 90.19709 62.56478
#
# Poissons Ratio (x) = 0.28736 0.56231
# Poissons Ratio (y) = 0.17661 0.25698
# Poissons Ratio (z) = 0.49823 0.37048
#
# Static dielectric constant tensor:
#      x y z
#    x 3.678910 0.000000 0.033400 
#    y 0.000000 15.423690 0.000000 
#    z 0.033400 0.000000 4.141380 
# 
# 
# High freq. dielectric constant tensor:
#      x y z
#    x 1.803150 0.000000 0.007490 
#    y 0.000000 1.813380 0.000000 
#    z 0.007490 0.000000 1.815130 
# 
# From -- ./inp_files/153800.got.cif
#   From: 2010.06.25/outbox.cif.g09.slc.cpg/sg15_77_cif.got.tgz:153800.got - 2010.06.28 07:06:18.
