data_PCOD8149415
_publ_section_title
;
Structure prediction by ZEFSAII (Michael W. Deem and Ramdas Pophale) SiO2 
 PCOD8149415
Probable space group: C 2/C
;
_chemical_formula_sum "Si O2"
_cell_formula_units_Z 56
_cell_length_a 11.773067
_cell_length_b 9.243013
_cell_length_c 25.147082
_cell_angle_alpha 90.000000
_cell_angle_beta 112.045343
_cell_angle_gamma 90.000000
_cell_volume 2536.399263
_symmetry_space_group_name_H-M "C 2/C"
_symmetry_group_IT_number 15
_symmetry_cell_setting 'monoclinic'
loop_
_space_group_symop_operation_xyz
x,y,z
-x,y,1/2-z
-x,-y,-z
x,-y,1/2+z
1/2+x,1/2+y,z
1/2-x,1/2+y,1/2-z
1/2-x,1/2-y,-z
1/2+x,1/2-y,1/2+z
loop_
_atom_site_type_symbol
_atom_site_label
_atom_site_fract_x
_atom_site_fract_y
_atom_site_fract_z
Si Si1 0.786485 0.314382 0.893405
Si Si2 0.188874 0.863771 0.764238
Si Si3 0.500000 0.876467 0.250000
Si Si4 0.935219 0.309979 0.555472
Si Si5 0.000000 0.894641 0.250000
Si Si6 0.726463 0.880955 0.068804
Si Si7 0.623106 0.036257 0.872417
Si Si8 0.293668 0.217283 0.171767
O O1 0.769941 0.379677 0.831214
O O2 0.762606 0.445317 0.930446
O O3 0.688009 0.191016 0.892111
O O4 0.924836 0.254843 0.923125
O O5 0.118334 0.716244 0.759721
O O6 0.269410 0.836698 0.726697
O O7 0.100540 0.002018 0.738803
O O8 0.479774 0.966746 0.192466
O O9 0.854897 0.189357 0.571765
O O10 0.885714 0.329539 0.487148
O O11 0.932245 0.469467 0.583023
O O12 0.071368 0.793511 0.304658
O O13 0.701795 0.830046 0.126102
O O14 0.721696 0.921128 0.868885
#
# Coordination Sequence:
#
# PCOD8149415 Si02
#       8
#     8   8   4   8   4   8   8   8
#     4  11  23  42  65  95 129 167 218 267 325 386
#     4  10  24  37  62  95 128 164 214 259 326 389
#     4   9  21  40  54  92 134 154 210 272 316 388
#     4  10  24  45  70  89 134 171 215 278 318 371
#     4  11  23  42  62  92 130 174 206 264 326 382
#     4  10  23  46  65  99 127 174 224 259 324 393
#     4  10  24  39  61 100 123 168 224 260 326 391
#     4  11  24  39  65  93 130 167 214 262 320 384
#
# _framework density 22.078544999999998
#
# number of rings (size 3 to 8) (size 9 to 14) (size 15 to 20)
#    0.000    1.714    1.429    0.857   12.000    0.571 
#    0.000    7.857    0.000    0.000    0.000    0.000 
#    0.000    0.000    0.000    0.000    0.000    0.000 
#
# Total GULP energy -346940.561792 kJ/mol
# GULP energy per Si atom -12390.734350 kJ/mol
# Density = 2.202829 g / cm^3
# Si number density = 22.078545 Si / 1000 Ang^3
#
#
#
# Elastic Constant Matrix: (Units=GPa)
#
#
# Indices 1 2 3 4 5 6 
#
# 1 54.4194 18.2410 34.1111 0.0000 19.8169 0.0000
# 2 18.2410 89.9714 20.8348 0.0000 5.1198 0.0000
# 3 34.1111 20.8348 109.6746 0.0000 18.6197 0.0000
# 4 0.0000 0.0000 0.0000 35.1955 0.0000 1.4688
# 5 19.8169 5.1198 18.6197 0.0000 27.1787 0.0000
# 6 0.0000 0.0000 0.0000 1.4688 0.0000 23.9276
#
#
#
# Elastic Compliance Matrix: (Units=1/GPa)
#
#
# Indices 1 2 3 4 5 6 
#
# 1 0.029195 -0.003683 -0.005527 0.000000 -0.016807 0.000000
# 2 -0.003683 0.012105 -0.001384 0.000000 0.001353 0.000000
# 3 -0.005527 -0.001384 0.011736 0.000000 -0.003750 0.000000
# 4 0.000000 0.000000 0.000000 0.028486 0.000000 -0.001749
# 5 -0.016807 0.001353 -0.003750 0.000000 0.051362 0.000000
# 6 0.000000 0.000000 0.000000 -0.001749 0.000000 0.041900
#
#
# Mechanical properties :
#
#
# Convention : Reuss Voigt Hill
#
# Bulk Modulus (GPa) = 31.39871 44.49326 37.94598
# Shear Modulus (GPa) = 24.20279 29.31892 26.76085
#
# Velocity S-wave (km/s) = 3.31450 3.64804 3.48526
# Velocity P-wave (km/s) = 5.37589 6.15957 5.78102
#
# Compressibility (1/GPa) = 0.03184844
#
# Stress axis : x y z
#
# Youngs Moduli (GPa) = 34.25239 82.61218 85.20448
#
# Poissons Ratio (x) = 0.30424 0.47096
# Poissons Ratio (y) = 0.12614 0.11791
# Poissons Ratio (z) = 0.18933 0.11432
#
# Static dielectric constant tensor:
#      x y z
#    x 3.588970 0.000000 0.039800 
#    y 0.000000 4.208020 0.000000 
#    z 0.039800 0.000000 4.751180 
# 
# 
# High freq. dielectric constant tensor:
#      x y z
#    x 1.836580 0.000000 0.012900 
#    y 0.000000 1.881630 0.000000 
#    z 0.012900 0.000000 1.877430 
# 
# From -- ./inp_files/291659.got.cif
#   From: 2010.06.25/outbox.cif.g09.slc.cpg/sg15_146_cif.got.tgz:291659.got - 2010.06.28 07:06:18.
