data_PCOD8149217
_publ_section_title
;
Structure prediction by ZEFSAII (Michael W. Deem and Ramdas Pophale) SiO2 
 PCOD8149217
Probable space group: C 2/C
;
_chemical_formula_sum "Si O2"
_cell_formula_units_Z 48
_cell_length_a 12.543496
_cell_length_b 8.944763
_cell_length_c 18.229485
_cell_angle_alpha 90.000000
_cell_angle_beta 89.790488
_cell_angle_gamma 90.000000
_cell_volume 2045.309002
_symmetry_space_group_name_H-M "C 2/C"
_symmetry_group_IT_number 15
_symmetry_cell_setting 'monoclinic'
loop_
_space_group_symop_operation_xyz
x,y,z
-x,y,1/2-z
-x,-y,-z
x,-y,1/2+z
1/2+x,1/2+y,z
1/2-x,1/2+y,1/2-z
1/2-x,1/2-y,-z
1/2+x,1/2-y,1/2+z
loop_
_atom_site_type_symbol
_atom_site_label
_atom_site_fract_x
_atom_site_fract_y
_atom_site_fract_z
Si Si1 0.255613 0.462310 0.644111
Si Si2 0.386278 0.532358 0.285928
Si Si3 0.667931 0.326574 0.087633
Si Si4 0.006681 0.330886 0.479222
Si Si5 0.057723 0.343617 0.172949
Si Si6 0.119779 0.932719 0.488827
O O1 0.293075 0.479997 0.727187
O O2 0.257666 0.289893 0.614499
O O3 0.134614 0.522627 0.645390
O O4 0.337665 0.555208 0.593957
O O5 0.500000 0.538021 0.250000
O O6 0.388597 0.390027 0.339590
O O7 0.371581 0.692614 0.325158
O O8 0.596519 0.240316 0.029156
O O9 0.703402 0.476729 0.042209
O O10 0.031191 0.322092 0.391239
O O11 0.893058 0.243580 0.492524
O O12 0.000000 0.500000 0.500000
O O13 0.000000 0.382559 0.250000
O O14 0.000000 0.000000 0.500000
#
# Coordination Sequence:
#
# PCOD8149217 Si02
#       6
#     8   8   8   8   8   8
#     4  12  25  46  70 110 141 189 244 298 369 440
#     4  11  24  46  72  99 147 194 240 296 364 439
#     4  11  23  43  73 105 138 188 240 295 363 437
#     4  11  22  47  72 101 142 189 237 302 361 429
#     4  11  26  47  69 102 148 185 235 301 365 433
#     4  10  23  44  71 102 138 183 239 292 358 430
#
# _framework density 23.468336999999998
#
# number of rings (size 3 to 8) (size 9 to 14) (size 15 to 20)
#    0.000    1.000    3.333    3.500    7.000    1.333 
#    9.000    0.000    0.000    0.000    0.000    0.000 
#    0.000    0.000    0.000    0.000    0.000    0.000 
#
# Total GULP energy -297319.445263 kJ/mol
# GULP energy per Si atom -12388.310219 kJ/mol
# Density = 2.341492 g / cm^3
# Si number density = 23.468337 Si / 1000 Ang^3
#
#
#
# Elastic Constant Matrix: (Units=GPa)
#
#
# Indices 1 2 3 4 5 6 
#
# 1 57.0993 26.6510 35.2922 0.0000 -2.0954 0.0000
# 2 26.6510 145.9542 56.9971 0.0000 -4.3553 0.0000
# 3 35.2922 56.9971 179.4539 0.0000 15.9830 0.0000
# 4 0.0000 0.0000 0.0000 30.4519 0.0000 9.7740
# 5 -2.0954 -4.3553 15.9830 0.0000 39.7331 0.0000
# 6 0.0000 0.0000 0.0000 9.7740 0.0000 30.4171
#
#
#
# Elastic Compliance Matrix: (Units=1/GPa)
#
#
# Indices 1 2 3 4 5 6 
#
# 1 0.020900 -0.002356 -0.003565 0.000000 0.002278 0.000000
# 2 -0.002356 0.008232 -0.002303 0.000000 0.001704 0.000000
# 3 -0.003565 -0.002303 0.007306 0.000000 -0.003379 0.000000
# 4 0.000000 0.000000 0.000000 0.036615 0.000000 -0.011766
# 5 0.002278 0.001704 -0.003379 0.000000 0.026834 0.000000
# 6 0.000000 0.000000 0.000000 -0.011766 0.000000 0.036657
#
#
# Mechanical properties :
#
#
# Convention : Reuss Voigt Hill
#
# Bulk Modulus (GPa) = 50.02530 68.93201 59.47866
# Shear Modulus (GPa) = 31.31743 37.69157 34.50450
#
# Velocity S-wave (km/s) = 3.65698 4.01192 3.83855
# Velocity P-wave (km/s) = 6.26049 7.13420 6.71157
#
# Compressibility (1/GPa) = 0.01998988
#
# Stress axis : x y z
#
# Youngs Moduli (GPa) = 47.84671 121.47833 136.87430
#
# Poissons Ratio (x) = 0.28623 0.48793
# Poissons Ratio (y) = 0.11274 0.31522
# Poissons Ratio (z) = 0.17056 0.27976
#
# Static dielectric constant tensor:
#      x y z
#    x 3.703430 0.000000 0.125600 
#    y 0.000000 9.463880 0.000000 
#    z 0.125600 0.000000 4.612080 
# 
# 
# High freq. dielectric constant tensor:
#      x y z
#    x 1.890710 0.000000 0.012670 
#    y 0.000000 1.943660 0.000000 
#    z 0.012670 0.000000 1.953990 
# 
# From -- ./inp_files/202979.got.cif
#   From: 2010.06.25/outbox.cif.g09.slc.cpg/sg15_102_cif.got.tgz:202979.got - 2010.06.28 07:06:18.
