data_PCOD8149205
_publ_section_title
;
Structure prediction by ZEFSAII (Michael W. Deem and Ramdas Pophale) SiO2 
 PCOD8149205
Probable space group: C 2/C
;
_chemical_formula_sum "Si O2"
_cell_formula_units_Z 40
_cell_length_a 14.058122
_cell_length_b 9.106287
_cell_length_c 26.471287
_cell_angle_alpha 90.000000
_cell_angle_beta 149.414074
_cell_angle_gamma 90.000000
_cell_volume 1724.314107
_symmetry_space_group_name_H-M "C 2/C"
_symmetry_group_IT_number 15
_symmetry_cell_setting 'monoclinic'
loop_
_space_group_symop_operation_xyz
x,y,z
-x,y,1/2-z
-x,-y,-z
x,-y,1/2+z
1/2+x,1/2+y,z
1/2-x,1/2+y,1/2-z
1/2-x,1/2-y,-z
1/2+x,1/2-y,1/2+z
loop_
_atom_site_type_symbol
_atom_site_label
_atom_site_fract_x
_atom_site_fract_y
_atom_site_fract_z
Si Si1 0.749218 0.318799 0.445249
Si Si2 0.164130 0.229529 0.748595
Si Si3 0.460311 0.658610 0.459121
Si Si4 0.702131 0.603682 0.280780
Si Si5 0.779396 0.138080 0.092853
O O1 0.750000 0.250000 0.500000
O O2 0.548210 0.281099 0.327664
O O3 0.912011 0.257706 0.484909
O O4 0.786587 0.492569 0.466786
O O5 0.290722 0.337134 0.841274
O O6 0.161958 0.294545 0.690668
O O7 0.239925 0.063799 0.781616
O O8 0.500000 0.500000 0.500000
O O9 0.647497 0.723831 0.517704
O O10 0.493223 0.665661 0.174969
O O11 0.746514 0.613480 0.359585
#
# Coordination Sequence:
#
# PCOD8149205 Si02
#       5
#     8   8   8   8   8
#     4  11  24  45  72  97 130 181 232 280 345 416
#     4  11  25  42  70  98 137 175 230 283 347 413
#     4  12  27  43  66 103 142 176 231 289 346 413
#     4  10  23  44  70  97 133 178 228 281 348 410
#     4  10  23  46  68  95 134 181 227 279 345 415
#
# _framework density 23.19763
#
# number of rings (size 3 to 8) (size 9 to 14) (size 15 to 20)
#    0.000    1.200    2.000    2.400   11.200    2.400 
#    3.600    0.000    0.000    0.000    0.000    0.000 
#    0.000    0.000    0.000    0.000    0.000    0.000 
#
# Total GULP energy -247998.883559 kJ/mol
# GULP energy per Si atom -12399.944178 kJ/mol
# Density = 2.314483 g / cm^3
# Si number density = 23.197630 Si / 1000 Ang^3
#
#
#
# Elastic Constant Matrix: (Units=GPa)
#
#
# Indices 1 2 3 4 5 6 
#
# 1 53.5770 13.3875 -0.2261 0.0000 7.6526 0.0000
# 2 13.3875 117.9009 48.8363 0.0000 20.1360 0.0000
# 3 -0.2261 48.8363 81.9783 -0.0001 11.4287 0.0000
# 4 0.0000 0.0000 -0.0001 33.6066 0.0000 1.5142
# 5 7.6526 20.1360 11.4287 0.0000 40.7770 0.0000
# 6 0.0000 0.0000 0.0000 1.5142 0.0000 47.6315
#
#
#
# Elastic Compliance Matrix: (Units=1/GPa)
#
#
# Indices 1 2 3 4 5 6 
#
# 1 0.019740 -0.002555 0.001995 0.000000 -0.003002 0.000000
# 2 -0.002555 0.012197 -0.006764 0.000000 -0.003647 0.000000
# 3 0.001995 -0.006764 0.016463 0.000000 -0.001648 0.000000
# 4 0.000000 0.000000 0.000000 0.029799 0.000000 -0.000947
# 5 -0.003002 -0.003647 -0.001648 0.000000 0.027350 0.000000
# 6 0.000000 0.000000 0.000000 -0.000947 0.000000 0.021025
#
#
# Mechanical properties :
#
#
# Convention : Reuss Voigt Hill
#
# Bulk Modulus (GPa) = 29.62826 41.93906 35.78366
# Shear Modulus (GPa) = 32.79264 37.16693 34.97979
#
# Velocity S-wave (km/s) = 3.76389 4.00707 3.88739
# Velocity P-wave (km/s) = 5.62930 6.28706 5.96725
#
# Compressibility (1/GPa) = 0.03375156
#
# Stress axis : x y z
#
# Youngs Moduli (GPa) = 50.65753 81.98957 60.74105
#
# Poissons Ratio (x) = 0.20950 -0.12119
# Poissons Ratio (y) = 0.12944 0.41088
# Poissons Ratio (z) = -0.10107 0.55461
#
# Static dielectric constant tensor:
#      x y z
#    x 4.298440 0.000000 0.224390 
#    y 0.000000 4.032050 0.000000 
#    z 0.224390 0.000000 4.488060 
# 
# 
# High freq. dielectric constant tensor:
#      x y z
#    x 1.921480 0.000000 0.008400 
#    y 0.000000 1.904630 0.000000 
#    z 0.008400 0.000000 1.929580 
# 
# From -- ./inp_files/150550.got.cif
#   From: 2010.06.25/outbox.cif.g09.slc.cpg/sg15_76_cif.got.tgz:150550.got - 2010.06.28 07:06:18.
