data_PCOD8149792
_publ_section_title
;
Structure prediction by ZEFSAII (Michael W. Deem and Ramdas Pophale) SiO2 
 PCOD8149792
Probable space group: C 2/C
;
_chemical_formula_sum "Si O2"
_cell_formula_units_Z 48
_cell_length_a 8.942002
_cell_length_b 15.511160
_cell_length_c 26.568652
_cell_angle_alpha 90.000000
_cell_angle_beta 41.330382
_cell_angle_gamma 90.000000
_cell_volume 2433.635821
_symmetry_space_group_name_H-M "C 2/C"
_symmetry_group_IT_number 15
_symmetry_cell_setting 'monoclinic'
loop_
_space_group_symop_operation_xyz
x,y,z
-x,y,1/2-z
-x,-y,-z
x,-y,1/2+z
1/2+x,1/2+y,z
1/2-x,1/2+y,1/2-z
1/2-x,1/2-y,-z
1/2+x,1/2-y,1/2+z
loop_
_atom_site_type_symbol
_atom_site_label
_atom_site_fract_x
_atom_site_fract_y
_atom_site_fract_z
Si Si1 0.238284 0.491740 0.965526
Si Si2 0.369152 0.622612 0.164753
Si Si3 0.744475 0.747486 0.061463
Si Si4 0.462706 0.092500 0.339472
Si Si5 0.222051 0.060377 0.940386
Si Si6 0.385328 0.163956 0.467539
O O1 0.449734 0.456358 0.880233
O O2 0.195995 0.427683 0.022982
O O3 0.291041 0.588958 0.971545
O O4 0.000000 0.500000 0.000000
O O5 0.494286 0.714353 0.140775
O O6 0.236587 0.630254 0.145260
O O7 0.204280 0.603114 0.252438
O O8 0.803733 0.840678 0.071807
O O9 0.913413 0.675521 0.042404
O O10 0.750000 0.750000 0.000000
O O11 0.478587 0.142146 0.388335
O O12 0.410050 0.990380 0.360200
O O13 0.000000 0.000000 0.000000
O O14 0.250000 0.250000 0.500000
#
# Coordination Sequence:
#
# PCOD8149792 Si02
#       6
#     8   8   8   8   8   8
#     4  11  20  38  61  88 119 164 205 254 311 380
#     4  11  22  42  63  86 131 168 211 260 335 372
#     4  12  21  38  67  92 124 163 212 266 315 380
#     4  10  24  42  62  87 128 172 205 268 321 382
#     4  11  20  39  66  90 120 163 215 251 316 382
#     4  11  23  37  63  95 120 157 218 260 305 379
#
# _framework density 19.723575
#
# number of rings (size 3 to 8) (size 9 to 14) (size 15 to 20)
#    0.000    1.000    5.000    3.000    0.000    0.667 
#    3.000    0.000    0.000    0.000    0.000    0.000 
#    0.000    0.000    0.000    0.000    0.000    0.000 
#
# Total GULP energy -297388.920101 kJ/mol
# GULP energy per Si atom -12391.205004 kJ/mol
# Density = 1.967868 g / cm^3
# Si number density = 19.723575 Si / 1000 Ang^3
#
#
#
# Elastic Constant Matrix: (Units=GPa)
#
#
# Indices 1 2 3 4 5 6 
#
# 1 102.5677 24.7182 46.3937 0.0017 -1.3236 -0.0021
# 2 24.7182 150.4407 70.1795 0.0007 -7.5485 0.0003
# 3 46.3937 70.1795 136.9724 0.0027 -10.7020 0.0021
# 4 0.0017 0.0007 0.0027 32.7177 0.0005 -7.0108
# 5 -1.3236 -7.5485 -10.7020 0.0005 31.8386 0.0015
# 6 -0.0021 0.0003 0.0021 -7.0108 0.0015 32.2319
#
#
#
# Elastic Compliance Matrix: (Units=1/GPa)
#
#
# Indices 1 2 3 4 5 6 
#
# 1 0.011538 -0.000111 -0.003918 0.000000 -0.000864 0.000001
# 2 -0.000111 0.008746 -0.004398 0.000000 0.000591 0.000000
# 3 -0.003918 -0.004398 0.011078 -0.000001 0.002518 -0.000001
# 4 0.000000 0.000000 -0.000001 0.032059 -0.000001 0.006973
# 5 -0.000864 0.000591 0.002518 -0.000001 0.032359 -0.000002
# 6 0.000001 0.000000 -0.000001 0.006973 -0.000002 0.032542
#
#
# Mechanical properties :
#
#
# Convention : Reuss Voigt Hill
#
# Bulk Modulus (GPa) = 68.92877 74.72928 71.82903
# Shear Modulus (GPa) = 33.33069 35.93693 34.63381
#
# Velocity S-wave (km/s) = 4.11529 4.27315 4.19496
# Velocity P-wave (km/s) = 7.58973 7.89411 7.74342
#
# Compressibility (1/GPa) = 0.01450773
#
# Stress axis : x y z
#
# Youngs Moduli (GPa) = 86.67238 114.33187 90.27027
#
# Poissons Ratio (x) = 0.01270 0.35372
# Poissons Ratio (y) = 0.00963 0.39697
# Poissons Ratio (z) = 0.33962 0.50278
#
# Static dielectric constant tensor:
#      x y z
#    x 4.205280 0.000220 -0.083310 
#    y 0.000220 6.837000 -0.001740 
#    z -0.083310 -0.001740 3.012880 
# 
# 
# High freq. dielectric constant tensor:
#      x y z
#    x 1.790210 0.000000 -0.003390 
#    y 0.000000 1.782080 0.000000 
#    z -0.003390 0.000000 1.738190 
# 
# From -- ./inp_files/288989.got.cif
#   From: 2010.06.25/outbox.cif.g09.slc.cpg/sg15_145_cif.got.tgz:288989.got - 2010.06.28 07:06:18.
