data_PCOD8149643
_publ_section_title
;
Structure prediction by ZEFSAII (Michael W. Deem and Ramdas Pophale) SiO2 
 PCOD8149643
Probable space group: C 2/C
;
_chemical_formula_sum "Si O2"
_cell_formula_units_Z 56
_cell_length_a 8.826245
_cell_length_b 29.843654
_cell_length_c 20.672052
_cell_angle_alpha 90.000000
_cell_angle_beta 28.619193
_cell_angle_gamma 90.000000
_cell_volume 2608.160587
_symmetry_space_group_name_H-M "C 2/C"
_symmetry_group_IT_number 15
_symmetry_cell_setting 'monoclinic'
loop_
_space_group_symop_operation_xyz
x,y,z
-x,y,1/2-z
-x,-y,-z
x,-y,1/2+z
1/2+x,1/2+y,z
1/2-x,1/2+y,1/2-z
1/2-x,1/2-y,-z
1/2+x,1/2-y,1/2+z
loop_
_atom_site_type_symbol
_atom_site_label
_atom_site_fract_x
_atom_site_fract_y
_atom_site_fract_z
Si Si1 0.874587 0.960895 0.725108
Si Si2 0.774351 0.398020 0.941421
Si Si3 0.800924 0.809260 0.977478
Si Si4 0.724597 0.053303 0.722212
Si Si5 0.513272 0.249651 0.488550
Si Si6 0.685154 0.406069 0.502895
Si Si7 0.926642 0.700570 0.160909
O O1 0.552452 0.934036 0.836756
O O2 0.000000 0.953140 0.750000
O O3 0.127855 0.944123 0.577527
O O4 0.840488 0.013372 0.724294
O O5 0.621355 0.398343 0.927494
O O6 0.908659 0.348618 0.908837
O O7 0.514013 0.415887 0.089779
O O8 0.736092 0.860786 0.989655
O O9 0.809367 0.794951 0.050956
O O10 0.135517 0.799566 0.817955
O O11 0.516184 0.782508 0.050324
O O12 0.500000 0.032740 0.750000
O O13 0.503104 0.085440 0.845608
O O14 0.161748 0.262776 0.602032
O O15 0.680338 0.221607 0.368135
#
# Coordination Sequence:
#
# PCOD8149643 Si02
#       7
#     8   8   8   8   8   8   8
#     4  12  26  42  72 101 134 180 223 276 337 399
#     4  11  23  43  72 101 133 181 225 277 329 404
#     4  11  22  43  67  99 133 177 225 274 332 398
#     4  10  24  46  66 101 138 174 225 278 337 399
#     4  10  24  40  62  98 130 170 222 278 330 386
#     4  11  23  43  72 101 133 181 225 277 329 404
#     4  11  22  43  67  99 133 177 225 274 332 398
#
# _framework density 21.471070999999998
#
# number of rings (size 3 to 8) (size 9 to 14) (size 15 to 20)
#    0.000    1.143    2.857    3.000    2.000    4.571 
#   15.429    0.000    0.000    0.000    0.000    0.000 
#    0.000    0.000    0.000    0.000    0.000    0.000 
#
# Total GULP energy -347031.722244 kJ/mol
# GULP energy per Si atom -12393.990080 kJ/mol
# Density = 2.142220 g / cm^3
# Si number density = 21.471071 Si / 1000 Ang^3
#
#
#
# Elastic Constant Matrix: (Units=GPa)
#
#
# Indices 1 2 3 4 5 6 
#
# 1 87.0875 36.1336 22.8963 0.0037 14.6881 0.0005
# 2 36.1336 110.0279 45.4455 -0.0005 -5.1523 0.0003
# 3 22.8963 45.4455 94.4344 0.0010 7.2912 0.0007
# 4 0.0037 -0.0005 0.0010 27.3580 -0.0019 4.7493
# 5 14.6881 -5.1523 7.2912 -0.0019 24.0298 -0.0004
# 6 0.0005 0.0003 0.0007 4.7493 -0.0004 27.6634
#
#
#
# Elastic Compliance Matrix: (Units=1/GPa)
#
#
# Indices 1 2 3 4 5 6 
#
# 1 0.015647 -0.005503 -0.000323 -0.000003 -0.010646 0.000000
# 2 -0.005503 0.013706 -0.005886 0.000002 0.008089 0.000000
# 3 -0.000323 -0.005886 0.013908 -0.000001 -0.005285 0.000000
# 4 -0.000003 0.000002 -0.000001 0.037675 0.000005 -0.006468
# 5 -0.010646 0.008089 -0.005285 0.000005 0.051460 0.000000
# 6 0.000000 0.000000 0.000000 -0.006468 0.000000 0.037259
#
#
# Mechanical properties :
#
#
# Convention : Reuss Voigt Hill
#
# Bulk Modulus (GPa) = 50.41443 55.61116 53.01280
# Shear Modulus (GPa) = 25.03849 28.28185 26.66017
#
# Velocity S-wave (km/s) = 3.41860 3.63327 3.52757
# Velocity P-wave (km/s) = 6.25408 6.59982 6.42928
#
# Compressibility (1/GPa) = 0.01983559
#
# Stress axis : x y z
#
# Youngs Moduli (GPa) = 63.91137 72.96161 71.89955
#
# Poissons Ratio (x) = 0.40154 0.02324
# Poissons Ratio (y) = 0.35173 0.42320
# Poissons Ratio (z) = 0.02066 0.42945
#
# Static dielectric constant tensor:
#      x y z
#    x 4.257770 0.000000 0.176300 
#    y 0.000000 4.005730 0.000000 
#    z 0.176300 0.000000 3.889280 
# 
# 
# High freq. dielectric constant tensor:
#      x y z
#    x 1.848650 0.000000 0.003650 
#    y 0.000000 1.853990 0.000000 
#    z 0.003650 0.000000 1.837360 
# 
# From -- ./inp_files/234930.got.cif
#   From: 2010.06.25/outbox.cif.g09.slc.cpg/sg15_118_cif.got.tgz:234930.got - 2010.06.28 07:06:18.
