data_PCOD8149040
_publ_section_title
;
Structure prediction by ZEFSAII (Michael W. Deem and Ramdas Pophale) SiO2 
 PCOD8149040
Probable space group: C 2/C
;
_chemical_formula_sum "Si O2"
_cell_formula_units_Z 48
_cell_length_a 15.610037
_cell_length_b 10.770088
_cell_length_c 19.523460
_cell_angle_alpha 90.000000
_cell_angle_beta 35.141326
_cell_angle_gamma 90.000000
_cell_volume 1889.283557
_symmetry_space_group_name_H-M "C 2/C"
_symmetry_group_IT_number 15
_symmetry_cell_setting 'monoclinic'
loop_
_space_group_symop_operation_xyz
x,y,z
-x,y,1/2-z
-x,-y,-z
x,-y,1/2+z
1/2+x,1/2+y,z
1/2-x,1/2+y,1/2-z
1/2-x,1/2-y,-z
1/2+x,1/2-y,1/2+z
loop_
_atom_site_type_symbol
_atom_site_label
_atom_site_fract_x
_atom_site_fract_y
_atom_site_fract_z
Si Si1 0.730911 0.158924 0.378171
Si Si2 0.928430 0.269741 0.868819
Si Si3 0.992299 0.487198 0.397974
Si Si4 0.702371 0.587589 0.837024
Si Si5 0.012778 0.003042 0.848369
Si Si6 0.277646 0.117220 0.934701
O O1 0.598874 0.060710 0.476129
O O2 0.683057 0.261470 0.352365
O O3 0.759881 0.234157 0.431767
O O4 0.877005 0.086133 0.263544
O O5 0.975729 0.366125 0.897208
O O6 0.000000 0.320761 0.750000
O O7 0.017993 0.141923 0.817043
O O8 0.750000 0.250000 0.000000
O O9 0.934427 0.415164 0.366955
O O10 0.161773 0.449022 0.302351
O O11 0.559092 0.515537 0.899091
O O12 0.751960 0.541296 0.879838
O O13 0.855153 0.941799 0.934139
#
# Coordination Sequence:
#
# PCOD8149040 Si02
#       6
#     8   8   8   8   8   8
#     4  10  26  44  72 104 139 186 238 300 364 424
#     4  12  27  49  74 107 145 200 242 304 367 444
#     4  12  23  47  70 106 140 183 245 297 361 435
#     4  10  26  43  69 105 140 188 230 302 361 426
#     4  12  25  48  69 105 147 186 242 294 367 438
#     4  10  23  43  74 100 141 182 237 294 354 425
#
# _framework density 25.406455999999999
#
# number of rings (size 3 to 8) (size 9 to 14) (size 15 to 20)
#    1.000    0.000    1.667    4.500    2.333    2.000 
#    3.000    0.000    0.000    0.000    0.000    0.000 
#    0.000    0.000    0.000    0.000    0.000    0.000 
#
# Total GULP energy -297344.176578 kJ/mol
# GULP energy per Si atom -12389.340691 kJ/mol
# Density = 2.534863 g / cm^3
# Si number density = 25.406456 Si / 1000 Ang^3
#
#
#
# Elastic Constant Matrix: (Units=GPa)
#
#
# Indices 1 2 3 4 5 6 
#
# 1 40.6277 8.7031 4.8971 0.0000 -19.8325 0.0000
# 2 8.7031 154.2359 15.1526 0.0000 3.8326 0.0000
# 3 4.8971 15.1526 68.6754 0.0000 13.6277 0.0000
# 4 0.0000 0.0000 0.0000 14.9632 0.0000 8.0763
# 5 -19.8325 3.8326 13.6277 0.0000 30.6389 0.0000
# 6 0.0000 0.0000 0.0000 8.0763 0.0000 34.9292
#
#
#
# Elastic Compliance Matrix: (Units=1/GPa)
#
#
# Indices 1 2 3 4 5 6 
#
# 1 0.041093 -0.002244 -0.008521 0.000000 0.030670 0.000000
# 2 -0.002244 0.006751 -0.000958 0.000000 -0.001871 0.000000
# 3 -0.008521 -0.000958 0.018044 0.000000 -0.013422 0.000000
# 4 0.000000 0.000000 0.000000 0.076360 0.000000 -0.017656
# 5 0.030670 -0.001871 -0.013422 0.000000 0.058695 0.000000
# 6 0.000000 0.000000 0.000000 -0.017656 0.000000 0.032712
#
#
# Mechanical properties :
#
#
# Convention : Reuss Voigt Hill
#
# Bulk Modulus (GPa) = 23.56213 35.67161 29.61687
# Shear Modulus (GPa) = 18.43328 31.75868 25.09598
#
# Velocity S-wave (km/s) = 2.69650 3.53940 3.14631
# Velocity P-wave (km/s) = 4.35764 5.54743 4.98814
#
# Compressibility (1/GPa) = 0.04244099
#
# Stress axis : x y z
#
# Youngs Moduli (GPa) = 24.33485 148.13026 55.42114
#
# Poissons Ratio (x) = 0.33237 0.47226
# Poissons Ratio (y) = 0.05460 0.05311
# Poissons Ratio (z) = 0.20737 0.14196
#
# Static dielectric constant tensor:
#      x y z
#    x 4.563200 0.000000 -0.034750 
#    y 0.000000 4.565560 0.000000 
#    z -0.034750 0.000000 4.781330 
# 
# 
# High freq. dielectric constant tensor:
#      x y z
#    x 2.014430 0.000000 0.005540 
#    y 0.000000 2.021820 0.000000 
#    z 0.005540 0.000000 2.019810 
# 
# From -- ./inp_files/277204.got.cif
#   From: 2010.06.25/outbox.cif.g09.slc.cpg/sg15_139_cif.got.tgz:277204.got - 2010.06.28 07:06:18.
