data_PCOD8149747
_publ_section_title
;
Structure prediction by ZEFSAII (Michael W. Deem and Ramdas Pophale) SiO2 
 PCOD8149747
Probable space group: C 2/C
;
_chemical_formula_sum "Si O2"
_cell_formula_units_Z 28
_cell_length_a 24.306857
_cell_length_b 4.800276
_cell_length_c 7.867040
_cell_angle_alpha 90.000000
_cell_angle_beta 75.397773
_cell_angle_gamma 90.000000
_cell_volume 888.273758
_symmetry_space_group_name_H-M "C 2/C"
_symmetry_group_IT_number 15
_symmetry_cell_setting 'monoclinic'
loop_
_space_group_symop_operation_xyz
x,y,z
-x,y,1/2-z
-x,-y,-z
x,-y,1/2+z
1/2+x,1/2+y,z
1/2-x,1/2+y,1/2-z
1/2-x,1/2-y,-z
1/2+x,1/2-y,1/2+z
loop_
_atom_site_type_symbol
_atom_site_label
_atom_site_fract_x
_atom_site_fract_y
_atom_site_fract_z
Si Si1 0.643260 0.867196 0.653806
Si Si2 0.211489 0.193152 0.295087
Si Si3 0.000000 0.846568 0.250000
Si Si4 0.068596 0.723229 0.501022
O O1 0.680791 0.679148 0.501063
O O2 0.624891 0.700334 0.840602
O O3 0.674359 0.158683 0.677140
O O4 0.584350 0.948669 0.598077
O O5 0.269826 0.379474 0.271703
O O6 0.018287 0.667002 0.401495
O O7 0.946964 0.039845 0.351944
#
# Coordination Sequence:
#
# PCOD8149747 Si02
#       4
#     8   8   4   8
#     4  10  24  41  67 102 144 188 243 299 364 434
#     4  11  24  44  71 105 146 193 242 301 365 436
#     4  10  24  44  70  98 140 188 242 296 368 436
#     4  10  24  43  65 100 134 184 236 299 359 431
#
# _framework density 31.521812000000001
#
# number of rings (size 3 to 8) (size 9 to 14) (size 15 to 20)
#    0.000    1.714    0.000    1.714    0.000   21.714 
#    0.000    0.000    0.000    0.000    0.000    0.000 
#    0.000    0.000    0.000    0.000    0.000    0.000 
#
# Total GULP energy -173607.912203 kJ/mol
# GULP energy per Si atom -12400.565157 kJ/mol
# Density = 3.145007 g / cm^3
# Si number density = 31.521812 Si / 1000 Ang^3
#
#
#
# Elastic Constant Matrix: (Units=GPa)
#
#
# Indices 1 2 3 4 5 6 
#
# 1 112.9488 -1.9467 43.2452 0.0000 1.8222 0.0000
# 2 -1.9467 111.9644 82.2220 0.0000 -21.5307 0.0000
# 3 43.2452 82.2220 214.0465 0.0000 -31.3796 0.0000
# 4 0.0000 0.0000 0.0000 76.6324 0.0000 -0.3728
# 5 1.8222 -21.5307 -31.3796 0.0000 80.7252 0.0000
# 6 0.0000 0.0000 0.0000 -0.3728 0.0000 45.2939
#
#
#
# Elastic Compliance Matrix: (Units=1/GPa)
#
#
# Indices 1 2 3 4 5 6 
#
# 1 0.010055 0.002227 -0.003004 0.000000 -0.000801 0.000000
# 2 0.002227 0.013119 -0.005285 0.000000 0.001394 0.000000
# 3 -0.003004 -0.005285 0.007542 0.000000 0.001590 0.000000
# 4 0.000000 0.000000 0.000000 0.013050 0.000000 0.000107
# 5 -0.000801 0.001394 0.001590 0.000000 0.013396 0.000000
# 6 0.000000 0.000000 0.000000 0.000107 0.000000 0.022079
#
#
# Mechanical properties :
#
#
# Convention : Reuss Voigt Hill
#
# Bulk Modulus (GPa) = 53.78660 76.22232 65.00446
# Shear Modulus (GPa) = 51.24865 61.55957 56.40411
#
# Velocity S-wave (km/s) = 4.03651 4.42398 4.23468
# Velocity P-wave (km/s) = 6.23097 7.09428 6.67659
#
# Compressibility (1/GPa) = 0.01859199
#
# Stress axis : x y z
#
# Youngs Moduli (GPa) = 99.45102 76.22262 132.58778
#
# Poissons Ratio (x) = -0.16976 0.39835
# Poissons Ratio (y) = -0.22149 0.70074
# Poissons Ratio (z) = 0.29880 0.40285
#
# Static dielectric constant tensor:
#      x y z
#    x 6.616460 0.000000 -0.170960 
#    y 0.000000 5.071600 0.000000 
#    z -0.170960 0.000000 6.054630 
# 
# 
# High freq. dielectric constant tensor:
#      x y z
#    x 2.345000 0.000000 -0.003360 
#    y 0.000000 2.271130 0.000000 
#    z -0.003360 0.000000 2.325590 
# 
# From -- ./inp_files/64281.got.cif
#   From: 2010.06.25/outbox.cif.g09.slc.cpg/sg15_33_cif.got.tgz:64281.got - 2010.06.28 07:06:18.
