data_PCOD8149092
_publ_section_title
;
Structure prediction by ZEFSAII (Michael W. Deem and Ramdas Pophale) SiO2 
 PCOD8149092
Probable space group: C 2/C
;
_chemical_formula_sum "Si O2"
_cell_formula_units_Z 52
_cell_length_a 8.004939
_cell_length_b 19.623311
_cell_length_c 17.220863
_cell_angle_alpha 90.000000
_cell_angle_beta 109.647583
_cell_angle_gamma 90.000000
_cell_volume 2547.616286
_symmetry_space_group_name_H-M "C 2/C"
_symmetry_group_IT_number 15
_symmetry_cell_setting 'monoclinic'
loop_
_space_group_symop_operation_xyz
x,y,z
-x,y,1/2-z
-x,-y,-z
x,-y,1/2+z
1/2+x,1/2+y,z
1/2-x,1/2+y,1/2-z
1/2-x,1/2-y,-z
1/2+x,1/2-y,1/2+z
loop_
_atom_site_type_symbol
_atom_site_label
_atom_site_fract_x
_atom_site_fract_y
_atom_site_fract_z
Si Si1 0.035875 0.425643 0.429042
Si Si2 0.073334 0.424676 0.918139
Si Si3 0.000000 0.347565 0.750000
Si Si4 0.814068 0.872096 0.185859
Si Si5 0.203594 0.248505 0.265758
Si Si6 0.157479 0.822080 0.474840
Si Si7 0.779548 0.801362 0.437367
O O1 0.122962 0.495812 0.412547
O O2 0.133505 0.360619 0.407382
O O3 0.056136 0.420456 0.526316
O O4 0.830240 0.427713 0.366332
O O5 0.996865 0.394366 0.826446
O O6 0.244167 0.383183 0.968452
O O7 0.819680 0.302610 0.729638
O O8 0.709806 0.823217 0.228665
O O9 0.871323 0.828109 0.121220
O O10 0.000000 0.903043 0.250000
O O11 0.294557 0.254924 0.363311
O O12 0.000000 0.224526 0.250000
O O13 0.250000 0.750000 0.500000
O O14 0.970170 0.831489 0.486676
O O15 0.750000 0.750000 0.500000
#
# Coordination Sequence:
#
# PCOD8149092 Si02
#       7
#     8   8   4   8   8   8   8
#     4  10  23  44  66  93 131 171 227 265 331 408
#     4  10  24  44  65  89 131 183 213 270 337 400
#     4  12  24  44  64  94 138 172 218 276 344 388
#     4  11  20  39  63  93 126 167 213 277 330 393
#     4  12  23  37  63 100 129 164 220 278 332 392
#     4  11  22  39  63  92 127 170 217 269 341 387
#     4  12  23  36  64  97 126 163 215 278 325 389
#
# _framework density 20.411237
#
# number of rings (size 3 to 8) (size 9 to 14) (size 15 to 20)
#    0.000    0.923    3.846    4.615    2.154    1.846 
#    0.000    0.769    0.000    0.000    0.000    0.000 
#    0.000    0.000    0.000    0.000    0.000    0.000 
#
# Total GULP energy -322157.863735 kJ/mol
# GULP energy per Si atom -12390.687067 kJ/mol
# Density = 2.036478 g / cm^3
# Si number density = 20.411237 Si / 1000 Ang^3
#
#
#
# Elastic Constant Matrix: (Units=GPa)
#
#
# Indices 1 2 3 4 5 6 
#
# 1 119.8401 47.9980 30.9577 0.0000 15.4449 0.0000
# 2 47.9980 115.1537 44.0674 0.0000 9.3879 0.0000
# 3 30.9577 44.0674 116.2273 0.0000 -1.5574 0.0000
# 4 0.0000 0.0000 0.0000 28.0500 0.0000 -3.3106
# 5 15.4449 9.3879 -1.5574 0.0000 36.7892 0.0000
# 6 0.0000 0.0000 0.0000 -3.3106 0.0000 28.2100
#
#
#
# Elastic Compliance Matrix: (Units=1/GPa)
#
#
# Indices 1 2 3 4 5 6 
#
# 1 0.010629 -0.003548 -0.001534 0.000000 -0.003622 0.000000
# 2 -0.003548 0.011629 -0.003486 0.000000 -0.001626 0.000000
# 3 -0.001534 -0.003486 0.010361 0.000000 0.001972 0.000000
# 4 0.000000 0.000000 0.000000 0.036151 0.000000 0.004243
# 5 -0.003622 -0.001626 0.001972 0.000000 0.029201 0.000000
# 6 0.000000 0.000000 0.000000 0.004243 0.000000 0.035946
#
#
# Mechanical properties :
#
#
# Convention : Reuss Voigt Hill
#
# Bulk Modulus (GPa) = 64.59014 66.36304 65.47659
# Shear Modulus (GPa) = 32.00737 33.82305 32.91521
#
# Velocity S-wave (km/s) = 3.96425 4.07514 4.02008
# Velocity P-wave (km/s) = 7.25719 7.39770 7.32778
#
# Compressibility (1/GPa) = 0.01548224
#
# Stress axis : x y z
#
# Youngs Moduli (GPa) = 94.08661 85.98886 96.51860
#
# Poissons Ratio (x) = 0.30506 0.14810
# Poissons Ratio (y) = 0.33379 0.33647
# Poissons Ratio (z) = 0.14436 0.29977
#
# Static dielectric constant tensor:
#      x y z
#    x 3.950050 0.000000 -0.217410 
#    y 0.000000 3.925200 0.000000 
#    z -0.217410 0.000000 4.042170 
# 
# 
# High freq. dielectric constant tensor:
#      x y z
#    x 1.799330 0.000000 -0.006620 
#    y 0.000000 1.777990 0.000000 
#    z -0.006620 0.000000 1.814590 
# 
# From -- ./inp_files/191116.got.cif
#   From: 2010.06.25/outbox.cif.g09.slc.cpg/sg15_96_cif.got.tgz:191116.got - 2010.06.28 07:06:18.
