data_PCOD8149152
_publ_section_title
;
Structure prediction by ZEFSAII (Michael W. Deem and Ramdas Pophale) SiO2 
 PCOD8149152
Probable space group: C 2/C
;
_chemical_formula_sum "Si O2"
_cell_formula_units_Z 64
_cell_length_a 26.496184
_cell_length_b 14.908924
_cell_length_c 12.333511
_cell_angle_alpha 90.000000
_cell_angle_beta 37.832802
_cell_angle_gamma 90.000000
_cell_volume 2988.349066
_symmetry_space_group_name_H-M "C 2/C"
_symmetry_group_IT_number 15
_symmetry_cell_setting 'monoclinic'
loop_
_space_group_symop_operation_xyz
x,y,z
-x,y,1/2-z
-x,-y,-z
x,-y,1/2+z
1/2+x,1/2+y,z
1/2-x,1/2+y,1/2-z
1/2-x,1/2-y,-z
1/2+x,1/2-y,1/2+z
loop_
_atom_site_type_symbol
_atom_site_label
_atom_site_fract_x
_atom_site_fract_y
_atom_site_fract_z
Si Si1 0.073803 0.093391 0.710057
Si Si2 0.875915 0.321220 0.677676
Si Si3 0.590335 0.890357 0.646644
Si Si4 0.784818 0.260838 0.557765
Si Si5 0.386668 0.597204 0.407063
Si Si6 0.972594 0.853782 0.972746
Si Si7 0.095431 0.407406 0.083229
Si Si8 0.798264 0.233995 0.088374
O O1 0.131430 0.177610 0.590425
O O2 0.000000 0.092880 0.750000
O O3 0.130472 0.004429 0.602912
O O4 0.037718 0.099448 0.892942
O O5 0.911701 0.364573 0.724366
O O6 0.938914 0.246568 0.528442
O O7 0.873293 0.400641 0.593870
O O8 0.785442 0.275236 0.841303
O O9 0.500000 0.869983 0.750000
O O10 0.664394 0.834140 0.467069
O O11 0.615207 0.993879 0.593495
O O12 0.750000 0.250000 0.500000
O O13 0.808641 0.161041 0.559522
O O14 0.858983 0.331898 0.423136
O O15 0.719170 0.297037 0.758217
O O16 0.433407 0.647598 0.227813
O O17 0.431021 0.587048 0.448116
O O18 0.000000 0.385756 0.250000
#
# Coordination Sequence:
#
# PCOD8149152 Si02
#       8
#     8   8   8   8   8   8   8   8
#     4  12  26  40  68 106 138 177 229 283 334 401
#     4  11  23  44  68  93 132 181 215 274 347 395
#     4  11  25  42  68  97 127 174 230 279 323 390
#     4  11  26  43  66 101 135 176 222 285 338 401
#     4  11  24  43  69 101 132 183 228 274 344 409
#     4  11  22  43  71  94 136 181 228 273 339 412
#     4  10  23  44  68  94 128 175 231 268 330 397
#     4  11  25  43  62  98 138 178 220 269 348 411
#
# _framework density 21.416509000000001
#
# number of rings (size 3 to 8) (size 9 to 14) (size 15 to 20)
#    0.000    1.000    5.000    1.875    1.750    7.000 
#    0.000    0.000    0.000    0.000    0.000    0.000 
#    0.000    0.000    0.000    0.000    0.000    0.000 
#
# Total GULP energy -396652.926372 kJ/mol
# GULP energy per Si atom -12395.403949 kJ/mol
# Density = 2.136776 g / cm^3
# Si number density = 21.416509 Si / 1000 Ang^3
#
#
#
# Elastic Constant Matrix: (Units=GPa)
#
#
# Indices 1 2 3 4 5 6 
#
# 1 136.7317 46.8095 45.7019 0.0000 20.5549 0.0000
# 2 46.8095 123.6730 33.8054 0.0000 -0.7213 0.0000
# 3 45.7019 33.8054 100.4346 0.0000 17.3402 0.0000
# 4 0.0000 0.0000 0.0000 33.6131 0.0000 7.4178
# 5 20.5549 -0.7213 17.3402 0.0000 41.6638 0.0000
# 6 0.0000 0.0000 0.0000 7.4178 0.0000 27.2171
#
#
#
# Elastic Compliance Matrix: (Units=1/GPa)
#
#
# Indices 1 2 3 4 5 6 
#
# 1 0.009838 -0.002971 -0.002833 0.000000 -0.003726 0.000000
# 2 -0.002971 0.009891 -0.002435 0.000000 0.002650 0.000000
# 3 -0.002833 -0.002435 0.012748 0.000000 -0.003950 0.000000
# 4 0.000000 0.000000 0.000000 0.031654 0.000000 -0.008627
# 5 -0.003726 0.002650 -0.003950 0.000000 0.027529 0.000000
# 6 0.000000 0.000000 0.000000 -0.008627 0.000000 0.039093
#
#
# Mechanical properties :
#
#
# Convention : Reuss Voigt Hill
#
# Bulk Modulus (GPa) = 62.50720 68.16365 65.33543
# Shear Modulus (GPa) = 32.77304 36.13363 34.45333
#
# Velocity S-wave (km/s) = 3.91611 4.11199 4.01525
# Velocity P-wave (km/s) = 7.04966 7.37844 7.21592
#
# Compressibility (1/GPa) = 0.01599816
#
# Stress axis : x y z
#
# Youngs Moduli (GPa) = 101.64925 101.09866 78.44600
#
# Poissons Ratio (x) = 0.30034 0.22227
# Poissons Ratio (y) = 0.30198 0.19102
# Poissons Ratio (z) = 0.28801 0.24619
#
# Static dielectric constant tensor:
#      x y z
#    x 3.764680 0.000000 0.052120 
#    y 0.000000 4.329670 0.000000 
#    z 0.052120 0.000000 4.073240 
# 
# 
# High freq. dielectric constant tensor:
#      x y z
#    x 1.835510 0.000000 0.012840 
#    y 0.000000 1.844940 0.000000 
#    z 0.012840 0.000000 1.847700 
# 
# From -- ./inp_files/123500.got.cif
#   From: 2010.06.25/outbox.cif.g09.slc.cpg/sg15_62_cif.got.tgz:123500.got - 2010.06.28 07:06:18.
