data_PCOD8149308
_publ_section_title
;
Structure prediction by ZEFSAII (Michael W. Deem and Ramdas Pophale) SiO2 
 PCOD8149308
Probable space group: C 2/C
;
_chemical_formula_sum "Si O2"
_cell_formula_units_Z 44
_cell_length_a 12.583667
_cell_length_b 19.080922
_cell_length_c 7.993499
_cell_angle_alpha 90.000000
_cell_angle_beta 93.442109
_cell_angle_gamma 90.000000
_cell_volume 1915.840329
_symmetry_space_group_name_H-M "C 2/C"
_symmetry_group_IT_number 15
_symmetry_cell_setting 'monoclinic'
loop_
_space_group_symop_operation_xyz
x,y,z
-x,y,1/2-z
-x,-y,-z
x,-y,1/2+z
1/2+x,1/2+y,z
1/2-x,1/2+y,1/2-z
1/2-x,1/2-y,-z
1/2+x,1/2-y,1/2+z
loop_
_atom_site_type_symbol
_atom_site_label
_atom_site_fract_x
_atom_site_fract_y
_atom_site_fract_z
Si Si1 0.760584 0.286761 0.722908
Si Si2 0.389023 0.535590 0.821020
Si Si3 0.500000 0.829569 0.750000
Si Si4 0.115772 0.101270 0.318995
Si Si5 0.967409 0.423608 0.437551
Si Si6 0.248278 0.141105 0.884420
O O1 0.890176 0.285591 0.730521
O O2 0.701123 0.335161 0.855473
O O3 0.721147 0.206319 0.736818
O O4 0.710640 0.321141 0.550222
O O5 0.500000 0.515005 0.750000
O O6 0.332542 0.458231 0.802539
O O7 0.345370 0.597354 0.703082
O O8 0.396578 0.561033 0.008376
O O9 0.518296 0.872842 0.580952
O O10 0.000000 0.130978 0.250000
O O11 0.841548 0.413883 0.428533
O O12 0.000000 0.407137 0.250000
O O13 0.000000 0.500000 0.500000
#
# Coordination Sequence:
#
# PCOD8149308 Si02
#       6
#     8   8   4   8   8   8
#     4  10  23  45  66  95 135 179 223 277 343 403
#     4  11  23  40  67  98 128 172 221 281 338 399
#     4  10  24  44  68  96 138 182 228 288 342 412
#     4  11  23  41  67  95 132 172 224 277 338 404
#     4  11  24  42  67 100 137 178 230 282 341 408
#     4  10  24  42  66  97 131 177 223 276 336 406
#
# _framework density 22.966422000000001
#
# number of rings (size 3 to 8) (size 9 to 14) (size 15 to 20)
#    0.000    1.455    0.909    4.364    6.364    1.455 
#    3.273    0.000    0.000    0.000    0.000    0.000 
#    0.000    0.000    0.000    0.000    0.000    0.000 
#
# Total GULP energy -272575.276701 kJ/mol
# GULP energy per Si atom -12389.785305 kJ/mol
# Density = 2.291415 g / cm^3
# Si number density = 22.966422 Si / 1000 Ang^3
#
#
#
# Elastic Constant Matrix: (Units=GPa)
#
#
# Indices 1 2 3 4 5 6 
#
# 1 85.4075 43.1111 17.0324 0.0000 12.0055 0.0000
# 2 43.1111 119.9995 1.9859 0.0000 13.5397 0.0000
# 3 17.0324 1.9859 95.0029 0.0000 9.4168 0.0000
# 4 0.0000 0.0000 0.0000 28.7837 0.0000 3.1325
# 5 12.0055 13.5397 9.4168 0.0000 33.8649 0.0000
# 6 0.0000 0.0000 0.0000 3.1325 0.0000 32.7633
#
#
#
# Elastic Compliance Matrix: (Units=1/GPa)
#
#
# Indices 1 2 3 4 5 6 
#
# 1 0.015121 -0.005092 -0.002339 0.000000 -0.002674 0.000000
# 2 -0.005092 0.010444 0.000956 0.000000 -0.002636 0.000000
# 3 -0.002339 0.000956 0.011190 0.000000 -0.002664 0.000000
# 4 0.000000 0.000000 0.000000 0.035107 0.000000 -0.003357
# 5 -0.002674 -0.002636 -0.002664 0.000000 0.032272 0.000000
# 6 0.000000 0.000000 0.000000 -0.003357 0.000000 0.030843
#
#
# Mechanical properties :
#
#
# Convention : Reuss Voigt Hill
#
# Bulk Modulus (GPa) = 42.00966 47.18542 44.59754
# Shear Modulus (GPa) = 32.07939 34.96776 33.52357
#
# Velocity S-wave (km/s) = 3.74143 3.90623 3.82472
# Velocity P-wave (km/s) = 6.08242 6.39804 6.24222
#
# Compressibility (1/GPa) = 0.02380405
#
# Stress axis : x y z
#
# Youngs Moduli (GPa) = 66.13163 95.74516 89.36926
#
# Poissons Ratio (x) = 0.48754 0.20908
# Poissons Ratio (y) = 0.33675 -0.08543
# Poissons Ratio (z) = 0.15471 -0.09152
#
# Static dielectric constant tensor:
#      x y z
#    x 4.119010 0.000000 -0.009140 
#    y 0.000000 4.434670 0.000000 
#    z -0.009140 0.000000 4.588160 
# 
# 
# High freq. dielectric constant tensor:
#      x y z
#    x 1.887800 0.000000 0.012680 
#    y 0.000000 1.918870 0.000000 
#    z 0.012680 0.000000 1.918760 
# 
# From -- ./inp_files/30974.got.cif
#   From: 2010.06.25/outbox.cif.g09.slc.cpg/sg15_16_cif.got.tgz:30974.got - 2010.06.28 07:06:18.
