data_PCOD8149919
_publ_section_title
;
Structure prediction by ZEFSAII (Michael W. Deem and Ramdas Pophale) SiO2 
 PCOD8149919
Probable space group: C 2/C
;
_chemical_formula_sum "Si O2"
_cell_formula_units_Z 48
_cell_length_a 8.562928
_cell_length_b 14.564191
_cell_length_c 27.501247
_cell_angle_alpha 90.000000
_cell_angle_beta 140.729608
_cell_angle_gamma 90.000000
_cell_volume 2170.959146
_symmetry_space_group_name_H-M "C 2/C"
_symmetry_group_IT_number 15
_symmetry_cell_setting 'monoclinic'
loop_
_space_group_symop_operation_xyz
x,y,z
-x,y,1/2-z
-x,-y,-z
x,-y,1/2+z
1/2+x,1/2+y,z
1/2-x,1/2+y,1/2-z
1/2-x,1/2-y,-z
1/2+x,1/2-y,1/2+z
loop_
_atom_site_type_symbol
_atom_site_label
_atom_site_fract_x
_atom_site_fract_y
_atom_site_fract_z
Si Si1 0.376427 0.987480 0.267896
Si Si2 0.768228 0.067022 0.943994
Si Si3 0.452740 0.318479 0.337568
Si Si4 0.533291 0.902922 0.032536
Si Si5 0.369769 0.670736 0.269804
Si Si6 0.650819 0.752837 0.581591
O O1 0.500000 0.032081 0.250000
O O2 0.562874 0.971039 0.357382
O O3 0.264562 0.892037 0.222175
O O4 0.174454 0.062248 0.235308
O O5 0.658549 0.091285 0.970006
O O6 0.885353 0.161633 0.956991
O O7 0.000000 0.000000 0.000000
O O8 0.698521 0.374000 0.381650
O O9 0.383330 0.231051 0.286396
O O10 0.457513 0.272294 0.391842
O O11 0.503743 0.830752 0.982097
O O12 0.500000 0.000000 0.000000
O O13 0.500000 0.688633 0.250000
O O14 0.568002 0.710583 0.355306
#
# Coordination Sequence:
#
# PCOD8149919 Si02
#       6
#     8   8   8   8   8   8
#     4  12  25  46  73 100 142 189 241 297 358 431
#     4  12  28  46  71 102 146 191 240 295 368 432
#     4  11  23  47  71 104 139 186 238 297 361 426
#     4  12  28  43  73 107 143 185 239 296 359 441
#     4  10  24  42  72 103 138 183 236 294 358 424
#     4  11  23  49  70 101 146 187 227 296 367 433
#
# _framework density 22.110043000000001
#
# number of rings (size 3 to 8) (size 9 to 14) (size 15 to 20)
#    0.000    0.667    3.333    3.500   11.667    1.333 
#    0.000    0.000    0.000    0.000    0.000    0.000 
#    0.000    0.000    0.000    0.000    0.000    0.000 
#
# Total GULP energy -297361.593573 kJ/mol
# GULP energy per Si atom -12390.066399 kJ/mol
# Density = 2.205972 g / cm^3
# Si number density = 22.110043 Si / 1000 Ang^3
#
#
#
# Elastic Constant Matrix: (Units=GPa)
#
#
# Indices 1 2 3 4 5 6 
#
# 1 62.1553 14.3031 21.6494 0.0000 11.8596 0.0000
# 2 14.3031 143.3261 38.4326 0.0000 8.0083 0.0000
# 3 21.6494 38.4326 94.6534 0.0004 8.6917 -0.0001
# 4 0.0000 0.0000 0.0004 39.4244 0.0001 8.9586
# 5 11.8596 8.0083 8.6917 0.0001 25.3537 0.0000
# 6 0.0000 0.0000 -0.0001 8.9586 0.0000 35.0721
#
#
#
# Elastic Compliance Matrix: (Units=1/GPa)
#
#
# Indices 1 2 3 4 5 6 
#
# 1 0.018823 -0.000551 -0.003396 0.000000 -0.007467 0.000000
# 2 -0.000551 0.007896 -0.002968 0.000000 -0.001219 0.000000
# 3 -0.003396 -0.002968 0.012715 0.000000 -0.001833 0.000000
# 4 0.000000 0.000000 0.000000 0.026928 0.000000 -0.006878
# 5 -0.007467 -0.001219 -0.001833 0.000000 0.043948 0.000000
# 6 0.000000 0.000000 0.000000 -0.006878 0.000000 0.030270
#
#
# Mechanical properties :
#
#
# Convention : Reuss Voigt Hill
#
# Bulk Modulus (GPa) = 39.05569 49.87833 44.46701
# Shear Modulus (GPa) = 30.68534 35.02004 32.85269
#
# Velocity S-wave (km/s) = 3.72942 3.98414 3.85888
# Velocity P-wave (km/s) = 6.02058 6.61608 6.32534
#
# Compressibility (1/GPa) = 0.02560446
#
# Stress axis : x y z
#
# Youngs Moduli (GPa) = 53.12656 126.64524 78.64647
#
# Poissons Ratio (x) = 0.06973 0.26709
# Poissons Ratio (y) = 0.02925 0.23344
# Poissons Ratio (z) = 0.18042 0.37591
#
# Static dielectric constant tensor:
#      x y z
#    x 3.701170 0.000000 0.141510 
#    y 0.000000 4.519780 0.000000 
#    z 0.141510 0.000000 4.161700 
# 
# 
# High freq. dielectric constant tensor:
#      x y z
#    x 1.856030 0.000000 0.001300 
#    y 0.000000 1.893600 0.000000 
#    z 0.001300 0.000000 1.882830 
# 
# From -- ./inp_files/289090.got.cif
#   From: 2010.06.25/outbox.cif.g09.slc.cpg/sg15_145_cif.got.tgz:289090.got - 2010.06.28 07:06:18.
