data_PCOD8149023
_publ_section_title
;
Structure prediction by ZEFSAII (Michael W. Deem and Ramdas Pophale) SiO2 
 PCOD8149023
Probable space group: C 2/C
;
_chemical_formula_sum "Si O2"
_cell_formula_units_Z 36
_cell_length_a 15.109377
_cell_length_b 4.807238
_cell_length_c 17.670003
_cell_angle_alpha 90.000000
_cell_angle_beta 116.094816
_cell_angle_gamma 90.000000
_cell_volume 1152.624178
_symmetry_space_group_name_H-M "C 2/C"
_symmetry_group_IT_number 15
_symmetry_cell_setting 'monoclinic'
loop_
_space_group_symop_operation_xyz
x,y,z
-x,y,1/2-z
-x,-y,-z
x,-y,1/2+z
1/2+x,1/2+y,z
1/2-x,1/2+y,1/2-z
1/2-x,1/2-y,-z
1/2+x,1/2-y,1/2+z
loop_
_atom_site_type_symbol
_atom_site_label
_atom_site_fract_x
_atom_site_fract_y
_atom_site_fract_z
Si Si1 0.500000 0.154731 0.750000
Si Si2 0.638480 0.065559 0.418910
Si Si3 0.800028 0.440979 0.801733
Si Si4 0.840707 0.118813 0.954957
Si Si5 0.469548 0.561126 0.870761
O O1 0.410361 0.970806 0.682455
O O2 0.453041 0.346873 0.797634
O O3 0.756997 0.091305 0.456168
O O4 0.606292 0.803261 0.459236
O O5 0.585660 0.350066 0.431751
O O6 0.775897 0.766021 0.781189
O O7 0.780832 0.349366 0.881594
O O8 0.914152 0.352878 0.824643
O O9 0.919286 0.955892 0.930342
#
# Coordination Sequence:
#
# PCOD8149023 Si02
#       5
#     4   8   8   8   8
#     4  12  26  40  68 106 134 196 246 314 368 466
#     4  11  23  47  66 101 146 185 258 302 384 456
#     4  10  23  43  72 106 145 197 247 303 385 449
#     4   9  24  45  70  99 143 200 236 319 377 452
#     4  10  25  40  70 101 140 194 247 310 378 451
#
# _framework density 31.233073999999998
#
# number of rings (size 3 to 8) (size 9 to 14) (size 15 to 20)
#    1.333    0.444    0.000    2.667    9.333    0.889 
#    4.000    2.222    0.000    0.000    0.000    0.000 
#    0.000    0.000    0.000    0.000    0.000    0.000 
#
# Total GULP energy -223256.338525 kJ/mol
# GULP energy per Si atom -12403.129918 kJ/mol
# Density = 3.116199 g / cm^3
# Si number density = 31.233074 Si / 1000 Ang^3
#
#
#
# Elastic Constant Matrix: (Units=GPa)
#
#
# Indices 1 2 3 4 5 6 
#
# 1 180.8903 38.8732 58.6018 -0.0002 -7.0182 0.0003
# 2 38.8732 119.0191 19.9854 0.0004 -21.8167 0.0005
# 3 58.6018 19.9854 164.1152 0.0000 -6.4311 0.0000
# 4 -0.0002 0.0004 0.0000 41.9943 0.0000 -2.0012
# 5 -7.0182 -21.8167 -6.4311 0.0000 62.6430 0.0001
# 6 0.0003 0.0005 0.0000 -2.0012 0.0001 37.8135
#
#
#
# Elastic Compliance Matrix: (Units=1/GPa)
#
#
# Indices 1 2 3 4 5 6 
#
# 1 0.006609 -0.001820 -0.002143 0.000000 -0.000113 0.000000
# 2 -0.001820 0.009634 -0.000402 0.000000 0.003110 0.000000
# 3 -0.002143 -0.000402 0.006920 0.000000 0.000331 0.000000
# 4 0.000000 0.000000 0.000000 0.023873 0.000000 0.001263
# 5 -0.000113 0.003110 0.000331 0.000000 0.017068 0.000000
# 6 0.000000 0.000000 0.000000 0.001263 0.000000 0.026512
#
#
# Mechanical properties :
#
#
# Convention : Reuss Voigt Hill
#
# Bulk Modulus (GPa) = 69.27461 77.66058 73.46760
# Shear Modulus (GPa) = 48.00489 51.59442 49.79966
#
# Velocity S-wave (km/s) = 3.92470 4.06879 3.99739
# Velocity P-wave (km/s) = 6.53955 6.85509 6.69918
#
# Compressibility (1/GPa) = 0.01443530
#
# Stress axis : x y z
#
# Youngs Moduli (GPa) = 151.30830 103.80086 144.50288
#
# Poissons Ratio (x) = 0.18887 0.30964
# Poissons Ratio (y) = 0.27531 0.05803
# Poissons Ratio (z) = 0.32422 0.04168
#
# Static dielectric constant tensor:
#      x y z
#    x 5.595190 0.000000 0.008230 
#    y 0.000000 5.285360 0.000000 
#    z 0.008230 0.000000 6.220270 
# 
# 
# High freq. dielectric constant tensor:
#      x y z
#    x 2.291990 0.000000 0.011650 
#    y 0.000000 2.283400 0.000000 
#    z 0.011650 0.000000 2.329550 
# 
# From -- ./inp_files/250655.got.cif
#   From: 2010.06.25/outbox.cif.g09.slc.cpg/sg15_126_cif.got.tgz:250655.got - 2010.06.28 07:06:18.
