data_PCOD8149716
_publ_section_title
;
Structure prediction by ZEFSAII (Michael W. Deem and Ramdas Pophale) SiO2 
 PCOD8149716
Probable space group: C 2/C
;
_chemical_formula_sum "Si O2"
_cell_formula_units_Z 52
_cell_length_a 29.220585
_cell_length_b 8.625785
_cell_length_c 28.822804
_cell_angle_alpha 90.000000
_cell_angle_beta 160.976245
_cell_angle_gamma 90.000000
_cell_volume 2368.035786
_symmetry_space_group_name_H-M "C 2/C"
_symmetry_group_IT_number 15
_symmetry_cell_setting 'monoclinic'
loop_
_space_group_symop_operation_xyz
x,y,z
-x,y,1/2-z
-x,-y,-z
x,-y,1/2+z
1/2+x,1/2+y,z
1/2-x,1/2+y,1/2-z
1/2-x,1/2-y,-z
1/2+x,1/2-y,1/2+z
loop_
_atom_site_type_symbol
_atom_site_label
_atom_site_fract_x
_atom_site_fract_y
_atom_site_fract_z
Si Si1 0.250831 0.146047 0.723453
Si Si2 0.792577 0.890856 0.213322
Si Si3 0.101103 0.406259 0.468577
Si Si4 0.270405 0.343225 0.461789
Si Si5 0.500000 0.726704 0.250000
Si Si6 0.173966 0.445022 0.789806
Si Si7 0.477304 0.357884 0.909195
O O1 0.275264 0.126466 0.801186
O O2 0.325894 0.307081 0.783606
O O3 0.085811 0.153623 0.555383
O O4 0.317211 0.011796 0.754282
O O5 0.792374 0.736595 0.181662
O O6 0.951227 0.963126 0.368200
O O7 0.698226 0.020290 0.099716
O O8 0.198393 0.338404 0.521023
O O9 0.983606 0.531553 0.341342
O O10 0.021371 0.250979 0.409251
O O11 0.398818 0.383015 0.620642
O O12 0.110921 0.339467 0.329019
O O13 0.277616 0.462762 0.424702
#
# Coordination Sequence:
#
# PCOD8149716 Si02
#       7
#     8   8   8   8   4   8   8
#     4  11  24  41  64  94 137 191 241 273 316 400
#     4  12  26  39  63 101 138 187 230 281 337 369
#     4  11  23  42  67  95 135 182 225 278 323 411
#     4  11  21  47  70 109 127 174 225 269 341 410
#     4  10  24  40  84 102 126 170 228 274 326 444
#     4  11  25  38  68  98 142 175 227 287 333 390
#     4  11  22  43  62  88 129 191 235 281 319 386
#
# _framework density 21.959128
#
# number of rings (size 3 to 8) (size 9 to 14) (size 15 to 20)
#    0.000    0.923    4.615    2.308    4.308    1.231 
#    0.000    0.000    0.000    5.538    0.000    0.000 
#    0.000    0.000    0.000    0.000    0.000    0.000 
#
# Total GULP energy -322104.791259 kJ/mol
# GULP energy per Si atom -12388.645818 kJ/mol
# Density = 2.190915 g / cm^3
# Si number density = 21.959128 Si / 1000 Ang^3
#
#
#
# Elastic Constant Matrix: (Units=GPa)
#
#
# Indices 1 2 3 4 5 6 
#
# 1 85.5720 40.1496 35.4820 -0.0003 -4.7487 0.0012
# 2 40.1496 97.8742 38.8854 -0.0088 9.8954 0.0008
# 3 35.4820 38.8854 134.1102 -0.0090 5.2572 0.0058
# 4 -0.0003 -0.0088 -0.0090 13.0125 -0.0035 5.5719
# 5 -4.7487 9.8954 5.2572 -0.0035 29.7166 0.0044
# 6 0.0012 0.0008 0.0058 5.5719 0.0044 11.1190
#
#
#
# Elastic Compliance Matrix: (Units=1/GPa)
#
#
# Indices 1 2 3 4 5 6 
#
# 1 0.015861 -0.005951 -0.002666 -0.000004 0.004988 0.000000
# 2 -0.005951 0.014106 -0.002310 0.000007 -0.005240 0.000000
# 3 -0.002666 -0.002310 0.008880 0.000007 -0.001228 -0.000007
# 4 -0.000004 0.000007 0.000007 0.097844 0.000015 -0.049031
# 5 0.004988 -0.005240 -0.001228 0.000015 0.036410 -0.000021
# 6 0.000000 0.000000 -0.000007 -0.049031 -0.000021 0.114506
#
#
# Mechanical properties :
#
#
# Convention : Reuss Voigt Hill
#
# Bulk Modulus (GPa) = 58.85359 60.73226 59.79292
# Shear Modulus (GPa) = 15.86667 24.30558 20.08613
#
# Velocity S-wave (km/s) = 2.69095 3.33055 3.02769
# Velocity P-wave (km/s) = 6.04273 6.51975 6.28577
#
# Compressibility (1/GPa) = 0.01699132
#
# Stress axis : x y z
#
# Youngs Moduli (GPa) = 63.04875 70.89134 112.61352
#
# Poissons Ratio (x) = 0.42190 0.30026
# Poissons Ratio (y) = 0.37523 0.26015
# Poissons Ratio (z) = 0.16810 0.16377
#
# Static dielectric constant tensor:
#      x y z
#    x 4.006850 -0.000040 0.093460 
#    y -0.000040 3.881670 -0.000040 
#    z 0.093460 -0.000040 4.288800 
# 
# 
# High freq. dielectric constant tensor:
#      x y z
#    x 1.851760 0.000000 0.004300 
#    y 0.000000 1.834270 0.000000 
#    z 0.004300 0.000000 1.884760 
# 
# From -- ./inp_files/320215.got.cif
#   From: 2010.06.25/outbox.cif.g09.slc.cpg/sg15_161_cif.got.tgz:320215.got - 2010.06.28 07:06:18.
