data_PCOD8149326
_publ_section_title
;
Structure prediction by ZEFSAII (Michael W. Deem and Ramdas Pophale) SiO2 
 PCOD8149326
Probable space group: C 2/C
;
_chemical_formula_sum "Si O2"
_cell_formula_units_Z 52
_cell_length_a 15.058662
_cell_length_b 13.738752
_cell_length_c 13.075017
_cell_angle_alpha 90.000000
_cell_angle_beta 66.524521
_cell_angle_gamma 90.000000
_cell_volume 2481.158380
_symmetry_space_group_name_H-M "C 2/C"
_symmetry_group_IT_number 15
_symmetry_cell_setting 'monoclinic'
loop_
_space_group_symop_operation_xyz
x,y,z
-x,y,1/2-z
-x,-y,-z
x,-y,1/2+z
1/2+x,1/2+y,z
1/2-x,1/2+y,1/2-z
1/2-x,1/2-y,-z
1/2+x,1/2-y,1/2+z
loop_
_atom_site_type_symbol
_atom_site_label
_atom_site_fract_x
_atom_site_fract_y
_atom_site_fract_z
Si Si1 0.404088 0.379129 0.534501
Si Si2 0.037375 0.464194 0.875459
Si Si3 0.280159 0.158595 0.265223
Si Si4 0.178451 0.771131 0.623457
Si Si5 0.422302 0.220195 0.361177
Si Si6 0.943552 0.945605 0.876051
Si Si7 0.500000 0.134658 0.750000
O O1 0.309472 0.399891 0.645652
O O2 0.408246 0.274865 0.475408
O O3 0.494352 0.384141 0.570156
O O4 0.402995 0.458650 0.446918
O O5 0.142303 0.411493 0.826719
O O6 0.048326 0.564965 0.810702
O O7 0.957387 0.390684 0.865939
O O8 0.000000 0.500000 0.000000
O O9 0.237835 0.235487 0.202433
O O10 0.323804 0.217331 0.341399
O O11 0.250000 0.750000 0.500000
O O12 0.145161 0.881499 0.622167
O O13 0.085267 0.701207 0.665131
O O14 0.500000 0.272445 0.250000
O O15 0.000000 0.979751 0.750000
#
# Coordination Sequence:
#
# PCOD8149326 Si02
#       7
#     8   8   8   8   8   8   4
#     4  11  24  42  73  93 137 178 222 294 347 405
#     4  11  25  43  72  96 139 184 229 281 351 416
#     4  11  23  46  64 108 133 171 241 283 332 429
#     4  12  27  43  73 100 142 183 236 286 348 419
#     4  10  23  45  67  99 136 176 229 281 354 412
#     4  11  24  47  64  99 134 179 227 280 350 416
#     4  12  24  50  68 102 144 184 224 292 350 404
#
# _framework density 20.957953
#
# number of rings (size 3 to 8) (size 9 to 14) (size 15 to 20)
#    0.000    0.923    4.615    1.846   10.769    1.231 
#    2.769    0.000    0.000    0.000    0.000    0.000 
#    0.000    0.000    0.000    0.000    0.000    0.000 
#
# Total GULP energy -322343.233918 kJ/mol
# GULP energy per Si atom -12397.816689 kJ/mol
# Density = 2.091025 g / cm^3
# Si number density = 20.957953 Si / 1000 Ang^3
#
#
#
# Elastic Constant Matrix: (Units=GPa)
#
#
# Indices 1 2 3 4 5 6 
#
# 1 82.1055 33.5140 24.5931 0.0000 -5.3467 0.0000
# 2 33.5140 89.6047 43.8155 0.0000 -3.2647 0.0000
# 3 24.5931 43.8155 139.1643 0.0000 -15.0496 0.0000
# 4 0.0000 0.0000 0.0000 33.9511 0.0000 1.0436
# 5 -5.3467 -3.2647 -15.0496 0.0000 44.8616 0.0000
# 6 0.0000 0.0000 0.0000 1.0436 0.0000 21.4963
#
#
#
# Elastic Compliance Matrix: (Units=1/GPa)
#
#
# Indices 1 2 3 4 5 6 
#
# 1 0.014543 -0.004965 -0.000891 0.000000 0.001073 0.000000
# 2 -0.004965 0.014894 -0.003900 0.000000 -0.000816 0.000000
# 3 -0.000891 -0.003900 0.008850 0.000000 0.002579 0.000000
# 4 0.000000 0.000000 0.000000 0.029498 0.000000 -0.001432
# 5 0.001073 -0.000816 0.002579 0.000000 0.023224 0.000000
# 6 0.000000 0.000000 0.000000 -0.001432 0.000000 0.046589
#
#
# Mechanical properties :
#
#
# Convention : Reuss Voigt Hill
#
# Bulk Modulus (GPa) = 53.26063 57.19107 55.22585
# Shear Modulus (GPa) = 30.60556 33.99193 32.29875
#
# Velocity S-wave (km/s) = 3.82557 4.03166 3.92997
# Velocity P-wave (km/s) = 6.70683 7.00144 6.85572
#
# Compressibility (1/GPa) = 0.01877559
#
# Stress axis : x y z
#
# Youngs Moduli (GPa) = 68.76353 67.13902 112.99290
#
# Poissons Ratio (x) = 0.33331 0.10066
# Poissons Ratio (y) = 0.34138 0.44072
# Poissons Ratio (z) = 0.06126 0.26187
#
# Static dielectric constant tensor:
#      x y z
#    x 3.995930 0.000000 0.058480 
#    y 0.000000 3.668850 0.000000 
#    z 0.058480 0.000000 4.152720 
# 
# 
# High freq. dielectric constant tensor:
#      x y z
#    x 1.824970 0.000000 0.003760 
#    y 0.000000 1.807430 0.000000 
#    z 0.003760 0.000000 1.846120 
# 
# From -- ./inp_files/96945.got.cif
#   From: 2010.06.25/outbox.cif.g09.slc.cpg/sg15_49_cif.got.tgz:96945.got - 2010.06.28 07:06:18.
