data_PCOD8149400
_publ_section_title
;
Structure prediction by ZEFSAII (Michael W. Deem and Ramdas Pophale) SiO2 
 PCOD8149400
Probable space group: C 2/C
;
_chemical_formula_sum "Si O2"
_cell_formula_units_Z 40
_cell_length_a 18.787928
_cell_length_b 7.905570
_cell_length_c 19.509813
_cell_angle_alpha 90.000000
_cell_angle_beta 143.509860
_cell_angle_gamma 90.000000
_cell_volume 1723.263779
_symmetry_space_group_name_H-M "C 2/C"
_symmetry_group_IT_number 15
_symmetry_cell_setting 'monoclinic'
loop_
_space_group_symop_operation_xyz
x,y,z
-x,y,1/2-z
-x,-y,-z
x,-y,1/2+z
1/2+x,1/2+y,z
1/2-x,1/2+y,1/2-z
1/2-x,1/2-y,-z
1/2+x,1/2-y,1/2+z
loop_
_atom_site_type_symbol
_atom_site_label
_atom_site_fract_x
_atom_site_fract_y
_atom_site_fract_z
Si Si1 0.997496 0.880199 0.670104
Si Si2 0.185447 0.558950 0.273043
Si Si3 0.236101 0.938576 0.307080
Si Si4 0.755488 0.562311 0.536228
Si Si5 0.429742 0.970351 0.059081
O O1 0.000000 0.813154 0.750000
O O2 0.881824 0.005364 0.571320
O O3 0.979422 0.720166 0.606497
O O4 0.116759 0.979490 0.744596
O O5 0.241715 0.741575 0.330459
O O6 0.258978 0.463361 0.270690
O O7 0.194459 0.442046 0.347741
O O8 0.046722 0.587865 0.145207
O O9 0.353625 0.024713 0.430455
O O10 0.750000 0.750000 0.500000
O O11 0.845383 0.460542 0.555988
#
# Coordination Sequence:
#
# PCOD8149400 Si02
#       5
#     8   8   8   8   8
#     4  11  23  45  78 105 142 193 242 298 364 438
#     4  12  28  46  71 106 148 192 242 305 363 427
#     4  12  29  46  71 107 150 189 248 300 365 434
#     4  10  23  45  78 100 138 193 242 290 366 430
#     4  11  24  47  74 102 144 189 245 297 360 434
#
# _framework density 23.211767999999999
#
# number of rings (size 3 to 8) (size 9 to 14) (size 15 to 20)
#    0.000    0.800    2.000    4.800   11.200    3.200 
#    0.000    0.000    0.000    0.000    0.000    0.000 
#    0.000    0.000    0.000    0.000    0.000    0.000 
#
# Total GULP energy -248030.320376 kJ/mol
# GULP energy per Si atom -12401.516019 kJ/mol
# Density = 2.315894 g / cm^3
# Si number density = 23.211768 Si / 1000 Ang^3
#
#
#
# Elastic Constant Matrix: (Units=GPa)
#
#
# Indices 1 2 3 4 5 6 
#
# 1 116.6762 41.7627 45.6026 0.0000 -14.4818 0.0000
# 2 41.7627 88.6044 34.0896 0.0000 -9.0727 0.0000
# 3 45.6026 34.0896 129.7529 0.0000 10.5002 0.0000
# 4 0.0000 0.0000 0.0000 26.9868 0.0000 -0.5576
# 5 -14.4818 -9.0727 10.5002 0.0000 48.4913 0.0000
# 6 0.0000 0.0000 0.0000 -0.5576 0.0000 27.5884
#
#
#
# Elastic Compliance Matrix: (Units=1/GPa)
#
#
# Indices 1 2 3 4 5 6 
#
# 1 0.011710 -0.003858 -0.003386 0.000000 0.003509 0.000000
# 2 -0.003858 0.014307 -0.002571 0.000000 0.002082 0.000000
# 3 -0.003386 -0.002571 0.009866 0.000000 -0.003629 0.000000
# 4 0.000000 0.000000 0.000000 0.037071 0.000000 0.000749
# 5 0.003509 0.002082 -0.003629 0.000000 0.022845 0.000000
# 6 0.000000 0.000000 0.000000 0.000749 0.000000 0.036262
#
#
# Mechanical properties :
#
#
# Convention : Reuss Voigt Hill
#
# Bulk Modulus (GPa) = 61.52633 64.21592 62.87113
# Shear Modulus (GPa) = 31.82481 34.85186 33.33834
#
# Velocity S-wave (km/s) = 3.70680 3.87909 3.79393
# Velocity P-wave (km/s) = 6.69960 6.91292 6.80709
#
# Compressibility (1/GPa) = 0.01625320
#
# Stress axis : x y z
#
# Youngs Moduli (GPa) = 85.39361 69.89674 101.35473
#
# Poissons Ratio (x) = 0.26963 0.34321
# Poissons Ratio (y) = 0.32941 0.26063
# Poissons Ratio (z) = 0.28916 0.17974
#
# Static dielectric constant tensor:
#      x y z
#    x 4.549440 0.000000 0.433140 
#    y 0.000000 3.719260 0.000000 
#    z 0.433140 0.000000 4.672810 
# 
# 
# High freq. dielectric constant tensor:
#      x y z
#    x 1.931840 0.000000 0.012500 
#    y 0.000000 1.883530 0.000000 
#    z 0.012500 0.000000 1.938870 
# 
# From -- ./inp_files/247689.got.cif
#   From: 2010.06.25/outbox.cif.g09.slc.cpg/sg15_124_cif.got.tgz:247689.got - 2010.06.28 07:06:18.
