data_PCOD8149114
_publ_section_title
;
Structure prediction by ZEFSAII (Michael W. Deem and Ramdas Pophale) SiO2 
 PCOD8149114
Probable space group: C 2/C
;
_chemical_formula_sum "Si O2"
_cell_formula_units_Z 32
_cell_length_a 10.812988
_cell_length_b 26.531041
_cell_length_c 13.115398
_cell_angle_alpha 90.000000
_cell_angle_beta 21.593509
_cell_angle_gamma 90.000000
_cell_volume 1384.688172
_symmetry_space_group_name_H-M "C 2/C"
_symmetry_group_IT_number 15
_symmetry_cell_setting 'monoclinic'
loop_
_space_group_symop_operation_xyz
x,y,z
-x,y,1/2-z
-x,-y,-z
x,-y,1/2+z
1/2+x,1/2+y,z
1/2-x,1/2+y,1/2-z
1/2-x,1/2-y,-z
1/2+x,1/2-y,1/2+z
loop_
_atom_site_type_symbol
_atom_site_label
_atom_site_fract_x
_atom_site_fract_y
_atom_site_fract_z
Si Si1 0.226443 0.216444 0.881431
Si Si2 0.656696 0.075873 0.935251
Si Si3 0.362598 0.969034 0.463853
Si Si4 0.308667 0.360076 0.575545
O O1 0.500000 0.191664 0.750000
O O2 0.404255 0.263284 0.689223
O O3 0.093685 0.177437 0.898822
O O4 0.603713 0.054102 0.863033
O O5 0.015236 0.104654 0.646006
O O6 0.347630 0.110705 0.207984
O O7 0.675069 0.029437 0.999157
O O8 0.500000 0.953677 0.250000
O O9 0.000000 0.943257 0.750000
O O10 0.000000 0.333531 0.750000
#
# Coordination Sequence:
#
# PCOD8149114 Si02
#       4
#     8   8   8   8
#     4  10  23  44  67  92 124 160 200 254 315 373
#     4  11  24  39  59  91 127 166 211 261 312 362
#     4  11  22  39  61  85 123 171 217 261 308 363
#     4  12  24  40  65  94 127 165 207 257 313 375
#
# _framework density 23.109895999999999
#
# number of rings (size 3 to 8) (size 9 to 14) (size 15 to 20)
#    0.000    1.000    0.000    7.500    0.000    8.000 
#    0.000    0.000    0.000    0.000    0.000    0.000 
#    0.000    0.000    0.000    0.000    0.000    0.000 
#
# Total GULP energy -198401.845817 kJ/mol
# GULP energy per Si atom -12400.115364 kJ/mol
# Density = 2.305730 g / cm^3
# Si number density = 23.109896 Si / 1000 Ang^3
#
#
#
# Elastic Constant Matrix: (Units=GPa)
#
#
# Indices 1 2 3 4 5 6 
#
# 1 115.2307 32.8991 46.4416 -0.0004 -3.4549 -0.0003
# 2 32.8991 52.4788 27.3286 -0.0002 -12.0953 0.0000
# 3 46.4416 27.3286 145.0863 0.0070 5.5545 0.0014
# 4 -0.0004 -0.0002 0.0070 33.7429 -0.0003 -2.7218
# 5 -3.4549 -12.0953 5.5545 -0.0003 56.0552 0.0000
# 6 -0.0003 0.0000 0.0014 -2.7218 0.0000 31.8103
#
#
#
# Elastic Compliance Matrix: (Units=1/GPa)
#
#
# Indices 1 2 3 4 5 6 
#
# 1 0.011364 -0.005887 -0.002516 0.000001 -0.000321 0.000000
# 2 -0.005887 0.025655 -0.003158 0.000001 0.005486 0.000000
# 3 -0.002516 -0.003158 0.008356 -0.000002 -0.001665 -0.000001
# 4 0.000001 0.000001 -0.000002 0.029842 0.000001 0.002553
# 5 -0.000321 0.005486 -0.001665 0.000001 0.019168 0.000000
# 6 0.000000 0.000000 -0.000001 0.002553 0.000000 0.031655
#
#
# Mechanical properties :
#
#
# Convention : Reuss Voigt Hill
#
# Bulk Modulus (GPa) = 44.93981 58.45938 51.69960
# Shear Modulus (GPa) = 31.93243 38.06344 34.99793
#
# Velocity S-wave (km/s) = 3.72124 4.06280 3.89577
# Velocity P-wave (km/s) = 6.16051 6.88184 6.53114
#
# Compressibility (1/GPa) = 0.02225199
#
# Stress axis : x y z
#
# Youngs Moduli (GPa) = 87.99987 38.97871 119.66837
#
# Poissons Ratio (x) = 0.22949 0.30111
# Poissons Ratio (y) = 0.51810 0.37790
# Poissons Ratio (z) = 0.22143 0.12309
#
# Static dielectric constant tensor:
#      x y z
#    x 4.212740 0.000000 -0.057250 
#    y 0.000000 3.704790 0.000000 
#    z -0.057250 0.000000 4.300930 
# 
# 
# High freq. dielectric constant tensor:
#      x y z
#    x 1.939130 0.000000 -0.000350 
#    y 0.000000 1.871710 0.000000 
#    z -0.000350 0.000000 1.938090 
# 
# From -- ./inp_files/3953.got.cif
#   From: 2010.06.25/outbox.cif.g09.slc.cpg/sg15_2_cif.got.tgz:3953.got - 2010.06.28 07:06:18.
