data_PCOD8149540
_publ_section_title
;
Structure prediction by ZEFSAII (Michael W. Deem and Ramdas Pophale) SiO2 
 PCOD8149540
Probable space group: C 2/C
;
_chemical_formula_sum "Si O2"
_cell_formula_units_Z 40
_cell_length_a 21.226295
_cell_length_b 16.332756
_cell_length_c 8.561575
_cell_angle_alpha 90.000000
_cell_angle_beta 31.406933
_cell_angle_gamma 90.000000
_cell_volume 1546.746594
_symmetry_space_group_name_H-M "C 2/C"
_symmetry_group_IT_number 15
_symmetry_cell_setting 'monoclinic'
loop_
_space_group_symop_operation_xyz
x,y,z
-x,y,1/2-z
-x,-y,-z
x,-y,1/2+z
1/2+x,1/2+y,z
1/2-x,1/2+y,1/2-z
1/2-x,1/2-y,-z
1/2+x,1/2-y,1/2+z
loop_
_atom_site_type_symbol
_atom_site_label
_atom_site_fract_x
_atom_site_fract_y
_atom_site_fract_z
Si Si1 0.402782 0.258288 0.237186
Si Si2 0.000000 0.865081 0.750000
Si Si3 0.346967 0.078712 0.323328
Si Si4 0.870388 0.038748 0.291883
Si Si5 0.500000 0.004512 0.250000
Si Si6 0.156003 0.794078 0.810795
O O1 0.330913 0.176331 0.338704
O O2 0.318501 0.293373 0.556768
O O3 0.428433 0.315144 0.033595
O O4 0.534386 0.243410 0.032040
O O5 0.115613 0.917915 0.567649
O O6 0.389776 0.059007 0.411259
O O7 0.228742 0.031350 0.514238
O O8 0.455991 0.054365 0.979813
O O9 0.848318 0.109013 0.211647
O O10 0.000000 0.000000 0.000000
O O11 0.250000 0.750000 0.500000
#
# Coordination Sequence:
#
# PCOD8149540 Si02
#       6
#     8   4   8   8   4   8
#     4  10  23  49  77 113 157 210 269 327 405 486
#     4  10  25  52  74 117 166 208 270 328 409 484
#     4  11  25  48  82 113 157 206 268 331 392 489
#     4  11  28  50  79 115 160 213 265 331 402 480
#     4  10  25  44  74 117 152 196 266 326 405 450
#     4  10  24  48  81 115 160 207 266 335 408 483
#
# _framework density 25.86073
#
# number of rings (size 3 to 8) (size 9 to 14) (size 15 to 20)
#    0.000    1.600    0.000    1.800   11.200    4.800 
#    0.000    8.000    0.000    0.000    0.000    0.000 
#    0.000    0.000    0.000    0.000    0.000    0.000 
#
# Total GULP energy -247813.345424 kJ/mol
# GULP energy per Si atom -12390.667271 kJ/mol
# Density = 2.580187 g / cm^3
# Si number density = 25.860730 Si / 1000 Ang^3
#
#
#
# Elastic Constant Matrix: (Units=GPa)
#
#
# Indices 1 2 3 4 5 6 
#
# 1 166.8114 82.5223 59.0707 0.0000 13.3106 0.0000
# 2 82.5223 192.8610 60.8175 0.0000 5.8951 0.0000
# 3 59.0707 60.8175 131.4137 0.0000 19.5505 0.0000
# 4 0.0000 0.0000 0.0000 25.7174 0.0000 -16.7064
# 5 13.3106 5.8951 19.5505 0.0000 55.4371 0.0000
# 6 0.0000 0.0000 0.0000 -16.7064 0.0000 50.0919
#
#
#
# Elastic Compliance Matrix: (Units=1/GPa)
#
#
# Indices 1 2 3 4 5 6 
#
# 1 0.008252 -0.002782 -0.002292 0.000000 -0.000877 0.000000
# 2 -0.002782 0.007016 -0.002095 0.000000 0.000661 0.000000
# 3 -0.002292 -0.002095 0.010020 0.000000 -0.002761 0.000000
# 4 0.000000 0.000000 0.000000 0.049639 0.000000 0.016555
# 5 -0.000877 0.000661 -0.002761 0.000000 0.019152 0.000000
# 6 0.000000 0.000000 0.000000 0.016555 0.000000 0.025485
#
#
# Mechanical properties :
#
#
# Convention : Reuss Voigt Hill
#
# Bulk Modulus (GPa) = 91.30837 99.54523 95.42680
# Shear Modulus (GPa) = 36.35032 45.49432 40.92232
#
# Velocity S-wave (km/s) = 3.75323 4.19884 3.98227
# Velocity P-wave (km/s) = 7.35980 7.87930 7.62398
#
# Compressibility (1/GPa) = 0.01095190
#
# Stress axis : x y z
#
# Youngs Moduli (GPa) = 121.17726 142.53824 99.80263
#
# Poissons Ratio (x) = 0.39648 0.22871
# Poissons Ratio (y) = 0.33707 0.20906
# Poissons Ratio (z) = 0.27769 0.29858
#
# Static dielectric constant tensor:
#      x y z
#    x 4.270850 0.000000 0.170310 
#    y 0.000000 4.711440 0.000000 
#    z 0.170310 0.000000 4.655320 
# 
# 
# High freq. dielectric constant tensor:
#      x y z
#    x 2.062130 0.000000 0.007680 
#    y 0.000000 2.032640 0.000000 
#    z 0.007680 0.000000 2.041040 
# 
# From -- ./inp_files/62868.got.cif
#   From: 2010.06.25/outbox.cif.g09.slc.cpg/sg15_32_cif.got.tgz:62868.got - 2010.06.28 07:06:18.
