data_PCOD8149853
_publ_section_title
;
Structure prediction by ZEFSAII (Michael W. Deem and Ramdas Pophale) SiO2 
 PCOD8149853
Probable space group: C 2/C
;
_chemical_formula_sum "Si O2"
_cell_formula_units_Z 52
_cell_length_a 18.156408
_cell_length_b 5.050108
_cell_length_c 26.729570
_cell_angle_alpha 90.000000
_cell_angle_beta 120.080298
_cell_angle_gamma 90.000000
_cell_volume 2120.807405
_symmetry_space_group_name_H-M "C 2/C"
_symmetry_group_IT_number 15
_symmetry_cell_setting 'monoclinic'
loop_
_space_group_symop_operation_xyz
x,y,z
-x,y,1/2-z
-x,-y,-z
x,-y,1/2+z
1/2+x,1/2+y,z
1/2-x,1/2+y,1/2-z
1/2-x,1/2-y,-z
1/2+x,1/2-y,1/2+z
loop_
_atom_site_type_symbol
_atom_site_label
_atom_site_fract_x
_atom_site_fract_y
_atom_site_fract_z
Si Si1 0.609265 0.201691 0.367583
Si Si2 0.464288 0.185608 0.828924
Si Si3 0.030773 0.027344 0.931801
Si Si4 0.293664 0.738822 0.392092
Si Si5 0.897852 0.259639 0.952029
Si Si6 0.500000 0.505662 0.750000
Si Si7 0.711618 0.997188 0.214987
O O1 0.597419 0.365112 0.414336
O O2 0.709506 0.176476 0.395365
O O3 0.567856 0.324428 0.303779
O O4 0.560491 0.924602 0.358746
O O5 0.457870 0.371962 0.875614
O O6 0.444716 0.335632 0.770445
O O7 0.390349 0.966329 0.811110
O O8 0.082089 0.828018 0.984858
O O9 0.985318 0.261182 0.948816
O O10 0.338453 0.454656 0.403934
O O11 0.266807 0.861811 0.330228
O O12 0.355705 0.950628 0.440576
O O13 0.747404 0.787682 0.268090
#
# Coordination Sequence:
#
# PCOD8149853 Si02
#       7
#     8   8   8   8   8   4   8
#     4  11  26  43  71 100 144 183 236 290 362 424
#     4  11  24  44  70 102 140 186 237 286 358 430
#     4  10  25  46  73 100 135 192 235 289 354 431
#     4  12  27  46  70 108 142 181 234 300 351 418
#     4  11  26  48  74 101 142 184 242 290 353 420
#     4  10  24  42  66  98 134 188 228 284 340 436
#     4  12  27  44  72 101 141 183 235 289 350 415
#
# _framework density 24.518964
#
# number of rings (size 3 to 8) (size 9 to 14) (size 15 to 20)
#    0.000    0.923    1.538    3.231   15.077    2.462 
#    0.000    0.000    0.000    0.000    0.000    0.000 
#    0.000    0.000    0.000    0.000    0.000    0.000 
#
# Total GULP energy -322395.957829 kJ/mol
# GULP energy per Si atom -12399.844532 kJ/mol
# Density = 2.446316 g / cm^3
# Si number density = 24.518964 Si / 1000 Ang^3
#
#
#
# Elastic Constant Matrix: (Units=GPa)
#
#
# Indices 1 2 3 4 5 6 
#
# 1 110.0683 0.5295 14.4163 -0.0021 13.3361 0.0006
# 2 0.5295 43.2672 -22.6929 -0.0028 6.2623 0.0019
# 3 14.4163 -22.6929 86.9880 -0.0004 -25.0186 0.0004
# 4 -0.0021 -0.0028 -0.0004 13.9791 0.0004 14.6097
# 5 13.3361 6.2623 -25.0186 0.0004 33.4748 0.0001
# 6 0.0006 0.0019 0.0004 14.6097 0.0001 34.9725
#
#
#
# Elastic Compliance Matrix: (Units=1/GPa)
#
#
# Indices 1 2 3 4 5 6 
#
# 1 0.010470 -0.001252 -0.004069 0.000003 -0.006978 -0.000001
# 2 -0.001252 0.026927 0.007550 0.000012 0.001104 -0.000007
# 3 -0.004069 0.007550 0.018088 0.000003 0.013727 -0.000002
# 4 0.000003 0.000012 0.000003 0.126968 -0.000002 -0.053041
# 5 -0.006978 0.001104 0.013727 -0.000002 0.042706 0.000001
# 6 -0.000001 -0.000007 -0.000002 -0.053041 0.000001 0.050752
#
#
# Mechanical properties :
#
#
# Convention : Reuss Voigt Hill
#
# Bulk Modulus (GPa) = 16.68259 24.98101 20.83180
# Shear Modulus (GPa) = 17.15661 33.02332 25.08997
#
# Velocity S-wave (km/s) = 2.64811 3.67392 3.20236
# Velocity P-wave (km/s) = 4.02103 5.31108 4.71043
#
# Compressibility (1/GPa) = 0.05994273
#
# Stress axis : x y z
#
# Youngs Moduli (GPa) = 95.51483 37.13682 55.28646
#
# Poissons Ratio (x) = 0.04650 0.22493
# Poissons Ratio (y) = 0.11959 -0.41740
# Poissons Ratio (z) = 0.38861 -0.28037
#
# Static dielectric constant tensor:
#      x y z
#    x 4.405700 0.000000 -0.078620 
#    y 0.000000 4.358520 0.000000 
#    z -0.078620 0.000000 4.542300 
# 
# 
# High freq. dielectric constant tensor:
#      x y z
#    x 1.973600 0.000000 -0.010430 
#    y 0.000000 1.969920 0.000000 
#    z -0.010430 0.000000 1.985690 
# 
# From -- ./inp_files/297697.got.cif
#   From: 2010.06.25/outbox.cif.g09.slc.cpg/sg15_149_cif.got.tgz:297697.got - 2010.06.28 07:06:18.
