data_PCOD8149961
_publ_section_title
;
Structure prediction by ZEFSAII (Michael W. Deem and Ramdas Pophale) SiO2 
 PCOD8149961
Probable space group: C 2/C
;
_chemical_formula_sum "Si O2"
_cell_formula_units_Z 56
_cell_length_a 12.709820
_cell_length_b 16.850013
_cell_length_c 17.984084
_cell_angle_alpha 90.000000
_cell_angle_beta 135.555875
_cell_angle_gamma 90.000000
_cell_volume 2696.859740
_symmetry_space_group_name_H-M "C 2/C"
_symmetry_group_IT_number 15
_symmetry_cell_setting 'monoclinic'
loop_
_space_group_symop_operation_xyz
x,y,z
-x,y,1/2-z
-x,-y,-z
x,-y,1/2+z
1/2+x,1/2+y,z
1/2-x,1/2+y,1/2-z
1/2-x,1/2-y,-z
1/2+x,1/2-y,1/2+z
loop_
_atom_site_type_symbol
_atom_site_label
_atom_site_fract_x
_atom_site_fract_y
_atom_site_fract_z
Si Si1 0.205306 0.658240 0.150313
Si Si2 0.345750 0.884427 0.627476
Si Si3 0.354447 0.528314 0.975029
Si Si4 0.870688 0.622939 0.967459
Si Si5 0.166467 0.207580 0.525074
Si Si6 0.823671 0.777666 0.859160
Si Si7 0.349114 0.515443 0.145151
O O1 0.217788 0.745220 0.122856
O O2 0.218290 0.680883 0.243579
O O3 0.330011 0.598645 0.180008
O O4 0.049061 0.618042 0.045885
O O5 0.500000 0.869607 0.750000
O O6 0.353536 0.858673 0.545857
O O7 0.209640 0.829175 0.585279
O O8 0.291222 0.974335 0.614701
O O9 0.296752 0.617685 0.932249
O O10 0.500000 0.500000 0.000000
O O11 0.388435 0.526841 0.079196
O O12 0.796058 0.686957 0.872789
O O13 0.794409 0.539191 0.910214
O O14 0.250000 0.250000 0.500000
O O15 0.992131 0.212765 0.416485
O O16 0.500000 0.472972 0.250000
#
# Coordination Sequence:
#
# PCOD8149961 Si02
#       7
#     8   8   8   8   8   8   8
#     4  11  23  42  68  93 135 180 222 283 350 412
#     4  11  22  42  68  96 134 179 226 287 350 417
#     4  11  23  43  67  98 138 178 230 284 348 419
#     4  10  24  43  65  99 134 176 227 284 345 419
#     4  11  23  43  65  96 137 176 230 287 345 415
#     4  11  23  42  67  98 130 182 227 282 350 416
#     4  11  24  41  68  97 133 181 224 283 348 415
#
# _framework density 20.764892
#
# number of rings (size 3 to 8) (size 9 to 14) (size 15 to 20)
#    0.000    1.143    4.286    1.714    0.000    1.714 
#    5.143    0.000    0.000    0.000    0.000    0.000 
#    0.000    0.000    0.000    0.000    0.000    0.000 
#
# Total GULP energy -346877.022176 kJ/mol
# GULP energy per Si atom -12388.465078 kJ/mol
# Density = 2.071763 g / cm^3
# Si number density = 20.764892 Si / 1000 Ang^3
#
#
#
# Elastic Constant Matrix: (Units=GPa)
#
#
# Indices 1 2 3 4 5 6 
#
# 1 109.2024 48.9272 21.6446 0.0000 -2.1040 0.0000
# 2 48.9272 121.1051 32.1450 0.0000 0.2955 0.0000
# 3 21.6446 32.1450 81.9276 0.0000 0.2730 0.0000
# 4 0.0000 0.0000 0.0000 27.6732 0.0000 -3.1031
# 5 -2.1040 0.2955 0.2730 0.0000 28.2719 0.0000
# 6 0.0000 0.0000 0.0000 -3.1031 0.0000 41.0575
#
#
#
# Elastic Compliance Matrix: (Units=1/GPa)
#
#
# Indices 1 2 3 4 5 6 
#
# 1 0.011333 -0.004225 -0.001339 0.000000 0.000901 0.000000
# 2 -0.004225 0.010793 -0.003117 0.000000 -0.000397 0.000000
# 3 -0.001339 -0.003117 0.013783 0.000000 -0.000200 0.000000
# 4 0.000000 0.000000 0.000000 0.036445 0.000000 0.002754
# 5 0.000901 -0.000397 -0.000200 0.000000 0.035444 0.000000
# 6 0.000000 0.000000 0.000000 0.002754 0.000000 0.024564
#
#
# Mechanical properties :
#
#
# Convention : Reuss Voigt Hill
#
# Bulk Modulus (GPa) = 53.91999 57.51876 55.71937
# Shear Modulus (GPa) = 32.07026 33.36842 32.71934
#
# Velocity S-wave (km/s) = 3.93421 4.01304 3.97382
# Velocity P-wave (km/s) = 6.83086 7.01661 6.92436
#
# Compressibility (1/GPa) = 0.01854600
#
# Stress axis : x y z
#
# Youngs Moduli (GPa) = 88.23572 92.65532 72.55133
#
# Poissons Ratio (x) = 0.39151 0.09717
# Poissons Ratio (y) = 0.37283 0.22614
# Poissons Ratio (z) = 0.11817 0.28880
#
# Static dielectric constant tensor:
#      x y z
#    x 3.762640 0.000000 -0.058120 
#    y 0.000000 3.975550 0.000000 
#    z -0.058120 0.000000 3.630700 
# 
# 
# High freq. dielectric constant tensor:
#      x y z
#    x 1.831040 0.000000 -0.004150 
#    y 0.000000 1.819280 0.000000 
#    z -0.004150 0.000000 1.801710 
# 
# From -- ./inp_files/199595.got.cif
#   From: 2010.06.25/outbox.cif.g09.slc.cpg/sg15_100_cif.got.tgz:199595.got - 2010.06.28 07:06:18.
