data_PCOD8149299
_publ_section_title
;
Structure prediction by ZEFSAII (Michael W. Deem and Ramdas Pophale) SiO2 
 PCOD8149299
Probable space group: C 2/C
;
_chemical_formula_sum "Si O2"
_cell_formula_units_Z 64
_cell_length_a 9.132089
_cell_length_b 27.457474
_cell_length_c 13.851288
_cell_angle_alpha 90.000000
_cell_angle_beta 113.400753
_cell_angle_gamma 90.000000
_cell_volume 3187.461795
_symmetry_space_group_name_H-M "C 2/C"
_symmetry_group_IT_number 15
_symmetry_cell_setting 'monoclinic'
loop_
_space_group_symop_operation_xyz
x,y,z
-x,y,1/2-z
-x,-y,-z
x,-y,1/2+z
1/2+x,1/2+y,z
1/2-x,1/2+y,1/2-z
1/2-x,1/2-y,-z
1/2+x,1/2-y,1/2+z
loop_
_atom_site_type_symbol
_atom_site_label
_atom_site_fract_x
_atom_site_fract_y
_atom_site_fract_z
Si Si1 0.213604 0.129450 0.562945
Si Si2 0.919762 0.274721 0.126784
Si Si3 0.523690 0.863838 0.645242
Si Si4 0.680204 0.203764 0.532847
Si Si5 0.357050 0.054867 0.993434
Si Si6 0.156375 0.170259 0.354103
Si Si7 0.577066 0.376976 0.370546
Si Si8 0.566039 0.035950 0.871358
O O1 0.313801 0.177867 0.607202
O O2 0.153790 0.129218 0.436705
O O3 0.322976 0.082998 0.613300
O O4 0.061931 0.132231 0.590716
O O5 0.822982 0.223469 0.087808
O O6 0.000000 0.266655 0.250000
O O7 0.050497 0.281312 0.077864
O O8 0.500000 0.875921 0.750000
O O9 0.393338 0.825936 0.574662
O O10 0.498506 0.913342 0.578613
O O11 0.696474 0.840310 0.677156
O O12 0.750000 0.250000 0.500000
O O13 0.819573 0.172035 0.619697
O O14 0.331143 0.006742 0.051300
O O15 0.186677 0.080691 0.943452
O O16 0.412668 0.045248 0.898633
O O17 0.000000 0.165081 0.250000
O O18 0.500000 0.393825 0.250000
O O19 0.500000 0.019683 0.750000
#
# Coordination Sequence:
#
# PCOD8149299 Si02
#       8
#     8   8   8   8   8   8   8   8
#     4  12  22  41  64  92 128 165 206 275 314 379
#     4  11  23  40  63  88 127 170 218 257 317 386
#     4  11  24  42  65  89 128 169 216 267 317 384
#     4  11  24  40  60  91 127 170 218 266 317 379
#     4  10  23  45  65  97 127 165 214 265 320 392
#     4  11  25  40  61  93 127 172 216 259 319 378
#     4  11  24  40  63  93 131 166 212 265 328 379
#     4  11  22  42  73  94 123 166 217 260 326 391
#
# _framework density 20.078671
#
# number of rings (size 3 to 8) (size 9 to 14) (size 15 to 20)
#    0.000    1.000    2.500    4.125    8.750    1.000 
#    0.000    0.625    0.000    0.000    0.000    0.000 
#    0.000    0.000    0.000    0.000    0.000    0.000 
#
# Total GULP energy -396868.337177 kJ/mol
# GULP energy per Si atom -12402.135537 kJ/mol
# Density = 2.003297 g / cm^3
# Si number density = 20.078671 Si / 1000 Ang^3
#
#
#
# Elastic Constant Matrix: (Units=GPa)
#
#
# Indices 1 2 3 4 5 6 
#
# 1 138.3544 50.4413 35.4206 0.0000 -8.9483 0.0000
# 2 50.4413 102.3160 30.1325 0.0000 3.4817 0.0000
# 3 35.4206 30.1325 95.4542 0.0000 -13.4777 0.0000
# 4 0.0000 0.0000 0.0000 27.2454 0.0000 3.7252
# 5 -8.9483 3.4817 -13.4777 0.0000 36.4596 0.0000
# 6 0.0000 0.0000 0.0000 3.7252 0.0000 24.3327
#
#
#
# Elastic Compliance Matrix: (Units=1/GPa)
#
#
# Indices 1 2 3 4 5 6 
#
# 1 0.009340 -0.004117 -0.001885 0.000000 0.001989 0.000000
# 2 -0.004117 0.012795 -0.002982 0.000000 -0.003335 0.000000
# 3 -0.001885 -0.002982 0.012758 0.000000 0.004538 0.000000
# 4 0.000000 0.000000 0.000000 0.037488 0.000000 -0.005739
# 5 0.001989 -0.003335 0.004538 0.000000 0.029912 0.000000
# 6 0.000000 0.000000 0.000000 -0.005739 0.000000 0.041976
#
#
# Mechanical properties :
#
#
# Convention : Reuss Voigt Hill
#
# Bulk Modulus (GPa) = 59.08822 63.12372 61.10597
# Shear Modulus (GPa) = 29.78330 32.28290 31.03310
#
# Velocity S-wave (km/s) = 3.85558 4.01411 3.93565
# Velocity P-wave (km/s) = 7.02232 7.27946 7.15205
#
# Compressibility (1/GPa) = 0.01692385
#
# Stress axis : x y z
#
# Youngs Moduli (GPa) = 107.06507 78.15516 78.38189
#
# Poissons Ratio (x) = 0.32177 0.14779
# Poissons Ratio (y) = 0.44079 0.23375
# Poissons Ratio (z) = 0.20187 0.23307
#
# Static dielectric constant tensor:
#      x y z
#    x 3.657580 0.000000 0.004930 
#    y 0.000000 3.846240 0.000000 
#    z 0.004930 0.000000 3.810210 
# 
# 
# High freq. dielectric constant tensor:
#      x y z
#    x 1.786350 0.000000 -0.003550 
#    y 0.000000 1.788060 0.000000 
#    z -0.003550 0.000000 1.800650 
# 
# From -- ./inp_files/138675.got.cif
#   From: 2010.06.25/outbox.cif.g09.slc.cpg/sg15_70_cif.got.tgz:138675.got - 2010.06.28 07:06:18.
