data_PCOD8149133
_publ_section_title
;
Structure prediction by ZEFSAII (Michael W. Deem and Ramdas Pophale) SiO2 
 PCOD8149133
Probable space group: C 2/C
;
_chemical_formula_sum "Si O2"
_cell_formula_units_Z 40
_cell_length_a 19.729032
_cell_length_b 11.469159
_cell_length_c 11.067416
_cell_angle_alpha 90.000000
_cell_angle_beta 136.624421
_cell_angle_gamma 90.000000
_cell_volume 1719.886588
_symmetry_space_group_name_H-M "C 2/C"
_symmetry_group_IT_number 15
_symmetry_cell_setting 'monoclinic'
loop_
_space_group_symop_operation_xyz
x,y,z
-x,y,1/2-z
-x,-y,-z
x,-y,1/2+z
1/2+x,1/2+y,z
1/2-x,1/2+y,1/2-z
1/2-x,1/2-y,-z
1/2+x,1/2-y,1/2+z
loop_
_atom_site_type_symbol
_atom_site_label
_atom_site_fract_x
_atom_site_fract_y
_atom_site_fract_z
Si Si1 0.703766 0.500621 0.347318
Si Si2 0.608645 0.850884 0.359191
Si Si3 0.642162 0.712651 0.623104
Si Si4 0.577699 0.289298 0.593016
Si Si5 0.205570 0.828885 0.546561
O O1 0.813152 0.551577 0.503979
O O2 0.704784 0.401954 0.242106
O O3 0.620311 0.591241 0.202367
O O4 0.675743 0.449908 0.444296
O O5 0.500000 0.900547 0.250000
O O6 0.625209 0.729961 0.457706
O O7 0.616571 0.816343 0.228226
O O8 0.539957 0.706343 0.563312
O O9 0.703856 0.830828 0.739417
O O10 0.612415 0.275202 0.498973
O O11 0.250000 0.750000 0.500000
#
# Coordination Sequence:
#
# PCOD8149133 Si02
#       5
#     8   8   8   8   8
#     4  11  23  40  67  96 130 171 218 264 322 389
#     4  10  23  44  67  97 131 173 217 267 329 390
#     4  10  23  45  65  99 131 169 219 271 327 384
#     4  11  23  42  69  93 133 170 216 273 324 379
#     4  10  24  42  62  97 134 168 215 270 323 381
#
# _framework density 23.257345999999998
#
# number of rings (size 3 to 8) (size 9 to 14) (size 15 to 20)
#    0.000    1.600    2.000    1.200    2.800    4.800 
#   10.800    2.000    0.000    0.000    0.000    0.000 
#    0.000    0.000    0.000    0.000    0.000    0.000 
#
# Total GULP energy -247773.899383 kJ/mol
# GULP energy per Si atom -12388.694969 kJ/mol
# Density = 2.320441 g / cm^3
# Si number density = 23.257346 Si / 1000 Ang^3
#
#
#
# Elastic Constant Matrix: (Units=GPa)
#
#
# Indices 1 2 3 4 5 6 
#
# 1 128.6117 23.3416 5.3173 0.0000 -15.0248 0.0000
# 2 23.3416 45.6335 18.0201 0.0000 5.5358 0.0000
# 3 5.3173 18.0201 52.5769 0.0000 8.1487 0.0000
# 4 0.0000 0.0000 0.0000 42.4957 0.0000 -1.1940
# 5 -15.0248 5.5358 8.1487 0.0000 41.1388 0.0000
# 6 0.0000 0.0000 0.0000 -1.1940 0.0000 18.0095
#
#
#
# Elastic Compliance Matrix: (Units=1/GPa)
#
#
# Indices 1 2 3 4 5 6 
#
# 1 0.009195 -0.005294 0.000262 0.000000 0.004019 0.000000
# 2 -0.005294 0.028514 -0.008607 0.000000 -0.004065 0.000000
# 3 0.000262 -0.008607 0.022438 0.000000 -0.003191 0.000000
# 4 0.000000 0.000000 0.000000 0.023576 0.000000 0.001563
# 5 0.004019 -0.004065 -0.003191 0.000000 0.026955 0.000000
# 6 0.000000 0.000000 0.000000 0.001563 0.000000 0.055630
#
#
# Mechanical properties :
#
#
# Convention : Reuss Voigt Hill
#
# Bulk Modulus (GPa) = 30.42539 35.57555 33.00047
# Shear Modulus (GPa) = 24.44494 32.33834 28.39164
#
# Velocity S-wave (km/s) = 3.24553 3.73293 3.49773
# Velocity P-wave (km/s) = 5.21105 5.82317 5.52560
#
# Compressibility (1/GPa) = 0.03286729
#
# Stress axis : x y z
#
# Youngs Moduli (GPa) = 108.75717 35.07090 44.56761
#
# Poissons Ratio (x) = 0.18566 -0.01166
# Poissons Ratio (y) = 0.57576 0.38360
# Poissons Ratio (z) = -0.02846 0.30186
#
# Static dielectric constant tensor:
#      x y z
#    x 4.510070 0.000000 -0.521100 
#    y 0.000000 4.265450 0.000000 
#    z -0.521100 0.000000 5.104470 
# 
# 
# High freq. dielectric constant tensor:
#      x y z
#    x 1.925480 0.000000 -0.008310 
#    y 0.000000 1.889530 0.000000 
#    z -0.008310 0.000000 1.940300 
# 
# From -- ./inp_files/111883.got.cif
#   From: 2010.06.25/outbox.cif.g09.slc.cpg/sg15_56_cif.got.tgz:111883.got - 2010.06.28 07:06:18.
