data_PCOD8149079
_publ_section_title
;
Structure prediction by ZEFSAII (Michael W. Deem and Ramdas Pophale) SiO2 
 PCOD8149079
Probable space group: C 2/C
;
_chemical_formula_sum "Si O2"
_cell_formula_units_Z 60
_cell_length_a 17.318488
_cell_length_b 12.968450
_cell_length_c 25.234621
_cell_angle_alpha 90.000000
_cell_angle_beta 149.440732
_cell_angle_gamma 90.000000
_cell_volume 2881.545419
_symmetry_space_group_name_H-M "C 2/C"
_symmetry_group_IT_number 15
_symmetry_cell_setting 'monoclinic'
loop_
_space_group_symop_operation_xyz
x,y,z
-x,y,1/2-z
-x,-y,-z
x,-y,1/2+z
1/2+x,1/2+y,z
1/2-x,1/2+y,1/2-z
1/2-x,1/2-y,-z
1/2+x,1/2-y,1/2+z
loop_
_atom_site_type_symbol
_atom_site_label
_atom_site_fract_x
_atom_site_fract_y
_atom_site_fract_z
Si Si1 0.957530 0.391440 0.494644
Si Si2 0.209640 0.748628 0.679051
Si Si3 0.000000 0.706337 0.750000
Si Si4 0.454738 0.394388 0.498322
Si Si5 0.249580 0.245307 0.322121
Si Si6 0.742774 0.134607 0.969046
Si Si7 0.775581 0.587855 0.994096
Si Si8 0.461242 0.244997 0.166151
O O1 0.843815 0.354680 0.381307
O O2 0.874233 0.388225 0.501040
O O3 0.000000 0.500000 0.500000
O O4 0.119330 0.337390 0.595104
O O5 0.171629 0.746581 0.718847
O O6 0.388206 0.766283 0.779688
O O7 0.113906 0.835232 0.592152
O O8 0.884173 0.779394 0.714425
O O9 0.909461 0.632174 0.656112
O O10 0.500000 0.500000 0.500000
O O11 0.326772 0.353490 0.382584
O O12 0.389515 0.389630 0.519529
O O13 0.736166 0.036590 0.005248
O O14 0.750000 0.250000 0.000000
O O15 0.853218 0.647466 0.089245
O O16 0.612392 0.643051 0.890127
O O17 0.500000 0.237749 0.250000
#
# Coordination Sequence:
#
# PCOD8149079 Si02
#       8
#     8   8   4   8   8   8   8   8
#     4  11  25  43  64 101 135 177 217 284 340 405
#     4  11  23  44  68  95 138 176 226 282 347 410
#     4  10  24  44  70  96 132 194 228 272 348 420
#     4  10  25  41  67 101 136 179 232 287 340 415
#     4  10  23  44  65  97 134 176 229 282 335 411
#     4  11  26  47  69 101 145 188 231 292 345 423
#     4  11  26  43  72 102 141 177 231 290 353 413
#     4  11  24  45  70 105 137 179 229 291 352 414
#
# _framework density 20.82216
#
# number of rings (size 3 to 8) (size 9 to 14) (size 15 to 20)
#    0.000    1.333    2.667    0.800   12.133    2.133 
#    3.600    0.000    0.000    0.000    0.000    0.000 
#    0.000    0.000    0.000    0.000    0.000    0.000 
#
# Total GULP energy -371815.445989 kJ/mol
# GULP energy per Si atom -12393.848200 kJ/mol
# Density = 2.077477 g / cm^3
# Si number density = 20.822160 Si / 1000 Ang^3
#
#
#
# Elastic Constant Matrix: (Units=GPa)
#
#
# Indices 1 2 3 4 5 6 
#
# 1 116.3632 40.6529 46.9225 0.0002 9.5089 0.0000
# 2 40.6529 117.9617 32.1425 0.0004 -0.1472 0.0001
# 3 46.9225 32.1425 109.3224 0.0012 -3.6451 0.0006
# 4 0.0002 0.0004 0.0012 12.4278 0.0005 -0.1838
# 5 9.5089 -0.1472 -3.6451 0.0005 48.3195 0.0001
# 6 0.0000 0.0001 0.0006 -0.1838 0.0001 34.2323
#
#
#
# Elastic Compliance Matrix: (Units=1/GPa)
#
#
# Indices 1 2 3 4 5 6 
#
# 1 0.011476 -0.002818 -0.004183 0.000000 -0.002583 0.000000
# 2 -0.002818 0.009909 -0.001689 0.000000 0.000457 0.000000
# 3 -0.004183 -0.001689 0.011495 -0.000001 0.001685 0.000000
# 4 0.000000 0.000000 -0.000001 0.080471 -0.000001 0.000432
# 5 -0.002583 0.000457 0.001685 -0.000001 0.021332 0.000000
# 6 0.000000 0.000000 0.000000 0.000432 0.000000 0.029215
#
#
# Mechanical properties :
#
#
# Convention : Reuss Voigt Hill
#
# Bulk Modulus (GPa) = 64.51344 64.78701 64.65022
# Shear Modulus (GPa) = 26.81740 33.92454 30.37097
#
# Velocity S-wave (km/s) = 3.59266 4.04078 3.82329
# Velocity P-wave (km/s) = 6.94694 7.27685 7.11381
#
# Compressibility (1/GPa) = 0.01550065
#
# Stress axis : x y z
#
# Youngs Moduli (GPa) = 87.13585 100.91523 86.99134
#
# Poissons Ratio (x) = 0.28442 0.36390
# Poissons Ratio (y) = 0.24559 0.14689
# Poissons Ratio (z) = 0.36451 0.17040
#
# Static dielectric constant tensor:
#      x y z
#    x 4.003360 0.000000 0.100960 
#    y 0.000000 3.379130 0.000000 
#    z 0.100960 0.000000 3.966660 
# 
# 
# High freq. dielectric constant tensor:
#      x y z
#    x 1.829710 0.000000 0.002020 
#    y 0.000000 1.801570 0.000000 
#    z 0.002020 0.000000 1.832790 
# 
# From -- ./inp_files/298960.got.cif
#   From: 2010.06.25/outbox.cif.g09.slc.cpg/sg15_150_cif.got.tgz:298960.got - 2010.06.28 07:06:18.
