data_PCOD8149631
_publ_section_title
;
Structure prediction by ZEFSAII (Michael W. Deem and Ramdas Pophale) SiO2 
 PCOD8149631
Probable space group: C 2/C
;
_chemical_formula_sum "Si O2"
_cell_formula_units_Z 48
_cell_length_a 13.147288
_cell_length_b 11.366966
_cell_length_c 17.924229
_cell_angle_alpha 90.000000
_cell_angle_beta 65.584151
_cell_angle_gamma 90.000000
_cell_volume 2439.126087
_symmetry_space_group_name_H-M "C 2/C"
_symmetry_group_IT_number 15
_symmetry_cell_setting 'monoclinic'
loop_
_space_group_symop_operation_xyz
x,y,z
-x,y,1/2-z
-x,-y,-z
x,-y,1/2+z
1/2+x,1/2+y,z
1/2-x,1/2+y,1/2-z
1/2-x,1/2-y,-z
1/2+x,1/2-y,1/2+z
loop_
_atom_site_type_symbol
_atom_site_label
_atom_site_fract_x
_atom_site_fract_y
_atom_site_fract_z
Si Si1 0.875787 0.811339 0.258227
Si Si2 0.246876 0.155959 0.396298
Si Si3 0.634383 0.226372 0.400092
Si Si4 0.107204 0.660290 0.008358
Si Si5 0.619076 0.547525 0.989178
Si Si6 0.225752 0.988339 0.610977
O O1 0.801240 0.696479 0.302091
O O2 0.871766 0.811534 0.170094
O O3 0.000000 0.795416 0.250000
O O4 0.823877 0.931624 0.307608
O O5 0.133204 0.229319 0.446425
O O6 0.340575 0.192388 0.427723
O O7 0.214719 0.019189 0.411099
O O8 0.524711 0.144782 0.440829
O O9 0.638088 0.314466 0.469290
O O10 0.741743 0.140378 0.367224
O O11 0.161278 0.543064 0.957624
O O12 0.500000 0.500000 0.000000
O O13 0.634021 0.522579 0.072951
#
# Coordination Sequence:
#
# PCOD8149631 Si02
#       6
#     8   8   8   8   8   8
#     4  11  22  39  61  84 121 158 202 250 298 357
#     4   9  18  35  58  87 112 150 205 244 279 354
#     4  12  22  36  62  91 121 157 194 253 314 351
#     4   9  17  36  61  83 112 152 201 246 283 352
#     4  11  21  38  65  87 117 160 207 243 295 367
#     4  10  24  40  57  91 124 155 202 251 300 359
#
# _framework density 19.679179999999999
#
# number of rings (size 3 to 8) (size 9 to 14) (size 15 to 20)
#    0.000    1.667    3.333    3.000    2.333    0.000 
#    0.000    0.000    0.000    1.000    0.000    0.000 
#    0.000    0.000    0.000    0.000    0.000    0.000 
#
# Total GULP energy -297521.684202 kJ/mol
# GULP energy per Si atom -12396.736842 kJ/mol
# Density = 1.963439 g / cm^3
# Si number density = 19.679180 Si / 1000 Ang^3
#
#
#
# Elastic Constant Matrix: (Units=GPa)
#
#
# Indices 1 2 3 4 5 6 
#
# 1 96.5069 41.7543 33.5598 0.0000 -1.6627 0.0000
# 2 41.7543 86.6449 26.4793 0.0000 5.0657 0.0000
# 3 33.5598 26.4793 72.6583 0.0000 0.8211 0.0000
# 4 0.0000 0.0000 0.0000 29.3597 0.0000 -0.3343
# 5 -1.6627 5.0657 0.8211 0.0000 26.6527 0.0000
# 6 0.0000 0.0000 0.0000 -0.3343 0.0000 27.1823
#
#
#
# Elastic Compliance Matrix: (Units=1/GPa)
#
#
# Indices 1 2 3 4 5 6 
#
# 1 0.014468 -0.005679 -0.004637 0.000000 0.002125 0.000000
# 2 -0.005679 0.015363 -0.002940 0.000000 -0.003184 0.000000
# 3 -0.004637 -0.002940 0.016979 0.000000 -0.000254 0.000000
# 4 0.000000 0.000000 0.000000 0.034065 0.000000 0.000419
# 5 0.002125 -0.003184 -0.000254 0.000000 0.038265 0.000000
# 6 0.000000 0.000000 0.000000 0.000419 0.000000 0.036794
#
#
# Mechanical properties :
#
#
# Convention : Reuss Voigt Hill
#
# Bulk Modulus (GPa) = 49.26541 51.04410 50.15475
# Shear Modulus (GPa) = 26.42543 26.90672 26.66608
#
# Velocity S-wave (km/s) = 3.66841 3.70167 3.68508
# Velocity P-wave (km/s) = 6.55985 6.65314 6.60666
#
# Compressibility (1/GPa) = 0.02029822
#
# Stress axis : x y z
#
# Youngs Moduli (GPa) = 69.11669 65.09242 58.89663
#
# Poissons Ratio (x) = 0.36969 0.27310
# Poissons Ratio (y) = 0.39255 0.17313
# Poissons Ratio (z) = 0.32049 0.19134
#
# Static dielectric constant tensor:
#      x y z
#    x 3.436580 0.000000 -0.042860 
#    y 0.000000 3.520810 0.000000 
#    z -0.042860 0.000000 3.479550 
# 
# 
# High freq. dielectric constant tensor:
#      x y z
#    x 1.759220 0.000000 -0.003620 
#    y 0.000000 1.763320 0.000000 
#    z -0.003620 0.000000 1.753000 
# 
# From -- ./inp_files/196004.got.cif
#   From: 2010.06.25/outbox.cif.g09.slc.cpg/sg15_99_cif.got.tgz:196004.got - 2010.06.28 07:06:18.
