data_PCOD8149269
_publ_section_title
;
Structure prediction by ZEFSAII (Michael W. Deem and Ramdas Pophale) SiO2 
 PCOD8149269
Probable space group: C 2/C
;
_chemical_formula_sum "Si O2"
_cell_formula_units_Z 44
_cell_length_a 26.417209
_cell_length_b 11.418771
_cell_length_c 19.992499
_cell_angle_alpha 90.000000
_cell_angle_beta 161.409533
_cell_angle_gamma 90.000000
_cell_volume 1922.621916
_symmetry_space_group_name_H-M "C 2/C"
_symmetry_group_IT_number 15
_symmetry_cell_setting 'monoclinic'
loop_
_space_group_symop_operation_xyz
x,y,z
-x,y,1/2-z
-x,-y,-z
x,-y,1/2+z
1/2+x,1/2+y,z
1/2-x,1/2+y,1/2-z
1/2-x,1/2-y,-z
1/2+x,1/2-y,1/2+z
loop_
_atom_site_type_symbol
_atom_site_label
_atom_site_fract_x
_atom_site_fract_y
_atom_site_fract_z
Si Si1 0.824537 0.576758 0.104936
Si Si2 0.422181 0.693904 0.791041
Si Si3 0.425805 0.188619 0.431160
Si Si4 0.290553 0.723096 0.894748
Si Si5 0.000000 0.620327 0.750000
Si Si6 0.807769 0.966883 0.923643
O O1 0.936857 0.681495 0.271360
O O2 0.925520 0.461310 0.214353
O O3 0.695628 0.546545 0.000380
O O4 0.732229 0.620200 0.923688
O O5 0.406249 0.710529 0.850591
O O6 0.579860 0.626509 0.970003
O O7 0.310969 0.212523 0.350084
O O8 0.608011 0.190950 0.683731
O O9 0.367490 0.063959 0.326707
O O10 0.372972 0.596230 0.989739
O O11 0.364622 0.798178 0.047855
#
# Coordination Sequence:
#
# PCOD8149269 Si02
#       6
#     8   8   8   8   4   8
#     4  10  25  43  73 102 150 181 239 293 360 421
#     4  10  23  44  74 108 133 188 240 299 351 419
#     4  11  25  48  71 107 143 188 240 299 360 420
#     4  12  28  47  72 103 149 193 240 290 369 433
#     4  12  30  46  68 108 148 192 236 300 358 434
#     4  11  24  45  75 102 143 188 241 298 355 429
#
# _framework density 22.885414000000001
#
# number of rings (size 3 to 8) (size 9 to 14) (size 15 to 20)
#    0.000    1.091    1.818    2.182   12.727    5.091 
#    0.000    0.000    0.000    0.000    0.000    0.000 
#    0.000    0.000    0.000    0.000    0.000    0.000 
#
# Total GULP energy -272810.424109 kJ/mol
# GULP energy per Si atom -12400.473823 kJ/mol
# Density = 2.283333 g / cm^3
# Si number density = 22.885414 Si / 1000 Ang^3
#
#
#
# Elastic Constant Matrix: (Units=GPa)
#
#
# Indices 1 2 3 4 5 6 
#
# 1 58.2679 20.8798 -4.6525 0.0018 -3.6110 -0.0001
# 2 20.8798 129.7056 41.8751 0.0000 -8.9094 0.0003
# 3 -4.6525 41.8751 74.1450 0.0011 -6.4382 0.0003
# 4 0.0018 0.0000 0.0011 35.7284 -0.0004 1.2565
# 5 -3.6110 -8.9094 -6.4382 -0.0004 33.7413 0.0000
# 6 -0.0001 0.0003 0.0003 1.2565 0.0000 16.0095
#
#
#
# Elastic Compliance Matrix: (Units=1/GPa)
#
#
# Indices 1 2 3 4 5 6 
#
# 1 0.019041 -0.004139 0.003675 -0.000001 0.001646 0.000000
# 2 -0.004139 0.010404 -0.006035 0.000000 0.001153 0.000000
# 3 0.003675 -0.006035 0.017309 -0.000001 0.002102 0.000000
# 4 -0.000001 0.000000 -0.000001 0.028066 0.000000 -0.002203
# 5 0.001646 0.001153 0.002102 0.000000 0.030519 0.000000
# 6 0.000000 0.000000 0.000000 -0.002203 0.000000 0.062636
#
#
# Mechanical properties :
#
#
# Convention : Reuss Voigt Hill
#
# Bulk Modulus (GPa) = 29.62481 42.03590 35.83035
# Shear Modulus (GPa) = 26.01138 30.69691 28.35414
#
# Velocity S-wave (km/s) = 3.37500 3.66639 3.52371
# Velocity P-wave (km/s) = 5.30664 6.02753 5.67853
#
# Compressibility (1/GPa) = 0.03375549
#
# Stress axis : x y z
#
# Youngs Moduli (GPa) = 52.51940 96.12033 57.77403
#
# Poissons Ratio (x) = 0.39780 -0.21232
# Poissons Ratio (y) = 0.21735 0.34868
# Poissons Ratio (z) = -0.19301 0.58011
#
# Static dielectric constant tensor:
#      x y z
#    x 3.954590 0.000000 -0.131770 
#    y 0.000000 4.227230 0.000000 
#    z -0.131770 0.000000 4.084420 
# 
# 
# High freq. dielectric constant tensor:
#      x y z
#    x 1.903180 0.000000 -0.007810 
#    y 0.000000 1.905980 0.000000 
#    z -0.007810 0.000000 1.904020 
# 
# From -- ./inp_files/257555.got.cif
#   From: 2010.06.25/outbox.cif.g09.slc.cpg/sg15_129_cif.got.tgz:257555.got - 2010.06.28 07:06:18.
