data_PCOD8149594
_publ_section_title
;
Structure prediction by ZEFSAII (Michael W. Deem and Ramdas Pophale) SiO2 
 PCOD8149594
Probable space group: C 2/C
;
_chemical_formula_sum "Si O2"
_cell_formula_units_Z 60
_cell_length_a 11.821257
_cell_length_b 13.845236
_cell_length_c 19.555764
_cell_angle_alpha 90.000000
_cell_angle_beta 55.652235
_cell_angle_gamma 90.000000
_cell_volume 2642.550762
_symmetry_space_group_name_H-M "C 2/C"
_symmetry_group_IT_number 15
_symmetry_cell_setting 'monoclinic'
loop_
_space_group_symop_operation_xyz
x,y,z
-x,y,1/2-z
-x,-y,-z
x,-y,1/2+z
1/2+x,1/2+y,z
1/2-x,1/2+y,1/2-z
1/2-x,1/2-y,-z
1/2+x,1/2-y,1/2+z
loop_
_atom_site_type_symbol
_atom_site_label
_atom_site_fract_x
_atom_site_fract_y
_atom_site_fract_z
Si Si1 0.675909 0.125731 0.862242
Si Si2 0.376482 0.641796 0.916564
Si Si3 0.659308 0.479947 0.951667
Si Si4 0.358780 0.490964 0.193452
Si Si5 0.500000 0.178040 0.750000
Si Si6 0.497475 0.166101 0.170523
Si Si7 0.311626 0.698397 0.236026
Si Si8 0.422539 0.954285 0.399332
O O1 0.753487 0.115473 0.907220
O O2 0.672230 0.237728 0.839081
O O3 0.522216 0.079247 0.927653
O O4 0.749223 0.061763 0.778570
O O5 0.505096 0.573121 0.854641
O O6 0.415375 0.753053 0.898565
O O7 0.329629 0.621929 0.011074
O O8 0.715788 0.487816 0.854882
O O9 0.755835 0.554934 0.963917
O O10 0.500000 0.500000 0.000000
O O11 0.398326 0.598915 0.203632
O O12 0.633952 0.243257 0.717254
O O13 0.522924 0.116161 0.676354
O O14 0.500000 0.188458 0.250000
O O15 0.344018 0.171231 0.195430
O O16 0.561955 0.064315 0.130114
#
# Coordination Sequence:
#
# PCOD8149594 Si02
#       8
#     8   8   8   8   4   8   8   8
#     4  11  22  39  64  96 122 157 212 276 308 360
#     4  11  24  39  63  91 132 167 205 257 318 384
#     4  10  24  42  63  87 126 177 209 249 321 393
#     4  11  21  40  66  92 127 166 214 256 321 368
#     4  10  24  38  64  92 128 162 208 268 320 374
#     4  12  20  36  63  96 122 156 211 266 312 364
#     4  11  22  36  61  97 125 157 205 268 314 369
#     4  11  22  39  64  90 123 165 212 260 317 370
#
# _framework density 22.705335000000002
#
# number of rings (size 3 to 8) (size 9 to 14) (size 15 to 20)
#    0.000    1.067    4.667    2.800    3.733    1.067 
#    0.000    0.000    0.000    6.400    0.000    0.000 
#    0.000    0.000    0.000    0.000    0.000    0.000 
#
# Total GULP energy -371651.520096 kJ/mol
# GULP energy per Si atom -12388.384003 kJ/mol
# Density = 2.265366 g / cm^3
# Si number density = 22.705335 Si / 1000 Ang^3
#
#
#
# Elastic Constant Matrix: (Units=GPa)
#
#
# Indices 1 2 3 4 5 6 
#
# 1 164.4050 35.7139 17.9680 0.0000 -15.7781 0.0000
# 2 35.7139 127.0219 5.7015 0.0000 1.7460 0.0000
# 3 17.9680 5.7015 24.8221 0.0000 3.7567 0.0000
# 4 0.0000 0.0000 0.0000 18.4746 0.0000 -4.7912
# 5 -15.7781 1.7460 3.7567 0.0000 37.6651 0.0000
# 6 0.0000 0.0000 0.0000 -4.7912 0.0000 27.6817
#
#
#
# Elastic Compliance Matrix: (Units=1/GPa)
#
#
# Indices 1 2 3 4 5 6 
#
# 1 0.007462 -0.001901 -0.005535 0.000000 0.003766 0.000000
# 2 -0.001901 0.008440 -0.000389 0.000000 -0.001149 0.000000
# 3 -0.005535 -0.000389 0.045416 0.000000 -0.006830 0.000000
# 4 0.000000 0.000000 0.000000 0.056672 0.000000 0.009809
# 5 0.003766 -0.001149 -0.006830 0.000000 0.028862 0.000000
# 6 0.000000 0.000000 0.000000 0.009809 0.000000 0.037823
#
#
# Mechanical properties :
#
#
# Convention : Reuss Voigt Hill
#
# Bulk Modulus (GPa) = 21.89655 48.33511 35.11583
# Shear Modulus (GPa) = 23.19676 33.88866 28.54271
#
# Velocity S-wave (km/s) = 3.19978 3.86753 3.54940
# Velocity P-wave (km/s) = 4.82869 6.42479 5.68305
#
# Compressibility (1/GPa) = 0.04566930
#
# Stress axis : x y z
#
# Youngs Moduli (GPa) = 134.01432 118.47664 22.01867
#
# Poissons Ratio (x) = 0.22527 0.12187
# Poissons Ratio (y) = 0.25481 0.00855
# Poissons Ratio (z) = 0.74173 0.04603
#
# Static dielectric constant tensor:
#      x y z
#    x 10.436530 0.000000 -1.688520 
#    y 0.000000 4.252060 0.000000 
#    z -1.688520 0.000000 4.532650 
# 
# 
# High freq. dielectric constant tensor:
#      x y z
#    x 1.929760 0.000000 -0.007820 
#    y 0.000000 1.899250 0.000000 
#    z -0.007820 0.000000 1.857610 
# 
# From -- ./inp_files/238688.got.cif
#   From: 2010.06.25/outbox.cif.g09.slc.cpg/sg15_120_cif.got.tgz:238688.got - 2010.06.28 07:06:18.
