data_PCOD8149846
_publ_section_title
;
Structure prediction by ZEFSAII (Michael W. Deem and Ramdas Pophale) SiO2 
 PCOD8149846
Probable space group: C 2/C
;
_chemical_formula_sum "Si O2"
_cell_formula_units_Z 60
_cell_length_a 8.719606
_cell_length_b 11.952393
_cell_length_c 26.252603
_cell_angle_alpha 90.000000
_cell_angle_beta 104.137096
_cell_angle_gamma 90.000000
_cell_volume 2653.186632
_symmetry_space_group_name_H-M "C 2/C"
_symmetry_group_IT_number 15
_symmetry_cell_setting 'monoclinic'
loop_
_space_group_symop_operation_xyz
x,y,z
-x,y,1/2-z
-x,-y,-z
x,-y,1/2+z
1/2+x,1/2+y,z
1/2-x,1/2+y,1/2-z
1/2-x,1/2-y,-z
1/2+x,1/2-y,1/2+z
loop_
_atom_site_type_symbol
_atom_site_label
_atom_site_fract_x
_atom_site_fract_y
_atom_site_fract_z
Si Si1 0.984300 0.414542 0.188795
Si Si2 0.210630 0.193182 0.323398
Si Si3 0.680859 0.380995 0.336848
Si Si4 0.000000 0.032611 0.250000
Si Si5 0.787405 0.850212 0.565239
Si Si6 0.268908 0.407792 0.041693
Si Si7 0.458090 0.156492 0.189306
Si Si8 0.497990 0.262789 0.997527
O O1 0.156425 0.418654 0.176384
O O2 0.906669 0.533267 0.163847
O O3 0.000000 0.409029 0.250000
O O4 0.874361 0.309007 0.166975
O O5 0.189897 0.119276 0.373182
O O6 0.394386 0.212915 0.328340
O O7 0.144252 0.122719 0.268831
O O8 0.527630 0.447868 0.300031
O O9 0.674473 0.391893 0.396278
O O10 0.678742 0.247831 0.325390
O O11 0.645571 0.762219 0.546370
O O12 0.947042 0.798222 0.554582
O O13 0.744880 0.961152 0.529817
O O14 0.401804 0.363795 0.014328
O O15 0.104795 0.348158 0.016748
O O16 0.500000 0.131862 0.250000
#
# Coordination Sequence:
#
# PCOD8149846 Si02
#       8
#     8   8   8   4   8   8   8   8
#     4  11  24  41  60  90 128 173 219 263 302 376
#     4  12  24  42  66  95 132 173 214 255 326 379
#     4  12  24  42  66  95 132 173 214 255 326 379
#     4  12  24  40  68  96 136 172 208 264 312 384
#     4  11  22  43  67  94 127 166 208 267 323 380
#     4  11  22  43  67  94 127 166 208 267 323 380
#     4  11  24  41  60  90 128 173 219 263 302 376
#     4  10  24  42  66  96 124 160 218 270 316 374
#
# _framework density 22.614314
#
# number of rings (size 3 to 8) (size 9 to 14) (size 15 to 20)
#    0.000    0.800    4.000    3.200    0.000    0.000 
#    0.000    6.667    0.000    0.000    0.000    0.000 
#    0.000    0.000    0.000    0.000    0.000    0.000 
#
# Total GULP energy -371686.098793 kJ/mol
# GULP energy per Si atom -12389.536626 kJ/mol
# Density = 2.256284 g / cm^3
# Si number density = 22.614314 Si / 1000 Ang^3
#
#
#
# Elastic Constant Matrix: (Units=GPa)
#
#
# Indices 1 2 3 4 5 6 
#
# 1 59.3819 15.1102 24.3981 0.0000 -22.1417 0.0000
# 2 15.1102 115.7080 -10.4771 0.0000 -2.6991 0.0000
# 3 24.3981 -10.4771 74.2112 0.0000 -8.4047 0.0000
# 4 0.0000 0.0000 0.0000 24.5543 0.0000 -5.8382
# 5 -22.1417 -2.6991 -8.4047 0.0000 25.1133 0.0000
# 6 0.0000 0.0000 0.0000 -5.8382 0.0000 18.4206
#
#
#
# Elastic Compliance Matrix: (Units=1/GPa)
#
#
# Indices 1 2 3 4 5 6 
#
# 1 0.029656 -0.004030 -0.007698 0.000000 0.023137 0.000000
# 2 -0.004030 0.009350 0.002449 0.000000 -0.001729 0.000000
# 3 -0.007698 0.002449 0.016228 0.000000 -0.001093 0.000000
# 4 0.000000 0.000000 0.000000 0.044045 0.000000 0.013960
# 5 0.023137 -0.001729 -0.001093 0.000000 0.059667 0.000000
# 6 0.000000 0.000000 0.000000 0.013960 0.000000 0.058711
#
#
# Mechanical properties :
#
#
# Convention : Reuss Voigt Hill
#
# Bulk Modulus (GPa) = 27.26616 34.15149 30.70883
# Shear Modulus (GPa) = 20.12544 28.30230 24.21387
#
# Velocity S-wave (km/s) = 2.98643 3.54152 3.27575
# Velocity P-wave (km/s) = 4.89641 5.64426 5.28359
#
# Compressibility (1/GPa) = 0.03667549
#
# Stress axis : x y z
#
# Youngs Moduli (GPa) = 33.72014 106.94984 61.62183
#
# Poissons Ratio (x) = 0.43102 0.47439
# Poissons Ratio (y) = 0.13590 -0.15093
# Poissons Ratio (z) = 0.25959 -0.26195
#
# Static dielectric constant tensor:
#      x y z
#    x 3.217030 0.000000 0.019800 
#    y 0.000000 4.828370 0.000000 
#    z 0.019800 0.000000 3.883120 
# 
# 
# High freq. dielectric constant tensor:
#      x y z
#    x 1.877880 0.000000 -0.012440 
#    y 0.000000 1.921610 0.000000 
#    z -0.012440 0.000000 1.878400 
# 
# From -- ./inp_files/288015.got.cif
#   From: 2010.06.25/outbox.cif.g09.slc.cpg/sg15_145_cif.got.tgz:288015.got - 2010.06.28 07:06:18.
