data_PCOD8149744
_publ_section_title
;
Structure prediction by ZEFSAII (Michael W. Deem and Ramdas Pophale) SiO2 
 PCOD8149744
Probable space group: C 2/C
;
_chemical_formula_sum "Si O2"
_cell_formula_units_Z 64
_cell_length_a 14.562548
_cell_length_b 22.209077
_cell_length_c 14.790758
_cell_angle_alpha 90.000000
_cell_angle_beta 141.605812
_cell_angle_gamma 90.000000
_cell_volume 2970.965853
_symmetry_space_group_name_H-M "C 2/C"
_symmetry_group_IT_number 15
_symmetry_cell_setting 'monoclinic'
loop_
_space_group_symop_operation_xyz
x,y,z
-x,y,1/2-z
-x,-y,-z
x,-y,1/2+z
1/2+x,1/2+y,z
1/2-x,1/2+y,1/2-z
1/2-x,1/2-y,-z
1/2+x,1/2-y,1/2+z
loop_
_atom_site_type_symbol
_atom_site_label
_atom_site_fract_x
_atom_site_fract_y
_atom_site_fract_z
Si Si1 0.697374 0.218383 0.224542
Si Si2 0.898961 0.861535 0.757417
Si Si3 0.668801 0.851667 0.885768
Si Si4 0.824745 0.534448 0.440270
Si Si5 0.856494 0.046492 0.589106
Si Si6 0.080889 0.950623 0.001969
Si Si7 0.637027 0.940878 0.168788
Si Si8 0.367963 0.180376 0.942392
O O1 0.804005 0.192043 0.228516
O O2 0.711787 0.188374 0.333945
O O3 0.751697 0.286362 0.286051
O O4 0.528393 0.213278 0.059728
O O5 0.790581 0.912452 0.636141
O O6 0.000000 0.839013 0.750000
O O7 0.991349 0.889955 0.911786
O O8 0.500000 0.875149 0.750000
O O9 0.787235 0.905533 0.967369
O O10 0.690378 0.817869 0.998722
O O11 0.772256 0.471269 0.441727
O O12 0.843975 0.510149 0.352310
O O13 0.980122 0.558111 0.600365
O O14 0.000000 0.074228 0.750000
O O15 0.898057 0.983487 0.576354
O O16 0.232846 0.927188 0.161453
O O17 0.000000 0.000000 0.000000
O O18 0.624962 0.888729 0.083704
#
# Coordination Sequence:
#
# PCOD8149744 Si02
#       8
#     8   8   8   8   8   8   8   8
#     4  11  26  45  69  94 126 173 226 274 326 397
#     4  12  23  45  66  91 135 178 213 272 334 383
#     4  10  24  41  66  99 132 169 215 267 334 403
#     4  11  21  41  61  93 132 172 205 264 334 389
#     4  12  22  37  60  95 135 172 210 263 324 397
#     4  12  23  36  60  98 132 167 214 256 324 396
#     4  11  24  37  68  94 131 171 213 272 327 397
#     4  11  24  46  68  95 130 170 221 278 337 386
#
# _framework density 21.541815
#
# number of rings (size 3 to 8) (size 9 to 14) (size 15 to 20)
#    0.000    0.750    6.250    1.125    3.500    1.000 
#    0.000    0.625    2.750    0.000    0.000    0.000 
#    0.000    0.000    0.000    0.000    0.000    0.000 
#
# Total GULP energy -396577.972949 kJ/mol
# GULP energy per Si atom -12393.061655 kJ/mol
# Density = 2.149279 g / cm^3
# Si number density = 21.541815 Si / 1000 Ang^3
#
#
#
# Elastic Constant Matrix: (Units=GPa)
#
#
# Indices 1 2 3 4 5 6 
#
# 1 104.4271 17.7903 21.1669 0.0000 9.0068 0.0000
# 2 17.7903 59.0866 15.1749 0.0000 5.0210 0.0000
# 3 21.1669 15.1749 103.0792 0.0000 12.6788 0.0000
# 4 0.0000 0.0000 0.0000 42.1688 0.0000 -3.9734
# 5 9.0068 5.0210 12.6788 0.0000 24.1005 0.0000
# 6 0.0000 0.0000 0.0000 -3.9734 0.0000 27.1440
#
#
#
# Elastic Compliance Matrix: (Units=1/GPa)
#
#
# Indices 1 2 3 4 5 6 
#
# 1 0.010538 -0.002574 -0.001461 0.000000 -0.002633 0.000000
# 2 -0.002574 0.018356 -0.001948 0.000000 -0.001838 0.000000
# 3 -0.001461 -0.001948 0.010875 0.000000 -0.004769 0.000000
# 4 0.000000 0.000000 0.000000 0.024046 0.000000 0.003520
# 5 -0.002633 -0.001838 -0.004769 0.000000 0.045369 0.000000
# 6 0.000000 0.000000 0.000000 0.003520 0.000000 0.037356
#
#
# Mechanical properties :
#
#
# Convention : Reuss Voigt Hill
#
# Bulk Modulus (GPa) = 35.96747 41.65080 38.80913
# Shear Modulus (GPa) = 29.80246 32.84672 31.32459
#
# Velocity S-wave (km/s) = 3.72354 3.90909 3.81744
# Velocity P-wave (km/s) = 5.93457 6.30488 6.12253
#
# Compressibility (1/GPa) = 0.02780290
#
# Stress axis : x y z
#
# Youngs Moduli (GPa) = 94.89639 54.47923 91.95697
#
# Poissons Ratio (x) = 0.14022 0.13436
# Poissons Ratio (y) = 0.24424 0.17911
# Poissons Ratio (z) = 0.13865 0.10611
#
# Static dielectric constant tensor:
#      x y z
#    x 3.870560 0.000000 0.209280 
#    y 0.000000 3.548630 0.000000 
#    z 0.209280 0.000000 3.944480 
# 
# 
# High freq. dielectric constant tensor:
#      x y z
#    x 1.851520 0.000000 0.015540 
#    y 0.000000 1.823730 0.000000 
#    z 0.015540 0.000000 1.847660 
# 
# From -- ./inp_files/156815.got.cif
#   From: 2010.06.25/outbox.cif.g09.slc.cpg/sg15_79_cif.got.tgz:156815.got - 2010.06.28 07:06:18.
