data_PCOD8149247
_publ_section_title
;
Structure prediction by ZEFSAII (Michael W. Deem and Ramdas Pophale) SiO2 
 PCOD8149247
Probable space group: C 2/C
;
_chemical_formula_sum "Si O2"
_cell_formula_units_Z 40
_cell_length_a 14.537099
_cell_length_b 13.825413
_cell_length_c 25.216319
_cell_angle_alpha 90.000000
_cell_angle_beta 159.095964
_cell_angle_gamma 90.000000
_cell_volume 1808.285621
_symmetry_space_group_name_H-M "C 2/C"
_symmetry_group_IT_number 15
_symmetry_cell_setting 'monoclinic'
loop_
_space_group_symop_operation_xyz
x,y,z
-x,y,1/2-z
-x,-y,-z
x,-y,1/2+z
1/2+x,1/2+y,z
1/2-x,1/2+y,1/2-z
1/2-x,1/2-y,-z
1/2+x,1/2-y,1/2+z
loop_
_atom_site_type_symbol
_atom_site_label
_atom_site_fract_x
_atom_site_fract_y
_atom_site_fract_z
Si Si1 0.088837 0.711983 0.641758
Si Si2 0.793522 0.947863 0.926670
Si Si3 0.924512 0.254517 0.543492
Si Si4 0.281240 0.918130 0.383971
Si Si5 0.677065 0.140691 0.897904
O O1 0.295171 0.779216 0.782617
O O2 0.225067 0.633802 0.676695
O O3 0.905204 0.782743 0.509074
O O4 0.943026 0.658745 0.609995
O O5 0.500000 0.923414 0.750000
O O6 0.768095 0.030706 0.957501
O O7 0.926379 0.849998 0.016782
O O8 0.000000 0.000000 0.000000
O O9 0.750000 0.250000 0.500000
O O10 0.846746 0.337890 0.462190
O O11 0.000000 0.960967 0.250000
O O12 0.500000 0.000000 0.500000
O O13 0.500000 0.146643 0.750000
#
# Coordination Sequence:
#
# PCOD8149247 Si02
#       5
#     8   8   8   8   8
#     4  11  24  44  75 102 151 189 239 293 370 428
#     4  11  24  43  72 100 141 181 239 295 352 417
#     4  12  26  44  72 103 140 185 240 297 354 426
#     4  12  28  49  70 106 148 196 246 303 369 443
#     4  10  23  44  72 109 141 187 236 300 357 434
#
# _framework density 22.120398999999999
#
# number of rings (size 3 to 8) (size 9 to 14) (size 15 to 20)
#    0.000    0.800    2.000    5.400    5.600    5.600 
#    0.000    1.000    0.000    0.000    0.000    0.000 
#    0.000    0.000    0.000    0.000    0.000    0.000 
#
# Total GULP energy -247771.974322 kJ/mol
# GULP energy per Si atom -12388.598716 kJ/mol
# Density = 2.207005 g / cm^3
# Si number density = 22.120399 Si / 1000 Ang^3
#
#
#
# Elastic Constant Matrix: (Units=GPa)
#
#
# Indices 1 2 3 4 5 6 
#
# 1 88.0240 55.4350 50.7878 0.0018 -0.6307 0.0003
# 2 55.4350 136.5198 50.3502 -0.0006 -1.4735 -0.0021
# 3 50.7878 50.3502 134.0758 0.0189 13.8807 -0.0109
# 4 0.0018 -0.0006 0.0189 17.2109 -0.0096 15.5447
# 5 -0.6307 -1.4735 13.8807 -0.0096 35.8361 0.0043
# 6 0.0003 -0.0021 -0.0109 15.5447 0.0043 28.5808
#
#
#
# Elastic Compliance Matrix: (Units=1/GPa)
#
#
# Indices 1 2 3 4 5 6 
#
# 1 0.017509 -0.005301 -0.004845 0.000014 0.001967 -0.000010
# 2 -0.005301 0.010203 -0.001935 0.000007 0.001076 -0.000004
# 3 -0.004845 -0.001935 0.010457 -0.000034 -0.004215 0.000023
# 4 0.000014 0.000007 -0.000034 0.114204 0.000052 -0.062114
# 5 0.001967 0.001076 -0.004215 0.000052 0.029616 -0.000034
# 6 -0.000010 -0.000004 0.000023 -0.062114 -0.000034 0.068771
#
#
# Mechanical properties :
#
#
# Convention : Reuss Voigt Hill
#
# Bulk Modulus (GPa) = 71.39842 74.64065 73.01953
# Shear Modulus (GPa) = 17.88326 29.79533 23.83929
#
# Velocity S-wave (km/s) = 2.84641 3.67408 3.28641
# Velocity P-wave (km/s) = 6.56887 7.19824 6.89074
#
# Compressibility (1/GPa) = 0.01400591
#
# Stress axis : x y z
#
# Youngs Moduli (GPa) = 57.11398 98.01246 95.63234
#
# Poissons Ratio (x) = 0.51961 0.46335
# Poissons Ratio (y) = 0.30279 0.18502
# Poissons Ratio (z) = 0.27672 0.18962
#
# Static dielectric constant tensor:
#      x y z
#    x 3.628810 0.000460 -0.034780 
#    y 0.000460 4.063080 0.000270 
#    z -0.034780 0.000270 4.093780 
# 
# 
# High freq. dielectric constant tensor:
#      x y z
#    x 1.888840 0.000000 0.016010 
#    y 0.000000 1.873280 0.000000 
#    z 0.016010 0.000000 1.883280 
# 
# From -- ./inp_files/96003.got.cif
#   From: 2010.06.25/outbox.cif.g09.slc.cpg/sg15_49_cif.got.tgz:96003.got - 2010.06.28 07:06:18.
