data_PCOD8149364
_publ_section_title
;
Structure prediction by ZEFSAII (Michael W. Deem and Ramdas Pophale) SiO2 
 PCOD8149364
Probable space group: C 2/C
;
_chemical_formula_sum "Si O2"
_cell_formula_units_Z 40
_cell_length_a 17.459124
_cell_length_b 4.847088
_cell_length_c 19.327980
_cell_angle_alpha 90.000000
_cell_angle_beta 109.980611
_cell_angle_gamma 90.000000
_cell_volume 1537.195488
_symmetry_space_group_name_H-M "C 2/C"
_symmetry_group_IT_number 15
_symmetry_cell_setting 'monoclinic'
loop_
_space_group_symop_operation_xyz
x,y,z
-x,y,1/2-z
-x,-y,-z
x,-y,1/2+z
1/2+x,1/2+y,z
1/2-x,1/2+y,1/2-z
1/2-x,1/2-y,-z
1/2+x,1/2-y,1/2+z
loop_
_atom_site_type_symbol
_atom_site_label
_atom_site_fract_x
_atom_site_fract_y
_atom_site_fract_z
Si Si1 0.655015 0.301702 0.476513
Si Si2 0.197356 0.755344 0.239605
Si Si3 0.428488 0.260467 0.183875
Si Si4 0.478575 0.077139 0.581380
Si Si5 0.414674 0.415514 0.415849
O O1 0.750000 0.250000 0.500000
O O2 0.614540 0.433579 0.392649
O O3 0.612105 0.001979 0.475088
O O4 0.638103 0.508880 0.533830
O O5 0.266692 0.976220 0.282886
O O6 0.144172 0.921062 0.167655
O O7 0.144806 0.664313 0.289445
O O8 0.500000 0.418592 0.250000
O O9 0.476581 0.998353 0.163374
O O10 0.544743 0.883397 0.561645
O O11 0.506566 0.388041 0.574436
#
# Coordination Sequence:
#
# PCOD8149364 Si02
#       5
#     8   8   8   8   8
#     4  10  23  45  71 106 142 181 233 296 351 407
#     4  12  26  45  69 104 146 188 231 297 359 416
#     4  10  23  48  68 108 136 190 234 293 344 428
#     4  10  25  44  75  98 138 182 240 281 347 419
#     4  12  23  49  71 103 137 192 235 284 346 431
#
# _framework density 26.021414
#
# number of rings (size 3 to 8) (size 9 to 14) (size 15 to 20)
#    1.200    0.000    2.000    3.600    0.000    1.600 
#    0.000    3.000    0.000    0.000    0.000    0.000 
#    0.000    0.000    0.000    0.000    0.000    0.000 
#
# Total GULP energy -247790.774873 kJ/mol
# GULP energy per Si atom -12389.538744 kJ/mol
# Density = 2.596219 g / cm^3
# Si number density = 26.021414 Si / 1000 Ang^3
#
#
#
# Elastic Constant Matrix: (Units=GPa)
#
#
# Indices 1 2 3 4 5 6 
#
# 1 194.5528 39.2447 78.0539 0.0000 -20.8589 0.0000
# 2 39.2447 91.1043 30.9911 0.0000 -9.6920 -0.0001
# 3 78.0539 30.9911 157.5368 0.0000 -16.2884 0.0000
# 4 0.0000 0.0000 0.0000 29.3186 0.0000 2.1708
# 5 -20.8589 -9.6920 -16.2884 0.0000 48.2894 0.0000
# 6 0.0000 -0.0001 0.0000 2.1708 0.0000 26.1183
#
#
#
# Elastic Compliance Matrix: (Units=1/GPa)
#
#
# Indices 1 2 3 4 5 6 
#
# 1 0.006823 -0.001794 -0.002860 0.000000 0.001623 0.000000
# 2 -0.001794 0.012361 -0.001416 0.000000 0.001229 0.000000
# 3 -0.002860 -0.001416 0.008171 0.000000 0.001237 0.000000
# 4 0.000000 0.000000 0.000000 0.034319 0.000000 -0.002852
# 5 0.001623 0.001229 0.001237 0.000000 0.022073 0.000000
# 6 0.000000 0.000000 0.000000 -0.002852 0.000000 0.038524
#
#
# Mechanical properties :
#
#
# Convention : Reuss Voigt Hill
#
# Bulk Modulus (GPa) = 65.71877 82.19703 73.95790
# Shear Modulus (GPa) = 35.84631 40.40553 38.12592
#
# Velocity S-wave (km/s) = 3.71559 3.94481 3.83191
# Velocity P-wave (km/s) = 6.61195 7.23916 6.93266
#
# Compressibility (1/GPa) = 0.01521635
#
# Stress axis : x y z
#
# Youngs Moduli (GPa) = 146.55843 80.89636 122.38109
#
# Poissons Ratio (x) = 0.14510 0.35001
# Poissons Ratio (y) = 0.26288 0.17330
# Poissons Ratio (z) = 0.41916 0.11455
#
# Static dielectric constant tensor:
#      x y z
#    x 4.822960 0.000000 -0.041420 
#    y 0.000000 4.257690 0.000000 
#    z -0.041420 0.000000 5.135640 
# 
# 
# High freq. dielectric constant tensor:
#      x y z
#    x 2.059600 0.000000 -0.011100 
#    y 0.000000 2.008320 0.000000 
#    z -0.011100 0.000000 2.065730 
# 
# From -- ./inp_files/246275.got.cif
#   From: 2010.06.25/outbox.cif.g09.slc.cpg/sg15_124_cif.got.tgz:246275.got - 2010.06.28 07:06:18.
