data_PCOD8149005
_publ_section_title
;
Structure prediction by ZEFSAII (Michael W. Deem and Ramdas Pophale) SiO2 
 PCOD8149005
Probable space group: C 2/C
;
_chemical_formula_sum "Si O2"
_cell_formula_units_Z 60
_cell_length_a 11.232704
_cell_length_b 8.391293
_cell_length_c 28.554924
_cell_angle_alpha 90.000000
_cell_angle_beta 96.515776
_cell_angle_gamma 90.000000
_cell_volume 2674.113576
_symmetry_space_group_name_H-M "C 2/C"
_symmetry_group_IT_number 15
_symmetry_cell_setting 'monoclinic'
loop_
_space_group_symop_operation_xyz
x,y,z
-x,y,1/2-z
-x,-y,-z
x,-y,1/2+z
1/2+x,1/2+y,z
1/2-x,1/2+y,1/2-z
1/2-x,1/2-y,-z
1/2+x,1/2-y,1/2+z
loop_
_atom_site_type_symbol
_atom_site_label
_atom_site_fract_x
_atom_site_fract_y
_atom_site_fract_z
Si Si1 0.151801 0.397520 0.714958
Si Si2 0.000000 0.145081 0.750000
Si Si3 0.162952 0.640202 0.799711
Si Si4 0.707394 0.067119 0.627620
Si Si5 0.560661 0.425211 0.828962
Si Si6 0.368148 0.437146 0.980249
Si Si7 0.819514 0.065224 0.371160
Si Si8 0.371088 0.934018 0.478357
O O1 0.136132 0.510351 0.759370
O O2 0.274822 0.298955 0.719207
O O3 0.129318 0.499063 0.667280
O O4 0.057079 0.255784 0.713009
O O5 0.911077 0.031348 0.716657
O O6 0.049283 0.734514 0.816629
O O7 0.223228 0.556890 0.846706
O O8 0.833149 0.971483 0.630391
O O9 0.729803 0.255286 0.635380
O O10 0.634808 0.032784 0.577227
O O11 0.435512 0.469838 0.845552
O O12 0.346753 0.481041 0.925458
O O13 0.372768 0.250895 0.990376
O O14 0.500000 0.500000 0.000000
O O15 0.250672 0.507577 0.002940
O O16 0.500000 0.000000 0.500000
#
# Coordination Sequence:
#
# PCOD8149005 Si02
#       8
#     8   4   8   8   8   8   8   8
#     4  11  23  40  62  93 129 178 218 270 331 395
#     4  12  24  40  62  96 130 180 224 270 330 396
#     4  11  23  41  63  90 135 172 220 272 328 396
#     4  10  24  43  64  95 134 170 222 278 335 402
#     4  11  25  41  63  94 133 173 221 274 328 397
#     4  10  23  43  71 102 135 176 223 284 349 406
#     4  11  23  42  65  96 131 173 221 270 337 405
#     4  10  23  46  70 100 136 175 226 287 342 407
#
# _framework density 22.437342000000001
#
# number of rings (size 3 to 8) (size 9 to 14) (size 15 to 20)
#    0.000    1.333    1.333    4.000    3.733    4.800 
#    7.200    0.000    0.000    0.000    0.000    0.000 
#    0.000    0.000    0.000    0.000    0.000    0.000 
#
# Total GULP energy -371694.147222 kJ/mol
# GULP energy per Si atom -12389.804907 kJ/mol
# Density = 2.238627 g / cm^3
# Si number density = 22.437342 Si / 1000 Ang^3
#
#
#
# Elastic Constant Matrix: (Units=GPa)
#
#
# Indices 1 2 3 4 5 6 
#
# 1 101.7899 38.9833 51.3019 0.0000 4.5023 0.0000
# 2 38.9833 118.1674 69.8913 0.0000 3.8522 0.0000
# 3 51.3019 69.8913 134.6404 0.0000 1.0963 0.0000
# 4 0.0000 0.0000 0.0000 37.5834 0.0000 5.2756
# 5 4.5023 3.8522 1.0963 0.0000 26.8634 0.0000
# 6 0.0000 0.0000 0.0000 5.2756 0.0000 37.3717
#
#
#
# Elastic Compliance Matrix: (Units=1/GPa)
#
#
# Indices 1 2 3 4 5 6 
#
# 1 0.012516 -0.001821 -0.003810 0.000000 -0.001681 0.000000
# 2 -0.001821 0.012537 -0.005804 0.000000 -0.001256 0.000000
# 3 -0.003810 -0.005804 0.011884 0.000000 0.000986 0.000000
# 4 0.000000 0.000000 0.000000 0.027145 0.000000 -0.003832
# 5 -0.001681 -0.001256 0.000986 0.000000 0.037647 0.000000
# 6 0.000000 0.000000 0.000000 -0.003832 0.000000 0.027299
#
#
# Mechanical properties :
#
#
# Convention : Reuss Voigt Hill
#
# Bulk Modulus (GPa) = 71.08730 74.99454 73.04092
# Shear Modulus (GPa) = 31.93113 33.32511 32.62812
#
# Velocity S-wave (km/s) = 3.77652 3.85808 3.81752
# Velocity P-wave (km/s) = 7.12514 7.30362 7.21493
#
# Compressibility (1/GPa) = 0.01406721
#
# Stress axis : x y z
#
# Youngs Moduli (GPa) = 79.89691 79.76436 84.14851
#
# Poissons Ratio (x) = 0.14522 0.32062
# Poissons Ratio (y) = 0.14547 0.48839
# Poissons Ratio (z) = 0.30442 0.46295
#
# Static dielectric constant tensor:
#      x y z
#    x 4.947380 0.000000 -0.412140 
#    y 0.000000 4.297730 0.000000 
#    z -0.412140 0.000000 4.112700 
# 
# 
# High freq. dielectric constant tensor:
#      x y z
#    x 1.888820 0.000000 -0.003750 
#    y 0.000000 1.898300 0.000000 
#    z -0.003750 0.000000 1.881020 
# 
# From -- ./inp_files/310347.got.cif
#   From: 2010.06.25/outbox.cif.g09.slc.cpg/sg15_156_cif.got.tgz:310347.got - 2010.06.28 07:06:18.
