data_PCOD8149651
_publ_section_title
;
Structure prediction by ZEFSAII (Michael W. Deem and Ramdas Pophale) SiO2 
 PCOD8149651
Probable space group: C 2/C
;
_chemical_formula_sum "Si O2"
_cell_formula_units_Z 56
_cell_length_a 10.382289
_cell_length_b 8.769143
_cell_length_c 31.414827
_cell_angle_alpha 90.000000
_cell_angle_beta 70.446221
_cell_angle_gamma 90.000000
_cell_volume 2695.174708
_symmetry_space_group_name_H-M "C 2/C"
_symmetry_group_IT_number 15
_symmetry_cell_setting 'monoclinic'
loop_
_space_group_symop_operation_xyz
x,y,z
-x,y,1/2-z
-x,-y,-z
x,-y,1/2+z
1/2+x,1/2+y,z
1/2-x,1/2+y,1/2-z
1/2-x,1/2-y,-z
1/2+x,1/2-y,1/2+z
loop_
_atom_site_type_symbol
_atom_site_label
_atom_site_fract_x
_atom_site_fract_y
_atom_site_fract_z
Si Si1 0.106432 0.714490 0.649041
Si Si2 0.894847 0.359055 0.840593
Si Si3 0.209529 0.357505 0.801917
Si Si4 0.729629 0.503816 0.503388
Si Si5 0.198881 0.716024 0.793904
Si Si6 0.078933 0.271922 0.055991
Si Si7 0.715715 0.250018 0.935137
O O1 0.123191 0.539525 0.660189
O O2 0.214159 0.816610 0.662753
O O3 0.145097 0.737624 0.595369
O O4 0.951359 0.768470 0.674567
O O5 0.814989 0.293285 0.809339
O O6 0.840384 0.294869 0.891229
O O7 0.051808 0.306769 0.821207
O O8 0.219615 0.536442 0.793665
O O9 0.285359 0.267683 0.756282
O O10 0.871133 0.424393 0.473572
O O11 0.616831 0.374265 0.523380
O O12 0.678956 0.616604 0.472237
O O13 0.748276 0.594672 0.544950
O O14 0.916213 0.281321 0.079350
#
# Coordination Sequence:
#
# PCOD8149651 Si02
#       7
#     8   8   8   8   8   8   8
#     4  11  24  42  66  95 133 168 207 266 317 374
#     4  11  24  42  66  95 133 166 210 264 315 379
#     4  11  26  43  68  97 126 168 213 260 320 384
#     4  10  24  40  63  94 124 170 212 263 313 372
#     4  11  24  46  67  94 128 168 213 261 321 375
#     4  11  22  42  64  94 128 167 214 258 315 377
#     4  11  22  43  64  93 130 167 211 263 316 369
#
# _framework density 20.777875999999999
#
# number of rings (size 3 to 8) (size 9 to 14) (size 15 to 20)
#    0.000    1.143    2.857    2.571    2.000    6.857 
#   10.286    0.000    0.000    0.000    0.000    0.000 
#    0.000    0.000    0.000    0.000    0.000    0.000 
#
# Total GULP energy -347374.511049 kJ/mol
# GULP energy per Si atom -12406.232537 kJ/mol
# Density = 2.073058 g / cm^3
# Si number density = 20.777876 Si / 1000 Ang^3
#
#
#
# Elastic Constant Matrix: (Units=GPa)
#
#
# Indices 1 2 3 4 5 6 
#
# 1 101.0167 21.3064 10.4249 0.0000 0.6088 0.0000
# 2 21.3064 66.6583 5.9536 0.0000 -0.1329 0.0000
# 3 10.4249 5.9536 78.7289 0.0000 3.3408 0.0000
# 4 0.0000 0.0000 0.0000 35.0429 0.0000 3.9314
# 5 0.6088 -0.1329 3.3408 0.0000 40.0933 0.0000
# 6 0.0000 0.0000 0.0000 3.9314 0.0000 24.4763
#
#
#
# Elastic Compliance Matrix: (Units=1/GPa)
#
#
# Indices 1 2 3 4 5 6 
#
# 1 0.010721 -0.003323 -0.001165 0.000000 -0.000077 0.000000
# 2 -0.003323 0.016135 -0.000787 0.000000 0.000170 0.000000
# 3 -0.001165 -0.000787 0.012961 0.000000 -0.001065 0.000000
# 4 0.000000 0.000000 0.000000 0.029060 0.000000 -0.004668
# 5 -0.000077 0.000170 -0.001065 0.000000 0.025032 0.000000
# 6 0.000000 0.000000 0.000000 -0.004668 0.000000 0.041606
#
#
# Mechanical properties :
#
#
# Convention : Reuss Voigt Hill
#
# Bulk Modulus (GPa) = 34.16957 35.75264 34.96110
# Shear Modulus (GPa) = 32.08827 33.83710 32.96268
#
# Velocity S-wave (km/s) = 3.93408 4.03987 3.98732
# Velocity P-wave (km/s) = 6.09236 6.24541 6.16936
#
# Compressibility (1/GPa) = 0.02926581
#
# Stress axis : x y z
#
# Youngs Moduli (GPa) = 93.27563 61.97844 77.15568
#
# Poissons Ratio (x) = 0.20595 0.08989
# Poissons Ratio (y) = 0.30994 0.06075
# Poissons Ratio (z) = 0.10867 0.04880
#
# Static dielectric constant tensor:
#      x y z
#    x 3.700210 0.000000 -0.049590 
#    y 0.000000 3.787570 0.000000 
#    z -0.049590 0.000000 3.807340 
# 
# 
# High freq. dielectric constant tensor:
#      x y z
#    x 1.814640 0.000000 0.001050 
#    y 0.000000 1.821320 0.000000 
#    z 0.001050 0.000000 1.827400 
# 
# From -- ./inp_files/309929.got.cif
#   From: 2010.06.25/outbox.cif.g09.slc.cpg/sg15_155_cif.got.tgz:309929.got - 2010.06.28 07:06:18.
