data_PCOD8149031
_publ_section_title
;
Structure prediction by ZEFSAII (Michael W. Deem and Ramdas Pophale) SiO2 
 PCOD8149031
Probable space group: C 2/C
;
_chemical_formula_sum "Si O2"
_cell_formula_units_Z 48
_cell_length_a 28.063318
_cell_length_b 5.606545
_cell_length_c 13.165661
_cell_angle_alpha 90.000000
_cell_angle_beta 65.428357
_cell_angle_gamma 90.000000
_cell_volume 1883.874714
_symmetry_space_group_name_H-M "C 2/C"
_symmetry_group_IT_number 15
_symmetry_cell_setting 'monoclinic'
loop_
_space_group_symop_operation_xyz
x,y,z
-x,y,1/2-z
-x,-y,-z
x,-y,1/2+z
1/2+x,1/2+y,z
1/2-x,1/2+y,1/2-z
1/2-x,1/2-y,-z
1/2+x,1/2-y,1/2+z
loop_
_atom_site_type_symbol
_atom_site_label
_atom_site_fract_x
_atom_site_fract_y
_atom_site_fract_z
Si Si1 0.720364 0.846977 0.168533
Si Si2 0.057907 0.059452 0.984963
Si Si3 0.445581 0.887365 0.332157
Si Si4 0.239266 0.350107 0.379220
Si Si5 0.369670 0.734638 0.939099
Si Si6 0.382042 0.410196 0.754273
O O1 0.744362 0.611249 0.089116
O O2 0.751138 0.871042 0.248342
O O3 0.658481 0.798429 0.242640
O O4 0.729658 0.109803 0.104139
O O5 0.099156 0.077826 0.855217
O O6 0.054612 0.306391 0.049848
O O7 0.081403 0.858344 0.037621
O O8 0.000000 0.000000 0.000000
O O9 0.500000 0.011392 0.250000
O O10 0.436193 0.676663 0.258621
O O11 0.394445 0.043801 0.358443
O O12 0.177896 0.309670 0.448212
O O13 0.350081 0.557046 0.868318
#
# Coordination Sequence:
#
# PCOD8149031 Si02
#       6
#     8   8   8   8   8   8
#     4  10  23  43  73 102 145 188 244 300 366 438
#     4  11  24  46  69  97 142 188 231 297 363 432
#     4  11  26  44  69 105 142 181 243 299 360 440
#     4  10  23  44  70 106 141 190 243 303 364 434
#     4  11  27  42  69 104 140 183 240 301 355 439
#     4  11  25  45  69 101 140 187 238 292 368 430
#
# _framework density 25.479399000000001
#
# number of rings (size 3 to 8) (size 9 to 14) (size 15 to 20)
#    0.000    1.333    3.333    0.000    9.333    4.667 
#    0.000    0.000    0.000    0.000    0.000    0.000 
#    0.000    0.000    0.000    0.000    0.000    0.000 
#
# Total GULP energy -297379.530642 kJ/mol
# GULP energy per Si atom -12390.813777 kJ/mol
# Density = 2.542141 g / cm^3
# Si number density = 25.479399 Si / 1000 Ang^3
#
#
#
# Elastic Constant Matrix: (Units=GPa)
#
#
# Indices 1 2 3 4 5 6 
#
# 1 78.0669 36.3424 29.3644 0.0000 -19.0343 0.0000
# 2 36.3424 137.1779 43.2611 0.0000 -10.8963 0.0000
# 3 29.3644 43.2611 83.0331 0.0000 -27.3503 0.0000
# 4 0.0000 0.0000 0.0000 36.6210 0.0000 -13.2290
# 5 -19.0343 -10.8963 -27.3503 0.0000 49.1306 0.0000
# 6 0.0000 0.0000 0.0000 -13.2290 0.0000 34.7191
#
#
#
# Elastic Compliance Matrix: (Units=1/GPa)
#
#
# Indices 1 2 3 4 5 6 
#
# 1 0.016305 -0.003112 -0.002806 0.000000 0.004065 0.000000
# 2 -0.003112 0.009338 -0.004261 0.000000 -0.001507 0.000000
# 3 -0.002806 -0.004261 0.017862 0.000000 0.007911 0.000000
# 4 0.000000 0.000000 0.000000 0.031665 0.000000 0.012065
# 5 0.004065 -0.001507 0.007911 0.000000 0.025999 0.000000
# 6 0.000000 0.000000 0.000000 0.012065 0.000000 0.033400
#
#
# Mechanical properties :
#
#
# Convention : Reuss Voigt Hill
#
# Bulk Modulus (GPa) = 43.20247 57.35708 50.27978
# Shear Modulus (GPa) = 30.74239 36.71481 33.72860
#
# Velocity S-wave (km/s) = 3.47732 3.80012 3.64230
# Velocity P-wave (km/s) = 5.75457 6.46642 6.12085
#
# Compressibility (1/GPa) = 0.02314682
#
# Stress axis : x y z
#
# Youngs Moduli (GPa) = 61.33218 107.08517 55.98567
#
# Poissons Ratio (x) = 0.33323 0.15709
# Poissons Ratio (y) = 0.19085 0.23856
# Poissons Ratio (z) = 0.17210 0.45631
#
# Static dielectric constant tensor:
#      x y z
#    x 4.434620 0.000000 0.186180 
#    y 0.000000 4.725390 0.000000 
#    z 0.186180 0.000000 4.410040 
# 
# 
# High freq. dielectric constant tensor:
#      x y z
#    x 2.029490 0.000000 0.006820 
#    y 0.000000 2.007250 0.000000 
#    z 0.006820 0.000000 2.018050 
# 
# From -- ./inp_files/180014.got.cif
#   From: 2010.06.25/outbox.cif.g09.slc.cpg/sg15_91_cif.got.tgz:180014.got - 2010.06.28 07:06:18.
