data_PCOD8149047
_publ_section_title
;
Structure prediction by ZEFSAII (Michael W. Deem and Ramdas Pophale) SiO2 
 PCOD8149047
Probable space group: C 2/C
;
_chemical_formula_sum "Si O2"
_cell_formula_units_Z 40
_cell_length_a 9.047871
_cell_length_b 17.391456
_cell_length_c 12.504023
_cell_angle_alpha 90.000000
_cell_angle_beta 89.941712
_cell_angle_gamma 90.000000
_cell_volume 1967.577654
_symmetry_space_group_name_H-M "C 2/C"
_symmetry_group_IT_number 15
_symmetry_cell_setting 'monoclinic'
loop_
_space_group_symop_operation_xyz
x,y,z
-x,y,1/2-z
-x,-y,-z
x,-y,1/2+z
1/2+x,1/2+y,z
1/2-x,1/2+y,1/2-z
1/2-x,1/2-y,-z
1/2+x,1/2-y,1/2+z
loop_
_atom_site_type_symbol
_atom_site_label
_atom_site_fract_x
_atom_site_fract_y
_atom_site_fract_z
Si Si1 0.140684 0.637331 0.578440
Si Si2 0.660462 0.269743 0.281841
Si Si3 0.500000 0.634541 0.250000
Si Si4 0.708411 0.902902 0.846105
Si Si5 0.365649 0.240713 0.595820
Si Si6 0.500000 0.027276 0.750000
O O1 0.278762 0.691352 0.610943
O O2 0.200205 0.595495 0.473774
O O3 0.097908 0.576858 0.669067
O O4 0.996095 0.687668 0.551005
O O5 0.500000 0.300961 0.250000
O O6 0.653647 0.177839 0.296295
O O7 0.774595 0.298726 0.191307
O O8 0.626680 0.581455 0.198522
O O9 0.562314 0.683605 0.350814
O O10 0.610682 0.974207 0.814077
O O11 0.250000 0.250000 0.500000
#
# Coordination Sequence:
#
# PCOD8149047 Si02
#       6
#     8   8   4   8   8   4
#     4  12  23  45  68  97 139 180 225 283 336 407
#     4  11  21  40  67 102 133 169 235 280 325 396
#     4  10  23  44  60 101 136 166 228 292 321 398
#     4  11  24  42  69  94 134 183 218 276 345 397
#     4  11  21  37  69 100 132 171 224 287 335 384
#     4  12  25  48  64  99 140 182 220 270 349 428
#
# _framework density 20.329567999999998
#
# number of rings (size 3 to 8) (size 9 to 14) (size 15 to 20)
#    0.000    0.800    7.000    2.400    5.600    0.000 
#    1.800    1.000    0.000    0.000    0.000    0.000 
#    0.000    0.000    0.000    0.000    0.000    0.000 
#
# Total GULP energy -247929.358366 kJ/mol
# GULP energy per Si atom -12396.467918 kJ/mol
# Density = 2.028330 g / cm^3
# Si number density = 20.329568 Si / 1000 Ang^3
#
#
#
# Elastic Constant Matrix: (Units=GPa)
#
#
# Indices 1 2 3 4 5 6 
#
# 1 107.6549 20.6873 17.2798 0.0000 9.8039 0.0000
# 2 20.6873 63.6598 14.9341 0.0000 9.0119 0.0000
# 3 17.2798 14.9341 97.4855 0.0000 2.0721 0.0000
# 4 0.0000 0.0000 0.0000 6.9519 0.0000 17.3413
# 5 9.8039 9.0119 2.0721 0.0000 52.4054 0.0000
# 6 0.0000 0.0000 0.0000 17.3413 0.0000 9.2139
#
#
#
# Elastic Compliance Matrix: (Units=1/GPa)
#
#
# Indices 1 2 3 4 5 6 
#
# 1 0.010166 -0.002795 -0.001345 0.000000 -0.001368 0.000000
# 2 -0.002795 0.017455 -0.002128 0.000000 -0.002395 0.000000
# 3 -0.001345 -0.002128 0.010818 0.000000 0.000190 0.000000
# 4 0.000000 0.000000 0.000000 -0.038932 0.000000 0.073273
# 5 -0.001368 -0.002395 0.000190 0.000000 0.019742 0.000000
# 6 0.000000 0.000000 0.000000 0.073273 0.000000 -0.029374
#
#
# Mechanical properties :
#
#
# Convention : Reuss Voigt Hill
#
# Bulk Modulus (GPa) = 38.60233 41.62253 40.11243
# Shear Modulus (GPa) = 452.68518 28.10751 240.39635
#
# Velocity S-wave (km/s) = 14.93843 3.72236 10.88606
# Velocity P-wave (km/s) = 17.79246 6.24443 13.33350
#
# Compressibility (1/GPa) = 0.02590517
#
# Stress axis : x y z
#
# Youngs Moduli (GPa) = 98.36313 57.29088 92.43656
#
# Poissons Ratio (x) = 0.16010 0.12431
# Poissons Ratio (y) = 0.27488 0.19668
# Poissons Ratio (z) = 0.13228 0.12190
#
# Static dielectric constant tensor:
#      x y z
#    x 4.008110 0.000000 -0.057290 
#    y 0.000000 3.429020 0.000000 
#    z -0.057290 0.000000 3.892970 
# 
# 
# High freq. dielectric constant tensor:
#      x y z
#    x 1.813430 0.000000 -0.005040 
#    y 0.000000 1.760370 0.000000 
#    z -0.005040 0.000000 1.809000 
# 
# From -- ./inp_files/76731.got.cif
#   From: 2010.06.25/outbox.cif.g09.slc.cpg/sg15_39_cif.got.tgz:76731.got - 2010.06.28 07:06:18.
