data_PCOD8149684
_publ_section_title
;
Structure prediction by ZEFSAII (Michael W. Deem and Ramdas Pophale) SiO2 
 PCOD8149684
Probable space group: C 2/C
;
_chemical_formula_sum "Si O2"
_cell_formula_units_Z 48
_cell_length_a 6.696559
_cell_length_b 12.947097
_cell_length_c 25.860157
_cell_angle_alpha 90.000000
_cell_angle_beta 117.990845
_cell_angle_gamma 90.000000
_cell_volume 1979.826238
_symmetry_space_group_name_H-M "C 2/C"
_symmetry_group_IT_number 15
_symmetry_cell_setting 'monoclinic'
loop_
_space_group_symop_operation_xyz
x,y,z
-x,y,1/2-z
-x,-y,-z
x,-y,1/2+z
1/2+x,1/2+y,z
1/2-x,1/2+y,1/2-z
1/2-x,1/2-y,-z
1/2+x,1/2-y,1/2+z
loop_
_atom_site_type_symbol
_atom_site_label
_atom_site_fract_x
_atom_site_fract_y
_atom_site_fract_z
Si Si1 0.250052 0.280514 0.801464
Si Si2 0.404197 0.243839 0.929690
Si Si3 0.188860 0.108999 0.530262
Si Si4 0.805014 0.560019 0.764955
Si Si5 0.687131 0.546944 0.948047
Si Si6 0.591235 0.535747 0.329064
O O1 0.240967 0.278114 0.863157
O O2 0.347981 0.172956 0.792565
O O3 0.436795 0.362868 0.805158
O O4 0.000000 0.306852 0.750000
O O5 0.627968 0.193060 0.930961
O O6 0.290447 0.160310 0.953749
O O7 0.479616 0.341618 0.972448
O O8 0.077567 0.060234 0.567891
O O9 0.306806 0.020108 0.508465
O O10 0.570835 0.562512 0.703695
O O11 0.787883 0.473278 0.809141
O O12 0.000000 0.523496 0.750000
O O13 0.701483 0.477793 0.898311
#
# Coordination Sequence:
#
# PCOD8149684 Si02
#       6
#     8   8   8   8   8   8
#     4  12  24  47  75 104 144 194 240 299 366 434
#     4  11  22  44  68 101 140 182 241 289 350 422
#     4  10  24  40  68 102 139 190 232 288 350 421
#     4  11  25  46  70 101 141 184 242 300 361 428
#     4  11  21  42  67 101 146 183 234 290 355 420
#     4  11  24  45  68 103 144 188 241 293 366 437
#
# _framework density 24.244553
#
# number of rings (size 3 to 8) (size 9 to 14) (size 15 to 20)
#    0.000    1.000    5.000    1.500    4.667    0.000 
#    0.000    0.000    3.667    0.000    0.000    0.000 
#    0.000    0.000    0.000    0.000    0.000    0.000 
#
# Total GULP energy -297544.202750 kJ/mol
# GULP energy per Si atom -12397.675115 kJ/mol
# Density = 2.418937 g / cm^3
# Si number density = 24.244553 Si / 1000 Ang^3
#
#
#
# Elastic Constant Matrix: (Units=GPa)
#
#
# Indices 1 2 3 4 5 6 
#
# 1 121.9554 38.2124 32.0885 0.0000 -28.6622 0.0000
# 2 38.2124 116.0610 19.4192 0.0000 -8.8199 0.0000
# 3 32.0885 19.4192 100.2883 0.0000 -7.9110 0.0000
# 4 0.0000 0.0000 0.0000 29.7261 0.0000 1.7734
# 5 -28.6622 -8.8199 -7.9110 0.0000 31.2700 0.0000
# 6 0.0000 0.0000 0.0000 1.7734 0.0000 37.6668
#
#
#
# Elastic Compliance Matrix: (Units=1/GPa)
#
#
# Indices 1 2 3 4 5 6 
#
# 1 0.011991 -0.002796 -0.002541 0.000000 0.009560 0.000000
# 2 -0.002796 0.009696 -0.000989 0.000000 -0.000078 0.000000
# 3 -0.002541 -0.000989 0.010989 0.000000 0.000172 0.000000
# 4 0.000000 0.000000 0.000000 0.033735 0.000000 -0.001588
# 5 0.009560 -0.000078 0.000172 0.000000 0.040763 0.000000
# 6 0.000000 0.000000 0.000000 -0.001588 0.000000 0.026623
#
#
# Mechanical properties :
#
#
# Convention : Reuss Voigt Hill
#
# Bulk Modulus (GPa) = 49.94037 57.52718 53.73378
# Shear Modulus (GPa) = 32.65272 36.30490 34.47881
#
# Velocity S-wave (km/s) = 3.67387 3.87388 3.77520
# Velocity P-wave (km/s) = 6.21609 6.61730 6.41983
#
# Compressibility (1/GPa) = 0.02002388
#
# Stress axis : x y z
#
# Youngs Moduli (GPa) = 83.39411 103.13136 90.99668
#
# Poissons Ratio (x) = 0.28840 0.23124
# Poissons Ratio (y) = 0.23320 0.08999
# Poissons Ratio (z) = 0.21192 0.10200
#
# Static dielectric constant tensor:
#      x y z
#    x 4.387630 0.000000 -0.164340 
#    y 0.000000 4.389320 0.000000 
#    z -0.164340 0.000000 4.213420 
# 
# 
# High freq. dielectric constant tensor:
#      x y z
#    x 1.961420 0.000000 -0.012550 
#    y 0.000000 1.968690 0.000000 
#    z -0.012550 0.000000 1.951730 
# 
# From -- ./inp_files/305495.got.cif
#   From: 2010.06.25/outbox.cif.g09.slc.cpg/sg15_153_cif.got.tgz:305495.got - 2010.06.28 07:06:18.
