data_PCOD8149805
_publ_section_title
;
Structure prediction by ZEFSAII (Michael W. Deem and Ramdas Pophale) SiO2 
 PCOD8149805
Probable space group: C 2/C
;
_chemical_formula_sum "Si O2"
_cell_formula_units_Z 40
_cell_length_a 20.032998
_cell_length_b 12.117104
_cell_length_c 16.997479
_cell_angle_alpha 90.000000
_cell_angle_beta 148.983462
_cell_angle_gamma 90.000000
_cell_volume 2126.068199
_symmetry_space_group_name_H-M "C 2/C"
_symmetry_group_IT_number 15
_symmetry_cell_setting 'monoclinic'
loop_
_space_group_symop_operation_xyz
x,y,z
-x,y,1/2-z
-x,-y,-z
x,-y,1/2+z
1/2+x,1/2+y,z
1/2-x,1/2+y,1/2-z
1/2-x,1/2-y,-z
1/2+x,1/2-y,1/2+z
loop_
_atom_site_type_symbol
_atom_site_label
_atom_site_fract_x
_atom_site_fract_y
_atom_site_fract_z
Si Si1 0.001853 0.073636 0.124115
Si Si2 0.151503 0.409577 0.896257
Si Si3 0.794594 0.874689 0.538420
Si Si4 0.750833 0.757376 0.128631
Si Si5 0.493926 0.338168 0.042506
O O1 0.873007 0.115421 0.036726
O O2 0.123049 0.091447 0.302850
O O3 0.025764 0.141567 0.069267
O O4 0.984757 0.945883 0.087137
O O5 0.210810 0.353485 0.878735
O O6 0.000000 0.382390 0.750000
O O7 0.173065 0.541281 0.912900
O O8 0.228881 0.360136 0.048404
O O9 0.750000 0.750000 0.500000
O O10 0.866334 0.783243 0.305249
O O11 0.620141 0.742847 0.046125
#
# Coordination Sequence:
#
# PCOD8149805 Si02
#       5
#     8   8   8   8   8
#     4  10  24  42  64  83 125 174 210 238 312 382
#     4  11  22  37  61  97 125 159 201 258 318 363
#     4  11  24  42  61  87 124 171 211 247 295 388
#     4  11  22  38  66  93 130 154 204 267 314 364
#     4  11  22  42  64  95 125 163 205 265 313 370
#
# _framework density 18.814071999999999
#
# number of rings (size 3 to 8) (size 9 to 14) (size 15 to 20)
#    0.000    1.200    6.000    0.000    5.600    0.000 
#    0.000    0.000    0.000    7.200    0.000    0.000 
#    0.000    0.000    0.000    0.000    0.000    0.000 
#
# Total GULP energy -248061.973757 kJ/mol
# GULP energy per Si atom -12403.098688 kJ/mol
# Density = 1.877125 g / cm^3
# Si number density = 18.814072 Si / 1000 Ang^3
#
#
#
# Elastic Constant Matrix: (Units=GPa)
#
#
# Indices 1 2 3 4 5 6 
#
# 1 81.7321 31.5022 33.1829 0.0000 -5.1142 0.0000
# 2 31.5022 104.9912 11.6884 0.0000 -0.2949 0.0000
# 3 33.1829 11.6884 61.6767 0.0000 17.7788 0.0000
# 4 0.0000 0.0000 0.0000 24.0269 0.0000 12.1644
# 5 -5.1142 -0.2949 17.7788 0.0000 26.2755 0.0000
# 6 0.0000 0.0000 0.0000 12.1644 0.0000 16.7733
#
#
#
# Elastic Compliance Matrix: (Units=1/GPa)
#
#
# Indices 1 2 3 4 5 6 
#
# 1 0.020551 -0.004561 -0.014076 0.000000 0.013473 0.000000
# 2 -0.004561 0.010803 0.000780 0.000000 -0.001294 0.000000
# 3 -0.014076 0.000780 0.030345 0.000000 -0.023263 0.000000
# 4 0.000000 0.000000 0.000000 0.065768 0.000000 -0.047697
# 5 0.013473 -0.001294 -0.023263 0.000000 0.056407 0.000000
# 6 0.000000 0.000000 0.000000 -0.047697 0.000000 0.094209
#
#
# Mechanical properties :
#
#
# Convention : Reuss Voigt Hill
#
# Bulk Modulus (GPa) = 38.48596 44.57187 41.52892
# Shear Modulus (GPa) = 15.50586 24.88358 20.19472
#
# Velocity S-wave (km/s) = 2.87394 3.64071 3.27981
# Velocity P-wave (km/s) = 5.61365 6.43546 6.03855
#
# Compressibility (1/GPa) = 0.02598350
#
# Stress axis : x y z
#
# Youngs Moduli (GPa) = 48.65931 92.56891 32.95474
#
# Poissons Ratio (x) = 0.42224 0.46387
# Poissons Ratio (y) = 0.22195 -0.02570
# Poissons Ratio (z) = 0.68493 -0.07220
#
# Static dielectric constant tensor:
#      x y z
#    x 3.446530 0.000000 0.037460 
#    y 0.000000 3.412580 0.000000 
#    z 0.037460 0.000000 3.502990 
# 
# 
# High freq. dielectric constant tensor:
#      x y z
#    x 1.735840 0.000000 0.003800 
#    y 0.000000 1.728850 0.000000 
#    z 0.003800 0.000000 1.735290 
# 
# From -- ./inp_files/55512.got.cif
#   From: 2010.06.25/outbox.cif.g09.slc.cpg/sg15_28_cif.got.tgz:55512.got - 2010.06.28 07:06:18.
