data_PCOD8149646
_publ_section_title
;
Structure prediction by ZEFSAII (Michael W. Deem and Ramdas Pophale) SiO2 
 PCOD8149646
Probable space group: C 2/C
;
_chemical_formula_sum "Si O2"
_cell_formula_units_Z 48
_cell_length_a 14.873238
_cell_length_b 9.813358
_cell_length_c 24.746066
_cell_angle_alpha 90.000000
_cell_angle_beta 42.799347
_cell_angle_gamma 90.000000
_cell_volume 2454.007787
_symmetry_space_group_name_H-M "C 2/C"
_symmetry_group_IT_number 15
_symmetry_cell_setting 'monoclinic'
loop_
_space_group_symop_operation_xyz
x,y,z
-x,y,1/2-z
-x,-y,-z
x,-y,1/2+z
1/2+x,1/2+y,z
1/2-x,1/2+y,1/2-z
1/2-x,1/2-y,-z
1/2+x,1/2-y,1/2+z
loop_
_atom_site_type_symbol
_atom_site_label
_atom_site_fract_x
_atom_site_fract_y
_atom_site_fract_z
Si Si1 0.572959 0.709811 0.343838
Si Si2 0.112248 0.913159 0.659454
Si Si3 0.264923 0.592777 0.978519
Si Si4 0.991927 0.477487 0.068201
Si Si5 0.199988 0.705428 0.338016
Si Si6 0.984283 0.039523 0.567455
O O1 0.449053 0.686799 0.358552
O O2 0.702648 0.751411 0.252800
O O3 0.604524 0.570106 0.361450
O O4 0.537624 0.821357 0.404535
O O5 0.221612 0.820232 0.640733
O O6 0.000000 0.965009 0.750000
O O7 0.173512 0.053024 0.607571
O O8 0.365447 0.534037 0.977938
O O9 0.250000 0.750000 0.000000
O O10 0.123260 0.520361 0.042737
O O11 0.872301 0.565174 0.145724
O O12 0.000000 0.500000 0.000000
O O13 0.085199 0.815311 0.396543
O O14 0.000000 0.000000 0.500000
#
# Coordination Sequence:
#
# PCOD8149646 Si02
#       6
#     8   8   8   8   8   8
#     4  10  24  40  63  91 121 164 209 256 305 363
#     4   9  21  40  65  88 120 164 210 256 309 365
#     4  11  23  40  60  92 124 158 208 253 306 365
#     4  12  23  40  66  91 123 168 208 253 308 372
#     4  11  21  42  64  89 124 163 205 251 315 371
#     4  11  24  39  62  90 125 157 203 259 303 360
#
# _framework density 19.559840999999999
#
# number of rings (size 3 to 8) (size 9 to 14) (size 15 to 20)
#    0.000    1.333    3.333    2.000    2.333    1.333 
#    0.000    0.000    0.000    0.000    0.000    0.000 
#    0.000    0.000    0.000    0.000    0.000    0.000 
#
# Total GULP energy -297506.665706 kJ/mol
# GULP energy per Si atom -12396.111071 kJ/mol
# Density = 1.951532 g / cm^3
# Si number density = 19.559841 Si / 1000 Ang^3
#
#
#
# Elastic Constant Matrix: (Units=GPa)
#
#
# Indices 1 2 3 4 5 6 
#
# 1 112.6299 33.9868 53.6859 0.0000 0.2566 0.0000
# 2 33.9868 106.6246 38.7124 0.0000 6.2810 0.0000
# 3 53.6859 38.7124 87.3246 0.0000 1.0067 0.0000
# 4 0.0000 0.0000 0.0000 40.7737 0.0000 4.9021
# 5 0.2566 6.2810 1.0067 0.0000 35.4816 0.0000
# 6 0.0000 0.0000 0.0000 4.9021 0.0000 26.4006
#
#
#
# Elastic Compliance Matrix: (Units=1/GPa)
#
#
# Indices 1 2 3 4 5 6 
#
# 1 0.012749 -0.001476 -0.007188 0.000000 0.000373 0.000000
# 2 -0.001476 0.011470 -0.004155 0.000000 -0.001902 0.000000
# 3 -0.007188 -0.004155 0.017710 0.000000 0.000285 0.000000
# 4 0.000000 0.000000 0.000000 0.025086 0.000000 -0.004658
# 5 0.000373 -0.001902 0.000285 0.000000 0.028510 0.000000
# 6 0.000000 0.000000 0.000000 -0.004658 0.000000 0.038743
#
#
# Mechanical properties :
#
#
# Convention : Reuss Voigt Hill
#
# Bulk Modulus (GPa) = 61.38832 62.14991 61.76912
# Shear Modulus (GPa) = 30.24144 32.54413 31.39279
#
# Velocity S-wave (km/s) = 3.93631 4.08342 4.01054
# Velocity P-wave (km/s) = 7.21889 7.35362 7.28657
#
# Compressibility (1/GPa) = 0.01628974
#
# Stress axis : x y z
#
# Youngs Moduli (GPa) = 78.43461 87.18432 56.46669
#
# Poissons Ratio (x) = 0.12869 0.40589
# Poissons Ratio (y) = 0.11578 0.23464
# Poissons Ratio (z) = 0.56380 0.36229
#
# Static dielectric constant tensor:
#      x y z
#    x 3.742810 0.000000 0.209220 
#    y 0.000000 3.569430 0.000000 
#    z 0.209220 0.000000 2.412800 
# 
# 
# High freq. dielectric constant tensor:
#      x y z
#    x 1.773780 0.000000 -0.008200 
#    y 0.000000 1.757380 0.000000 
#    z -0.008200 0.000000 1.766460 
# 
# From -- ./inp_files/295374.got.cif
#   From: 2010.06.25/outbox.cif.g09.slc.cpg/sg15_148_cif.got.tgz:295374.got - 2010.06.28 07:06:18.
