data_PCOD8149821
_publ_section_title
;
Structure prediction by ZEFSAII (Michael W. Deem and Ramdas Pophale) SiO2 
 PCOD8149821
Probable space group: C 2/C
;
_chemical_formula_sum "Si O2"
_cell_formula_units_Z 60
_cell_length_a 27.111525
_cell_length_b 22.880781
_cell_length_c 8.589633
_cell_angle_alpha 90.000000
_cell_angle_beta 29.008824
_cell_angle_gamma 90.000000
_cell_volume 2583.992629
_symmetry_space_group_name_H-M "C 2/C"
_symmetry_group_IT_number 15
_symmetry_cell_setting 'monoclinic'
loop_
_space_group_symop_operation_xyz
x,y,z
-x,y,1/2-z
-x,-y,-z
x,-y,1/2+z
1/2+x,1/2+y,z
1/2-x,1/2+y,1/2-z
1/2-x,1/2-y,-z
1/2+x,1/2-y,1/2+z
loop_
_atom_site_type_symbol
_atom_site_label
_atom_site_fract_x
_atom_site_fract_y
_atom_site_fract_z
Si Si1 0.222854 0.001266 0.675051
Si Si2 0.925960 0.645164 0.726929
Si Si3 0.000000 0.429785 0.750000
Si Si4 0.036541 0.164669 0.316402
Si Si5 0.935126 0.262420 0.768589
Si Si6 0.866375 0.464975 0.521648
Si Si7 0.718686 0.248283 0.269450
Si Si8 0.585434 0.546398 0.305953
O O1 0.303792 0.958587 0.532965
O O2 0.130730 0.965094 0.851983
O O3 0.284355 0.040725 0.384184
O O4 0.177432 0.044501 0.928730
O O5 0.927511 0.612223 0.553335
O O6 0.027263 0.684828 0.447358
O O7 0.935780 0.593525 0.829166
O O8 0.828847 0.686587 0.036916
O O9 0.070226 0.474435 0.657178
O O10 0.043164 0.111297 0.417806
O O11 0.000000 0.141107 0.250000
O O12 0.949451 0.203616 0.632071
O O13 0.140214 0.200101 0.016502
O O14 0.000000 0.262583 0.750000
O O15 0.813450 0.265008 0.121729
O O16 0.750000 0.250000 0.000000
O O17 0.500000 0.500000 0.500000
#
# Coordination Sequence:
#
# PCOD8149821 Si02
#       8
#     8   8   4   8   8   8   8   8
#     4  10  24  42  65 105 139 193 244 288 366 448
#     4  11  26  45  75 104 154 191 247 306 378 439
#     4  12  24  50  68 112 150 192 240 308 372 456
#     4  11  24  45  73 106 141 191 254 307 367 443
#     4  11  26  48  72 107 145 192 250 308 372 439
#     4  11  24  44  70 103 149 187 244 297 371 443
#     4  11  26  48  75 106 145 194 253 311 374 437
#     4  11  24  43  69 100 149 189 243 303 368 429
#
# _framework density 23.219881000000001
#
# number of rings (size 3 to 8) (size 9 to 14) (size 15 to 20)
#    0.000    1.067    3.333    1.600    1.867   10.667 
#    0.000    0.000    0.000    0.000    0.000    0.000 
#    0.000    0.000    0.000    0.000    0.000    0.000 
#
# Total GULP energy -371758.636154 kJ/mol
# GULP energy per Si atom -12391.954538 kJ/mol
# Density = 2.316703 g / cm^3
# Si number density = 23.219881 Si / 1000 Ang^3
#
#
#
# Elastic Constant Matrix: (Units=GPa)
#
#
# Indices 1 2 3 4 5 6 
#
# 1 113.4594 21.5521 27.1423 0.0000 -19.9602 0.0000
# 2 21.5521 150.7615 45.8330 0.0000 0.4280 0.0000
# 3 27.1423 45.8330 100.1283 0.0000 -9.1842 0.0000
# 4 0.0000 0.0000 0.0000 17.8205 0.0000 9.2244
# 5 -19.9602 0.4280 -9.1842 0.0000 40.7580 0.0000
# 6 0.0000 0.0000 0.0000 9.2244 0.0000 25.3495
#
#
#
# Elastic Compliance Matrix: (Units=1/GPa)
#
#
# Indices 1 2 3 4 5 6 
#
# 1 0.010257 -0.000885 -0.001954 0.000000 0.004592 0.000000
# 2 -0.000885 0.007814 -0.003455 0.000000 -0.001294 0.000000
# 3 -0.001954 -0.003455 0.012268 0.000000 0.001844 0.000000
# 4 0.000000 0.000000 0.000000 0.069138 0.000000 -0.025158
# 5 0.004592 -0.001294 0.001844 0.000000 0.027213 0.000000
# 6 0.000000 0.000000 0.000000 -0.025158 0.000000 0.048603
#
#
# Mechanical properties :
#
#
# Convention : Reuss Voigt Hill
#
# Bulk Modulus (GPa) = 56.34076 61.48935 58.91506
# Shear Modulus (GPa) = 25.80002 34.77372 30.28687
#
# Velocity S-wave (km/s) = 3.33696 3.87406 3.61550
# Velocity P-wave (km/s) = 6.25810 6.82275 6.54651
#
# Compressibility (1/GPa) = 0.01774914
#
# Stress axis : x y z
#
# Youngs Moduli (GPa) = 97.49224 127.98026 81.51509
#
# Poissons Ratio (x) = 0.11330 0.15928
# Poissons Ratio (y) = 0.08631 0.28167
# Poissons Ratio (z) = 0.19050 0.44222
#
# Static dielectric constant tensor:
#      x y z
#    x 4.321040 0.000000 0.175760 
#    y 0.000000 4.264200 0.000000 
#    z 0.175760 0.000000 4.514620 
# 
# 
# High freq. dielectric constant tensor:
#      x y z
#    x 1.913160 0.000000 0.006240 
#    y 0.000000 1.916930 0.000000 
#    z 0.006240 0.000000 1.935200 
# 
# From -- ./inp_files/67727.got.cif
#   From: 2010.06.25/outbox.cif.g09.slc.cpg/sg15_34_cif.got.tgz:67727.got - 2010.06.28 07:06:18.
