data_PCOD8149499
_publ_section_title
;
Structure prediction by ZEFSAII (Michael W. Deem and Ramdas Pophale) SiO2 
 PCOD8149499
Probable space group: C 2/C
;
_chemical_formula_sum "Si O2"
_cell_formula_units_Z 40
_cell_length_a 8.287427
_cell_length_b 28.088799
_cell_length_c 14.829097
_cell_angle_alpha 90.000000
_cell_angle_beta 146.256145
_cell_angle_gamma 90.000000
_cell_volume 1917.506494
_symmetry_space_group_name_H-M "C 2/C"
_symmetry_group_IT_number 15
_symmetry_cell_setting 'monoclinic'
loop_
_space_group_symop_operation_xyz
x,y,z
-x,y,1/2-z
-x,-y,-z
x,-y,1/2+z
1/2+x,1/2+y,z
1/2-x,1/2+y,1/2-z
1/2-x,1/2-y,-z
1/2+x,1/2-y,1/2+z
loop_
_atom_site_type_symbol
_atom_site_label
_atom_site_fract_x
_atom_site_fract_y
_atom_site_fract_z
Si Si1 0.203260 0.624621 0.258479
Si Si2 0.186962 0.277015 0.645918
Si Si3 0.752317 0.805045 0.198567
Si Si4 0.377617 0.111815 0.600223
Si Si5 0.334810 0.951291 0.910064
O O1 0.163067 0.671624 0.181092
O O2 0.535078 0.622594 0.446790
O O3 0.100578 0.579577 0.149914
O O4 0.000000 0.625873 0.250000
O O5 0.500000 0.268225 0.750000
O O6 0.092461 0.233665 0.665895
O O7 0.967815 0.274260 0.462033
O O8 0.575220 0.841980 0.176616
O O9 0.000000 0.829285 0.250000
O O10 0.500000 0.088672 0.750000
O O11 0.432477 0.077532 0.542692
O O12 0.000000 0.964297 0.750000
O O13 0.500000 0.000000 0.000000
#
# Coordination Sequence:
#
# PCOD8149499 Si02
#       5
#     8   8   8   8   8
#     4  11  24  44  68  96 137 176 217 274 330 387
#     4  12  23  44  63  93 139 178 222 275 323 384
#     4  12  26  40  65  96 136 179 226 269 325 388
#     4  11  25  43  66 100 136 172 221 272 326 394
#     4  10  23  47  71  97 132 171 215 276 334 391
#
# _framework density 20.860424999999999
#
# number of rings (size 3 to 8) (size 9 to 14) (size 15 to 20)
#    0.000    0.800    4.000    3.000    5.600    3.200 
#    0.000    4.000    0.000    0.000    0.000    0.000 
#    0.000    0.000    0.000    0.000    0.000    0.000 
#
# Total GULP energy -247980.082289 kJ/mol
# GULP energy per Si atom -12399.004114 kJ/mol
# Density = 2.081295 g / cm^3
# Si number density = 20.860425 Si / 1000 Ang^3
#
#
#
# Elastic Constant Matrix: (Units=GPa)
#
#
# Indices 1 2 3 4 5 6 
#
# 1 89.2003 -1.8987 9.6937 0.0000 1.9873 0.0000
# 2 -1.8987 80.2207 13.1294 0.0000 -2.9268 0.0000
# 3 9.6937 13.1294 90.3604 0.0000 -20.8319 0.0000
# 4 0.0000 0.0000 0.0000 35.3900 0.0000 8.8010
# 5 1.9873 -2.9268 -20.8319 0.0000 34.9049 0.0000
# 6 0.0000 0.0000 0.0000 8.8010 0.0000 17.2488
#
#
#
# Elastic Compliance Matrix: (Units=1/GPa)
#
#
# Indices 1 2 3 4 5 6 
#
# 1 0.011438 0.000485 -0.001668 0.000000 -0.001606 0.000000
# 2 0.000485 0.012790 -0.001936 0.000000 -0.000111 0.000000
# 3 -0.001668 -0.001936 0.013348 0.000000 0.007899 0.000000
# 4 0.000000 0.000000 0.000000 0.032363 0.000000 -0.016513
# 5 -0.001606 -0.000111 0.007899 0.000000 0.033446 0.000000
# 6 0.000000 0.000000 0.000000 -0.016513 0.000000 0.066401
#
#
# Mechanical properties :
#
#
# Convention : Reuss Voigt Hill
#
# Bulk Modulus (GPa) = 31.90926 33.51446 32.71186
# Shear Modulus (GPa) = 26.81412 33.43254 30.12333
#
# Velocity S-wave (km/s) = 3.58915 4.00769 3.80418
# Velocity P-wave (km/s) = 5.70138 6.12506 5.91701
#
# Compressibility (1/GPa) = 0.03133886
#
# Stress axis : x y z
#
# Youngs Moduli (GPa) = 87.42735 78.18668 74.91723
#
# Poissons Ratio (x) = -0.03793 0.12494
# Poissons Ratio (y) = -0.04241 0.14503
# Poissons Ratio (z) = 0.14581 0.15136
#
# Static dielectric constant tensor:
#      x y z
#    x 7.909870 0.000000 0.175320 
#    y 0.000000 3.770000 0.000000 
#    z 0.175320 0.000000 4.260110 
# 
# 
# High freq. dielectric constant tensor:
#      x y z
#    x 1.828800 0.000000 -0.005800 
#    y 0.000000 1.803780 0.000000 
#    z -0.005800 0.000000 1.838740 
# 
# From -- ./inp_files/25342.got.cif
#   From: 2010.06.25/outbox.cif.g09.slc.cpg/sg15_13_cif.got.tgz:25342.got - 2010.06.28 07:06:18.
