data_PCOD8149379
_publ_section_title
;
Structure prediction by ZEFSAII (Michael W. Deem and Ramdas Pophale) SiO2 
 PCOD8149379
Probable space group: C 2/C
;
_chemical_formula_sum "Si O2"
_cell_formula_units_Z 56
_cell_length_a 26.797800
_cell_length_b 9.235748
_cell_length_c 18.172625
_cell_angle_alpha 90.000000
_cell_angle_beta 145.321398
_cell_angle_gamma 90.000000
_cell_volume 2559.057901
_symmetry_space_group_name_H-M "C 2/C"
_symmetry_group_IT_number 15
_symmetry_cell_setting 'monoclinic'
loop_
_space_group_symop_operation_xyz
x,y,z
-x,y,1/2-z
-x,-y,-z
x,-y,1/2+z
1/2+x,1/2+y,z
1/2-x,1/2+y,1/2-z
1/2-x,1/2-y,-z
1/2+x,1/2-y,1/2+z
loop_
_atom_site_type_symbol
_atom_site_label
_atom_site_fract_x
_atom_site_fract_y
_atom_site_fract_z
Si Si1 0.490252 0.308089 0.822858
Si Si2 0.687138 0.120107 0.731672
Si Si3 0.125655 0.985195 0.067417
Si Si4 0.165277 0.925084 0.772338
Si Si5 0.199267 0.379376 0.977088
Si Si6 0.586545 0.793833 0.971044
Si Si7 0.429423 0.996737 0.289232
O O1 0.500000 0.355276 0.750000
O O2 0.405993 0.390465 0.752180
O O3 0.483600 0.135404 0.820508
O O4 0.574822 0.346586 0.974597
O O5 0.707042 0.275630 0.792900
O O6 0.658678 0.138766 0.612976
O O7 0.606157 0.039502 0.672732
O O8 0.773858 0.021928 0.838327
O O9 0.120972 0.988531 0.150580
O O10 0.076977 0.123985 0.974609
O O11 0.238839 0.023085 0.897787
O O12 0.157401 0.479634 0.864153
O O13 0.250000 0.250000 0.000000
O O14 0.119577 0.316005 0.928419
O O15 0.490807 0.862736 0.866658
#
# Coordination Sequence:
#
# PCOD8149379 Si02
#       7
#     8   8   8   8   8   8   8
#     4  11  26  42  71 102 139 184 230 288 352 415
#     4  10  23  45  73 103 135 185 239 287 346 418
#     4  11  24  45  73 103 136 184 234 291 347 411
#     4  10  25  46  68 104 138 181 234 287 344 423
#     4  12  26  44  70 102 144 183 229 291 350 413
#     4  11  24  44  68 104 141 180 235 287 352 417
#     4  11  26  45  69 103 142 185 230 289 355 413
#
# _framework density 21.883051999999999
#
# number of rings (size 3 to 8) (size 9 to 14) (size 15 to 20)
#    0.000    1.143    1.429    3.000   10.000    1.143 
#    2.571    0.000    0.000    0.000    0.000    0.000 
#    0.000    0.000    0.000    0.000    0.000    0.000 
#
# Total GULP energy -347390.823498 kJ/mol
# GULP energy per Si atom -12406.815125 kJ/mol
# Density = 2.183325 g / cm^3
# Si number density = 21.883052 Si / 1000 Ang^3
#
#
#
# Elastic Constant Matrix: (Units=GPa)
#
#
# Indices 1 2 3 4 5 6 
#
# 1 114.9410 45.7524 16.9815 0.0000 -3.0419 0.0000
# 2 45.7524 102.6019 60.0472 0.0000 0.5282 0.0000
# 3 16.9815 60.0472 80.9281 0.0000 1.7678 0.0000
# 4 0.0000 0.0000 0.0000 45.3749 0.0000 4.3236
# 5 -3.0419 0.5282 1.7678 0.0000 28.5731 0.0000
# 6 0.0000 0.0000 0.0000 4.3236 0.0000 29.0528
#
#
#
# Elastic Compliance Matrix: (Units=1/GPa)
#
#
# Indices 1 2 3 4 5 6 
#
# 1 0.010854 -0.006184 0.002286 0.000000 0.001128 0.000000
# 2 -0.006184 0.020756 -0.014100 0.000000 -0.000170 0.000000
# 3 0.002286 -0.014100 0.022358 0.000000 -0.000879 0.000000
# 4 0.000000 0.000000 0.000000 0.022356 0.000000 -0.003327
# 5 0.001128 -0.000170 -0.000879 0.000000 0.035176 0.000000
# 6 0.000000 0.000000 0.000000 -0.003327 0.000000 0.034915
#
#
# Mechanical properties :
#
#
# Convention : Reuss Voigt Hill
#
# Bulk Modulus (GPa) = 55.63765 60.44815 58.04290
# Shear Modulus (GPa) = 26.53927 32.31281 29.42604
#
# Velocity S-wave (km/s) = 3.48627 3.84684 3.67099
# Velocity P-wave (km/s) = 6.45644 6.88579 6.67457
#
# Compressibility (1/GPa) = 0.01797344
#
# Stress axis : x y z
#
# Youngs Moduli (GPa) = 92.13532 48.17787 44.72689
#
# Poissons Ratio (x) = 0.29791 -0.10224
# Poissons Ratio (y) = 0.56972 0.63064
# Poissons Ratio (z) = -0.21062 0.67929
#
# Static dielectric constant tensor:
#      x y z
#    x 4.062740 0.000000 -0.117810 
#    y 0.000000 3.955280 0.000000 
#    z -0.117810 0.000000 3.810420 
# 
# 
# High freq. dielectric constant tensor:
#      x y z
#    x 1.875840 0.000000 -0.004560 
#    y 0.000000 1.861140 0.000000 
#    z -0.004560 0.000000 1.861430 
# 
# From -- ./inp_files/259018.got.cif
#   From: 2010.06.25/outbox.cif.g09.slc.cpg/sg15_130_cif.got.tgz:259018.got - 2010.06.28 07:06:18.
