data_PCOD8149739
_publ_section_title
;
Structure prediction by ZEFSAII (Michael W. Deem and Ramdas Pophale) SiO2 
 PCOD8149739
Probable space group: C 2/C
;
_chemical_formula_sum "Si O2"
_cell_formula_units_Z 60
_cell_length_a 26.759825
_cell_length_b 22.839361
_cell_length_c 8.971160
_cell_angle_alpha 90.000000
_cell_angle_beta 29.925954
_cell_angle_gamma 90.000000
_cell_volume 2735.345835
_symmetry_space_group_name_H-M "C 2/C"
_symmetry_group_IT_number 15
_symmetry_cell_setting 'monoclinic'
loop_
_space_group_symop_operation_xyz
x,y,z
-x,y,1/2-z
-x,-y,-z
x,-y,1/2+z
1/2+x,1/2+y,z
1/2-x,1/2+y,1/2-z
1/2-x,1/2-y,-z
1/2+x,1/2-y,1/2+z
loop_
_atom_site_type_symbol
_atom_site_label
_atom_site_fract_x
_atom_site_fract_y
_atom_site_fract_z
Si Si1 0.223374 0.997208 0.632546
Si Si2 0.930640 0.641115 0.695473
Si Si3 0.000000 0.435685 0.750000
Si Si4 0.049818 0.175170 0.277716
Si Si5 0.943747 0.262881 0.741695
Si Si6 0.859800 0.461968 0.537493
Si Si7 0.723914 0.243892 0.397330
Si Si8 0.588200 0.544090 0.229670
O O1 0.299484 0.041481 0.349787
O O2 0.283044 0.958114 0.596955
O O3 0.173918 0.955993 0.634680
O O4 0.135827 0.031484 0.944652
O O5 0.934362 0.603720 0.531839
O O6 0.028401 0.683642 0.443969
O O7 0.931075 0.595016 0.832302
O O8 0.831744 0.681445 0.972300
O O9 0.076939 0.478016 0.639397
O O10 0.042641 0.107555 0.333872
O O11 0.000000 0.190632 0.250000
O O12 0.989021 0.202601 0.569959
O O13 0.160809 0.201991 0.995145
O O14 0.000000 0.279399 0.750000
O O15 0.826720 0.250343 0.042602
O O16 0.750000 0.250000 0.500000
O O17 0.500000 0.500000 0.500000
#
# Coordination Sequence:
#
# PCOD8149739 Si02
#       8
#     8   8   4   8   8   8   8   8
#     4  10  24  41  65 100 135 183 237 276 348 429
#     4  11  23  41  70 100 142 178 236 294 358 418
#     4  12  22  44  64 100 148 184 220 298 352 438
#     4  11  26  45  68 104 144 176 232 297 361 421
#     4  11  23  45  73 102 131 185 247 291 348 421
#     4  11  24  42  65 101 139 183 230 285 355 421
#     4  11  23  45  72 101 129 184 242 294 347 414
#     4  11  24  45  69  98 143 186 231 290 355 414
#
# _framework density 21.935068000000001
#
# number of rings (size 3 to 8) (size 9 to 14) (size 15 to 20)
#    0.000    1.067    4.667    1.600    1.867    6.933 
#    4.800    0.000    0.000    0.000    0.000    0.000 
#    0.000    0.000    0.000    0.000    0.000    0.000 
#
# Total GULP energy -371865.078718 kJ/mol
# GULP energy per Si atom -12395.502624 kJ/mol
# Density = 2.188514 g / cm^3
# Si number density = 21.935068 Si / 1000 Ang^3
#
#
#
# Elastic Constant Matrix: (Units=GPa)
#
#
# Indices 1 2 3 4 5 6 
#
# 1 77.2090 15.7756 20.8195 0.0000 -1.6406 0.0000
# 2 15.7756 142.4803 72.4169 0.0000 3.4586 0.0000
# 3 20.8195 72.4169 188.6000 0.0000 0.5712 0.0000
# 4 0.0000 0.0000 0.0000 31.6620 0.0000 6.6973
# 5 -1.6406 3.4586 0.5712 0.0000 37.8949 0.0000
# 6 0.0000 0.0000 0.0000 6.6973 0.0000 26.6353
#
#
#
# Elastic Compliance Matrix: (Units=1/GPa)
#
#
# Indices 1 2 3 4 5 6 
#
# 1 0.013462 -0.000933 -0.001130 0.000000 0.000685 0.000000
# 2 -0.000933 0.008806 -0.003276 0.000000 -0.000795 0.000000
# 3 -0.001130 -0.003276 0.006684 0.000000 0.000149 0.000000
# 4 0.000000 0.000000 0.000000 0.033358 0.000000 -0.008388
# 5 0.000685 -0.000795 0.000149 0.000000 0.026489 0.000000
# 6 0.000000 0.000000 0.000000 -0.008388 0.000000 0.039653
#
#
# Mechanical properties :
#
#
# Convention : Reuss Voigt Hill
#
# Bulk Modulus (GPa) = 54.72007 69.59036 62.15521
# Shear Modulus (GPa) = 34.43031 39.19025 36.81028
#
# Velocity S-wave (km/s) = 3.96618 4.23146 4.10096
# Velocity P-wave (km/s) = 6.78046 7.46111 7.12891
#
# Compressibility (1/GPa) = 0.01827483
#
# Stress axis : x y z
#
# Youngs Moduli (GPa) = 74.28488 113.55767 149.60299
#
# Poissons Ratio (x) = 0.10593 0.16904
# Poissons Ratio (y) = 0.06930 0.49008
# Poissons Ratio (z) = 0.08394 0.37200
#
# Static dielectric constant tensor:
#      x y z
#    x 3.601940 0.000000 0.425460 
#    y 0.000000 3.985500 0.000000 
#    z 0.425460 0.000000 3.954150 
# 
# 
# High freq. dielectric constant tensor:
#      x y z
#    x 1.856680 0.000000 0.001250 
#    y 0.000000 1.860510 0.000000 
#    z 0.001250 0.000000 1.879600 
# 
# From -- ./inp_files/67728.got.cif
#   From: 2010.06.25/outbox.cif.g09.slc.cpg/sg15_34_cif.got.tgz:67728.got - 2010.06.28 07:06:18.
