data_PCOD8149825
_publ_section_title
;
Structure prediction by ZEFSAII (Michael W. Deem and Ramdas Pophale) SiO2 
 PCOD8149825
Probable space group: C 2/C
;
_chemical_formula_sum "Si O2"
_cell_formula_units_Z 40
_cell_length_a 8.705575
_cell_length_b 8.697393
_cell_length_c 23.313937
_cell_angle_alpha 90.000000
_cell_angle_beta 92.826735
_cell_angle_gamma 90.000000
_cell_volume 1763.085681
_symmetry_space_group_name_H-M "C 2/C"
_symmetry_group_IT_number 15
_symmetry_cell_setting 'monoclinic'
loop_
_space_group_symop_operation_xyz
x,y,z
-x,y,1/2-z
-x,-y,-z
x,-y,1/2+z
1/2+x,1/2+y,z
1/2-x,1/2+y,1/2-z
1/2-x,1/2-y,-z
1/2+x,1/2-y,1/2+z
loop_
_atom_site_type_symbol
_atom_site_label
_atom_site_fract_x
_atom_site_fract_y
_atom_site_fract_z
Si Si1 0.320247 0.982198 0.676830
Si Si2 0.667808 0.316495 0.770937
Si Si3 0.367293 0.598680 0.927370
Si Si4 0.143480 0.424919 0.623583
Si Si5 0.286373 0.411820 0.029133
O O1 0.337215 0.137078 0.714158
O O2 0.183867 0.998353 0.628406
O O3 0.280341 0.842145 0.718682
O O4 0.476712 0.939001 0.647918
O O5 0.500000 0.376979 0.750000
O O6 0.727514 0.419873 0.824743
O O7 0.334503 0.775914 0.915476
O O8 0.546061 0.573259 0.940744
O O9 0.268162 0.543115 0.980342
O O10 0.169006 0.565793 0.580053
O O11 0.250000 0.250000 0.000000
#
# Coordination Sequence:
#
# PCOD8149825 Si02
#       5
#     8   8   8   8   8
#     4  11  25  43  66  95 127 166 212 263 316 377
#     4  11  24  42  65  92 126 165 209 258 317 378
#     4  10  24  42  65  94 129 171 211 258 317 378
#     4  11  24  43  65  94 129 166 211 261 316 376
#     4  11  24  42  66  95 129 169 214 262 316 376
#
# _framework density 22.687497
#
# number of rings (size 3 to 8) (size 9 to 14) (size 15 to 20)
#    0.000    1.200    0.000    4.800    0.000   19.200 
#    0.000    0.000    0.000    0.000    0.000    0.000 
#    0.000    0.000    0.000    0.000    0.000    0.000 
#
# Total GULP energy -248046.501832 kJ/mol
# GULP energy per Si atom -12402.325092 kJ/mol
# Density = 2.263586 g / cm^3
# Si number density = 22.687497 Si / 1000 Ang^3
#
#
#
# Elastic Constant Matrix: (Units=GPa)
#
#
# Indices 1 2 3 4 5 6 
#
# 1 129.1232 59.1802 87.0506 0.0000 -14.4045 0.0000
# 2 59.1802 85.0574 75.8393 0.0000 2.2434 0.0000
# 3 87.0506 75.8393 171.9299 0.0000 -2.2603 0.0000
# 4 0.0000 0.0000 0.0000 48.9729 0.0000 -6.9167
# 5 -14.4045 2.2434 -2.2603 0.0000 47.2748 0.0000
# 6 0.0000 0.0000 0.0000 -6.9167 0.0000 30.7532
#
#
#
# Elastic Compliance Matrix: (Units=1/GPa)
#
#
# Indices 1 2 3 4 5 6 
#
# 1 0.013856 -0.005849 -0.004379 0.000000 0.004290 0.000000
# 2 -0.005849 0.021931 -0.006754 0.000000 -0.003146 0.000000
# 3 -0.004379 -0.006754 0.011006 0.000000 -0.000488 0.000000
# 4 0.000000 0.000000 0.000000 0.021089 0.000000 0.004743
# 5 0.004290 -0.003146 -0.000488 0.000000 0.022586 0.000000
# 6 0.000000 0.000000 0.000000 0.004743 0.000000 0.033584
#
#
# Mechanical properties :
#
#
# Convention : Reuss Voigt Hill
#
# Bulk Modulus (GPa) = 77.94580 92.25007 85.09794
# Shear Modulus (GPa) = 30.80827 36.33620 33.57224
#
# Velocity S-wave (km/s) = 3.68902 4.00634 3.85095
# Velocity P-wave (km/s) = 7.25093 7.88355 7.57385
#
# Compressibility (1/GPa) = 0.01282943
#
# Stress axis : x y z
#
# Youngs Moduli (GPa) = 72.16956 45.59659 90.85793
#
# Poissons Ratio (x) = 0.26672 0.39787
# Poissons Ratio (y) = 0.42215 0.61363
# Poissons Ratio (z) = 0.31603 0.30795
#
# Static dielectric constant tensor:
#      x y z
#    x 3.987450 0.000000 0.158490 
#    y 0.000000 4.007620 0.000000 
#    z 0.158490 0.000000 4.594000 
# 
# 
# High freq. dielectric constant tensor:
#      x y z
#    x 1.893230 0.000000 0.007450 
#    y 0.000000 1.886280 0.000000 
#    z 0.007450 0.000000 1.926170 
# 
# From -- ./inp_files/262524.got.cif
#   From: 2010.06.25/outbox.cif.g09.slc.cpg/sg15_132_cif.got.tgz:262524.got - 2010.06.28 07:06:18.
