data_PCOD8149874
_publ_section_title
;
Structure prediction by ZEFSAII (Michael W. Deem and Ramdas Pophale) SiO2 
 PCOD8149874
Probable space group: C 2/C
;
_chemical_formula_sum "Si O2"
_cell_formula_units_Z 60
_cell_length_a 8.485644
_cell_length_b 14.958953
_cell_length_c 22.681481
_cell_angle_alpha 90.000000
_cell_angle_beta 92.789064
_cell_angle_gamma 90.000000
_cell_volume 2875.693942
_symmetry_space_group_name_H-M "C 2/C"
_symmetry_group_IT_number 15
_symmetry_cell_setting 'monoclinic'
loop_
_space_group_symop_operation_xyz
x,y,z
-x,y,1/2-z
-x,-y,-z
x,-y,1/2+z
1/2+x,1/2+y,z
1/2-x,1/2+y,1/2-z
1/2-x,1/2-y,-z
1/2+x,1/2-y,1/2+z
loop_
_atom_site_type_symbol
_atom_site_label
_atom_site_fract_x
_atom_site_fract_y
_atom_site_fract_z
Si Si1 0.549556 0.238868 0.947964
Si Si2 0.915037 0.202382 0.333387
Si Si3 0.551271 0.597858 0.983311
Si Si4 0.500000 0.092240 0.250000
Si Si5 0.680741 0.352005 0.113010
Si Si6 0.807258 0.544309 0.140609
Si Si7 0.410729 0.911840 0.519185
Si Si8 0.745856 0.274082 0.785211
O O1 0.427091 0.232294 0.890303
O O2 0.725550 0.214848 0.929236
O O3 0.535276 0.340022 0.970107
O O4 0.507492 0.173619 0.000340
O O5 0.844230 0.104966 0.347101
O O6 0.807178 0.252646 0.282443
O O7 0.093347 0.184627 0.314616
O O8 0.492666 0.629788 0.917215
O O9 0.500000 0.500000 0.000000
O O10 0.739034 0.599952 0.987245
O O11 0.412341 0.030685 0.200817
O O12 0.620201 0.151711 0.214659
O O13 0.765213 0.447311 0.116163
O O14 0.678639 0.310442 0.178742
O O15 0.903790 0.592217 0.089902
O O16 0.500000 0.000000 0.500000
#
# Coordination Sequence:
#
# PCOD8149874 Si02
#       8
#     8   8   8   4   8   8   8   8
#     4  11  22  39  65  93 129 171 212 261 328 384
#     4   9  19  40  65  89 124 170 213 265 325 389
#     4  12  23  40  62  92 130 172 211 267 318 387
#     4  10  24  42  68  90 120 168 214 272 318 382
#     4  11  23  41  62  95 130 168 212 270 318 398
#     4  11  22  43  62  90 134 164 218 266 320 383
#     4  12  24  42  62  96 132 170 215 264 321 390
#     4   9  21  40  65  91 122 164 220 264 328 384
#
# _framework density 20.864529000000001
#
# number of rings (size 3 to 8) (size 9 to 14) (size 15 to 20)
#    0.000    1.333    4.000    0.800    1.867    3.200 
#    4.800    2.667    0.000    0.000    0.000    0.000 
#    0.000    0.000    0.000    0.000    0.000    0.000 
#
# Total GULP energy -371897.987265 kJ/mol
# GULP energy per Si atom -12396.599576 kJ/mol
# Density = 2.081704 g / cm^3
# Si number density = 20.864529 Si / 1000 Ang^3
#
#
#
# Elastic Constant Matrix: (Units=GPa)
#
#
# Indices 1 2 3 4 5 6 
#
# 1 76.6580 24.2287 36.2731 0.0000 14.7732 0.0000
# 2 24.2287 94.3371 43.8088 0.0000 -2.5159 0.0000
# 3 36.2731 43.8088 121.7795 0.0000 7.7207 0.0000
# 4 0.0000 0.0000 0.0000 38.3174 0.0000 -3.4722
# 5 14.7732 -2.5159 7.7207 0.0000 32.7881 0.0000
# 6 0.0000 0.0000 0.0000 -3.4722 0.0000 25.4254
#
#
#
# Elastic Compliance Matrix: (Units=1/GPa)
#
#
# Indices 1 2 3 4 5 6 
#
# 1 0.017011 -0.002895 -0.003579 0.000000 -0.007044 0.000000
# 2 -0.002895 0.013361 -0.004154 0.000000 0.003308 0.000000
# 3 -0.003579 -0.004154 0.010852 0.000000 -0.001262 0.000000
# 4 0.000000 0.000000 0.000000 0.026425 0.000000 0.003609
# 5 -0.007044 0.003308 -0.001262 0.000000 0.034223 0.000000
# 6 0.000000 0.000000 0.000000 0.003609 0.000000 0.039824
#
#
# Mechanical properties :
#
#
# Convention : Reuss Voigt Hill
#
# Bulk Modulus (GPa) = 50.07889 55.71062 52.89476
# Shear Modulus (GPa) = 29.47993 31.87044 30.67518
#
# Velocity S-wave (km/s) = 3.76296 3.91256 3.83849
# Velocity P-wave (km/s) = 6.55239 6.86803 6.71207
#
# Compressibility (1/GPa) = 0.01996849
#
# Stress axis : x y z
#
# Youngs Moduli (GPa) = 58.78615 74.84475 92.14996
#
# Poissons Ratio (x) = 0.21666 0.32979
# Poissons Ratio (y) = 0.17017 0.38278
# Poissons Ratio (z) = 0.21039 0.31090
#
# Static dielectric constant tensor:
#      x y z
#    x 3.188420 0.000000 0.572860 
#    y 0.000000 3.611340 0.000000 
#    z 0.572860 0.000000 4.009880 
# 
# 
# High freq. dielectric constant tensor:
#      x y z
#    x 1.813790 0.000000 0.012780 
#    y 0.000000 1.802920 0.000000 
#    z 0.012780 0.000000 1.836580 
# 
# From -- ./inp_files/264352.got.cif
#   From: 2010.06.25/outbox.cif.g09.slc.cpg/sg15_133_cif.got.tgz:264352.got - 2010.06.28 07:06:18.
