data_PCOD8149897
_publ_section_title
;
Structure prediction by ZEFSAII (Michael W. Deem and Ramdas Pophale) SiO2 
 PCOD8149897
Probable space group: C 2/C
;
_chemical_formula_sum "Si O2"
_cell_formula_units_Z 52
_cell_length_a 17.565160
_cell_length_b 5.124837
_cell_length_c 26.164958
_cell_angle_alpha 90.000000
_cell_angle_beta 120.177553
_cell_angle_gamma 90.000000
_cell_volume 2036.118465
_symmetry_space_group_name_H-M "C 2/C"
_symmetry_group_IT_number 15
_symmetry_cell_setting 'monoclinic'
loop_
_space_group_symop_operation_xyz
x,y,z
-x,y,1/2-z
-x,-y,-z
x,-y,1/2+z
1/2+x,1/2+y,z
1/2-x,1/2+y,1/2-z
1/2-x,1/2-y,-z
1/2+x,1/2-y,1/2+z
loop_
_atom_site_type_symbol
_atom_site_label
_atom_site_fract_x
_atom_site_fract_y
_atom_site_fract_z
Si Si1 0.256768 0.112459 0.056413
Si Si2 0.905786 0.896168 0.451015
Si Si3 0.438246 0.177051 0.631991
Si Si4 0.589163 0.881544 0.108608
Si Si5 0.845695 0.063379 0.664932
Si Si6 0.500000 0.106869 0.250000
Si Si7 0.760784 0.643717 0.283788
O O1 0.171617 0.921952 0.032567
O O2 0.347408 0.960678 0.089166
O O3 0.262646 0.305803 0.107674
O O4 0.250000 0.250000 0.000000
O O5 0.875061 0.097500 0.396256
O O6 0.915807 0.594752 0.438653
O O7 0.000000 0.000000 0.500000
O O8 0.491919 0.177089 0.597731
O O9 0.497261 0.058597 0.697285
O O10 0.411984 0.463021 0.643192
O O11 0.647383 0.004484 0.172701
O O12 0.801774 0.843467 0.686738
O O13 0.907101 0.239201 0.722110
O O14 0.721177 0.438163 0.228997
#
# Coordination Sequence:
#
# PCOD8149897 Si02
#       7
#     8   8   8   8   8   4   8
#     4  11  26  48  74 105 146 199 250 311 380 452
#     4  12  27  50  76 105 148 192 252 311 373 445
#     4  11  26  44  74 105 147 191 249 306 376 454
#     4  12  27  48  73 110 146 193 248 307 376 448
#     4  11  25  45  71 109 146 192 249 310 374 458
#     4  10  24  42  70 102 144 184 244 298 370 432
#     4  12  27  45  75 106 149 195 244 305 380 446
#
# _framework density 25.538789999999999
#
# number of rings (size 3 to 8) (size 9 to 14) (size 15 to 20)
#    0.000    0.615    1.538    4.615   15.077    0.615 
#    0.000    0.000    0.000    0.000    0.000    0.000 
#    0.000    0.000    0.000    0.000    0.000    0.000 
#
# Total GULP energy -322255.320564 kJ/mol
# GULP energy per Si atom -12394.435406 kJ/mol
# Density = 2.548066 g / cm^3
# Si number density = 25.538790 Si / 1000 Ang^3
#
#
#
# Elastic Constant Matrix: (Units=GPa)
#
#
# Indices 1 2 3 4 5 6 
#
# 1 131.3444 4.3270 16.7153 0.0000 -12.2691 0.0008
# 2 4.3270 58.3035 -8.3895 -0.0016 -10.2789 0.0033
# 3 16.7153 -8.3895 96.9878 0.0005 22.1393 0.0006
# 4 0.0000 -0.0016 0.0005 27.4162 0.0000 -9.3109
# 5 -12.2691 -10.2789 22.1393 0.0000 39.3507 -0.0002
# 6 0.0008 0.0033 0.0006 -9.3109 -0.0002 36.5219
#
#
#
# Elastic Compliance Matrix: (Units=1/GPa)
#
#
# Indices 1 2 3 4 5 6 
#
# 1 0.008274 -0.000276 -0.002320 0.000000 0.003813 0.000000
# 2 -0.000276 0.018015 0.000632 0.000001 0.004264 -0.000001
# 3 -0.002320 0.000632 0.012498 0.000000 -0.007590 0.000000
# 4 0.000000 0.000001 0.000000 0.039932 0.000000 0.010180
# 5 0.003813 0.004264 -0.007590 0.000000 0.031985 0.000000
# 6 0.000000 -0.000001 0.000000 0.010180 0.000000 0.029976
#
#
# Mechanical properties :
#
#
# Convention : Reuss Voigt Hill
#
# Bulk Modulus (GPa) = 28.68643 34.66013 31.67328
# Shear Modulus (GPa) = 32.00471 38.92328 35.46400
#
# Velocity S-wave (km/s) = 3.54387 3.90819 3.73048
# Velocity P-wave (km/s) = 5.29171 5.82806 5.56635
#
# Compressibility (1/GPa) = 0.03485969
#
# Stress axis : x y z
#
# Youngs Moduli (GPa) = 120.85854 55.50981 80.01513
#
# Poissons Ratio (x) = 0.01530 0.18566
# Poissons Ratio (y) = 0.03332 -0.05061
# Poissons Ratio (z) = 0.28043 -0.03511
#
# Static dielectric constant tensor:
#      x y z
#    x 4.643810 -0.000010 0.161230 
#    y -0.000010 6.103320 0.000110 
#    z 0.161230 0.000110 4.299560 
# 
# 
# High freq. dielectric constant tensor:
#      x y z
#    x 2.033400 0.000000 0.011490 
#    y 0.000000 2.013220 0.000000 
#    z 0.011490 0.000000 2.028270 
# 
# From -- ./inp_files/297831.got.cif
#   From: 2010.06.25/outbox.cif.g09.slc.cpg/sg15_149_cif.got.tgz:297831.got - 2010.06.28 07:06:18.
