data_PCOD8149634
_publ_section_title
;
Structure prediction by ZEFSAII (Michael W. Deem and Ramdas Pophale) SiO2 
 PCOD8149634
Probable space group: C 2/C
;
_chemical_formula_sum "Si O2"
_cell_formula_units_Z 64
_cell_length_a 22.693140
_cell_length_b 27.330660
_cell_length_c 15.811394
_cell_angle_alpha 90.000000
_cell_angle_beta 159.653190
_cell_angle_gamma 90.000000
_cell_volume 3409.744104
_symmetry_space_group_name_H-M "C 2/C"
_symmetry_group_IT_number 15
_symmetry_cell_setting 'monoclinic'
loop_
_space_group_symop_operation_xyz
x,y,z
-x,y,1/2-z
-x,-y,-z
x,-y,1/2+z
1/2+x,1/2+y,z
1/2-x,1/2+y,1/2-z
1/2-x,1/2-y,-z
1/2+x,1/2-y,1/2+z
loop_
_atom_site_type_symbol
_atom_site_label
_atom_site_fract_x
_atom_site_fract_y
_atom_site_fract_z
Si Si1 0.101375 0.366166 0.202633
Si Si2 0.383158 0.048112 0.336047
Si Si3 0.903928 0.823798 0.530105
Si Si4 0.019577 0.079758 0.875459
Si Si5 0.337737 0.962543 0.588070
Si Si6 0.395316 0.639025 0.356099
Si Si7 0.597733 0.211257 0.968385
Si Si8 0.818960 0.423752 0.038198
O O1 0.222827 0.350496 0.290618
O O2 0.222947 0.388605 0.439224
O O3 0.008332 0.316508 0.103280
O O4 0.964583 0.406976 0.994924
O O5 0.379782 0.061678 0.233700
O O6 0.500000 0.000000 0.500000
O O7 0.187050 0.043729 0.105854
O O8 0.881006 0.767155 0.475962
O O9 0.000000 0.829473 0.750000
O O10 0.972621 0.850631 0.540002
O O11 0.000000 0.094858 0.750000
O O12 0.851901 0.054927 0.691381
O O13 0.038580 0.128150 0.959825
O O14 0.500000 0.946737 0.750000
O O15 0.320951 0.020657 0.570058
O O16 0.279805 0.686831 0.203309
O O17 0.305903 0.588059 0.207066
O O18 0.500000 0.206999 0.750000
O O19 0.000000 0.406132 0.250000
#
# Coordination Sequence:
#
# PCOD8149634 Si02
#       8
#     8   8   8   8   8   8   8   8
#     4  12  20  37  58  88 126 165 198 240 296 364
#     4  11  22  39  62  86 121 167 207 245 298 361
#     4  11  24  35  56  98 130 154 195 250 306 365
#     4  10  24  44  61  85 114 164 211 253 301 353
#     4  10  24  40  59  88 119 157 207 259 299 350
#     4  12  21  38  62  86 121 163 200 244 306 365
#     4  11  20  38  62  87 126 163 195 239 304 378
#     4  11  19  35  57  87 123 159 199 233 295 365
#
# _framework density 18.769736000000002
#
# number of rings (size 3 to 8) (size 9 to 14) (size 15 to 20)
#    0.000    1.000    6.250    0.750    3.500    3.500 
#    2.250    0.000    0.000    0.750    0.000    0.000 
#    0.000    0.000    0.000    0.000    0.000    0.000 
#
# Total GULP energy -396445.782308 kJ/mol
# GULP energy per Si atom -12388.930697 kJ/mol
# Density = 1.872702 g / cm^3
# Si number density = 18.769736 Si / 1000 Ang^3
#
#
#
# Elastic Constant Matrix: (Units=GPa)
#
#
# Indices 1 2 3 4 5 6 
#
# 1 116.9576 41.6580 51.7213 0.0000 20.9864 0.0000
# 2 41.6580 74.7482 40.3340 0.0000 2.4013 0.0000
# 3 51.7213 40.3340 103.1690 0.0000 22.0931 0.0000
# 4 0.0000 0.0000 0.0000 15.4442 0.0000 1.8174
# 5 20.9864 2.4013 22.0931 0.0000 38.9114 0.0000
# 6 0.0000 0.0000 0.0000 1.8174 0.0000 28.3810
#
#
#
# Elastic Compliance Matrix: (Units=1/GPa)
#
#
# Indices 1 2 3 4 5 6 
#
# 1 0.012688 -0.005099 -0.003380 0.000000 -0.004609 0.000000
# 2 -0.005099 0.019338 -0.006076 0.000000 0.005007 0.000000
# 3 -0.003380 -0.006076 0.015132 0.000000 -0.006394 0.000000
# 4 0.000000 0.000000 0.000000 0.065241 0.000000 -0.004178
# 5 -0.004609 0.005007 -0.006394 0.000000 0.031507 0.000000
# 6 0.000000 0.000000 0.000000 -0.004178 0.000000 0.035502
#
#
# Mechanical properties :
#
#
# Convention : Reuss Voigt Hill
#
# Bulk Modulus (GPa) = 55.41042 62.47794 58.94418
# Shear Modulus (GPa) = 23.30627 27.29143 25.29885
#
# Velocity S-wave (km/s) = 3.52759 3.81729 3.67529
# Velocity P-wave (km/s) = 6.79537 7.26552 7.03437
#
# Compressibility (1/GPa) = 0.01804715
#
# Stress axis : x y z
#
# Youngs Moduli (GPa) = 78.81281 51.71222 66.08501
#
# Poissons Ratio (x) = 0.26369 0.22339
# Poissons Ratio (y) = 0.40188 0.40153
# Poissons Ratio (z) = 0.26642 0.31420
#
# Static dielectric constant tensor:
#      x y z
#    x 3.426180 0.000000 0.126580 
#    y 0.000000 3.492130 0.000000 
#    z 0.126580 0.000000 3.625420 
# 
# 
# High freq. dielectric constant tensor:
#      x y z
#    x 1.738510 0.000000 0.017580 
#    y 0.000000 1.714560 0.000000 
#    z 0.017580 0.000000 1.723550 
# 
# From -- ./inp_files/148756.got.cif
#   From: 2010.06.25/outbox.cif.g09.slc.cpg/sg15_75_cif.got.tgz:148756.got - 2010.06.28 07:06:18.
