data_PCOD8149394
_publ_section_title
;
Structure prediction by ZEFSAII (Michael W. Deem and Ramdas Pophale) SiO2 
 PCOD8149394
Probable space group: C 2/C
;
_chemical_formula_sum "Si O2"
_cell_formula_units_Z 52
_cell_length_a 13.615534
_cell_length_b 27.453037
_cell_length_c 7.753190
_cell_angle_alpha 90.000000
_cell_angle_beta 137.046742
_cell_angle_gamma 90.000000
_cell_volume 1974.733903
_symmetry_space_group_name_H-M "C 2/C"
_symmetry_group_IT_number 15
_symmetry_cell_setting 'monoclinic'
loop_
_space_group_symop_operation_xyz
x,y,z
-x,y,1/2-z
-x,-y,-z
x,-y,1/2+z
1/2+x,1/2+y,z
1/2-x,1/2+y,1/2-z
1/2-x,1/2-y,-z
1/2+x,1/2-y,1/2+z
loop_
_atom_site_type_symbol
_atom_site_label
_atom_site_fract_x
_atom_site_fract_y
_atom_site_fract_z
Si Si1 0.238384 0.929529 0.274883
Si Si2 0.000000 0.570981 0.750000
Si Si3 0.159615 0.652576 0.802390
Si Si4 0.315350 0.973540 0.742759
Si Si5 0.553435 0.222034 0.127251
Si Si6 0.935325 0.914716 0.986535
Si Si7 0.660678 0.693773 0.184119
O O1 0.290081 0.873719 0.310231
O O2 0.304594 0.947522 0.543048
O O3 0.066200 0.924848 0.024437
O O4 0.290937 0.968268 0.197331
O O5 0.864287 0.607069 0.601049
O O6 0.966794 0.537812 0.537711
O O7 0.012083 0.681382 0.582828
O O8 0.275025 0.689282 0.038636
O O9 0.194727 0.951758 0.717736
O O10 0.500000 0.208490 0.250000
O O11 0.725868 0.219528 0.306751
O O12 0.485258 0.274606 0.994300
O O13 0.000000 0.930668 0.250000
O O14 0.882209 0.859291 0.935076
#
# Coordination Sequence:
#
# PCOD8149394 Si02
#       7
#     8   4   8   8   8   8   8
#     4  11  27  44  75 113 146 208 251 318 379 457
#     4  12  24  48  72 104 152 206 246 324 368 456
#     4  12  26  45  72 107 151 198 257 310 386 450
#     4  11  24  47  72 108 155 195 260 309 380 447
#     4  12  28  47  81 110 153 195 259 315 390 459
#     4  10  23  45  76 104 152 193 255 314 381 450
#     4  12  26  52  74 113 152 198 254 319 384 463
#
# _framework density 26.332661000000002
#
# number of rings (size 3 to 8) (size 9 to 14) (size 15 to 20)
#    0.000    0.615    3.077    2.769    8.615    3.077 
#    0.000    0.000    0.000    0.000    0.000    0.000 
#    0.000    0.000    0.000    0.000    0.000    0.000 
#
# Total GULP energy -322192.321664 kJ/mol
# GULP energy per Si atom -12392.012372 kJ/mol
# Density = 2.627273 g / cm^3
# Si number density = 26.332661 Si / 1000 Ang^3
#
#
#
# Elastic Constant Matrix: (Units=GPa)
#
#
# Indices 1 2 3 4 5 6 
#
# 1 83.7527 27.8156 22.4382 0.0000 14.1859 0.0000
# 2 27.8156 115.5916 9.7245 0.0000 11.9588 0.0000
# 3 22.4382 9.7245 72.4455 0.0000 -9.0092 0.0000
# 4 0.0000 0.0000 0.0000 24.6482 0.0000 -8.0727
# 5 14.1859 11.9588 -9.0092 0.0000 48.6260 0.0000
# 6 0.0000 0.0000 0.0000 -8.0727 0.0000 44.7240
#
#
#
# Elastic Compliance Matrix: (Units=1/GPa)
#
#
# Indices 1 2 3 4 5 6 
#
# 1 0.014906 -0.002708 -0.004822 0.000000 -0.004576 0.000000
# 2 -0.002708 0.009531 -0.000649 0.000000 -0.001674 0.000000
# 3 -0.004822 -0.000649 0.015946 0.000000 0.004521 0.000000
# 4 0.000000 0.000000 0.000000 0.043120 0.000000 0.007783
# 5 -0.004576 -0.001674 0.004521 0.000000 0.023150 0.000000
# 6 0.000000 0.000000 0.000000 0.007783 0.000000 0.023764
#
#
# Mechanical properties :
#
#
# Convention : Reuss Voigt Hill
#
# Bulk Modulus (GPa) = 41.62326 43.52737 42.57532
# Shear Modulus (GPa) = 32.30312 37.72039 35.01176
#
# Velocity S-wave (km/s) = 3.50627 3.78889 3.65032
# Velocity P-wave (km/s) = 5.67741 5.97550 5.82836
#
# Compressibility (1/GPa) = 0.02402503
#
# Stress axis : x y z
#
# Youngs Moduli (GPa) = 67.08554 104.92586 62.70994
#
# Poissons Ratio (x) = 0.28412 0.30242
# Poissons Ratio (y) = 0.18166 0.04069
# Poissons Ratio (z) = 0.32352 0.06808
#
# Static dielectric constant tensor:
#      x y z
#    x 5.207300 0.000000 0.541280 
#    y 0.000000 4.739670 0.000000 
#    z 0.541280 0.000000 4.944240 
# 
# 
# High freq. dielectric constant tensor:
#      x y z
#    x 2.057760 0.000000 0.013320 
#    y 0.000000 2.067610 0.000000 
#    z 0.013320 0.000000 2.060290 
# 
# From -- ./inp_files/44934.got.cif
#   From: 2010.06.25/outbox.cif.g09.slc.cpg/sg15_23_cif.got.tgz:44934.got - 2010.06.28 07:06:18.
