data_PCOD8149235
_publ_section_title
;
Structure prediction by ZEFSAII (Michael W. Deem and Ramdas Pophale) SiO2 
 PCOD8149235
Probable space group: C 2/C
;
_chemical_formula_sum "Si O2"
_cell_formula_units_Z 60
_cell_length_a 18.802884
_cell_length_b 9.341255
_cell_length_c 16.343809
_cell_angle_alpha 90.000000
_cell_angle_beta 111.197107
_cell_angle_gamma 90.000000
_cell_volume 2676.444544
_symmetry_space_group_name_H-M "C 2/C"
_symmetry_group_IT_number 15
_symmetry_cell_setting 'monoclinic'
loop_
_space_group_symop_operation_xyz
x,y,z
-x,y,1/2-z
-x,-y,-z
x,-y,1/2+z
1/2+x,1/2+y,z
1/2-x,1/2+y,1/2-z
1/2-x,1/2-y,-z
1/2+x,1/2-y,1/2+z
loop_
_atom_site_type_symbol
_atom_site_label
_atom_site_fract_x
_atom_site_fract_y
_atom_site_fract_z
Si Si1 0.818921 0.678029 0.481878
Si Si2 0.394623 0.921966 0.600877
Si Si3 0.779549 0.717118 0.165623
Si Si4 0.129462 0.195495 0.029536
Si Si5 0.000000 0.414277 0.250000
Si Si6 0.923731 0.825458 0.807057
Si Si7 0.271595 0.457984 0.704789
Si Si8 0.942684 0.074300 0.043051
O O1 0.750000 0.750000 0.500000
O O2 0.840777 0.550180 0.550851
O O3 0.786315 0.612628 0.384023
O O4 0.892756 0.784014 0.496494
O O5 0.359548 0.823111 0.658314
O O6 0.415767 0.823352 0.532842
O O7 0.472931 0.986442 0.665217
O O8 0.719768 0.720230 0.065807
O O9 0.757904 0.591731 0.219457
O O10 0.775029 0.870677 0.207391
O O11 0.101522 0.200508 0.110849
O O12 0.118835 0.050971 0.971593
O O13 0.931658 0.320328 0.259437
O O14 0.860509 0.913483 0.730469
O O15 0.008626 0.897239 0.853009
O O16 0.000000 0.000000 0.000000
#
# Coordination Sequence:
#
# PCOD8149235 Si02
#       8
#     8   8   8   8   4   8   8   8
#     4  12  25  43  76 104 136 192 248 294 368 448
#     4  12  26  44  68 100 138 184 234 298 363 428
#     4  11  26  45  70 105 144 177 244 305 370 432
#     4  10  23  44  71  99 140 181 238 298 357 439
#     4  12  26  44  64 104 144 188 236 298 356 436
#     4  10  24  45  68 100 144 184 237 303 367 431
#     4  11  27  44  72 105 139 191 239 311 370 445
#     4  10  23  45  71 100 141 193 238 294 365 450
#
# _framework density 22.417801000000001
#
# number of rings (size 3 to 8) (size 9 to 14) (size 15 to 20)
#    0.000    1.067    2.667    2.000   13.067    1.600 
#    2.400    0.000    0.000    0.000    0.000    0.000 
#    0.000    0.000    0.000    0.000    0.000    0.000 
#
# Total GULP energy -371727.180594 kJ/mol
# GULP energy per Si atom -12390.906020 kJ/mol
# Density = 2.236678 g / cm^3
# Si number density = 22.417801 Si / 1000 Ang^3
#
#
#
# Elastic Constant Matrix: (Units=GPa)
#
#
# Indices 1 2 3 4 5 6 
#
# 1 63.2567 30.9263 14.4196 0.0000 11.7316 0.0000
# 2 30.9263 150.3871 47.6274 0.0000 9.1842 0.0000
# 3 14.4196 47.6274 109.6148 0.0000 29.8561 0.0000
# 4 0.0000 0.0000 0.0000 42.1781 0.0000 0.0703
# 5 11.7316 9.1842 29.8561 0.0000 35.2481 0.0000
# 6 0.0000 0.0000 0.0000 0.0703 0.0000 28.8518
#
#
#
# Elastic Compliance Matrix: (Units=1/GPa)
#
#
# Indices 1 2 3 4 5 6 
#
# 1 0.018525 -0.003693 0.000761 0.000000 -0.005848 0.000000
# 2 -0.003693 0.008478 -0.003810 0.000000 0.002247 0.000000
# 3 0.000761 -0.003810 0.013619 0.000000 -0.010796 0.000000
# 4 0.000000 0.000000 0.000000 0.023709 0.000000 -0.000058
# 5 -0.005848 0.002247 -0.010796 0.000000 0.038875 0.000000
# 6 0.000000 0.000000 0.000000 -0.000058 0.000000 0.034660
#
#
# Mechanical properties :
#
#
# Convention : Reuss Voigt Hill
#
# Bulk Modulus (GPa) = 36.85050 56.57834 46.71442
# Shear Modulus (GPa) = 31.17231 36.60796 33.89014
#
# Velocity S-wave (km/s) = 3.73301 4.04541 3.89234
# Velocity P-wave (km/s) = 5.92066 6.86392 6.40966
#
# Compressibility (1/GPa) = 0.02713668
#
# Stress axis : x y z
#
# Youngs Moduli (GPa) = 53.97985 117.94613 73.42789
#
# Poissons Ratio (x) = 0.43562 -0.05584
# Poissons Ratio (y) = 0.19937 0.27977
# Poissons Ratio (z) = -0.04105 0.44939
#
# Static dielectric constant tensor:
#      x y z
#    x 4.283120 0.000000 0.619550 
#    y 0.000000 4.349630 0.000000 
#    z 0.619550 0.000000 4.596750 
# 
# 
# High freq. dielectric constant tensor:
#      x y z
#    x 1.876590 0.000000 0.012270 
#    y 0.000000 1.893140 0.000000 
#    z 0.012270 0.000000 1.896210 
# 
# From -- ./inp_files/214323.got.cif
#   From: 2010.06.25/outbox.cif.g09.slc.cpg/sg15_108_cif.got.tgz:214323.got - 2010.06.28 07:06:18.
