data_PCOD8149913
_publ_section_title
;
Structure prediction by ZEFSAII (Michael W. Deem and Ramdas Pophale) SiO2 
 PCOD8149913
Probable space group: C 2/C
;
_chemical_formula_sum "Si O2"
_cell_formula_units_Z 40
_cell_length_a 13.275494
_cell_length_b 27.993858
_cell_length_c 5.178004
_cell_angle_alpha 90.000000
_cell_angle_beta 114.853107
_cell_angle_gamma 90.000000
_cell_volume 1746.099563
_symmetry_space_group_name_H-M "C 2/C"
_symmetry_group_IT_number 15
_symmetry_cell_setting 'monoclinic'
loop_
_space_group_symop_operation_xyz
x,y,z
-x,y,1/2-z
-x,-y,-z
x,-y,1/2+z
1/2+x,1/2+y,z
1/2-x,1/2+y,1/2-z
1/2-x,1/2-y,-z
1/2+x,1/2-y,1/2+z
loop_
_atom_site_type_symbol
_atom_site_label
_atom_site_fract_x
_atom_site_fract_y
_atom_site_fract_z
Si Si1 0.119845 0.097467 0.454187
Si Si2 0.342698 0.656786 0.510204
Si Si3 0.901710 0.671195 0.309712
Si Si4 0.000000 0.400404 0.250000
Si Si5 0.324699 0.968872 0.225346
Si Si6 0.000000 0.761679 0.250000
O O1 0.164523 0.125399 0.253986
O O2 0.206156 0.056938 0.630628
O O3 0.000000 0.074947 0.250000
O O4 0.099875 0.131775 0.680732
O O5 0.217263 0.670136 0.456959
O O6 0.408528 0.705294 0.512693
O O7 0.000000 0.646424 0.250000
O O8 0.901613 0.635557 0.551894
O O9 0.939001 0.726823 0.395606
O O10 0.930377 0.433724 0.373860
O O11 0.331933 0.009626 0.446528
#
# Coordination Sequence:
#
# PCOD8149913 Si02
#       6
#     8   8   8   4   8   4
#     4  12  25  46  76  99 138 188 232 292 355 415
#     4  12  23  47  69 103 145 185 238 283 345 415
#     4  10  25  41  69 104 143 188 229 288 335 421
#     4  12  24  46  71 102 144 188 223 290 366 410
#     4  12  28  46  74 105 136 179 238 293 354 429
#     4  10  24  42  71 108 138 192 243 276 342 402
#
# _framework density 22.908200999999998
#
# number of rings (size 3 to 8) (size 9 to 14) (size 15 to 20)
#    0.600    0.000    4.000    3.600    2.800    2.400 
#    0.000    3.000    0.000    0.000    0.000    0.000 
#    0.000    0.000    0.000    0.000    0.000    0.000 
#
# Total GULP energy -247809.380269 kJ/mol
# GULP energy per Si atom -12390.469013 kJ/mol
# Density = 2.285606 g / cm^3
# Si number density = 22.908201 Si / 1000 Ang^3
#
#
#
# Elastic Constant Matrix: (Units=GPa)
#
#
# Indices 1 2 3 4 5 6 
#
# 1 85.7673 29.0215 23.2436 0.0000 20.3538 0.0000
# 2 29.0215 105.1725 29.5566 0.0000 11.6416 0.0000
# 3 23.2436 29.5566 90.3306 0.0000 7.0793 0.0000
# 4 0.0000 0.0000 0.0000 23.3462 0.0000 -3.2731
# 5 20.3538 11.6416 7.0793 0.0000 49.3892 0.0000
# 6 0.0000 0.0000 0.0000 -3.2731 0.0000 27.2367
#
#
#
# Elastic Compliance Matrix: (Units=1/GPa)
#
#
# Indices 1 2 3 4 5 6 
#
# 1 0.014421 -0.002751 -0.002423 0.000000 -0.004947 0.000000
# 2 -0.002751 0.011195 -0.002869 0.000000 -0.001094 0.000000
# 3 -0.002423 -0.002869 0.012644 0.000000 -0.000137 0.000000
# 4 0.000000 0.000000 0.000000 0.043568 0.000000 0.005236
# 5 -0.004947 -0.001094 -0.000137 0.000000 0.022564 0.000000
# 6 0.000000 0.000000 0.000000 0.005236 0.000000 0.037344
#
#
# Mechanical properties :
#
#
# Convention : Reuss Voigt Hill
#
# Bulk Modulus (GPa) = 45.10009 49.43487 47.26748
# Shear Modulus (GPa) = 30.26411 33.29100 31.77755
#
# Velocity S-wave (km/s) = 3.63864 3.81627 3.72851
# Velocity P-wave (km/s) = 6.11416 6.40663 6.26211
#
# Compressibility (1/GPa) = 0.02217290
#
# Stress axis : x y z
#
# Youngs Moduli (GPa) = 69.34346 89.32788 79.09163
#
# Poissons Ratio (x) = 0.24572 0.19164
# Poissons Ratio (y) = 0.19075 0.22695
# Poissons Ratio (z) = 0.16802 0.25632
#
# Static dielectric constant tensor:
#      x y z
#    x 4.170690 0.000000 0.260920 
#    y 0.000000 4.039060 0.000000 
#    z 0.260920 0.000000 4.048520 
# 
# 
# High freq. dielectric constant tensor:
#      x y z
#    x 1.919550 0.000000 0.023010 
#    y 0.000000 1.905370 0.000000 
#    z 0.023010 0.000000 1.888190 
# 
# From -- ./inp_files/8165.got.cif
#   From: 2010.06.25/outbox.cif.g09.slc.cpg/sg15_5_cif.got.tgz:8165.got - 2010.06.28 07:06:18.
