data_PCOD8149314
_publ_section_title
;
Structure prediction by ZEFSAII (Michael W. Deem and Ramdas Pophale) SiO2 
 PCOD8149314
Probable space group: C 2/C
;
_chemical_formula_sum "Si O2"
_cell_formula_units_Z 44
_cell_length_a 7.300628
_cell_length_b 14.172401
_cell_length_c 20.257943
_cell_angle_alpha 90.000000
_cell_angle_beta 72.587511
_cell_angle_gamma 90.000000
_cell_volume 1999.986600
_symmetry_space_group_name_H-M "C 2/C"
_symmetry_group_IT_number 15
_symmetry_cell_setting 'monoclinic'
loop_
_space_group_symop_operation_xyz
x,y,z
-x,y,1/2-z
-x,-y,-z
x,-y,1/2+z
1/2+x,1/2+y,z
1/2-x,1/2+y,1/2-z
1/2-x,1/2-y,-z
1/2+x,1/2-y,1/2+z
loop_
_atom_site_type_symbol
_atom_site_label
_atom_site_fract_x
_atom_site_fract_y
_atom_site_fract_z
Si Si1 0.893426 0.133603 0.608661
Si Si2 0.211596 0.731827 0.745030
Si Si3 0.500000 0.120869 0.250000
Si Si4 0.308298 0.124842 0.619195
Si Si5 0.104046 0.521093 0.115293
Si Si6 0.055358 0.305332 0.522621
O O1 0.771506 0.148672 0.688733
O O2 0.784497 0.049249 0.581249
O O3 0.109552 0.101965 0.603174
O O4 0.893237 0.232162 0.566482
O O5 0.358132 0.817607 0.719640
O O6 0.228653 0.699836 0.819172
O O7 0.000000 0.766990 0.750000
O O8 0.631738 0.061309 0.185941
O O9 0.397628 0.030438 0.639465
O O10 0.473555 0.162629 0.550322
O O11 0.088820 0.602518 0.063123
O O12 0.250000 0.250000 0.500000
#
# Coordination Sequence:
#
# PCOD8149314 Si02
#       6
#     8   8   4   8   8   8
#     4  11  23  45  70  95 139 177 225 283 344 405
#     4  12  22  43  69  99 131 181 223 280 348 402
#     4  12  24  42  68  96 142 172 228 288 334 412
#     4  11  23  41  70  98 135 175 226 281 341 409
#     4  12  24  42  68 103 134 180 230 278 339 421
#     4  10  23  45  66  99 138 179 222 284 345 403
#
# _framework density 22.000147999999999
#
# number of rings (size 3 to 8) (size 9 to 14) (size 15 to 20)
#    0.000    0.727    5.455    2.727    0.000    5.091 
#    0.000    0.000    0.000    0.000    0.000    0.000 
#    0.000    0.000    0.000    0.000    0.000    0.000 
#
# Total GULP energy -272743.702551 kJ/mol
# GULP energy per Si atom -12397.441025 kJ/mol
# Density = 2.195007 g / cm^3
# Si number density = 22.000148 Si / 1000 Ang^3
#
#
#
# Elastic Constant Matrix: (Units=GPa)
#
#
# Indices 1 2 3 4 5 6 
#
# 1 98.8448 38.7000 -8.8676 0.0000 -24.2507 0.0000
# 2 38.7000 123.8731 35.8666 0.0000 -8.0854 0.0000
# 3 -8.8676 35.8666 119.5902 0.0000 -9.5790 0.0000
# 4 0.0000 0.0000 0.0000 27.1829 0.0000 -7.4846
# 5 -24.2507 -8.0854 -9.5790 0.0000 12.3987 0.0000
# 6 0.0000 0.0000 0.0000 -7.4846 0.0000 43.2681
#
#
#
# Elastic Compliance Matrix: (Units=1/GPa)
#
#
# Indices 1 2 3 4 5 6 
#
# 1 0.027470 -0.007482 0.008734 0.000000 0.055598 0.000000
# 2 -0.007482 0.011065 -0.004762 0.000000 -0.011098 0.000000
# 3 0.008734 -0.004762 0.012320 0.000000 0.023496 0.000000
# 4 0.000000 0.000000 0.000000 0.038628 0.000000 0.006682
# 5 0.055598 -0.011098 0.023496 0.000000 0.200313 0.000000
# 6 0.000000 0.000000 0.000000 0.006682 0.000000 0.024268
#
#
# Mechanical properties :
#
#
# Convention : Reuss Voigt Hill
#
# Bulk Modulus (GPa) = 22.81300 52.63403 37.72352
# Shear Modulus (GPa) = 14.89447 35.01054 24.95250
#
# Velocity S-wave (km/s) = 2.60478 3.99354 3.37144
# Velocity P-wave (km/s) = 4.40891 6.72613 5.68679
#
# Compressibility (1/GPa) = 0.04383465
#
# Stress axis : x y z
#
# Youngs Moduli (GPa) = 36.40288 90.37668 81.17056
#
# Poissons Ratio (x) = 0.67621 -0.70896
# Poissons Ratio (y) = 0.27237 0.38655
# Poissons Ratio (z) = -0.31795 0.43039
#
# Static dielectric constant tensor:
#      x y z
#    x 3.821940 0.000000 -0.000670 
#    y 0.000000 4.268300 0.000000 
#    z -0.000670 0.000000 4.230270 
# 
# 
# High freq. dielectric constant tensor:
#      x y z
#    x 1.855340 0.000000 -0.001540 
#    y 0.000000 1.864790 0.000000 
#    z -0.001540 0.000000 1.878690 
# 
# From -- ./inp_files/230120.got.cif
#   From: 2010.06.25/outbox.cif.g09.slc.cpg/sg15_116_cif.got.tgz:230120.got - 2010.06.28 07:06:18.
