data_PCOD8149856
_publ_section_title
;
Structure prediction by ZEFSAII (Michael W. Deem and Ramdas Pophale) SiO2 
 PCOD8149856
Probable space group: C 2/C
;
_chemical_formula_sum "Si O2"
_cell_formula_units_Z 32
_cell_length_a 16.140372
_cell_length_b 15.983097
_cell_length_c 8.907192
_cell_angle_alpha 90.000000
_cell_angle_beta 37.813900
_cell_angle_gamma 90.000000
_cell_volume 1408.788196
_symmetry_space_group_name_H-M "C 2/C"
_symmetry_group_IT_number 15
_symmetry_cell_setting 'monoclinic'
loop_
_space_group_symop_operation_xyz
x,y,z
-x,y,1/2-z
-x,-y,-z
x,-y,1/2+z
1/2+x,1/2+y,z
1/2-x,1/2+y,1/2-z
1/2-x,1/2-y,-z
1/2+x,1/2-y,1/2+z
loop_
_atom_site_type_symbol
_atom_site_label
_atom_site_fract_x
_atom_site_fract_y
_atom_site_fract_z
Si Si1 0.910377 0.273056 0.694356
Si Si2 0.223550 0.707053 0.692529
Si Si3 0.134632 0.954382 0.467728
Si Si4 0.310470 0.609348 0.932063
O O1 0.066971 0.285912 0.452209
O O2 0.827714 0.247700 0.662468
O O3 0.893868 0.195478 0.833754
O O4 0.845837 0.358457 0.858610
O O5 0.250000 0.750000 0.500000
O O6 0.250415 0.608203 0.637725
O O7 0.129018 0.943968 0.294833
O O8 0.000000 0.928585 0.750000
O O9 0.172957 0.050963 0.445890
#
# Coordination Sequence:
#
# PCOD8149856 Si02
#       4
#     8   8   8   8
#     4  10  24  43  69  97 139 183 224 278 352 414
#     4  11  23  43  68 102 134 179 230 282 339 413
#     4  11  24  41  66 102 136 176 234 287 340 409
#     4  10  24  42  67 100 133 184 228 283 345 413
#
# _framework density 22.714556000000002
#
# number of rings (size 3 to 8) (size 9 to 14) (size 15 to 20)
#    0.000    1.500    0.000    4.500    7.000    9.000 
#    0.000    0.000    0.000    0.000    0.000    0.000 
#    0.000    0.000    0.000    0.000    0.000    0.000 
#
# Total GULP energy -198224.294455 kJ/mol
# GULP energy per Si atom -12389.018403 kJ/mol
# Density = 2.266286 g / cm^3
# Si number density = 22.714556 Si / 1000 Ang^3
#
#
#
# Elastic Constant Matrix: (Units=GPa)
#
#
# Indices 1 2 3 4 5 6 
#
# 1 120.1326 34.8229 46.9747 0.0000 -20.3321 0.0000
# 2 34.8229 118.4455 49.6630 0.0000 -6.2553 0.0000
# 3 46.9747 49.6630 85.1622 0.0000 -15.6652 0.0000
# 4 0.0000 0.0000 0.0000 42.8169 0.0000 8.7590
# 5 -20.3321 -6.2553 -15.6652 0.0000 47.2230 0.0000
# 6 0.0000 0.0000 0.0000 8.7590 0.0000 13.6974
#
#
#
# Elastic Compliance Matrix: (Units=1/GPa)
#
#
# Indices 1 2 3 4 5 6 
#
# 1 0.011063 -0.001015 -0.004962 0.000000 0.002983 0.000000
# 2 -0.001015 0.011292 -0.006209 0.000000 -0.001001 0.000000
# 3 -0.004962 -0.006209 0.018697 0.000000 0.003243 0.000000
# 4 0.000000 0.000000 0.000000 0.026870 0.000000 -0.017183
# 5 0.002983 -0.001001 0.003243 0.000000 0.023404 0.000000
# 6 0.000000 0.000000 0.000000 -0.017183 0.000000 0.083994
#
#
# Mechanical properties :
#
#
# Convention : Reuss Voigt Hill
#
# Bulk Modulus (GPa) = 59.95189 65.18461 62.56825
# Shear Modulus (GPa) = 24.36026 33.56611 28.96318
#
# Velocity S-wave (km/s) = 3.27838 3.84830 3.57472
# Velocity P-wave (km/s) = 6.38602 6.96459 6.68157
#
# Compressibility (1/GPa) = 0.01668004
#
# Stress axis : x y z
#
# Youngs Moduli (GPa) = 90.38837 88.56135 53.48459
#
# Poissons Ratio (x) = 0.08985 0.26540
# Poissons Ratio (y) = 0.09170 0.33210
# Poissons Ratio (z) = 0.44852 0.54990
#
# Static dielectric constant tensor:
#      x y z
#    x 4.106260 0.000000 0.043070 
#    y 0.000000 4.304550 0.000000 
#    z 0.043070 0.000000 4.405620 
# 
# 
# High freq. dielectric constant tensor:
#      x y z
#    x 1.896040 0.000000 0.000130 
#    y 0.000000 1.898510 0.000000 
#    z 0.000130 0.000000 1.914110 
# 
# From -- ./inp_files/37210.got.cif
#   From: 2010.06.25/outbox.cif.g09.slc.cpg/sg15_19_cif.got.tgz:37210.got - 2010.06.28 07:06:18.
