data_PCOD8149001
_publ_section_title
;
Structure prediction by ZEFSAII (Michael W. Deem and Ramdas Pophale) SiO2 
 PCOD8149001
Probable space group: C 2/C
;
_chemical_formula_sum "Si O2"
_cell_formula_units_Z 56
_cell_length_a 21.487240
_cell_length_b 11.250672
_cell_length_c 11.379062
_cell_angle_alpha 90.000000
_cell_angle_beta 102.129320
_cell_angle_gamma 90.000000
_cell_volume 2689.431240
_symmetry_space_group_name_H-M "C 2/C"
_symmetry_group_IT_number 15
_symmetry_cell_setting 'monoclinic'
loop_
_space_group_symop_operation_xyz
x,y,z
-x,y,1/2-z
-x,-y,-z
x,-y,1/2+z
1/2+x,1/2+y,z
1/2-x,1/2+y,1/2-z
1/2-x,1/2-y,-z
1/2+x,1/2-y,1/2+z
loop_
_atom_site_type_symbol
_atom_site_label
_atom_site_fract_x
_atom_site_fract_y
_atom_site_fract_z
Si Si1 0.432317 0.384912 0.172895
Si Si2 0.440912 0.823927 0.036721
Si Si3 0.864741 0.461504 0.557837
Si Si4 0.620882 0.636034 0.318768
Si Si5 0.761342 0.359719 0.920793
Si Si6 0.581828 0.250247 0.565130
Si Si7 0.363137 0.193309 0.279864
O O1 0.500000 0.341864 0.250000
O O2 0.426381 0.525039 0.189868
O O3 0.375282 0.316951 0.217387
O O4 0.429535 0.354594 0.033823
O O5 0.397292 0.727964 0.086356
O O6 0.514734 0.799707 0.083611
O O7 0.426518 0.953941 0.083053
O O8 0.421680 0.825864 0.892332
O O9 0.802116 0.535332 0.496554
O O10 0.874723 0.354129 0.470448
O O11 0.858982 0.415184 0.687439
O O12 0.692569 0.587566 0.361195
O O13 0.617450 0.696108 0.190411
O O14 0.796084 0.306011 0.820179
O O15 0.750000 0.250000 0.000000
#
# Coordination Sequence:
#
# PCOD8149001 Si02
#       7
#     8   8   8   8   8   8   8
#     4  11  24  44  69  98 140 181 229 285 353 413
#     4  11  22  43  69 100 140 176 227 286 359 407
#     4  10  24  42  71 102 132 180 233 291 347 407
#     4  12  27  41  68 101 138 187 230 285 337 423
#     4  11  24  46  67  94 139 182 230 274 345 411
#     4  11  25  44  67 106 138 178 233 286 353 416
#     4  10  23  43  70  99 132 183 228 288 342 410
#
# _framework density 20.822247999999998
#
# number of rings (size 3 to 8) (size 9 to 14) (size 15 to 20)
#    0.000    1.143    4.286    1.714    6.000    4.571 
#    2.571    2.857    0.000    0.000    0.000    0.000 
#    0.000    0.000    0.000    0.000    0.000    0.000 
#
# Total GULP energy -347289.521010 kJ/mol
# GULP energy per Si atom -12403.197179 kJ/mol
# Density = 2.077486 g / cm^3
# Si number density = 20.822248 Si / 1000 Ang^3
#
#
#
# Elastic Constant Matrix: (Units=GPa)
#
#
# Indices 1 2 3 4 5 6 
#
# 1 83.9807 28.4683 47.3340 0.0000 0.2579 0.0000
# 2 28.4683 127.2223 61.5558 0.0000 -10.5911 0.0000
# 3 47.3340 61.5558 135.4859 0.0000 -9.6846 0.0000
# 4 0.0000 0.0000 0.0000 35.8508 0.0000 1.4198
# 5 0.2579 -10.5911 -9.6846 0.0000 36.5542 0.0000
# 6 0.0000 0.0000 0.0000 1.4198 0.0000 32.7345
#
#
#
# Elastic Compliance Matrix: (Units=1/GPa)
#
#
# Indices 1 2 3 4 5 6 
#
# 1 0.015040 -0.001163 -0.004850 0.000000 -0.001728 0.000000
# 2 -0.001163 0.010275 -0.004127 0.000000 0.001892 0.000000
# 3 -0.004850 -0.004127 0.011077 0.000000 0.001773 0.000000
# 4 0.000000 0.000000 0.000000 0.027941 0.000000 -0.001212
# 5 -0.001728 0.001892 0.001773 0.000000 0.028387 0.000000
# 6 0.000000 0.000000 0.000000 -0.001212 0.000000 0.030601
#
#
# Mechanical properties :
#
#
# Convention : Reuss Voigt Hill
#
# Bulk Modulus (GPa) = 62.06041 69.04502 65.55271
# Shear Modulus (GPa) = 33.56355 34.98327 34.27341
#
# Velocity S-wave (km/s) = 4.01921 4.10334 4.06149
# Velocity P-wave (km/s) = 7.16996 7.46198 7.31742
#
# Compressibility (1/GPa) = 0.01611333
#
# Stress axis : x y z
#
# Youngs Moduli (GPa) = 66.48722 97.32735 90.27881
#
# Poissons Ratio (x) = 0.11318 0.43783
# Poissons Ratio (y) = 0.07732 0.37254
# Poissons Ratio (z) = 0.32245 0.40163
#
# Static dielectric constant tensor:
#      x y z
#    x 3.931250 0.000000 -0.110940 
#    y 0.000000 3.725050 0.000000 
#    z -0.110940 0.000000 3.818930 
# 
# 
# High freq. dielectric constant tensor:
#      x y z
#    x 1.818070 0.000000 -0.008160 
#    y 0.000000 1.819220 0.000000 
#    z -0.008160 0.000000 1.824780 
# 
# From -- ./inp_files/111139.got.cif
#   From: 2010.06.25/outbox.cif.g09.slc.cpg/sg15_56_cif.got.tgz:111139.got - 2010.06.28 07:06:18.
