data_PCOD8149773
_publ_section_title
;
Structure prediction by ZEFSAII (Michael W. Deem and Ramdas Pophale) SiO2 
 PCOD8149773
Probable space group: C 2/C
;
_chemical_formula_sum "Si O2"
_cell_formula_units_Z 60
_cell_length_a 10.557872
_cell_length_b 16.666326
_cell_length_c 15.413844
_cell_angle_alpha 90.000000
_cell_angle_beta 70.635517
_cell_angle_gamma 90.000000
_cell_volume 2558.798931
_symmetry_space_group_name_H-M "C 2/C"
_symmetry_group_IT_number 15
_symmetry_cell_setting 'monoclinic'
loop_
_space_group_symop_operation_xyz
x,y,z
-x,y,1/2-z
-x,-y,-z
x,-y,1/2+z
1/2+x,1/2+y,z
1/2-x,1/2+y,1/2-z
1/2-x,1/2-y,-z
1/2+x,1/2-y,1/2+z
loop_
_atom_site_type_symbol
_atom_site_label
_atom_site_fract_x
_atom_site_fract_y
_atom_site_fract_z
Si Si1 0.714805 0.577235 0.182588
Si Si2 0.396697 0.087615 0.444968
Si Si3 0.000000 0.677163 0.750000
Si Si4 0.985567 0.756134 0.355848
Si Si5 0.256065 0.758720 0.603886
Si Si6 0.074424 0.447866 0.373587
Si Si7 0.534592 0.437210 0.872800
Si Si8 0.904398 0.905043 0.459238
O O1 0.802717 0.652852 0.130653
O O2 0.780736 0.491016 0.148637
O O3 0.582123 0.596718 0.159292
O O4 0.678085 0.576822 0.293098
O O5 0.415862 0.172953 0.396026
O O6 0.464057 0.091246 0.525431
O O7 0.242701 0.059671 0.487006
O O8 0.468673 0.017904 0.372034
O O9 0.886102 0.730670 0.822953
O O10 0.923968 0.621464 0.697967
O O11 0.882334 0.826773 0.405149
O O12 0.000000 0.757267 0.250000
O O13 0.117879 0.786487 0.380335
O O14 0.250000 0.750000 0.500000
O O15 0.504484 0.531508 0.892152
O O16 0.531937 0.385748 0.961102
#
# Coordination Sequence:
#
# PCOD8149773 Si02
#       8
#     8   8   4   8   8   8   8   8
#     4  11  23  47  73 101 146 188 246 302 372 442
#     4  11  25  47  69 103 145 189 241 307 384 438
#     4  12  30  44  84 114 148 202 266 310 382 462
#     4  12  29  45  72 105 148 197 243 311 383 455
#     4  12  28  52  76 110 156 201 254 315 382 464
#     4  11  26  45  75 105 140 191 244 314 367 448
#     4  10  24  41  73 103 134 190 237 302 368 449
#     4  11  25  43  70 105 145 183 245 301 378 447
#
# _framework density 23.448502000000001
#
# number of rings (size 3 to 8) (size 9 to 14) (size 15 to 20)
#    0.000    0.800    2.667    2.800   12.133    2.133 
#    0.000    0.000    0.000    0.000    0.000    0.000 
#    0.000    0.000    0.000    0.000    0.000    0.000 
#
# Total GULP energy -371810.288835 kJ/mol
# GULP energy per Si atom -12393.676294 kJ/mol
# Density = 2.339513 g / cm^3
# Si number density = 23.448502 Si / 1000 Ang^3
#
#
#
# Elastic Constant Matrix: (Units=GPa)
#
#
# Indices 1 2 3 4 5 6 
#
# 1 59.3756 5.8483 22.9611 0.0000 -3.7325 0.0000
# 2 5.8483 98.1292 63.3144 0.0000 6.3321 0.0000
# 3 22.9611 63.3144 151.5482 0.0000 1.2957 0.0000
# 4 0.0000 0.0000 0.0000 41.0320 0.0000 -2.3290
# 5 -3.7325 6.3321 1.2957 0.0000 35.3208 0.0000
# 6 0.0000 0.0000 0.0000 -2.3290 0.0000 29.9873
#
#
#
# Elastic Compliance Matrix: (Units=1/GPa)
#
#
# Indices 1 2 3 4 5 6 
#
# 1 0.018075 0.000792 -0.003086 0.000000 0.001881 0.000000
# 2 0.000792 0.014173 -0.006022 0.000000 -0.002236 0.000000
# 3 -0.003086 -0.006022 0.009579 0.000000 0.000402 0.000000
# 4 0.000000 0.000000 0.000000 0.024479 0.000000 0.001901
# 5 0.001881 -0.002236 0.000402 0.000000 0.028897 0.000000
# 6 0.000000 0.000000 0.000000 0.001901 0.000000 0.033495
#
#
# Mechanical properties :
#
#
# Convention : Reuss Voigt Hill
#
# Bulk Modulus (GPa) = 39.68879 54.81118 47.24999
# Shear Modulus (GPa) = 32.52478 35.72996 34.12737
#
# Velocity S-wave (km/s) = 3.72838 3.90778 3.81913
# Velocity P-wave (km/s) = 5.95795 6.61716 6.29619
#
# Compressibility (1/GPa) = 0.02519603
#
# Stress axis : x y z
#
# Youngs Moduli (GPa) = 55.32368 70.55446 104.39846
#
# Poissons Ratio (x) = -0.05590 0.32214
# Poissons Ratio (y) = -0.04383 0.62873
# Poissons Ratio (z) = 0.17071 0.42490
#
# Static dielectric constant tensor:
#      x y z
#    x 4.251380 0.000000 -0.196670 
#    y 0.000000 4.095390 0.000000 
#    z -0.196670 0.000000 4.678290 
# 
# 
# High freq. dielectric constant tensor:
#      x y z
#    x 1.929000 0.000000 -0.003110 
#    y 0.000000 1.924790 0.000000 
#    z -0.003110 0.000000 1.941930 
# 
# From -- ./inp_files/146046.got.cif
#   From: 2010.06.25/outbox.cif.g09.slc.cpg/sg15_74_cif.got.tgz:146046.got - 2010.06.28 07:06:18.
