data_PCOD8149784
_publ_section_title
;
Structure prediction by ZEFSAII (Michael W. Deem and Ramdas Pophale) SiO2 
 PCOD8149784
Probable space group: C 2/C
;
_chemical_formula_sum "Si O2"
_cell_formula_units_Z 44
_cell_length_a 6.587321
_cell_length_b 14.350236
_cell_length_c 22.598019
_cell_angle_alpha 90.000000
_cell_angle_beta 81.619316
_cell_angle_gamma 90.000000
_cell_volume 2113.370780
_symmetry_space_group_name_H-M "C 2/C"
_symmetry_group_IT_number 15
_symmetry_cell_setting 'monoclinic'
loop_
_space_group_symop_operation_xyz
x,y,z
-x,y,1/2-z
-x,-y,-z
x,-y,1/2+z
1/2+x,1/2+y,z
1/2-x,1/2+y,1/2-z
1/2-x,1/2-y,-z
1/2+x,1/2-y,1/2+z
loop_
_atom_site_type_symbol
_atom_site_label
_atom_site_fract_x
_atom_site_fract_y
_atom_site_fract_z
Si Si1 0.516280 0.791636 0.932535
Si Si2 0.405021 0.716735 0.693886
Si Si3 0.000000 0.624999 0.750000
Si Si4 0.873238 0.125000 0.003524
Si Si5 0.801186 0.958363 0.932535
Si Si6 0.848907 0.966736 0.306114
O O1 0.571982 0.787798 0.860938
O O2 0.543446 0.690581 0.963122
O O3 0.646823 0.874999 0.956356
O O4 0.277306 0.811956 0.951279
O O5 0.500000 0.762190 0.750000
O O6 0.537901 0.625000 0.674197
O O7 0.164524 0.690882 0.709802
O O8 0.875674 0.559117 0.709802
O O9 0.743432 0.059418 0.963122
O O10 0.978584 0.061956 0.048721
O O11 0.817081 0.962202 0.860938
O O12 0.000000 0.012191 0.250000
#
# Coordination Sequence:
#
# PCOD8149784 Si02
#       6
#     8   8   4   8   8   8
#     4  11  22  41  62  91 121 163 208 253 312 372
#     4   9  19  38  60  88 121 157 201 251 305 364
#     4   8  18  36  64  86 116 168 194 240 324 362
#     4  10  24  42  61  88 126 159 204 264 300 366
#     4  11  22  41  62  91 121 163 208 253 312 372
#     4   9  19  38  60  88 121 157 201 251 305 364
#
# _framework density 20.819818999999999
#
# number of rings (size 3 to 8) (size 9 to 14) (size 15 to 20)
#    0.000    2.545    1.818    1.091    0.000    5.818 
#    9.818    0.000    0.000    0.000    0.000    0.000 
#    0.000    0.000    0.000    0.000    0.000    0.000 
#
# Total GULP energy -272646.464947 kJ/mol
# GULP energy per Si atom -12393.021134 kJ/mol
# Density = 2.077243 g / cm^3
# Si number density = 20.819819 Si / 1000 Ang^3
#
#
#
# Elastic Constant Matrix: (Units=GPa)
#
#
# Indices 1 2 3 4 5 6 
#
# 1 114.5506 30.4024 55.3497 0.0000 -0.6780 0.0000
# 2 30.4024 97.3203 48.9826 0.0000 0.4939 0.0000
# 3 55.3497 48.9826 139.0451 0.0000 1.3289 0.0000
# 4 0.0000 0.0000 0.0000 16.9857 0.0000 -0.3066
# 5 -0.6780 0.4939 1.3289 0.0000 16.8896 0.0000
# 6 0.0000 0.0000 0.0000 -0.3066 0.0000 28.5381
#
#
#
# Elastic Compliance Matrix: (Units=1/GPa)
#
#
# Indices 1 2 3 4 5 6 
#
# 1 0.010996 -0.001498 -0.003857 0.000000 0.000789 0.000000
# 2 -0.001498 0.012694 -0.003874 0.000000 -0.000126 0.000000
# 3 -0.003857 -0.003874 0.010100 0.000000 -0.000836 0.000000
# 4 0.000000 0.000000 0.000000 0.058884 0.000000 0.000633
# 5 0.000789 -0.000126 -0.000836 0.000000 0.059309 0.000000
# 6 0.000000 0.000000 0.000000 0.000633 0.000000 0.035048
#
#
# Mechanical properties :
#
#
# Convention : Reuss Voigt Hill
#
# Bulk Modulus (GPa) = 65.22522 68.93173 67.07847
# Shear Modulus (GPa) = 23.74177 26.89477 25.31827
#
# Velocity S-wave (km/s) = 3.38056 3.59804 3.49100
# Velocity P-wave (km/s) = 6.82891 7.10224 6.96692
#
# Compressibility (1/GPa) = 0.01533149
#
# Stress axis : x y z
#
# Youngs Moduli (GPa) = 90.94572 78.77795 99.00899
#
# Poissons Ratio (x) = 0.11799 0.38187
# Poissons Ratio (y) = 0.13621 0.38360
# Poissons Ratio (z) = 0.35077 0.30522
#
# Static dielectric constant tensor:
#      x y z
#    x 3.598100 0.000000 0.001940 
#    y 0.000000 3.754840 0.000000 
#    z 0.001940 0.000000 3.671300 
# 
# 
# High freq. dielectric constant tensor:
#      x y z
#    x 1.805870 0.000000 0.000240 
#    y 0.000000 1.804560 0.000000 
#    z 0.000240 0.000000 1.814830 
# 
# From -- ./inp_files/260378.got.cif
#   From: 2010.06.25/outbox.cif.g09.slc.cpg/sg15_131_cif.got.tgz:260378.got - 2010.06.28 07:06:18.
