data_PCOD8149768
_publ_section_title
;
Structure prediction by ZEFSAII (Michael W. Deem and Ramdas Pophale) SiO2 
 PCOD8149768
Probable space group: C 2/C
;
_chemical_formula_sum "Si O2"
_cell_formula_units_Z 60
_cell_length_a 17.222655
_cell_length_b 17.607800
_cell_length_c 18.441566
_cell_angle_alpha 90.000000
_cell_angle_beta 150.510104
_cell_angle_gamma 90.000000
_cell_volume 2753.001351
_symmetry_space_group_name_H-M "C 2/C"
_symmetry_group_IT_number 15
_symmetry_cell_setting 'monoclinic'
loop_
_space_group_symop_operation_xyz
x,y,z
-x,y,1/2-z
-x,-y,-z
x,-y,1/2+z
1/2+x,1/2+y,z
1/2-x,1/2+y,1/2-z
1/2-x,1/2-y,-z
1/2+x,1/2-y,1/2+z
loop_
_atom_site_type_symbol
_atom_site_label
_atom_site_fract_x
_atom_site_fract_y
_atom_site_fract_z
Si Si1 0.984082 0.832653 0.878922
Si Si2 0.348876 0.965551 0.337249
Si Si3 0.299564 0.434592 0.136962
Si Si4 0.519845 0.676069 0.635247
Si Si5 0.717029 0.603246 0.160875
Si Si6 0.026849 0.665664 0.356322
Si Si7 0.000000 0.932732 0.750000
Si Si8 0.729246 0.188224 0.783280
O O1 0.863361 0.881363 0.827734
O O2 0.897760 0.751899 0.798612
O O3 0.016141 0.877156 0.830994
O O4 0.153841 0.822358 0.054038
O O5 0.219590 0.956522 0.294489
O O6 0.379692 0.885365 0.322657
O O7 0.500000 0.000000 0.500000
O O8 0.279684 0.017280 0.216275
O O9 0.427134 0.366199 0.247417
O O10 0.351193 0.509495 0.134616
O O11 0.144063 0.401306 0.973843
O O12 0.408445 0.615427 0.504607
O O13 0.415923 0.749752 0.574228
O O14 0.665497 0.704163 0.702943
O O15 0.864893 0.657413 0.268313
O O16 0.000000 0.658184 0.250000
#
# Coordination Sequence:
#
# PCOD8149768 Si02
#       8
#     8   8   8   8   8   8   4   8
#     4  11  25  46  73 101 141 184 237 294 354 422
#     4  11  23  43  75 105 133 181 243 288 357 420
#     4  11  26  43  66 101 143 185 231 295 355 418
#     4  10  24  41  70 102 142 178 231 284 358 432
#     4  11  23  42  72 101 136 179 231 292 353 417
#     4  12  26  42  66 106 142 188 229 286 357 437
#     4  12  28  46  70 100 144 184 242 298 356 412
#     4  10  25  42  73 104 133 181 238 291 348 417
#
# _framework density 21.794395000000002
#
# number of rings (size 3 to 8) (size 9 to 14) (size 15 to 20)
#    0.000    1.067    4.000    0.800   12.133    3.200 
#    0.000    0.000    1.467    0.000    0.000    0.000 
#    0.000    0.000    0.000    0.000    0.000    0.000 
#
# Total GULP energy -371836.620049 kJ/mol
# GULP energy per Si atom -12394.554002 kJ/mol
# Density = 2.174479 g / cm^3
# Si number density = 21.794395 Si / 1000 Ang^3
#
#
#
# Elastic Constant Matrix: (Units=GPa)
#
#
# Indices 1 2 3 4 5 6 
#
# 1 76.3946 51.9428 53.0510 0.0062 -12.5466 0.0044
# 2 51.9428 135.5207 63.5076 0.0164 2.2909 0.0102
# 3 53.0510 63.5076 132.5858 0.0118 -4.0849 0.0103
# 4 0.0062 0.0164 0.0118 41.3939 0.0056 0.6078
# 5 -12.5466 2.2909 -4.0849 0.0056 25.4850 0.0027
# 6 0.0044 0.0102 0.0103 0.6078 0.0027 45.3175
#
#
#
# Elastic Compliance Matrix: (Units=1/GPa)
#
#
# Indices 1 2 3 4 5 6 
#
# 1 0.023382 -0.006352 -0.005970 -0.000001 0.011125 0.000000
# 2 -0.006352 0.011305 -0.003016 -0.000002 -0.004627 -0.000001
# 3 -0.005970 -0.003016 0.011350 -0.000001 -0.000849 -0.000001
# 4 -0.000001 -0.000002 -0.000001 0.024163 -0.000006 -0.000324
# 5 0.011125 -0.004627 -0.000849 -0.000006 0.044996 -0.000002
# 6 0.000000 -0.000001 -0.000001 -0.000324 -0.000002 0.022071
#
#
# Mechanical properties :
#
#
# Convention : Reuss Voigt Hill
#
# Bulk Modulus (GPa) = 65.10464 75.72266 70.41365
# Shear Modulus (GPa) = 28.89108 34.17259 31.53184
#
# Velocity S-wave (km/s) = 3.64486 3.96403 3.80779
# Velocity P-wave (km/s) = 6.90292 7.46800 7.19101
#
# Compressibility (1/GPa) = 0.01535989
#
# Stress axis : x y z
#
# Youngs Moduli (GPa) = 42.76759 88.45490 88.10836
#
# Poissons Ratio (x) = 0.56189 0.52604
# Poissons Ratio (y) = 0.27167 0.26573
# Poissons Ratio (z) = 0.25534 0.26678
#
# Static dielectric constant tensor:
#      x y z
#    x 3.821110 -0.000030 0.050210 
#    y -0.000030 4.201840 -0.000030 
#    z 0.050210 -0.000030 3.821050 
# 
# 
# High freq. dielectric constant tensor:
#      x y z
#    x 1.843330 0.000000 -0.002570 
#    y 0.000000 1.871060 0.000000 
#    z -0.002570 0.000000 1.856650 
# 
# From -- ./inp_files/211782.got.cif
#   From: 2010.06.25/outbox.cif.g09.slc.cpg/sg15_106_cif.got.tgz:211782.got - 2010.06.28 07:06:18.
