data_PCOD8149336
_publ_section_title
;
Structure prediction by ZEFSAII (Michael W. Deem and Ramdas Pophale) SiO2 
 PCOD8149336
Probable space group: C 2/C
;
_chemical_formula_sum "Si O2"
_cell_formula_units_Z 40
_cell_length_a 7.816228
_cell_length_b 21.687536
_cell_length_c 14.616785
_cell_angle_alpha 90.000000
_cell_angle_beta 46.108257
_cell_angle_gamma 90.000000
_cell_volume 1785.600521
_symmetry_space_group_name_H-M "C 2/C"
_symmetry_group_IT_number 15
_symmetry_cell_setting 'monoclinic'
loop_
_space_group_symop_operation_xyz
x,y,z
-x,y,1/2-z
-x,-y,-z
x,-y,1/2+z
1/2+x,1/2+y,z
1/2-x,1/2+y,1/2-z
1/2-x,1/2-y,-z
1/2+x,1/2-y,1/2+z
loop_
_atom_site_type_symbol
_atom_site_label
_atom_site_fract_x
_atom_site_fract_y
_atom_site_fract_z
Si Si1 0.000000 0.830264 0.250000
Si Si2 0.141855 0.150136 0.016562
Si Si3 0.569223 0.230748 0.828339
Si Si4 0.522784 0.525910 0.345798
Si Si5 0.351529 0.599365 0.972773
Si Si6 0.000000 0.431225 0.750000
O O1 0.840436 0.787975 0.243591
O O2 0.831241 0.871216 0.379256
O O3 0.964033 0.205516 0.106408
O O4 0.105028 0.092005 0.096910
O O5 0.408721 0.174936 0.927090
O O6 0.083897 0.128954 0.934599
O O7 0.500000 0.243043 0.750000
O O8 0.500000 0.505218 0.250000
O O9 0.385738 0.474371 0.455286
O O10 0.796990 0.527742 0.276819
O O11 0.122973 0.610492 0.124048
#
# Coordination Sequence:
#
# PCOD8149336 Si02
#       6
#     4   8   8   8   8   4
#     4  12  26  43  74 100 138 177 232 278 342 400
#     4  10  23  45  68  96 140 177 228 276 343 397
#     4  11  24  45  68  98 136 183 225 282 332 405
#     4  11  24  43  69 102 134 177 227 282 340 403
#     4  11  24  47  67 106 133 181 226 282 344 405
#     4  10  24  41  66  96 140 175 222 274 338 398
#
# _framework density 22.401426000000001
#
# number of rings (size 3 to 8) (size 9 to 14) (size 15 to 20)
#    0.000    1.200    3.000    3.000    2.800    8.000 
#    5.400    0.000    0.000    0.000    0.000    0.000 
#    0.000    0.000    0.000    0.000    0.000    0.000 
#
# Total GULP energy -247944.720444 kJ/mol
# GULP energy per Si atom -12397.236022 kJ/mol
# Density = 2.235044 g / cm^3
# Si number density = 22.401426 Si / 1000 Ang^3
#
#
#
# Elastic Constant Matrix: (Units=GPa)
#
#
# Indices 1 2 3 4 5 6 
#
# 1 99.2049 29.4757 33.5184 0.0000 8.8706 0.0000
# 2 29.4757 128.2307 34.3834 0.0000 -2.6416 0.0000
# 3 33.5184 34.3834 121.5364 0.0001 11.8025 0.0000
# 4 0.0000 0.0000 0.0001 146.8839 -0.0001 43.4934
# 5 8.8706 -2.6416 11.8025 -0.0001 36.4981 0.0000
# 6 0.0000 0.0000 0.0000 43.4934 0.0000 34.4797
#
#
#
# Elastic Compliance Matrix: (Units=1/GPa)
#
#
# Indices 1 2 3 4 5 6 
#
# 1 0.011718 -0.002089 -0.002426 0.000000 -0.002215 0.000000
# 2 -0.002089 0.008884 -0.002115 0.000000 0.001835 0.000000
# 3 -0.002426 -0.002115 0.009760 0.000000 -0.002720 0.000000
# 4 0.000000 0.000000 0.000000 0.010867 0.000000 -0.013708
# 5 -0.002215 0.001835 -0.002720 0.000000 0.028949 0.000000
# 6 0.000000 0.000000 0.000000 -0.013708 0.000000 0.046294
#
#
# Mechanical properties :
#
#
# Convention : Reuss Voigt Hill
#
# Bulk Modulus (GPa) = 58.47384 60.41413 59.44398
# Shear Modulus (GPa) = 36.91877 60.34533 48.63205
#
# Velocity S-wave (km/s) = 4.06403 5.19583 4.66438
# Velocity P-wave (km/s) = 6.94127 7.93870 7.45668
#
# Compressibility (1/GPa) = 0.01710166
#
# Stress axis : x y z
#
# Youngs Moduli (GPa) = 85.33577 112.56724 102.46401
#
# Poissons Ratio (x) = 0.23513 0.24856
# Poissons Ratio (y) = 0.17825 0.21674
# Poissons Ratio (z) = 0.20701 0.23812
#
# Static dielectric constant tensor:
#      x y z
#    x 3.870360 0.000000 0.111990 
#    y 0.000000 3.934810 0.000000 
#    z 0.111990 0.000000 4.103600 
# 
# 
# High freq. dielectric constant tensor:
#      x y z
#    x 1.877740 0.000000 0.015200 
#    y 0.000000 1.882010 0.000000 
#    z 0.015200 0.000000 1.886880 
# 
# From -- ./inp_files/136786.got.cif
#   From: 2010.06.25/outbox.cif.g09.slc.cpg/sg15_69_cif.got.tgz:136786.got - 2010.06.28 07:06:18.
