data_PCOD8149689
_publ_section_title
;
Structure prediction by ZEFSAII (Michael W. Deem and Ramdas Pophale) SiO2 
 PCOD8149689
Probable space group: C 2/C
;
_chemical_formula_sum "Si O2"
_cell_formula_units_Z 28
_cell_length_a 7.954448
_cell_length_b 5.314124
_cell_length_c 26.267616
_cell_angle_alpha 90.000000
_cell_angle_beta 67.436621
_cell_angle_gamma 90.000000
_cell_volume 1025.364871
_symmetry_space_group_name_H-M "C 2/C"
_symmetry_group_IT_number 15
_symmetry_cell_setting 'monoclinic'
loop_
_space_group_symop_operation_xyz
x,y,z
-x,y,1/2-z
-x,-y,-z
x,-y,1/2+z
1/2+x,1/2+y,z
1/2-x,1/2+y,1/2-z
1/2-x,1/2-y,-z
1/2+x,1/2-y,1/2+z
loop_
_atom_site_type_symbol
_atom_site_label
_atom_site_fract_x
_atom_site_fract_y
_atom_site_fract_z
Si Si1 0.941010 0.005077 0.098314
Si Si2 0.911133 0.183753 0.710350
Si Si3 0.837687 0.495186 0.558385
Si Si4 0.000000 0.642747 0.750000
O O1 0.145499 0.001588 0.050781
O O2 0.199785 0.228771 0.237801
O O3 0.841461 0.260978 0.094274
O O4 0.960651 0.992200 0.157197
O O5 0.835739 0.240860 0.591529
O O6 0.026795 0.446981 0.698585
O O7 0.000000 0.030147 0.750000
O O8 0.000000 0.500000 0.500000
#
# Coordination Sequence:
#
# PCOD8149689 Si02
#       4
#     8   8   8   4
#     4  12  26  46  75 106 144 189 242 291 370 433
#     4  10  26  43  68 105 147 189 239 296 357 434
#     4  12  26  48  74 106 143 187 242 305 360 429
#     4  10  24  40  68  92 152 184 242 286 358 418
#
# _framework density 27.307352000000002
#
# number of rings (size 3 to 8) (size 9 to 14) (size 15 to 20)
#    0.857    0.000    0.000    6.000    6.000    0.000 
#    0.000    0.000    0.000    0.000    0.000    0.000 
#    0.000    0.000    0.000    0.000    0.000    0.000 
#
# Total GULP energy -173472.365052 kJ/mol
# GULP energy per Si atom -12390.883218 kJ/mol
# Density = 2.724520 g / cm^3
# Si number density = 27.307352 Si / 1000 Ang^3
#
#
#
# Elastic Constant Matrix: (Units=GPa)
#
#
# Indices 1 2 3 4 5 6 
#
# 1 141.8207 61.6962 -26.6879 0.0000 9.2688 0.0000
# 2 61.6962 192.7652 17.7994 0.0000 28.5872 0.0000
# 3 -26.6879 17.7994 61.7105 0.0000 10.7467 0.0000
# 4 0.0000 0.0000 0.0000 19.2480 0.0000 -1.7871
# 5 9.2688 28.5872 10.7467 0.0000 33.2877 0.0000
# 6 0.0000 0.0000 0.0000 -1.7871 0.0000 46.8030
#
#
#
# Elastic Compliance Matrix: (Units=1/GPa)
#
#
# Indices 1 2 3 4 5 6 
#
# 1 0.009625 -0.003350 0.005398 0.000000 -0.001546 0.000000
# 2 -0.003350 0.007156 -0.002760 0.000000 -0.004321 0.000000
# 3 0.005398 -0.002760 0.020327 0.000000 -0.005695 0.000000
# 4 0.000000 0.000000 0.000000 0.052138 0.000000 0.001991
# 5 -0.001546 -0.004321 -0.005695 0.000000 0.036021 0.000000
# 6 0.000000 0.000000 0.000000 0.001991 0.000000 0.021442
#
#
# Mechanical properties :
#
#
# Convention : Reuss Voigt Hill
#
# Bulk Modulus (GPa) = 28.02346 55.76797 41.89571
# Shear Modulus (GPa) = 31.24451 42.76698 37.00575
#
# Velocity S-wave (km/s) = 3.38624 3.96173 3.68524
# Velocity P-wave (km/s) = 5.05701 6.43380 5.78650
#
# Compressibility (1/GPa) = 0.03568439
#
# Stress axis : x y z
#
# Youngs Moduli (GPa) = 103.89289 139.75254 49.19531
#
# Poissons Ratio (x) = 0.46815 -0.26556
# Poissons Ratio (y) = 0.34802 0.13578
# Poissons Ratio (z) = -0.56082 0.38572
#
# Static dielectric constant tensor:
#      x y z
#    x 5.488800 0.000000 0.209870 
#    y 0.000000 5.251160 0.000000 
#    z 0.209870 0.000000 4.572760 
# 
# 
# High freq. dielectric constant tensor:
#      x y z
#    x 2.143120 0.000000 0.006060 
#    y 0.000000 2.146660 0.000000 
#    z 0.006060 0.000000 2.058890 
# 
# From -- ./inp_files/235088.got.cif
#   From: 2010.06.25/outbox.cif.g09.slc.cpg/sg15_118_cif.got.tgz:235088.got - 2010.06.28 07:06:18.
