data_PCOD8149460
_publ_section_title
;
Structure prediction by ZEFSAII (Michael W. Deem and Ramdas Pophale) SiO2 
 PCOD8149460
Probable space group: C 2/C
;
_chemical_formula_sum "Si O2"
_cell_formula_units_Z 56
_cell_length_a 12.555556
_cell_length_b 26.222567
_cell_length_c 8.832880
_cell_angle_alpha 90.000000
_cell_angle_beta 62.818369
_cell_angle_gamma 90.000000
_cell_volume 2586.962494
_symmetry_space_group_name_H-M "C 2/C"
_symmetry_group_IT_number 15
_symmetry_cell_setting 'monoclinic'
loop_
_space_group_symop_operation_xyz
x,y,z
-x,y,1/2-z
-x,-y,-z
x,-y,1/2+z
1/2+x,1/2+y,z
1/2-x,1/2+y,1/2-z
1/2-x,1/2-y,-z
1/2+x,1/2-y,1/2+z
loop_
_atom_site_type_symbol
_atom_site_label
_atom_site_fract_x
_atom_site_fract_y
_atom_site_fract_z
Si Si1 0.418133 0.477711 0.682374
Si Si2 0.059130 0.653377 0.375785
Si Si3 0.206682 0.923719 0.191839
Si Si4 0.299133 0.613869 0.126585
Si Si5 0.537367 0.053075 0.898204
Si Si6 0.604384 0.248199 0.553740
Si Si7 0.537478 0.339324 0.396342
O O1 0.500000 0.447227 0.750000
O O2 0.500000 0.500000 0.500000
O O3 0.364449 0.525659 0.808933
O O4 0.312052 0.441603 0.693885
O O5 0.200698 0.647449 0.270381
O O6 0.051924 0.697698 0.505496
O O7 0.000000 0.666935 0.250000
O O8 0.007846 0.600476 0.473044
O O9 0.320916 0.941951 0.209506
O O10 0.126662 0.887291 0.348608
O O11 0.242329 0.892938 0.019129
O O12 0.421135 0.644880 0.066025
O O13 0.500000 0.055009 0.750000
O O14 0.500000 0.000000 0.000000
O O15 0.500000 0.257762 0.750000
O O16 0.750000 0.250000 0.500000
O O17 0.600578 0.291870 0.431063
O O18 0.500000 0.325607 0.250000
#
# Coordination Sequence:
#
# PCOD8149460 Si02
#       7
#     8   8   8   8   8   8   8
#     4  12  22  38  64 101 140 182 231 289 356 420
#     4  12  26  48  75 104 141 193 241 291 364 440
#     4  11  23  42  69  98 139 182 237 291 349 428
#     4  11  23  44  68 101 140 180 236 293 349 428
#     4  12  28  46  70 104 146 192 241 295 354 431
#     4  12  29  49  75 110 147 184 242 307 370 436
#     4  10  23  46  72 101 135 183 236 292 358 427
#
# _framework density 21.647010000000002
#
# number of rings (size 3 to 8) (size 9 to 14) (size 15 to 20)
#    0.000    0.571    4.286    3.429    6.000    2.857 
#    0.000    3.571    0.000    0.000    0.000    0.000 
#    0.000    0.000    0.000    0.000    0.000    0.000 
#
# Total GULP energy -346968.199923 kJ/mol
# GULP energy per Si atom -12391.721426 kJ/mol
# Density = 2.159774 g / cm^3
# Si number density = 21.647010 Si / 1000 Ang^3
#
#
#
# Elastic Constant Matrix: (Units=GPa)
#
#
# Indices 1 2 3 4 5 6 
#
# 1 150.6601 49.6415 48.5913 0.0000 -5.0978 0.0000
# 2 49.6415 118.3458 19.4498 0.0000 2.2409 0.0000
# 3 48.5913 19.4498 78.2316 0.0000 -6.3878 0.0000
# 4 0.0000 0.0000 0.0000 24.1413 0.0000 6.6330
# 5 -5.0978 2.2409 -6.3878 0.0000 39.7690 0.0000
# 6 0.0000 0.0000 0.0000 6.6330 0.0000 40.0073
#
#
#
# Elastic Compliance Matrix: (Units=1/GPa)
#
#
# Indices 1 2 3 4 5 6 
#
# 1 0.009268 -0.003086 -0.004943 0.000000 0.000568 0.000000
# 2 -0.003086 0.009866 -0.000622 0.000000 -0.001051 0.000000
# 3 -0.004943 -0.000622 0.016170 0.000000 0.001999 0.000000
# 4 0.000000 0.000000 0.000000 0.043400 0.000000 -0.007195
# 5 0.000568 -0.001051 0.001999 0.000000 0.025598 0.000000
# 6 0.000000 0.000000 0.000000 -0.007195 0.000000 0.026188
#
#
# Mechanical properties :
#
#
# Convention : Reuss Voigt Hill
#
# Bulk Modulus (GPa) = 55.54616 64.73362 60.13989
# Shear Modulus (GPa) = 32.51119 36.08719 34.29919
#
# Velocity S-wave (km/s) = 3.87961 4.08741 3.98487
# Velocity P-wave (km/s) = 6.76640 7.22807 7.00104
#
# Compressibility (1/GPa) = 0.01800304
#
# Stress axis : x y z
#
# Youngs Moduli (GPa) = 107.90312 101.35459 61.84110
#
# Poissons Ratio (x) = 0.31276 0.30566
# Poissons Ratio (y) = 0.33297 0.03847
# Poissons Ratio (z) = 0.53334 0.06306
#
# Static dielectric constant tensor:
#      x y z
#    x 27.718000 0.000000 10.898570 
#    y 0.000000 4.030180 0.000000 
#    z 10.898570 0.000000 9.118440 
# 
# 
# High freq. dielectric constant tensor:
#      x y z
#    x 1.867140 0.000000 -0.003060 
#    y 0.000000 1.852120 0.000000 
#    z -0.003060 0.000000 1.855580 
# 
# From -- ./inp_files/35543.got.cif
#   From: 2010.06.25/outbox.cif.g09.slc.cpg/sg15_18_cif.got.tgz:35543.got - 2010.06.28 07:06:18.
