data_PCOD8149566
_publ_section_title
;
Structure prediction by ZEFSAII (Michael W. Deem and Ramdas Pophale) SiO2 
 PCOD8149566
Probable space group: C 2/C
;
_chemical_formula_sum "Si O2"
_cell_formula_units_Z 44
_cell_length_a 14.456839
_cell_length_b 18.411163
_cell_length_c 8.818259
_cell_angle_alpha 90.000000
_cell_angle_beta 117.517764
_cell_angle_gamma 90.000000
_cell_volume 2081.594930
_symmetry_space_group_name_H-M "C 2/C"
_symmetry_group_IT_number 15
_symmetry_cell_setting 'monoclinic'
loop_
_space_group_symop_operation_xyz
x,y,z
-x,y,1/2-z
-x,-y,-z
x,-y,1/2+z
1/2+x,1/2+y,z
1/2-x,1/2+y,1/2-z
1/2-x,1/2-y,-z
1/2+x,1/2-y,1/2+z
loop_
_atom_site_type_symbol
_atom_site_label
_atom_site_fract_x
_atom_site_fract_y
_atom_site_fract_z
Si Si1 0.500000 0.496375 0.750000
Si Si2 0.809221 0.269147 0.890254
Si Si3 0.860204 0.966226 0.391566
Si Si4 0.221536 0.357876 0.143131
Si Si5 0.316157 0.631428 0.393404
Si Si6 0.531070 0.234573 0.449601
O O1 0.417381 0.445764 0.593547
O O2 0.562093 0.552961 0.688698
O O3 0.788579 0.211276 0.742276
O O4 0.765130 0.345655 0.798857
O O5 0.934526 0.270517 0.994588
O O6 0.750000 0.250000 0.000000
O O7 0.750788 0.923692 0.283378
O O8 0.856014 0.053086 0.375017
O O9 0.252924 0.380132 0.999317
O O10 0.100519 0.335249 0.052441
O O11 0.409204 0.689747 0.477807
O O12 0.500000 0.226629 0.250000
#
# Coordination Sequence:
#
# PCOD8149566 Si02
#       6
#     4   8   8   8   8   8
#     4  10  24  36  60  96 130 176 210 278 346 390
#     4  11  25  40  67  99 132 169 225 283 326 388
#     4  11  24  39  61  97 133 171 225 274 345 393
#     4  11  23  42  64  97 133 175 217 274 329 409
#     4  11  23  40  65  97 132 176 220 275 331 403
#     4  11  21  41  73  93 128 179 225 263 337 402
#
# _framework density 21.137636000000001
#
# number of rings (size 3 to 8) (size 9 to 14) (size 15 to 20)
#    0.000    1.091    5.455    1.091    8.909    2.909 
#    0.000    0.909    0.000    0.000    0.000    0.000 
#    0.000    0.000    0.000    0.000    0.000    0.000 
#
# Total GULP energy -272631.957795 kJ/mol
# GULP energy per Si atom -12392.361718 kJ/mol
# Density = 2.108953 g / cm^3
# Si number density = 21.137636 Si / 1000 Ang^3
#
#
#
# Elastic Constant Matrix: (Units=GPa)
#
#
# Indices 1 2 3 4 5 6 
#
# 1 132.9807 35.3847 50.7557 0.0000 18.6093 0.0000
# 2 35.3847 105.6512 55.6126 0.0000 22.4955 0.0000
# 3 50.7557 55.6126 116.5807 0.0000 17.1781 0.0000
# 4 0.0000 0.0000 0.0000 38.9915 0.0000 10.0616
# 5 18.6093 22.4955 17.1781 0.0000 40.6944 0.0000
# 6 0.0000 0.0000 0.0000 10.0616 0.0000 17.1160
#
#
#
# Elastic Compliance Matrix: (Units=1/GPa)
#
#
# Indices 1 2 3 4 5 6 
#
# 1 0.009348 -0.000887 -0.003294 0.000000 -0.002394 0.000000
# 2 -0.000887 0.013641 -0.005406 0.000000 -0.004853 0.000000
# 3 -0.003294 -0.005406 0.012719 0.000000 -0.000875 0.000000
# 4 0.000000 0.000000 0.000000 0.030233 0.000000 -0.017772
# 5 -0.002394 -0.004853 -0.000875 0.000000 0.028720 0.000000
# 6 0.000000 0.000000 0.000000 -0.017772 0.000000 0.068872
#
#
# Mechanical properties :
#
#
# Convention : Reuss Voigt Hill
#
# Bulk Modulus (GPa) = 60.47911 70.96873 65.72392
# Shear Modulus (GPa) = 26.56477 33.59103 30.07790
#
# Velocity S-wave (km/s) = 3.54892 3.99075 3.77630
# Velocity P-wave (km/s) = 6.74294 7.40825 7.08341
#
# Compressibility (1/GPa) = 0.01653463
#
# Stress axis : x y z
#
# Youngs Moduli (GPa) = 106.97234 73.30774 78.61995
#
# Poissons Ratio (x) = 0.06505 0.25897
# Poissons Ratio (y) = 0.09492 0.42501
# Poissons Ratio (z) = 0.35236 0.39629
#
# Static dielectric constant tensor:
#      x y z
#    x 3.848970 0.000000 0.195120 
#    y 0.000000 3.678480 0.000000 
#    z 0.195120 0.000000 4.243840 
# 
# 
# High freq. dielectric constant tensor:
#      x y z
#    x 1.820040 0.000000 -0.001300 
#    y 0.000000 1.804150 0.000000 
#    z -0.001300 0.000000 1.845340 
# 
# From -- ./inp_files/39723.got.cif
#   From: 2010.06.25/outbox.cif.g09.slc.cpg/sg15_20_cif.got.tgz:39723.got - 2010.06.28 07:06:18.
