data_PCOD8149512
_publ_section_title
;
Structure prediction by ZEFSAII (Michael W. Deem and Ramdas Pophale) SiO2 
 PCOD8149512
Probable space group: C 2/C
;
_chemical_formula_sum "Si O2"
_cell_formula_units_Z 36
_cell_length_a 5.159556
_cell_length_b 17.766051
_cell_length_c 14.633970
_cell_angle_alpha 90.000000
_cell_angle_beta 90.174726
_cell_angle_gamma 90.000000
_cell_volume 1341.415672
_symmetry_space_group_name_H-M "C 2/C"
_symmetry_group_IT_number 15
_symmetry_cell_setting 'monoclinic'
loop_
_space_group_symop_operation_xyz
x,y,z
-x,y,1/2-z
-x,-y,-z
x,-y,1/2+z
1/2+x,1/2+y,z
1/2-x,1/2+y,1/2-z
1/2-x,1/2-y,-z
1/2+x,1/2-y,1/2+z
loop_
_atom_site_type_symbol
_atom_site_label
_atom_site_fract_x
_atom_site_fract_y
_atom_site_fract_z
Si Si1 0.494014 0.389883 0.596952
Si Si2 0.298299 0.986841 0.178314
Si Si3 0.500000 0.348695 0.250000
Si Si4 0.502975 0.093140 0.516769
Si Si5 0.162392 0.268969 0.102014
O O1 0.555912 0.455785 0.670443
O O2 0.197546 0.396878 0.566222
O O3 0.530919 0.307038 0.641843
O O4 0.695801 0.403013 0.513213
O O5 0.500000 0.022044 0.250000
O O6 0.439372 0.981834 0.077409
O O7 0.216364 0.903878 0.208642
O O8 0.388003 0.294686 0.171263
O O9 0.460291 0.162336 0.588930
O O10 0.250000 0.250000 0.000000
#
# Coordination Sequence:
#
# PCOD8149512 Si02
#       5
#     8   8   4   8   8
#     4  11  26  44  77 101 143 185 250 295 364 429
#     4  12  26  43  69 105 146 188 239 301 367 429
#     4  12  26  48  70 106 152 194 246 302 372 438
#     4  11  23  48  72 107 136 193 236 303 363 440
#     4  10  23  47  75 104 143 192 242 300 365 432
#
# _framework density 26.837318
#
# number of rings (size 3 to 8) (size 9 to 14) (size 15 to 20)
#    0.000    0.889    2.222    4.667    4.667    1.778 
#    0.000    2.222    0.000    0.000    0.000    0.000 
#    0.000    0.000    0.000    0.000    0.000    0.000 
#
# Total GULP energy -223136.815633 kJ/mol
# GULP energy per Si atom -12396.489757 kJ/mol
# Density = 2.677624 g / cm^3
# Si number density = 26.837318 Si / 1000 Ang^3
#
#
#
# Elastic Constant Matrix: (Units=GPa)
#
#
# Indices 1 2 3 4 5 6 
#
# 1 70.8622 -4.8734 30.6449 0.0000 19.0873 0.0000
# 2 -4.8734 131.3385 35.2046 0.0000 31.2665 0.0000
# 3 30.6449 35.2046 164.6902 0.0000 46.3689 0.0000
# 4 0.0000 0.0000 0.0000 45.5229 0.0000 17.3103
# 5 19.0873 31.2665 46.3689 0.0000 59.3681 0.0000
# 6 0.0000 0.0000 0.0000 17.3103 0.0000 33.2290
#
#
#
# Elastic Compliance Matrix: (Units=1/GPa)
#
#
# Indices 1 2 3 4 5 6 
#
# 1 0.016534 0.002357 -0.002223 0.000000 -0.004821 0.000000
# 2 0.002357 0.009111 -0.001053 0.000000 -0.004733 0.000000
# 3 -0.002223 -0.001053 0.008144 0.000000 -0.005092 0.000000
# 4 0.000000 0.000000 0.000000 0.027393 0.000000 -0.014270
# 5 -0.004821 -0.004733 -0.005092 0.000000 0.024863 0.000000
# 6 0.000000 0.000000 0.000000 -0.014270 0.000000 0.037528
#
#
# Mechanical properties :
#
#
# Convention : Reuss Voigt Hill
#
# Bulk Modulus (GPa) = 31.29912 54.31590 42.80751
# Shear Modulus (GPa) = 36.74778 48.01833 42.38305
#
# Velocity S-wave (km/s) = 3.70439 4.23453 3.97830
# Velocity P-wave (km/s) = 5.47581 6.64764 6.08998
#
# Compressibility (1/GPa) = 0.03194978
#
# Stress axis : x y z
#
# Youngs Moduli (GPa) = 60.48170 109.76332 122.78377
#
# Poissons Ratio (x) = -0.25872 0.27296
# Poissons Ratio (y) = -0.14256 0.12935
# Poissons Ratio (z) = 0.13446 0.11563
#
# Static dielectric constant tensor:
#      x y z
#    x 4.377660 0.000000 -0.049890 
#    y 0.000000 6.416730 0.000000 
#    z -0.049890 0.000000 4.852650 
# 
# 
# High freq. dielectric constant tensor:
#      x y z
#    x 2.061570 0.000000 -0.000270 
#    y 0.000000 2.112940 0.000000 
#    z -0.000270 0.000000 2.084780 
# 
# From -- ./inp_files/128728.got.cif
#   From: 2010.06.25/outbox.cif.g09.slc.cpg/sg15_65_cif.got.tgz:128728.got - 2010.06.28 07:06:18.
