data_PCOD8149084
_publ_section_title
;
Structure prediction by ZEFSAII (Michael W. Deem and Ramdas Pophale) SiO2 
 PCOD8149084
Probable space group: C 2/C
;
_chemical_formula_sum "Si O2"
_cell_formula_units_Z 52
_cell_length_a 14.947528
_cell_length_b 24.567640
_cell_length_c 12.489584
_cell_angle_alpha 90.000000
_cell_angle_beta 147.587622
_cell_angle_gamma 90.000000
_cell_volume 2458.402693
_symmetry_space_group_name_H-M "C 2/C"
_symmetry_group_IT_number 15
_symmetry_cell_setting 'monoclinic'
loop_
_space_group_symop_operation_xyz
x,y,z
-x,y,1/2-z
-x,-y,-z
x,-y,1/2+z
1/2+x,1/2+y,z
1/2-x,1/2+y,1/2-z
1/2-x,1/2-y,-z
1/2+x,1/2-y,1/2+z
loop_
_atom_site_type_symbol
_atom_site_label
_atom_site_fract_x
_atom_site_fract_y
_atom_site_fract_z
Si Si1 0.107678 0.072886 0.655268
Si Si2 0.622132 0.789113 0.593813
Si Si3 0.191412 0.362647 0.474467
Si Si4 0.389832 0.535094 0.241347
Si Si5 0.000000 0.878426 0.250000
Si Si6 0.687399 0.192302 0.398521
Si Si7 0.252147 0.326366 0.309827
O O1 0.978177 0.087661 0.618930
O O2 0.231900 0.122774 0.755274
O O3 0.011169 0.062355 0.449129
O O4 0.197816 0.017999 0.791858
O O5 0.723917 0.817906 0.600163
O O6 0.695788 0.811334 0.778891
O O7 0.625534 0.723455 0.594712
O O8 0.431355 0.804130 0.389729
O O9 0.246512 0.422352 0.567066
O O10 0.294488 0.344137 0.474198
O O11 0.000000 0.367502 0.250000
O O12 0.500000 0.518346 0.250000
O O13 0.174870 0.847238 0.412233
O O14 0.500000 0.179140 0.250000
O O15 0.750000 0.250000 0.500000
#
# Coordination Sequence:
#
# PCOD8149084 Si02
#       7
#     8   8   8   8   4   8   8
#     4  11  24  42  69  98 129 174 228 284 330 402
#     4  11  24  41  64  98 137 181 217 270 341 406
#     4  10  23  44  66 100 135 170 221 279 338 405
#     4  11  22  44  72  93 128 173 228 280 340 390
#     4  12  24  40  64  94 134 174 230 278 338 408
#     4  12  24  40  60  90 132 183 227 275 331 402
#     4  11  24  41  66  98 140 173 223 273 336 408
#
# _framework density 21.151945000000001
#
# number of rings (size 3 to 8) (size 9 to 14) (size 15 to 20)
#    0.000    0.923    3.077    4.154    4.308    0.000 
#    0.000    5.385    0.000    0.000    0.000    0.000 
#    0.000    0.000    0.000    0.000    0.000    0.000 
#
# Total GULP energy -322312.369735 kJ/mol
# GULP energy per Si atom -12396.629605 kJ/mol
# Density = 2.110380 g / cm^3
# Si number density = 21.151945 Si / 1000 Ang^3
#
#
#
# Elastic Constant Matrix: (Units=GPa)
#
#
# Indices 1 2 3 4 5 6 
#
# 1 115.0108 47.0331 42.8847 0.0000 -25.4461 0.0000
# 2 47.0331 143.3277 39.4438 0.0000 -4.1366 0.0000
# 3 42.8847 39.4438 88.5604 0.0000 -21.1441 0.0000
# 4 0.0000 0.0000 0.0000 27.2629 0.0000 -11.6869
# 5 -25.4461 -4.1366 -21.1441 0.0000 42.2668 0.0000
# 6 0.0000 0.0000 0.0000 -11.6869 0.0000 38.5584
#
#
#
# Elastic Compliance Matrix: (Units=1/GPa)
#
#
# Indices 1 2 3 4 5 6 
#
# 1 0.012378 -0.002979 -0.003359 0.000000 0.005480 0.000000
# 2 -0.002979 0.008716 -0.003025 0.000000 -0.002454 0.000000
# 3 -0.003359 -0.003025 0.015572 0.000000 0.005472 0.000000
# 4 0.000000 0.000000 0.000000 0.042157 0.000000 0.012778
# 5 0.005480 -0.002454 0.005472 0.000000 0.029456 0.000000
# 6 0.000000 0.000000 0.000000 0.012778 0.000000 0.029808
#
#
# Mechanical properties :
#
#
# Convention : Reuss Voigt Hill
#
# Bulk Modulus (GPa) = 55.74186 67.29135 61.51661
# Shear Modulus (GPa) = 30.71367 36.12010 33.41688
#
# Velocity S-wave (km/s) = 3.81471 4.13685 3.97904
# Velocity P-wave (km/s) = 6.76853 7.39598 7.08920
#
# Compressibility (1/GPa) = 0.01793984
#
# Stress axis : x y z
#
# Youngs Moduli (GPa) = 80.78774 114.72517 64.21790
#
# Poissons Ratio (x) = 0.34182 0.21568
# Poissons Ratio (y) = 0.24070 0.19428
# Poissons Ratio (z) = 0.27133 0.34709
#
# Static dielectric constant tensor:
#      x y z
#    x 4.157050 0.000000 -0.482790 
#    y 0.000000 4.269330 0.000000 
#    z -0.482790 0.000000 3.692730 
# 
# 
# High freq. dielectric constant tensor:
#      x y z
#    x 1.838350 0.000000 -0.030220 
#    y 0.000000 1.837270 0.000000 
#    z -0.030220 0.000000 1.826240 
# 
# From -- ./inp_files/100723.got.cif
#   From: 2010.06.25/outbox.cif.g09.slc.cpg/sg15_51_cif.got.tgz:100723.got - 2010.06.28 07:06:18.
