data_PCOD8149275
_publ_section_title
;
Structure prediction by ZEFSAII (Michael W. Deem and Ramdas Pophale) SiO2 
 PCOD8149275
Probable space group: C 2/C
;
_chemical_formula_sum "Si O2"
_cell_formula_units_Z 44
_cell_length_a 9.154465
_cell_length_b 27.325288
_cell_length_c 8.090298
_cell_angle_alpha 90.000000
_cell_angle_beta 118.573730
_cell_angle_gamma 90.000000
_cell_volume 1777.284021
_symmetry_space_group_name_H-M "C 2/C"
_symmetry_group_IT_number 15
_symmetry_cell_setting 'monoclinic'
loop_
_space_group_symop_operation_xyz
x,y,z
-x,y,1/2-z
-x,-y,-z
x,-y,1/2+z
1/2+x,1/2+y,z
1/2-x,1/2+y,1/2-z
1/2-x,1/2-y,-z
1/2+x,1/2-y,1/2+z
loop_
_atom_site_type_symbol
_atom_site_label
_atom_site_fract_x
_atom_site_fract_y
_atom_site_fract_z
Si Si1 0.537954 0.288106 0.596229
Si Si2 0.645179 0.610546 0.541794
Si Si3 0.764325 0.465533 0.876734
Si Si4 0.500000 0.858703 0.250000
Si Si5 0.000000 0.507219 0.250000
Si Si6 0.500000 0.451157 0.250000
Si Si7 0.084504 0.303568 0.635925
O O1 0.500000 0.261214 0.750000
O O2 0.421359 0.335478 0.521760
O O3 0.727748 0.303038 0.700554
O O4 0.489429 0.251469 0.422646
O O5 0.654629 0.581545 0.370364
O O6 0.520850 0.582114 0.598198
O O7 0.834275 0.611863 0.715991
O O8 0.845144 0.460183 0.737692
O O9 0.661176 0.515021 0.845591
O O10 0.927467 0.469530 0.078003
O O11 0.557154 0.830235 0.447001
O O12 0.000000 0.329022 0.750000
#
# Coordination Sequence:
#
# PCOD8149275 Si02
#       7
#     8   8   8   4   4   4   8
#     4  12  25  49  76 111 150 195 247 312 373 456
#     4  12  28  45  73 109 151 198 256 313 377 443
#     4  11  24  49  70 104 142 197 243 309 373 439
#     4  12  27  52  73 112 156 192 255 320 372 455
#     4  10  23  44  76  96 135 195 244 296 374 437
#     4  12  28  44  73 104 153 195 251 314 376 444
#     4  12  27  50  81 110 152 201 248 302 394 450
#
# _framework density 24.756875999999998
#
# number of rings (size 3 to 8) (size 9 to 14) (size 15 to 20)
#    0.000    0.364    4.545    3.273    7.636    0.000 
#    1.636    0.000    0.000    0.000    0.000    0.000 
#    0.000    0.000    0.000    0.000    0.000    0.000 
#
# Total GULP energy -272619.561924 kJ/mol
# GULP energy per Si atom -12391.798269 kJ/mol
# Density = 2.470053 g / cm^3
# Si number density = 24.756876 Si / 1000 Ang^3
#
#
#
# Elastic Constant Matrix: (Units=GPa)
#
#
# Indices 1 2 3 4 5 6 
#
# 1 182.3347 21.1780 38.3089 0.0000 -8.3676 0.0000
# 2 21.1780 64.8878 13.1777 0.0000 -7.4061 0.0000
# 3 38.3089 13.1777 69.2359 0.0000 3.7865 0.0000
# 4 0.0000 0.0000 0.0000 -37.9950 0.0000 8.7217
# 5 -8.3676 -7.4061 3.7865 0.0000 51.4711 0.0000
# 6 0.0000 0.0000 0.0000 8.7217 0.0000 20.6809
#
#
#
# Elastic Compliance Matrix: (Units=1/GPa)
#
#
# Indices 1 2 3 4 5 6 
#
# 1 0.006388 -0.001279 -0.003351 0.000000 0.001101 0.000000
# 2 -0.001279 0.016625 -0.002587 0.000000 0.002375 0.000000
# 3 -0.003351 -0.002587 0.016908 0.000000 -0.002161 0.000000
# 4 0.000000 0.000000 0.000000 -0.023996 0.000000 0.010120
# 5 0.001101 0.002375 -0.002161 0.000000 0.020108 0.000000
# 6 0.000000 0.000000 0.000000 0.010120 0.000000 0.044086
#
#
# Mechanical properties :
#
#
# Convention : Reuss Voigt Hill
#
# Bulk Modulus (GPa) = 39.23447 51.30973 45.27210
# Shear Modulus (GPa) = 48.52166 23.08432 35.80299
#
# Velocity S-wave (km/s) = 4.43191 3.05690 3.80700
# Velocity P-wave (km/s) = 6.48625 5.76454 6.13602
#
# Compressibility (1/GPa) = 0.02548779
#
# Stress axis : x y z
#
# Youngs Moduli (GPa) = 156.55504 60.15100 59.14328
#
# Poissons Ratio (x) = 0.07690 0.19820
# Poissons Ratio (y) = 0.20016 0.15298
# Poissons Ratio (z) = 0.52464 0.15559
#
# Static dielectric constant tensor:
#      x y z
#    x 4.993940 0.000000 -0.174830 
#    y 0.000000 4.345080 0.000000 
#    z -0.174830 0.000000 4.736100 
# 
# 
# High freq. dielectric constant tensor:
#      x y z
#    x 2.010160 0.000000 0.010480 
#    y 0.000000 1.969030 0.000000 
#    z 0.010480 0.000000 1.991830 
# 
# From -- ./inp_files/26032.got.cif
#   From: 2010.06.25/outbox.cif.g09.slc.cpg/sg15_14_cif.got.tgz:26032.got - 2010.06.28 07:06:18.
