data_PCOD8149162
_publ_section_title
;
Structure prediction by ZEFSAII (Michael W. Deem and Ramdas Pophale) SiO2 
 PCOD8149162
Probable space group: C 2/C
;
_chemical_formula_sum "Si O2"
_cell_formula_units_Z 48
_cell_length_a 26.156184
_cell_length_b 18.808978
_cell_length_c 8.750970
_cell_angle_alpha 90.000000
_cell_angle_beta 149.294294
_cell_angle_gamma 90.000000
_cell_volume 2198.370399
_symmetry_space_group_name_H-M "C 2/C"
_symmetry_group_IT_number 15
_symmetry_cell_setting 'monoclinic'
loop_
_space_group_symop_operation_xyz
x,y,z
-x,y,1/2-z
-x,-y,-z
x,-y,1/2+z
1/2+x,1/2+y,z
1/2-x,1/2+y,1/2-z
1/2-x,1/2-y,-z
1/2+x,1/2-y,1/2+z
loop_
_atom_site_type_symbol
_atom_site_label
_atom_site_fract_x
_atom_site_fract_y
_atom_site_fract_z
Si Si1 0.531053 0.729477 0.579998
Si Si2 0.000000 0.340929 0.250000
Si Si3 0.083914 0.093169 0.244749
Si Si4 0.354947 0.235181 0.851957
Si Si5 0.100558 0.538953 0.816691
Si Si6 0.807446 0.415273 0.253463
Si Si7 0.000000 0.014152 0.750000
O O1 0.556143 0.788559 0.514931
O O2 0.496270 0.654692 0.416052
O O3 0.436050 0.752266 0.432513
O O4 0.625060 0.719553 0.939817
O O5 0.921921 0.392155 0.136444
O O6 0.198493 0.115398 0.518897
O O7 0.079402 0.033665 0.362914
O O8 0.060131 0.063592 0.017334
O O9 0.250000 0.250000 0.500000
O O10 0.373778 0.154131 0.955273
O O11 0.176739 0.563159 0.881700
O O12 0.000000 0.500000 0.500000
O O13 0.161953 0.481909 0.069004
#
# Coordination Sequence:
#
# PCOD8149162 Si02
#       7
#     8   4   8   8   8   8   4
#     4  11  24  42  69  96 136 183 228 290 348 424
#     4  12  23  42  66 103 142 184 226 286 366 409
#     4  11  23  44  70  97 134 174 231 283 350 412
#     4  11  23  42  68  95 130 185 238 278 347 424
#     4  12  24  41  65  99 142 182 223 286 349 416
#     4  12  24  40  69 100 134 179 237 281 345 423
#     4  10  23  44  68  97 128 180 220 282 352 407
#
# _framework density 21.834354000000001
#
# number of rings (size 3 to 8) (size 9 to 14) (size 15 to 20)
#    0.000    0.667    5.000    3.500    2.333    0.000 
#    0.000    0.833    0.000    0.000    0.000    0.000 
#    0.000    0.000    0.000    0.000    0.000    0.000 
#
# Total GULP energy -297399.292364 kJ/mol
# GULP energy per Si atom -12391.637182 kJ/mol
# Density = 2.178466 g / cm^3
# Si number density = 21.834354 Si / 1000 Ang^3
#
#
#
# Elastic Constant Matrix: (Units=GPa)
#
#
# Indices 1 2 3 4 5 6 
#
# 1 52.4361 1.7514 31.5273 0.0000 -20.7908 0.0000
# 2 1.7514 108.3146 33.7412 0.0000 -16.1736 0.0000
# 3 31.5273 33.7412 108.6805 0.0000 -8.8798 0.0000
# 4 0.0000 0.0000 0.0000 26.8581 0.0000 -13.0962
# 5 -20.7908 -16.1736 -8.8798 0.0000 24.6384 0.0000
# 6 0.0000 0.0000 0.0000 -13.0962 0.0000 50.0986
#
#
#
# Elastic Compliance Matrix: (Units=1/GPa)
#
#
# Indices 1 2 3 4 5 6 
#
# 1 0.038872 0.007858 -0.010937 0.000000 0.034019 0.000000
# 2 0.007858 0.012661 -0.005141 0.000000 0.013090 0.000000
# 3 -0.010937 -0.005141 0.013333 0.000000 -0.007798 0.000000
# 4 0.000000 0.000000 0.000000 0.042672 0.000000 0.011155
# 5 0.034019 0.013090 -0.007798 0.000000 0.075075 0.000000
# 6 0.000000 0.000000 0.000000 0.011155 0.000000 0.022877
#
#
# Mechanical properties :
#
#
# Convention : Reuss Voigt Hill
#
# Bulk Modulus (GPa) = 20.64941 44.83009 32.73975
# Shear Modulus (GPa) = 21.00205 33.81310 27.40757
#
# Velocity S-wave (km/s) = 3.10478 3.93952 3.54679
# Velocity P-wave (km/s) = 4.72554 6.42414 5.63916
#
# Compressibility (1/GPa) = 0.04842754
#
# Stress axis : x y z
#
# Youngs Moduli (GPa) = 25.72515 78.98085 75.00296
#
# Poissons Ratio (x) = -0.62064 0.82028
# Poissons Ratio (y) = -0.20215 0.38558
# Poissons Ratio (z) = 0.28135 0.40603
#
# Static dielectric constant tensor:
#      x y z
#    x 3.960390 0.000000 -0.168090 
#    y 0.000000 4.929530 0.000000 
#    z -0.168090 0.000000 4.197840 
# 
# 
# High freq. dielectric constant tensor:
#      x y z
#    x 1.862600 0.000000 -0.014710 
#    y 0.000000 1.879310 0.000000 
#    z -0.014710 0.000000 1.843500 
# 
# From -- ./inp_files/48422.got.cif
#   From: 2010.06.25/outbox.cif.g09.slc.cpg/sg15_25_cif.got.tgz:48422.got - 2010.06.28 07:06:18.
