data_PCOD8149343
_publ_section_title
;
Structure prediction by ZEFSAII (Michael W. Deem and Ramdas Pophale) SiO2 
 PCOD8149343
Probable space group: C 2/C
;
_chemical_formula_sum "Si O2"
_cell_formula_units_Z 60
_cell_length_a 9.068871
_cell_length_b 19.210360
_cell_length_c 18.259141
_cell_angle_alpha 90.000000
_cell_angle_beta 120.395786
_cell_angle_gamma 90.000000
_cell_volume 2743.808488
_symmetry_space_group_name_H-M "C 2/C"
_symmetry_group_IT_number 15
_symmetry_cell_setting 'monoclinic'
loop_
_space_group_symop_operation_xyz
x,y,z
-x,y,1/2-z
-x,-y,-z
x,-y,1/2+z
1/2+x,1/2+y,z
1/2-x,1/2+y,1/2-z
1/2-x,1/2-y,-z
1/2+x,1/2-y,1/2+z
loop_
_atom_site_type_symbol
_atom_site_label
_atom_site_fract_x
_atom_site_fract_y
_atom_site_fract_z
Si Si1 0.975044 0.077273 0.525205
Si Si2 0.208696 0.573196 0.576153
Si Si3 0.777253 0.676435 0.638943
Si Si4 0.857861 0.825125 0.655919
Si Si5 0.922121 0.565067 0.386434
Si Si6 0.144366 0.318850 0.178908
Si Si7 0.651054 0.336802 0.632325
Si Si8 0.000000 0.597344 0.250000
O O1 0.891691 0.066596 0.583474
O O2 0.847795 0.126915 0.446692
O O3 0.151038 0.119555 0.573895
O O4 0.000000 0.000000 0.500000
O O5 0.167190 0.503886 0.609146
O O6 0.231661 0.632278 0.641760
O O7 0.063495 0.590546 0.479711
O O8 0.756199 0.755993 0.602590
O O9 0.746451 0.682106 0.718825
O O10 0.960615 0.650527 0.656397
O O11 0.723615 0.876833 0.657458
O O12 0.000000 0.795937 0.750000
O O13 0.974671 0.865610 0.625459
O O14 0.003669 0.551791 0.325905
O O15 0.133999 0.245997 0.133037
O O16 0.830369 0.355924 0.714766
#
# Coordination Sequence:
#
# PCOD8149343 Si02
#       8
#     8   8   8   8   8   8   8   4
#     4  12  28  46  66 101 141 180 230 287 348 416
#     4  11  27  45  62 101 140 177 231 281 350 411
#     4  10  23  45  71  99 138 177 230 287 338 412
#     4  11  20  44  72 102 131 177 236 280 339 415
#     4  11  25  43  69  97 137 182 226 291 340 413
#     4  10  23  45  69 102 133 183 229 278 346 410
#     4  11  24  42  71 105 134 178 234 280 343 416
#     4  12  22  44  72  96 138 182 226 290 346 406
#
# _framework density 21.867415999999999
#
# number of rings (size 3 to 8) (size 9 to 14) (size 15 to 20)
#    0.000    1.067    5.333    0.800    7.467    6.400 
#    2.400    0.000    0.000    0.000    0.000    0.000 
#    0.000    0.000    0.000    0.000    0.000    0.000 
#
# Total GULP energy -371774.771670 kJ/mol
# GULP energy per Si atom -12392.492389 kJ/mol
# Density = 2.181764 g / cm^3
# Si number density = 21.867416 Si / 1000 Ang^3
#
#
#
# Elastic Constant Matrix: (Units=GPa)
#
#
# Indices 1 2 3 4 5 6 
#
# 1 128.2007 57.8236 36.6223 0.0000 -19.1896 0.0000
# 2 57.8236 112.0113 51.0903 0.0000 -1.1755 0.0000
# 3 36.6223 51.0903 81.2099 0.0000 -7.9566 0.0000
# 4 0.0000 0.0000 0.0000 30.5089 0.0000 -6.5376
# 5 -19.1896 -1.1755 -7.9566 0.0000 41.8881 0.0000
# 6 0.0000 0.0000 0.0000 -6.5376 0.0000 30.1809
#
#
#
# Elastic Compliance Matrix: (Units=1/GPa)
#
#
# Indices 1 2 3 4 5 6 
#
# 1 0.011205 -0.005106 -0.001377 0.000000 0.004728 0.000000
# 2 -0.005106 0.014904 -0.007399 0.000000 -0.003327 0.000000
# 3 -0.001377 -0.007399 0.017840 0.000000 0.002550 0.000000
# 4 0.000000 0.000000 0.000000 0.034373 0.000000 0.007446
# 5 0.004728 -0.003327 0.002550 0.000000 0.026430 0.000000
# 6 0.000000 0.000000 0.000000 0.007446 0.000000 0.034746
#
#
# Mechanical properties :
#
#
# Convention : Reuss Voigt Hill
#
# Bulk Modulus (GPa) = 61.79543 68.05493 64.92518
# Shear Modulus (GPa) = 28.95910 32.24128 30.60019
#
# Velocity S-wave (km/s) = 3.64305 3.84395 3.74485
# Velocity P-wave (km/s) = 6.78352 7.13376 6.96084
#
# Compressibility (1/GPa) = 0.01618243
#
# Stress axis : x y z
#
# Youngs Moduli (GPa) = 89.24931 67.09683 56.05491
#
# Poissons Ratio (x) = 0.34263 0.07719
# Poissons Ratio (y) = 0.45575 0.41477
# Poissons Ratio (z) = 0.12290 0.49647
#
# Static dielectric constant tensor:
#      x y z
#    x 4.230610 0.000000 -0.200670 
#    y 0.000000 3.727390 0.000000 
#    z -0.200670 0.000000 3.936660 
# 
# 
# High freq. dielectric constant tensor:
#      x y z
#    x 1.872740 0.000000 -0.012870 
#    y 0.000000 1.851870 0.000000 
#    z -0.012870 0.000000 1.854020 
# 
# From -- ./inp_files/192564.got.cif
#   From: 2010.06.25/outbox.cif.g09.slc.cpg/sg15_97_cif.got.tgz:192564.got - 2010.06.28 07:06:18.
