data_PCOD8149686
_publ_section_title
;
Structure prediction by ZEFSAII (Michael W. Deem and Ramdas Pophale) SiO2 
 PCOD8149686
Probable space group: C 2/C
;
_chemical_formula_sum "Si O2"
_cell_formula_units_Z 44
_cell_length_a 20.836847
_cell_length_b 10.032500
_cell_length_c 8.880901
_cell_angle_alpha 90.000000
_cell_angle_beta 113.107800
_cell_angle_gamma 90.000000
_cell_volume 1707.562201
_symmetry_space_group_name_H-M "C 2/C"
_symmetry_group_IT_number 15
_symmetry_cell_setting 'monoclinic'
loop_
_space_group_symop_operation_xyz
x,y,z
-x,y,1/2-z
-x,-y,-z
x,-y,1/2+z
1/2+x,1/2+y,z
1/2-x,1/2+y,1/2-z
1/2-x,1/2-y,-z
1/2+x,1/2-y,1/2+z
loop_
_atom_site_type_symbol
_atom_site_label
_atom_site_fract_x
_atom_site_fract_y
_atom_site_fract_z
Si Si1 0.500000 0.507450 0.750000
Si Si2 0.278023 0.560832 0.646847
Si Si3 0.798441 0.825681 0.836246
Si Si4 0.086764 0.881118 0.075558
Si Si5 0.917612 0.387505 0.020277
Si Si6 0.081635 0.347258 0.145145
O O1 0.440033 0.414855 0.618794
O O2 0.474104 0.604236 0.857833
O O3 0.233138 0.677586 0.678621
O O4 0.253011 0.408362 0.664934
O O5 0.293815 0.590683 0.488132
O O6 0.348746 0.532173 0.809699
O O7 0.880552 0.789968 0.873962
O O8 0.118648 0.730641 0.107484
O O9 0.891061 0.388098 0.165907
O O10 0.998228 0.339230 0.073169
O O11 0.897247 0.532370 0.945406
#
# Coordination Sequence:
#
# PCOD8149686 Si02
#       6
#     4   8   8   8   8   8
#     4  10  24  40  68 106 148 180 234 300 366 428
#     4  11  28  48  74 107 142 194 243 299 361 431
#     4  11  28  50  74 104 147 188 250 297 363 432
#     4  11  24  42  69 106 140 188 234 296 362 433
#     4  10  24  41  69 102 140 187 235 292 363 422
#     4  10  24  45  68 102 143 185 238 295 356 431
#
# _framework density 25.767728000000002
#
# number of rings (size 3 to 8) (size 9 to 14) (size 15 to 20)
#    0.000    1.455    0.000    2.182   17.818    3.636 
#    0.000    0.000    0.000    0.000    0.000    0.000 
#    0.000    0.000    0.000    0.000    0.000    0.000 
#
# Total GULP energy -272572.832670 kJ/mol
# GULP energy per Si atom -12389.674212 kJ/mol
# Density = 2.570908 g / cm^3
# Si number density = 25.767728 Si / 1000 Ang^3
#
#
#
# Elastic Constant Matrix: (Units=GPa)
#
#
# Indices 1 2 3 4 5 6 
#
# 1 51.1043 30.5114 31.2855 0.0000 -20.0258 0.0000
# 2 30.5114 156.5500 55.9964 0.0000 -24.7749 0.0000
# 3 31.2855 55.9964 119.6078 0.0000 -26.8036 0.0000
# 4 0.0000 0.0000 0.0000 37.9207 0.0000 5.9451
# 5 -20.0258 -24.7749 -26.8036 0.0000 36.5617 0.0000
# 6 0.0000 0.0000 0.0000 5.9451 0.0000 38.6493
#
#
#
# Elastic Compliance Matrix: (Units=1/GPa)
#
#
# Indices 1 2 3 4 5 6 
#
# 1 0.027418 -0.002329 -0.003673 0.000000 0.010747 0.000000
# 2 -0.002329 0.008170 -0.002705 0.000000 0.002277 0.000000
# 3 -0.003673 -0.002705 0.011638 0.000000 0.004687 0.000000
# 4 0.000000 0.000000 0.000000 0.027022 0.000000 -0.004157
# 5 0.010747 0.002277 0.004687 0.000000 0.038216 0.000000
# 6 0.000000 0.000000 0.000000 -0.004157 0.000000 0.026513
#
#
# Mechanical properties :
#
#
# Convention : Reuss Voigt Hill
#
# Bulk Modulus (GPa) = 33.54445 62.53874 48.04160
# Shear Modulus (GPa) = 30.06071 36.59094 33.32583
#
# Velocity S-wave (km/s) = 3.41926 3.77242 3.60017
# Velocity P-wave (km/s) = 5.35114 6.58010 5.99718
#
# Compressibility (1/GPa) = 0.02981119
#
# Stress axis : x y z
#
# Youngs Moduli (GPa) = 36.47209 122.40373 85.92335
#
# Poissons Ratio (x) = 0.28511 0.31559
# Poissons Ratio (y) = 0.08495 0.23245
# Poissons Ratio (z) = 0.13396 0.33114
#
# Static dielectric constant tensor:
#      x y z
#    x 4.627140 0.000000 -0.056110 
#    y 0.000000 4.790720 0.000000 
#    z -0.056110 0.000000 4.563200 
# 
# 
# High freq. dielectric constant tensor:
#      x y z
#    x 2.030870 0.000000 -0.011460 
#    y 0.000000 2.055110 0.000000 
#    z -0.011460 0.000000 2.021140 
# 
# From -- ./inp_files/54467.got.cif
#   From: 2010.06.25/outbox.cif.g09.slc.cpg/sg15_28_cif.got.tgz:54467.got - 2010.06.28 07:06:18.
