data_PCOD8149283
_publ_section_title
;
Structure prediction by ZEFSAII (Michael W. Deem and Ramdas Pophale) SiO2 
 PCOD8149283
Probable space group: C 2/C
;
_chemical_formula_sum "Si O2"
_cell_formula_units_Z 36
_cell_length_a 11.572217
_cell_length_b 7.329991
_cell_length_c 20.601200
_cell_angle_alpha 90.000000
_cell_angle_beta 82.538486
_cell_angle_gamma 90.000000
_cell_volume 1732.684142
_symmetry_space_group_name_H-M "C 2/C"
_symmetry_group_IT_number 15
_symmetry_cell_setting 'monoclinic'
loop_
_space_group_symop_operation_xyz
x,y,z
-x,y,1/2-z
-x,-y,-z
x,-y,1/2+z
1/2+x,1/2+y,z
1/2-x,1/2+y,1/2-z
1/2-x,1/2-y,-z
1/2+x,1/2-y,1/2+z
loop_
_atom_site_type_symbol
_atom_site_label
_atom_site_fract_x
_atom_site_fract_y
_atom_site_fract_z
Si Si1 0.082879 0.418185 0.689329
Si Si2 0.000000 0.068885 0.750000
Si Si3 0.055848 0.342536 0.922192
Si Si4 0.138166 0.293425 0.465796
Si Si5 0.342930 0.510105 0.149612
O O1 0.210638 0.502625 0.683605
O O2 0.000000 0.513167 0.750000
O O3 0.089576 0.199955 0.703576
O O4 0.029209 0.446909 0.621890
O O5 0.926505 0.946622 0.704985
O O6 0.143086 0.493594 0.945324
O O7 0.130955 0.188027 0.881935
O O8 0.978649 0.252942 0.984798
O O9 0.250000 0.250000 0.500000
O O10 0.136527 0.169159 0.402698
#
# Coordination Sequence:
#
# PCOD8149283 Si02
#       5
#     8   4   8   8   8
#     4   9  20  43  64  92 137 168 216 278 316 384
#     4   8  22  42  62  98 132 164 232 266 320 402
#     4  10  23  45  64 100 130 169 222 267 327 393
#     4  11  23  43  70  95 136 169 217 279 322 388
#     4  11  21  45  70  92 132 180 214 274 333 388
#
# _framework density 20.777011000000002
#
# number of rings (size 3 to 8) (size 9 to 14) (size 15 to 20)
#    0.667    1.333    2.222    0.667    0.000    2.667 
#   10.000    0.000    0.000    0.000    0.000    0.000 
#    0.000    0.000    0.000    0.000    0.000    0.000 
#
# Total GULP energy -223179.227336 kJ/mol
# GULP energy per Si atom -12398.845963 kJ/mol
# Density = 2.072972 g / cm^3
# Si number density = 20.777011 Si / 1000 Ang^3
#
#
#
# Elastic Constant Matrix: (Units=GPa)
#
#
# Indices 1 2 3 4 5 6 
#
# 1 164.9184 72.0788 82.3877 0.0000 -1.1382 0.0000
# 2 72.0788 77.6123 46.1718 0.0000 6.3597 0.0000
# 3 82.3877 46.1718 134.3145 0.0000 3.0112 0.0000
# 4 0.0000 0.0000 0.0000 29.6435 0.0000 10.2551
# 5 -1.1382 6.3597 3.0112 0.0000 38.6872 0.0000
# 6 0.0000 0.0000 0.0000 10.2551 0.0000 27.5009
#
#
#
# Elastic Compliance Matrix: (Units=1/GPa)
#
#
# Indices 1 2 3 4 5 6 
#
# 1 0.012169 -0.008811 -0.004484 0.000000 0.002155 0.000000
# 2 -0.008811 0.022771 -0.002338 0.000000 -0.003821 0.000000
# 3 -0.004484 -0.002338 0.011013 0.000000 -0.000605 0.000000
# 4 0.000000 0.000000 0.000000 0.038731 0.000000 -0.014443
# 5 0.002155 -0.003821 -0.000605 0.000000 0.026587 0.000000
# 6 0.000000 0.000000 0.000000 -0.014443 0.000000 0.041748
#
#
# Mechanical properties :
#
#
# Convention : Reuss Voigt Hill
#
# Bulk Modulus (GPa) = 68.08219 86.45799 77.27009
# Shear Modulus (GPa) = 26.42987 30.91344 28.67166
#
# Velocity S-wave (km/s) = 3.57048 3.86147 3.71883
# Velocity P-wave (km/s) = 7.05953 7.84755 7.46394
#
# Compressibility (1/GPa) = 0.01468813
#
# Stress axis : x y z
#
# Youngs Moduli (GPa) = 82.17300 43.91587 90.80247
#
# Poissons Ratio (x) = 0.38693 0.40718
# Poissons Ratio (y) = 0.72401 0.21226
# Poissons Ratio (z) = 0.36848 0.10266
#
# Static dielectric constant tensor:
#      x y z
#    x 3.746740 0.000000 0.181700 
#    y 0.000000 3.478820 0.000000 
#    z 0.181700 0.000000 4.190350 
# 
# 
# High freq. dielectric constant tensor:
#      x y z
#    x 1.805730 0.000000 0.002600 
#    y 0.000000 1.791140 0.000000 
#    z 0.002600 0.000000 1.835110 
# 
# From -- ./inp_files/235495.got.cif
#   From: 2010.06.25/outbox.cif.g09.slc.cpg/sg15_118_cif.got.tgz:235495.got - 2010.06.28 07:06:18.
