data_PCOD8149398
_publ_section_title
;
Structure prediction by ZEFSAII (Michael W. Deem and Ramdas Pophale) SiO2 
 PCOD8149398
Probable space group: C 2/C
;
_chemical_formula_sum "Si O2"
_cell_formula_units_Z 28
_cell_length_a 16.833885
_cell_length_b 8.401941
_cell_length_c 10.826102
_cell_angle_alpha 90.000000
_cell_angle_beta 127.573750
_cell_angle_gamma 90.000000
_cell_volume 1213.593476
_symmetry_space_group_name_H-M "C 2/C"
_symmetry_group_IT_number 15
_symmetry_cell_setting 'monoclinic'
loop_
_space_group_symop_operation_xyz
x,y,z
-x,y,1/2-z
-x,-y,-z
x,-y,1/2+z
1/2+x,1/2+y,z
1/2-x,1/2+y,1/2-z
1/2-x,1/2-y,-z
1/2+x,1/2-y,1/2+z
loop_
_atom_site_type_symbol
_atom_site_label
_atom_site_fract_x
_atom_site_fract_y
_atom_site_fract_z
Si Si1 0.611782 0.022045 0.155528
Si Si2 0.726808 0.701604 0.615911
Si Si3 0.446183 0.529148 0.576532
Si Si4 0.500000 0.172256 0.250000
O O1 0.670358 0.158520 0.135271
O O2 0.591771 0.072515 0.278830
O O3 0.673544 0.856153 0.216086
O O4 0.500000 0.000000 0.000000
O O5 0.750000 0.750000 0.500000
O O6 0.663454 0.540395 0.543557
O O7 0.500000 0.450928 0.750000
O O8 0.500000 0.500000 0.500000
O O9 0.444672 0.719735 0.593835
#
# Coordination Sequence:
#
# PCOD8149398 Si02
#       4
#     8   8   8   4
#     4  12  29  49  75 112 156 196 266 323 385 464
#     4  12  29  45  78 110 151 205 256 314 401 460
#     4  10  23  45  77 107 150 201 257 313 381 462
#     4  10  24  46  76 102 154 196 250 318 378 448
#
# _framework density 23.071978000000001
#
# number of rings (size 3 to 8) (size 9 to 14) (size 15 to 20)
#    0.857    0.000    2.857    1.714   16.000    1.143 
#    0.000    0.000    0.000    0.000    0.000    0.000 
#    0.000    0.000    0.000    0.000    0.000    0.000 
#
# Total GULP energy -173442.275895 kJ/mol
# GULP energy per Si atom -12388.733992 kJ/mol
# Density = 2.301947 g / cm^3
# Si number density = 23.071978 Si / 1000 Ang^3
#
#
#
# Elastic Constant Matrix: (Units=GPa)
#
#
# Indices 1 2 3 4 5 6 
#
# 1 198.0237 70.2897 64.7042 0.0000 -16.4533 0.0000
# 2 70.2897 98.5384 41.1171 0.0000 11.5480 0.0000
# 3 64.7042 41.1171 133.8352 0.0000 8.8041 0.0000
# 4 0.0000 0.0000 0.0000 51.2414 0.0000 2.7473
# 5 -16.4533 11.5480 8.8041 0.0000 53.5097 0.0000
# 6 0.0000 0.0000 0.0000 2.7473 0.0000 58.2426
#
#
#
# Elastic Compliance Matrix: (Units=1/GPa)
#
#
# Indices 1 2 3 4 5 6 
#
# 1 0.008047 -0.005135 -0.002577 0.000000 0.004006 0.000000
# 2 -0.005135 0.015121 -0.001865 0.000000 -0.004535 0.000000
# 3 -0.002577 -0.001865 0.009418 0.000000 -0.001939 0.000000
# 4 0.000000 0.000000 0.000000 0.019565 0.000000 -0.000923
# 5 0.004006 -0.004535 -0.001939 0.000000 0.021218 0.000000
# 6 0.000000 0.000000 0.000000 -0.000923 0.000000 0.017213
#
#
# Mechanical properties :
#
#
# Convention : Reuss Voigt Hill
#
# Bulk Modulus (GPa) = 74.43786 86.95769 80.69778
# Shear Modulus (GPa) = 43.77834 49.55117 46.66475
#
# Velocity S-wave (km/s) = 4.36072 4.63933 4.50218
# Velocity P-wave (km/s) = 7.59525 8.15288 7.87900
#
# Compressibility (1/GPa) = 0.01343402
#
# Stress axis : x y z
#
# Youngs Moduli (GPa) = 124.26538 66.13504 106.17964
#
# Poissons Ratio (x) = 0.33958 0.27358
# Poissons Ratio (y) = 0.63807 0.19798
# Poissons Ratio (z) = 0.32019 0.12332
#
# Static dielectric constant tensor:
#      x y z
#    x 3.035970 0.000000 0.212940 
#    y 0.000000 4.261490 0.000000 
#    z 0.212940 0.000000 4.005890 
# 
# 
# High freq. dielectric constant tensor:
#      x y z
#    x 1.931700 0.000000 -0.011690 
#    y 0.000000 1.912350 0.000000 
#    z -0.011690 0.000000 1.914510 
# 
# From -- ./inp_files/93620.got.cif
#   From: 2010.06.25/outbox.cif.g09.slc.cpg/sg15_47_cif.got.tgz:93620.got - 2010.06.28 07:06:18.
