data_PCOD8149019
_publ_section_title
;
Structure prediction by ZEFSAII (Michael W. Deem and Ramdas Pophale) SiO2 
 PCOD8149019
Probable space group: C 2/C
;
_chemical_formula_sum "Si O2"
_cell_formula_units_Z 64
_cell_length_a 28.329184
_cell_length_b 8.991837
_cell_length_c 16.037605
_cell_angle_alpha 90.000000
_cell_angle_beta 42.946295
_cell_angle_gamma 90.000000
_cell_volume 2783.353625
_symmetry_space_group_name_H-M "C 2/C"
_symmetry_group_IT_number 15
_symmetry_cell_setting 'monoclinic'
loop_
_space_group_symop_operation_xyz
x,y,z
-x,y,1/2-z
-x,-y,-z
x,-y,1/2+z
1/2+x,1/2+y,z
1/2-x,1/2+y,1/2-z
1/2-x,1/2-y,-z
1/2+x,1/2-y,1/2+z
loop_
_atom_site_type_symbol
_atom_site_label
_atom_site_fract_x
_atom_site_fract_y
_atom_site_fract_z
Si Si1 0.318096 0.244145 0.467373
Si Si2 0.950111 0.592988 0.237452
Si Si3 0.742603 0.960004 0.312923
Si Si4 0.766046 0.281687 0.336392
Si Si5 0.512148 0.274781 0.013165
Si Si6 0.091424 0.725464 0.752034
Si Si7 0.601610 0.542750 0.920504
Si Si8 0.136379 0.074079 0.057341
O O1 0.250000 0.250000 0.500000
O O2 0.381868 0.192568 0.328785
O O3 0.303195 0.131620 0.562335
O O4 0.342350 0.402769 0.469929
O O5 0.993204 0.637978 0.098635
O O6 0.920050 0.426821 0.282292
O O7 0.000000 0.625472 0.250000
O O8 0.718961 0.909744 0.251481
O O9 0.824357 0.935476 0.218291
O O10 0.732670 0.136604 0.335399
O O11 0.835540 0.255116 0.296881
O O12 0.707876 0.335623 0.476438
O O13 0.446314 0.380416 0.086259
O O14 0.530027 0.218020 0.898060
O O15 0.577616 0.370363 0.962522
O O16 0.085285 0.866826 0.696630
O O17 0.601157 0.612533 0.013853
#
# Coordination Sequence:
#
# PCOD8149019 Si02
#       8
#     8   8   8   8   8   8   8   8
#     4  12  25  44  75 103 147 189 249 298 369 430
#     4  12  29  47  70 108 150 193 240 302 370 438
#     4  11  22  42  70 106 138 187 240 302 358 434
#     4  11  23  42  70 102 142 182 236 299 364 422
#     4  11  25  46  72 100 143 188 238 293 355 442
#     4  12  26  46  71 100 147 185 242 288 364 433
#     4  10  23  43  72 104 138 184 244 292 360 422
#     4  11  25  43  70 107 138 189 237 304 355 430
#
# _framework density 22.993843999999999
#
# number of rings (size 3 to 8) (size 9 to 14) (size 15 to 20)
#    0.000    0.750    1.250    6.000    7.000    2.000 
#    0.000    0.000    0.000    0.000    0.000    0.000 
#    0.000    0.000    0.000    0.000    0.000    0.000 
#
# Total GULP energy -396737.358846 kJ/mol
# GULP energy per Si atom -12398.042464 kJ/mol
# Density = 2.294151 g / cm^3
# Si number density = 22.993844 Si / 1000 Ang^3
#
#
#
# Elastic Constant Matrix: (Units=GPa)
#
#
# Indices 1 2 3 4 5 6 
#
# 1 53.3270 8.1149 19.4525 -0.0010 -2.2606 0.0003
# 2 8.1149 109.1481 33.7017 -0.0014 2.7588 0.0007
# 3 19.4525 33.7017 118.4400 -0.0001 16.2801 0.0001
# 4 -0.0010 -0.0014 -0.0001 37.7937 -0.0005 8.1548
# 5 -2.2606 2.7588 16.2801 -0.0005 24.1729 0.0001
# 6 0.0003 0.0007 0.0001 8.1548 0.0001 32.6964
#
#
#
# Elastic Compliance Matrix: (Units=1/GPa)
#
#
# Indices 1 2 3 4 5 6 
#
# 1 0.020418 -0.000443 -0.003854 0.000001 0.004555 0.000000
# 2 -0.000443 0.010070 -0.002897 0.000000 0.000760 0.000000
# 3 -0.003854 -0.002897 0.010915 0.000000 -0.007381 0.000000
# 4 0.000001 0.000000 0.000000 0.027964 0.000001 -0.006975
# 5 0.004555 0.000760 -0.007381 0.000001 0.046679 0.000000
# 6 0.000000 0.000000 0.000000 -0.006975 0.000000 0.032324
#
#
# Mechanical properties :
#
#
# Convention : Reuss Voigt Hill
#
# Bulk Modulus (GPa) = 37.01578 44.82814 40.92196
# Shear Modulus (GPa) = 29.10977 33.57567 31.34272
#
# Velocity S-wave (km/s) = 3.56192 3.82541 3.69601
# Velocity P-wave (km/s) = 5.74887 6.24897 6.00413
#
# Compressibility (1/GPa) = 0.02701550
#
# Stress axis : x y z
#
# Youngs Moduli (GPa) = 48.97523 99.30332 91.61797
#
# Poissons Ratio (x) = 0.04403 0.35305
# Poissons Ratio (y) = 0.02171 0.26543
# Poissons Ratio (z) = 0.18873 0.28770
#
# Static dielectric constant tensor:
#      x y z
#    x 4.016610 0.000000 -0.001020 
#    y 0.000000 4.220160 0.000000 
#    z -0.001020 0.000000 4.335170 
# 
# 
# High freq. dielectric constant tensor:
#      x y z
#    x 1.908270 0.000000 0.001570 
#    y 0.000000 1.909030 0.000000 
#    z 0.001570 0.000000 1.919860 
# 
# From -- ./inp_files/224573.got.cif
#   From: 2010.06.25/outbox.cif.g09.slc.cpg/sg15_113_cif.got.tgz:224573.got - 2010.06.28 07:06:18.
