data_PCOD8149527
_publ_section_title
;
Structure prediction by ZEFSAII (Michael W. Deem and Ramdas Pophale) SiO2 
 PCOD8149527
Probable space group: C 2/C
;
_chemical_formula_sum "Si O2"
_cell_formula_units_Z 48
_cell_length_a 10.951948
_cell_length_b 19.979178
_cell_length_c 13.678454
_cell_angle_alpha 90.000000
_cell_angle_beta 43.034022
_cell_angle_gamma 90.000000
_cell_volume 2042.517161
_symmetry_space_group_name_H-M "C 2/C"
_symmetry_group_IT_number 15
_symmetry_cell_setting 'monoclinic'
loop_
_space_group_symop_operation_xyz
x,y,z
-x,y,1/2-z
-x,-y,-z
x,-y,1/2+z
1/2+x,1/2+y,z
1/2-x,1/2+y,1/2-z
1/2-x,1/2-y,-z
1/2+x,1/2-y,1/2+z
loop_
_atom_site_type_symbol
_atom_site_label
_atom_site_fract_x
_atom_site_fract_y
_atom_site_fract_z
Si Si1 0.065284 0.201479 0.898183
Si Si2 0.228490 0.102823 0.424257
Si Si3 0.042956 0.684712 0.901346
Si Si4 0.000000 0.608341 0.750000
Si Si5 0.646163 0.056389 0.942727
Si Si6 0.500000 0.782217 0.750000
Si Si7 0.193907 0.982116 0.339407
O O1 0.273613 0.197443 0.762634
O O2 0.974952 0.235333 0.857534
O O3 0.982564 0.125592 0.954448
O O4 0.031813 0.245890 0.014306
O O5 0.278276 0.058824 0.491567
O O6 0.324138 0.172952 0.350838
O O7 0.284377 0.056095 0.299979
O O8 0.922496 0.652710 0.885774
O O9 0.066045 0.630701 0.974351
O O10 0.176021 0.567522 0.677910
O O11 0.810558 0.040395 0.771496
O O12 0.500000 0.000000 0.000000
O O13 0.000000 0.000000 0.500000
#
# Coordination Sequence:
#
# PCOD8149527 Si02
#       7
#     8   8   8   4   8   4   8
#     4  12  24  41  66 103 136 180 228 288 354 416
#     4  12  22  40  67  96 137 176 230 293 348 415
#     4  11  24  43  65  96 138 178 233 282 347 422
#     4  10  23  48  70  96 142 191 234 294 348 412
#     4  11  23  42  68  97 135 185 229 288 355 413
#     4  12  21  38  62 102 130 177 226 288 354 402
#     4  11  25  44  68 103 137 183 237 287 351 412
#
# _framework density 23.500413000000002
#
# number of rings (size 3 to 8) (size 9 to 14) (size 15 to 20)
#    0.000    0.667    3.333    7.000    0.000    2.667 
#    0.000    0.000    0.000    4.000    0.000    0.000 
#    0.000    0.000    0.000    0.000    0.000    0.000 
#
# Total GULP energy -297377.421819 kJ/mol
# GULP energy per Si atom -12390.725909 kJ/mol
# Density = 2.344692 g / cm^3
# Si number density = 23.500413 Si / 1000 Ang^3
#
#
#
# Elastic Constant Matrix: (Units=GPa)
#
#
# Indices 1 2 3 4 5 6 
#
# 1 65.6776 24.8075 15.5649 0.0000 0.1717 0.0000
# 2 24.8075 114.7616 24.3421 0.0002 14.3906 -0.0001
# 3 15.5649 24.3421 72.3261 -0.0005 -10.0421 0.0003
# 4 0.0000 0.0002 -0.0005 49.3781 0.0008 9.3721
# 5 0.1717 14.3906 -10.0421 0.0008 37.1624 -0.0006
# 6 0.0000 -0.0001 0.0003 9.3721 -0.0006 32.1948
#
#
#
# Elastic Compliance Matrix: (Units=1/GPa)
#
#
# Indices 1 2 3 4 5 6 
#
# 1 0.017033 -0.003208 -0.002519 0.000000 0.000483 0.000000
# 2 -0.003208 0.010836 -0.003675 0.000000 -0.005174 0.000000
# 3 -0.002519 -0.003675 0.016420 0.000000 0.005872 0.000000
# 4 0.000000 0.000000 0.000000 0.021436 -0.000001 -0.006240
# 5 0.000483 -0.005174 0.005872 -0.000001 0.030497 0.000001
# 6 0.000000 0.000000 0.000000 -0.006240 0.000001 0.032878
#
#
# Mechanical properties :
#
#
# Convention : Reuss Voigt Hill
#
# Bulk Modulus (GPa) = 39.23798 42.46602 40.85200
# Shear Modulus (GPa) = 31.96952 36.28378 34.12665
#
# Velocity S-wave (km/s) = 3.69234 3.93359 3.81487
# Velocity P-wave (km/s) = 5.90853 6.22418 6.06841
#
# Compressibility (1/GPa) = 0.02548551
#
# Stress axis : x y z
#
# Youngs Moduli (GPa) = 58.70816 92.28916 60.90007
#
# Poissons Ratio (x) = 0.29610 0.15339
# Poissons Ratio (y) = 0.18836 0.22379
# Poissons Ratio (z) = 0.14787 0.33914
#
# Static dielectric constant tensor:
#      x y z
#    x 4.507200 0.000000 0.219270 
#    y 0.000000 5.050830 0.000000 
#    z 0.219270 0.000000 4.507790 
# 
# 
# High freq. dielectric constant tensor:
#      x y z
#    x 1.918260 0.000000 0.000300 
#    y 0.000000 1.960430 0.000000 
#    z 0.000300 0.000000 1.934360 
# 
# From -- ./inp_files/57749.got.cif
#   From: 2010.06.25/outbox.cif.g09.slc.cpg/sg15_29_cif.got.tgz:57749.got - 2010.06.28 07:06:18.
