data_PCOD8149395
_publ_section_title
;
Structure prediction by ZEFSAII (Michael W. Deem and Ramdas Pophale) SiO2 
 PCOD8149395
Probable space group: C 2/C
;
_chemical_formula_sum "Si O2"
_cell_formula_units_Z 40
_cell_length_a 13.185425
_cell_length_b 10.929019
_cell_length_c 14.797194
_cell_angle_alpha 90.000000
_cell_angle_beta 50.186387
_cell_angle_gamma 90.000000
_cell_volume 1637.910662
_symmetry_space_group_name_H-M "C 2/C"
_symmetry_group_IT_number 15
_symmetry_cell_setting 'monoclinic'
loop_
_space_group_symop_operation_xyz
x,y,z
-x,y,1/2-z
-x,-y,-z
x,-y,1/2+z
1/2+x,1/2+y,z
1/2-x,1/2+y,1/2-z
1/2-x,1/2-y,-z
1/2+x,1/2-y,1/2+z
loop_
_atom_site_type_symbol
_atom_site_label
_atom_site_fract_x
_atom_site_fract_y
_atom_site_fract_z
Si Si1 0.366477 0.503189 0.022610
Si Si2 0.472040 0.274850 0.872595
Si Si3 0.126233 0.422098 0.948853
Si Si4 0.742796 0.826562 0.712061
Si Si5 0.353846 0.390099 0.352906
O O1 0.252054 0.535277 0.161914
O O2 0.500000 0.500000 0.000000
O O3 0.364697 0.379378 0.963646
O O4 0.350537 0.620082 0.963898
O O5 0.500000 0.276739 0.750000
O O6 0.609257 0.282640 0.848853
O O7 0.399256 0.149277 0.942799
O O8 0.150430 0.326663 0.852964
O O9 0.253878 0.506523 0.877299
O O10 0.000000 0.500000 0.000000
O O11 0.673155 0.737246 0.680439
O O12 0.500000 0.441255 0.250000
#
# Coordination Sequence:
#
# PCOD8149395 Si02
#       5
#     8   8   8   8   8
#     4  10  23  45  76 110 151 200 258 312 385 457
#     4  11  25  50  78 110 151 206 258 322 390 458
#     4  12  28  49  77 114 156 196 262 322 383 466
#     4  11  26  44  77 110 155 201 254 323 386 459
#     4  12  26  47  76 112 157 202 259 313 392 464
#
# _framework density 24.421357
#
# number of rings (size 3 to 8) (size 9 to 14) (size 15 to 20)
#    0.000    0.800    2.000    4.800    8.400    6.400 
#    0.000    0.000    0.000    1.200    0.000    0.000 
#    0.000    0.000    0.000    0.000    0.000    0.000 
#
# Total GULP energy -247806.555152 kJ/mol
# GULP energy per Si atom -12390.327758 kJ/mol
# Density = 2.436577 g / cm^3
# Si number density = 24.421357 Si / 1000 Ang^3
#
#
#
# Elastic Constant Matrix: (Units=GPa)
#
#
# Indices 1 2 3 4 5 6 
#
# 1 132.0317 46.5699 43.2399 0.0000 0.0576 0.0000
# 2 46.5699 117.6804 63.8698 0.0000 0.5344 0.0000
# 3 43.2399 63.8698 142.9128 0.0000 9.1559 0.0000
# 4 0.0000 0.0000 0.0000 47.6689 0.0000 0.4346
# 5 0.0576 0.5344 9.1559 0.0000 51.4606 0.0000
# 6 0.0000 0.0000 0.0000 0.4346 0.0000 24.9466
#
#
#
# Elastic Compliance Matrix: (Units=1/GPa)
#
#
# Indices 1 2 3 4 5 6 
#
# 1 0.009044 -0.002753 -0.001525 0.000000 0.000290 0.000000
# 2 -0.002753 0.012088 -0.004614 0.000000 0.000698 0.000000
# 3 -0.001525 -0.004614 0.009627 0.000000 -0.001663 0.000000
# 4 0.000000 0.000000 0.000000 0.020981 0.000000 -0.000366
# 5 0.000290 0.000698 -0.001663 0.000000 0.019721 0.000000
# 6 0.000000 0.000000 0.000000 -0.000366 0.000000 0.040092
#
#
# Mechanical properties :
#
#
# Convention : Reuss Voigt Hill
#
# Bulk Modulus (GPa) = 77.06492 77.77600 77.42046
# Shear Modulus (GPa) = 37.40768 40.74491 39.07629
#
# Velocity S-wave (km/s) = 3.91802 4.08905 4.00445
# Velocity P-wave (km/s) = 7.21753 7.36278 7.29051
#
# Compressibility (1/GPa) = 0.01297607
#
# Stress axis : x y z
#
# Youngs Moduli (GPa) = 110.56901 82.72583 103.87141
#
# Poissons Ratio (x) = 0.22773 0.15837
# Poissons Ratio (y) = 0.30438 0.47928
# Poissons Ratio (z) = 0.16858 0.38171
#
# Static dielectric constant tensor:
#      x y z
#    x 4.010430 0.000000 0.623480 
#    y 0.000000 4.484060 0.000000 
#    z 0.623480 0.000000 4.435350 
# 
# 
# High freq. dielectric constant tensor:
#      x y z
#    x 1.983010 0.000000 0.013300 
#    y 0.000000 1.958280 0.000000 
#    z 0.013300 0.000000 1.985480 
# 
# From -- ./inp_files/151676.got.cif
#   From: 2010.06.25/outbox.cif.g09.slc.cpg/sg15_76_cif.got.tgz:151676.got - 2010.06.28 07:06:18.
