data_PCOD8149951
_publ_section_title
;
Structure prediction by ZEFSAII (Michael W. Deem and Ramdas Pophale) SiO2 
 PCOD8149951
Probable space group: C 2/C
;
_chemical_formula_sum "Si O2"
_cell_formula_units_Z 56
_cell_length_a 18.914861
_cell_length_b 17.304640
_cell_length_c 13.952019
_cell_angle_alpha 90.000000
_cell_angle_beta 145.604430
_cell_angle_gamma 90.000000
_cell_volume 2579.745248
_symmetry_space_group_name_H-M "C 2/C"
_symmetry_group_IT_number 15
_symmetry_cell_setting 'monoclinic'
loop_
_space_group_symop_operation_xyz
x,y,z
-x,y,1/2-z
-x,-y,-z
x,-y,1/2+z
1/2+x,1/2+y,z
1/2-x,1/2+y,1/2-z
1/2-x,1/2-y,-z
1/2+x,1/2-y,1/2+z
loop_
_atom_site_type_symbol
_atom_site_label
_atom_site_fract_x
_atom_site_fract_y
_atom_site_fract_z
Si Si1 0.500000 0.765090 0.750000
Si Si2 0.930313 0.930506 0.875206
Si Si3 0.517302 0.850840 0.054424
Si Si4 0.500000 0.395162 0.750000
Si Si5 0.577512 0.699890 0.636227
Si Si6 0.162953 0.620102 0.534795
Si Si7 0.238636 0.668444 0.940382
Si Si8 0.332688 0.055613 0.472217
O O1 0.534490 0.711691 0.698069
O O2 0.380696 0.819463 0.594835
O O3 0.946889 0.943512 0.779342
O O4 0.782665 0.933838 0.730211
O O5 0.973422 0.849606 0.965358
O O6 0.000000 0.000000 0.000000
O O7 0.558849 0.887460 0.000810
O O8 0.646386 0.822654 0.247587
O O9 0.421346 0.780298 0.922651
O O10 0.453708 0.915903 0.049208
O O11 0.382708 0.348877 0.572172
O O12 0.706719 0.652653 0.777476
O O13 0.166810 0.534213 0.494864
O O14 0.250000 0.750000 0.000000
O O15 0.180043 0.605616 0.946322
#
# Coordination Sequence:
#
# PCOD8149951 Si02
#       8
#     4   8   8   4   8   8   8   8
#     4  10  26  43  71 100 130 182 230 282 344 407
#     4  11  23  44  68  99 139 183 229 281 340 413
#     4  11  25  41  71  99 133 180 225 281 348 407
#     4  10  24  43  65 100 138 178 226 280 346 393
#     4  11  24  46  70  98 136 178 233 283 341 414
#     4  11  24  47  67  97 138 173 229 284 344 411
#     4  11  25  41  68  99 137 179 225 279 343 412
#     4  11  25  43  66 101 138 177 226 284 345 407
#
# _framework density 21.70757
#
# number of rings (size 3 to 8) (size 9 to 14) (size 15 to 20)
#    0.000    1.143    1.429    3.857   12.000    0.571 
#    0.000    0.000    0.000    0.000    0.000    0.000 
#    0.000    0.000    0.000    0.000    0.000    0.000 
#
# Total GULP energy -347104.827139 kJ/mol
# GULP energy per Si atom -12396.600969 kJ/mol
# Density = 2.165816 g / cm^3
# Si number density = 21.707570 Si / 1000 Ang^3
#
#
#
# Elastic Constant Matrix: (Units=GPa)
#
#
# Indices 1 2 3 4 5 6 
#
# 1 84.5447 32.5257 22.0437 0.0000 -0.0732 0.0000
# 2 32.5257 117.6181 18.2737 0.0000 -2.2663 0.0000
# 3 22.0437 18.2737 104.1252 0.0000 4.1352 0.0000
# 4 0.0000 0.0000 0.0000 41.0219 0.0000 0.6375
# 5 -0.0732 -2.2663 4.1352 0.0000 37.1257 0.0000
# 6 0.0000 0.0000 0.0000 0.6375 0.0000 26.3000
#
#
#
# Elastic Compliance Matrix: (Units=1/GPa)
#
#
# Indices 1 2 3 4 5 6 
#
# 1 0.013755 -0.003443 -0.002311 0.000000 0.000074 0.000000
# 2 -0.003443 0.009621 -0.000987 0.000000 0.000690 0.000000
# 3 -0.002311 -0.000987 0.010314 0.000000 -0.001214 0.000000
# 4 0.000000 0.000000 0.000000 0.024386 0.000000 -0.000591
# 5 0.000074 0.000690 -0.001214 0.000000 0.027113 0.000000
# 6 0.000000 0.000000 0.000000 -0.000591 0.000000 0.038037
#
#
# Mechanical properties :
#
#
# Convention : Reuss Voigt Hill
#
# Bulk Modulus (GPa) = 49.48365 50.21933 49.85149
# Shear Modulus (GPa) = 34.85643 36.45250 35.65447
#
# Velocity S-wave (km/s) = 4.01150 4.10231 4.05716
# Velocity P-wave (km/s) = 6.65592 6.75451 6.70539
#
# Compressibility (1/GPa) = 0.02020870
#
# Stress axis : x y z
#
# Youngs Moduli (GPa) = 72.69904 103.93977 96.95183
#
# Poissons Ratio (x) = 0.35791 0.22403
# Poissons Ratio (y) = 0.25033 0.09568
# Poissons Ratio (z) = 0.16799 0.10258
#
# Static dielectric constant tensor:
#      x y z
#    x 4.295150 0.000000 0.196440 
#    y 0.000000 2.857030 0.000000 
#    z 0.196440 0.000000 4.472810 
# 
# 
# High freq. dielectric constant tensor:
#      x y z
#    x 1.846080 0.000000 0.002450 
#    y 0.000000 1.851280 0.000000 
#    z 0.002450 0.000000 1.874960 
# 
# From -- ./inp_files/169194.got.cif
#   From: 2010.06.25/outbox.cif.g09.slc.cpg/sg15_85_cif.got.tgz:169194.got - 2010.06.28 07:06:18.
