data_PCOD8149419
_publ_section_title
;
Structure prediction by ZEFSAII (Michael W. Deem and Ramdas Pophale) SiO2 
 PCOD8149419
Probable space group: C 2/C
;
_chemical_formula_sum "Si O2"
_cell_formula_units_Z 44
_cell_length_a 11.725398
_cell_length_b 19.966483
_cell_length_c 15.227811
_cell_angle_alpha 90.000000
_cell_angle_beta 37.283238
_cell_angle_gamma 90.000000
_cell_volume 2159.554269
_symmetry_space_group_name_H-M "C 2/C"
_symmetry_group_IT_number 15
_symmetry_cell_setting 'monoclinic'
loop_
_space_group_symop_operation_xyz
x,y,z
-x,y,1/2-z
-x,-y,-z
x,-y,1/2+z
1/2+x,1/2+y,z
1/2-x,1/2+y,1/2-z
1/2-x,1/2-y,-z
1/2+x,1/2-y,1/2+z
loop_
_atom_site_type_symbol
_atom_site_label
_atom_site_fract_x
_atom_site_fract_y
_atom_site_fract_z
Si Si1 0.046299 0.117907 0.321205
Si Si2 0.500000 0.592418 0.750000
Si Si3 0.223784 0.710189 0.927202
Si Si4 0.871305 0.014219 0.661545
Si Si5 0.690230 0.237988 0.306498
Si Si6 0.793266 0.626201 0.839733
O O1 0.137443 0.190155 0.276070
O O2 0.000000 0.103412 0.250000
O O3 0.849550 0.113892 0.493314
O O4 0.191136 0.059643 0.266235
O O5 0.312867 0.636734 0.878885
O O6 0.485116 0.548452 0.671436
O O7 0.327594 0.751646 0.786952
O O8 0.250000 0.750000 0.000000
O O9 0.002116 0.704760 0.040318
O O10 0.704456 0.063056 0.729828
O O11 0.000000 0.000000 0.500000
O O12 0.725048 0.309157 0.329297
O O13 0.000000 0.637261 0.750000
#
# Coordination Sequence:
#
# PCOD8149419 Si02
#       6
#     8   4   8   8   8   8
#     4  11  25  43  66  96 132 169 223 277 330 397
#     4  12  22  44  76  96 134 184 224 282 338 400
#     4  12  23  41  67 101 135 171 224 274 342 397
#     4  10  23  46  66  94 137 177 221 273 335 402
#     4  12  24  42  66 100 136 171 219 279 337 401
#     4  11  24  44  69  92 133 179 220 270 338 400
#
# _framework density 20.374573999999999
#
# number of rings (size 3 to 8) (size 9 to 14) (size 15 to 20)
#    0.000    0.727    6.364    0.545    5.091    1.455 
#    6.545    1.818    0.000    0.000    0.000    0.000 
#    0.000    0.000    0.000    0.000    0.000    0.000 
#
# Total GULP energy -272754.543261 kJ/mol
# GULP energy per Si atom -12397.933785 kJ/mol
# Density = 2.032820 g / cm^3
# Si number density = 20.374574 Si / 1000 Ang^3
#
#
#
# Elastic Constant Matrix: (Units=GPa)
#
#
# Indices 1 2 3 4 5 6 
#
# 1 98.4766 32.8839 48.0025 -0.0031 16.7972 -0.0066
# 2 32.8839 103.1838 40.4196 -0.0166 15.8332 -0.0080
# 3 48.0025 40.4196 92.8608 -0.0060 7.6313 -0.0103
# 4 -0.0031 -0.0166 -0.0060 26.4495 -0.0081 -0.1330
# 5 16.7972 15.8332 7.6313 -0.0081 44.9620 0.0086
# 6 -0.0066 -0.0080 -0.0103 -0.1330 0.0086 39.5989
#
#
#
# Elastic Compliance Matrix: (Units=1/GPa)
#
#
# Indices 1 2 3 4 5 6 
#
# 1 0.014475 -0.001475 -0.006530 -0.000002 -0.003780 0.000001
# 2 -0.001475 0.012337 -0.004356 0.000006 -0.003054 0.000002
# 3 -0.006530 -0.004356 0.015936 0.000001 0.001269 0.000002
# 4 -0.000002 0.000006 0.000001 0.037809 0.000005 0.000127
# 5 -0.003780 -0.003054 0.001269 0.000005 0.024513 -0.000006
# 6 0.000001 0.000002 0.000002 0.000127 -0.000006 0.025254
#
#
# Mechanical properties :
#
#
# Convention : Reuss Voigt Hill
#
# Bulk Modulus (GPa) = 55.47764 59.68147 57.57956
# Shear Modulus (GPa) = 31.04547 33.74976 32.39761
#
# Velocity S-wave (km/s) = 3.90774 4.07438 3.99193
# Velocity P-wave (km/s) = 6.90279 7.17564 7.04054
#
# Compressibility (1/GPa) = 0.01802528
#
# Stress axis : x y z
#
# Youngs Moduli (GPa) = 69.08458 81.05953 62.75039
#
# Poissons Ratio (x) = 0.11958 0.40975
# Poissons Ratio (y) = 0.10191 0.27336
# Poissons Ratio (z) = 0.45111 0.35311
#
# Static dielectric constant tensor:
#      x y z
#    x 3.908930 0.000010 0.111190 
#    y 0.000010 4.137480 0.000020 
#    z 0.111190 0.000020 3.897540 
# 
# 
# High freq. dielectric constant tensor:
#      x y z
#    x 1.803640 0.000000 0.023410 
#    y 0.000000 1.809570 0.000000 
#    z 0.023410 0.000000 1.791670 
# 
# From -- ./inp_files/30876.got.cif
#   From: 2010.06.25/outbox.cif.g09.slc.cpg/sg15_16_cif.got.tgz:30876.got - 2010.06.28 07:06:18.
