data_PCOD8149660
_publ_section_title
;
Structure prediction by ZEFSAII (Michael W. Deem and Ramdas Pophale) SiO2 
 PCOD8149660
Probable space group: C 2/C
;
_chemical_formula_sum "Si O2"
_cell_formula_units_Z 28
_cell_length_a 6.953119
_cell_length_b 16.312964
_cell_length_c 12.489548
_cell_angle_alpha 90.000000
_cell_angle_beta 96.337520
_cell_angle_gamma 90.000000
_cell_volume 1407.981973
_symmetry_space_group_name_H-M "C 2/C"
_symmetry_group_IT_number 15
_symmetry_cell_setting 'monoclinic'
loop_
_space_group_symop_operation_xyz
x,y,z
-x,y,1/2-z
-x,-y,-z
x,-y,1/2+z
1/2+x,1/2+y,z
1/2-x,1/2+y,1/2-z
1/2-x,1/2-y,-z
1/2+x,1/2-y,1/2+z
loop_
_atom_site_type_symbol
_atom_site_label
_atom_site_fract_x
_atom_site_fract_y
_atom_site_fract_z
Si Si1 0.500000 0.745055 0.750000
Si Si2 0.835575 0.863874 0.823100
Si Si3 0.998024 0.872292 0.450804
Si Si4 0.710595 0.004881 0.464835
O O1 0.692970 0.799093 0.760068
O O2 0.500965 0.690597 0.644924
O O3 0.714613 0.944679 0.852597
O O4 0.000000 0.890449 0.750000
O O5 0.940410 0.825446 0.935481
O O6 0.149164 0.948030 0.441043
O O7 0.785109 0.912291 0.450345
O O8 0.500000 0.000000 0.500000
#
# Coordination Sequence:
#
# PCOD8149660 Si02
#       4
#     4   8   8   8
#     4  12  24  40  66  92 136 174 202 264 332 380
#     4  10  24  40  64  94 130 167 212 270 316 380
#     4   9  23  41  61  95 128 161 224 258 309 384
#     4   9  21  43  67  90 128 169 215 267 314 380
#
# _framework density 19.886621000000002
#
# number of rings (size 3 to 8) (size 9 to 14) (size 15 to 20)
#    1.714    0.571    0.000    0.857    6.000    3.429 
#    0.000    0.000    0.000    0.000    0.000    0.000 
#    0.000    0.000    0.000    0.000    0.000    0.000 
#
# Total GULP energy -173474.841634 kJ/mol
# GULP energy per Si atom -12391.060117 kJ/mol
# Density = 1.984136 g / cm^3
# Si number density = 19.886621 Si / 1000 Ang^3
#
#
#
# Elastic Constant Matrix: (Units=GPa)
#
#
# Indices 1 2 3 4 5 6 
#
# 1 152.7422 45.3615 46.5542 0.0000 -34.2454 0.0000
# 2 45.3615 64.9816 31.4493 0.0000 -6.0830 0.0000
# 3 46.5542 31.4493 119.1340 0.0000 -10.8127 0.0000
# 4 0.0000 0.0000 0.0000 35.3492 0.0000 5.4356
# 5 -34.2454 -6.0830 -10.8127 0.0000 32.2776 0.0000
# 6 0.0000 0.0000 0.0000 5.4356 0.0000 22.0632
#
#
#
# Elastic Compliance Matrix: (Units=1/GPa)
#
#
# Indices 1 2 3 4 5 6 
#
# 1 0.011135 -0.005923 -0.001874 0.000000 0.010070 0.000000
# 2 -0.005923 0.020899 -0.003522 0.000000 -0.003526 0.000000
# 3 -0.001874 -0.003522 0.010123 0.000000 0.000740 0.000000
# 4 0.000000 0.000000 0.000000 0.029403 0.000000 -0.007244
# 5 0.010070 -0.003526 0.000740 0.000000 0.041248 0.000000
# 6 0.000000 0.000000 0.000000 -0.007244 0.000000 0.047109
#
#
# Mechanical properties :
#
#
# Convention : Reuss Voigt Hill
#
# Bulk Modulus (GPa) = 51.23487 64.84307 58.03897
# Shear Modulus (GPa) = 26.44652 32.17085 29.30869
#
# Velocity S-wave (km/s) = 3.65069 4.02644 3.84316
# Velocity P-wave (km/s) = 6.60223 7.36841 6.99582
#
# Compressibility (1/GPa) = 0.01951796
#
# Stress axis : x y z
#
# Youngs Moduli (GPa) = 89.80815 47.85029 98.78549
#
# Poissons Ratio (x) = 0.28344 0.18508
# Poissons Ratio (y) = 0.53198 0.34794
# Poissons Ratio (z) = 0.16826 0.16854
#
# Static dielectric constant tensor:
#      x y z
#    x 3.547360 0.000000 0.166240 
#    y 0.000000 3.471110 0.000000 
#    z 0.166240 0.000000 3.552860 
# 
# 
# High freq. dielectric constant tensor:
#      x y z
#    x 1.777140 0.000000 0.000600 
#    y 0.000000 1.759270 0.000000 
#    z 0.000600 0.000000 1.768980 
# 
# From -- ./inp_files/71691.got.cif
#   From: 2010.06.25/outbox.cif.g09.slc.cpg/sg15_36_cif.got.tgz:71691.got - 2010.06.28 07:06:18.
