data_PCOD8149447
_publ_section_title
;
Structure prediction by ZEFSAII (Michael W. Deem and Ramdas Pophale) SiO2 
 PCOD8149447
Probable space group: C 2/C
;
_chemical_formula_sum "Si O2"
_cell_formula_units_Z 56
_cell_length_a 27.141244
_cell_length_b 8.171712
_cell_length_c 11.370352
_cell_angle_alpha 90.000000
_cell_angle_beta 111.676142
_cell_angle_gamma 90.000000
_cell_volume 2343.507338
_symmetry_space_group_name_H-M "C 2/C"
_symmetry_group_IT_number 15
_symmetry_cell_setting 'monoclinic'
loop_
_space_group_symop_operation_xyz
x,y,z
-x,y,1/2-z
-x,-y,-z
x,-y,1/2+z
1/2+x,1/2+y,z
1/2-x,1/2+y,1/2-z
1/2-x,1/2-y,-z
1/2+x,1/2-y,1/2+z
loop_
_atom_site_type_symbol
_atom_site_label
_atom_site_fract_x
_atom_site_fract_y
_atom_site_fract_z
Si Si1 0.016253 0.828763 0.385280
Si Si2 0.756433 0.189388 0.845402
Si Si3 0.619082 0.147373 0.452787
Si Si4 0.859669 0.289205 0.051860
Si Si5 0.350939 0.327101 0.785595
Si Si6 0.713283 0.176045 0.366466
Si Si7 0.079870 0.909286 0.076513
O O1 0.055710 0.679874 0.383111
O O2 0.000000 0.921762 0.250000
O O3 0.959028 0.778658 0.393093
O O4 0.045075 0.936575 0.506615
O O5 0.711651 0.329582 0.794861
O O6 0.787550 0.204033 0.747584
O O7 0.731843 0.009413 0.848669
O O8 0.797199 0.243545 0.984132
O O9 0.642128 0.254845 0.578557
O O10 0.652710 0.175859 0.362503
O O11 0.627183 0.960325 0.496888
O O12 0.876480 0.283771 0.203980
O O13 0.894351 0.156044 0.017789
O O14 0.374926 0.510994 0.799233
O O15 0.750000 0.250000 0.500000
#
# Coordination Sequence:
#
# PCOD8149447 Si02
#       7
#     8   8   8   8   8   8   8
#     4  10  23  46  70  98 137 184 252 305 362 429
#     4  12  26  44  73 107 149 197 242 287 364 438
#     4  11  26  46  69 103 145 189 240 304 363 427
#     4  12  26  42  73 107 146 192 242 292 364 434
#     4  11  23  47  67 104 153 186 241 295 353 439
#     4  12  27  48  70 106 152 195 242 297 359 441
#     4  10  24  44  72 104 135 191 243 304 363 429
#
# _framework density 23.895809
#
# number of rings (size 3 to 8) (size 9 to 14) (size 15 to 20)
#    0.000    0.857    2.857    3.000    4.000    1.714 
#    0.000    3.571    0.000    0.000    0.000    0.000 
#    0.000    0.000    0.000    0.000    0.000    0.000 
#
# Total GULP energy -346915.342782 kJ/mol
# GULP energy per Si atom -12389.833671 kJ/mol
# Density = 2.384142 g / cm^3
# Si number density = 23.895809 Si / 1000 Ang^3
#
#
#
# Elastic Constant Matrix: (Units=GPa)
#
#
# Indices 1 2 3 4 5 6 
#
# 1 186.6821 77.3890 44.3006 0.0000 -3.7774 0.0000
# 2 77.3890 86.5904 17.6185 0.0000 -3.8011 0.0000
# 3 44.3006 17.6185 94.0507 0.0000 -14.9510 0.0000
# 4 0.0000 0.0000 0.0000 25.3138 0.0000 -2.8438
# 5 -3.7774 -3.8011 -14.9510 0.0000 15.7600 0.0000
# 6 0.0000 0.0000 0.0000 -2.8438 0.0000 35.1823
#
#
#
# Elastic Compliance Matrix: (Units=1/GPa)
#
#
# Indices 1 2 3 4 5 6 
#
# 1 0.009324 -0.007769 -0.003390 0.000000 -0.002855 0.000000
# 2 -0.007769 0.018490 0.000717 0.000000 0.003277 0.000000
# 3 -0.003390 0.000717 0.014124 0.000000 0.012759 0.000000
# 4 0.000000 0.000000 0.000000 0.039866 0.000000 0.003222
# 5 -0.002855 0.003277 0.012759 0.000000 0.075662 0.000000
# 6 0.000000 0.000000 0.000000 0.003222 0.000000 0.028684
#
#
# Mechanical properties :
#
#
# Convention : Reuss Voigt Hill
#
# Bulk Modulus (GPa) = 47.50097 71.77103 59.63600
# Shear Modulus (GPa) = 23.35885 30.45223 26.90554
#
# Velocity S-wave (km/s) = 3.12994 3.57371 3.35916
# Velocity P-wave (km/s) = 5.74313 6.86504 6.32899
#
# Compressibility (1/GPa) = 0.02105220
#
# Stress axis : x y z
#
# Youngs Moduli (GPa) = 107.25009 54.08374 70.80359
#
# Poissons Ratio (x) = 0.42016 0.24006
# Poissons Ratio (y) = 0.83319 -0.05073
# Poissons Ratio (z) = 0.36363 -0.03875
#
# Static dielectric constant tensor:
#      x y z
#    x 5.168170 0.000000 0.013190 
#    y 0.000000 4.176940 0.000000 
#    z 0.013190 0.000000 4.402410 
# 
# 
# High freq. dielectric constant tensor:
#      x y z
#    x 1.972110 0.000000 -0.012840 
#    y 0.000000 1.918430 0.000000 
#    z -0.012840 0.000000 1.955990 
# 
# From -- ./inp_files/122001.got.cif
#   From: 2010.06.25/outbox.cif.g09.slc.cpg/sg15_62_cif.got.tgz:122001.got - 2010.06.28 07:06:18.
