data_PCOD8149271
_publ_section_title
;
Structure prediction by ZEFSAII (Michael W. Deem and Ramdas Pophale) SiO2 
 PCOD8149271
Probable space group: C 2/C
;
_chemical_formula_sum "Si O2"
_cell_formula_units_Z 40
_cell_length_a 8.642077
_cell_length_b 14.523135
_cell_length_c 14.318854
_cell_angle_alpha 90.000000
_cell_angle_beta 87.487771
_cell_angle_gamma 90.000000
_cell_volume 1795.432825
_symmetry_space_group_name_H-M "C 2/C"
_symmetry_group_IT_number 15
_symmetry_cell_setting 'monoclinic'
loop_
_space_group_symop_operation_xyz
x,y,z
-x,y,1/2-z
-x,-y,-z
x,-y,1/2+z
1/2+x,1/2+y,z
1/2-x,1/2+y,1/2-z
1/2-x,1/2-y,-z
1/2+x,1/2-y,1/2+z
loop_
_atom_site_type_symbol
_atom_site_label
_atom_site_fract_x
_atom_site_fract_y
_atom_site_fract_z
Si Si1 0.249685 0.298624 0.742594
Si Si2 0.000000 0.949442 0.750000
Si Si3 0.996363 0.269615 0.598677
Si Si4 0.431714 0.912336 0.052043
Si Si5 0.500000 0.146632 0.750000
Si Si6 0.072197 0.932848 0.072956
O O1 0.357218 0.386614 0.720634
O O2 0.155655 0.283728 0.650337
O O3 0.347161 0.207679 0.759779
O O4 0.142319 0.312405 0.836132
O O5 0.935048 0.016279 0.829342
O O6 0.000924 0.320954 0.499339
O O7 0.972660 0.161340 0.579108
O O8 0.488081 0.916334 0.157999
O O9 0.248312 0.910058 0.044679
O O10 0.500000 0.000000 0.000000
O O11 0.000000 0.000000 0.000000
#
# Coordination Sequence:
#
# PCOD8149271 Si02
#       6
#     8   4   8   8   4   8
#     4  10  23  44  74  99 139 188 236 301 351 430
#     4  11  24  44  67 104 138 182 241 290 359 420
#     4  11  24  48  71 103 142 193 237 294 367 423
#     4  12  28  46  73 107 146 191 241 300 358 433
#     4  11  26  44  71 104 144 182 243 294 361 416
#     4  12  27  43  71 103 141 189 239 294 356 437
#
# _framework density 22.278749999999999
#
# number of rings (size 3 to 8) (size 9 to 14) (size 15 to 20)
#    0.000    0.800    2.000    4.200    8.400    4.000 
#    0.000    0.000    0.000    0.000    0.000    0.000 
#    0.000    0.000    0.000    0.000    0.000    0.000 
#
# Total GULP energy -248128.380002 kJ/mol
# GULP energy per Si atom -12406.419000 kJ/mol
# Density = 2.222804 g / cm^3
# Si number density = 22.278750 Si / 1000 Ang^3
#
#
#
# Elastic Constant Matrix: (Units=GPa)
#
#
# Indices 1 2 3 4 5 6 
#
# 1 82.2913 17.8537 23.2397 0.0000 -7.1240 0.0000
# 2 17.8537 133.8761 45.6862 0.0000 -5.6007 0.0000
# 3 23.2397 45.6862 142.7134 0.0000 6.5857 0.0000
# 4 0.0000 0.0000 0.0000 47.8939 0.0000 -5.7572
# 5 -7.1240 -5.6007 6.5857 0.0000 30.0352 0.0000
# 6 0.0000 0.0000 0.0000 -5.7572 0.0000 25.0481
#
#
#
# Elastic Compliance Matrix: (Units=1/GPa)
#
#
# Indices 1 2 3 4 5 6 
#
# 1 0.013217 -0.000934 -0.002010 0.000000 0.003401 0.000000
# 2 -0.000934 0.008595 -0.002690 0.000000 0.001971 0.000000
# 3 -0.002010 -0.002690 0.008325 0.000000 -0.002804 0.000000
# 4 0.000000 0.000000 0.000000 0.021473 0.000000 0.004935
# 5 0.003401 0.001971 -0.002804 0.000000 0.035083 0.000000
# 6 0.000000 0.000000 0.000000 0.004935 0.000000 0.041058
#
#
# Mechanical properties :
#
#
# Convention : Reuss Voigt Hill
#
# Bulk Modulus (GPa) = 53.00203 59.16002 56.08103
# Shear Modulus (GPa) = 34.40960 38.73554 36.57257
#
# Velocity S-wave (km/s) = 3.93428 4.17427 4.05605
# Velocity P-wave (km/s) = 6.66934 7.06008 6.86749
#
# Compressibility (1/GPa) = 0.01886720
#
# Stress axis : x y z
#
# Youngs Moduli (GPa) = 75.66137 116.35087 120.12068
#
# Poissons Ratio (x) = 0.10871 0.24145
# Poissons Ratio (y) = 0.07069 0.32315
# Poissons Ratio (z) = 0.15209 0.31301
#
# Static dielectric constant tensor:
#      x y z
#    x 4.303720 0.000000 0.047380 
#    y 0.000000 4.212270 0.000000 
#    z 0.047380 0.000000 4.165930 
# 
# 
# High freq. dielectric constant tensor:
#      x y z
#    x 1.886240 0.000000 -0.009300 
#    y 0.000000 1.886220 0.000000 
#    z -0.009300 0.000000 1.887880 
# 
# From -- ./inp_files/133136.got.cif
#   From: 2010.06.25/outbox.cif.g09.slc.cpg/sg15_67_cif.got.tgz:133136.got - 2010.06.28 07:06:18.
