data_PCOD8149485
_publ_section_title
;
Structure prediction by ZEFSAII (Michael W. Deem and Ramdas Pophale) SiO2 
 PCOD8149485
Probable space group: C 2/C
;
_chemical_formula_sum "Si O2"
_cell_formula_units_Z 56
_cell_length_a 24.530011
_cell_length_b 12.213400
_cell_length_c 9.224922
_cell_angle_alpha 90.000000
_cell_angle_beta 74.177815
_cell_angle_gamma 90.000000
_cell_volume 2659.027819
_symmetry_space_group_name_H-M "C 2/C"
_symmetry_group_IT_number 15
_symmetry_cell_setting 'monoclinic'
loop_
_space_group_symop_operation_xyz
x,y,z
-x,y,1/2-z
-x,-y,-z
x,-y,1/2+z
1/2+x,1/2+y,z
1/2-x,1/2+y,1/2-z
1/2-x,1/2-y,-z
1/2+x,1/2-y,1/2+z
loop_
_atom_site_type_symbol
_atom_site_label
_atom_site_fract_x
_atom_site_fract_y
_atom_site_fract_z
Si Si1 0.437055 0.961246 0.571401
Si Si2 0.254852 0.877029 0.966254
Si Si3 0.052151 0.174887 0.604142
Si Si4 0.384436 0.108005 0.389469
Si Si5 0.386314 0.555979 0.443519
Si Si6 0.472711 0.252628 0.914537
Si Si7 0.690161 0.492986 0.757505
O O1 0.423982 0.958506 0.750234
O O2 0.431271 0.837935 0.513640
O O3 0.500000 0.000000 0.500000
O O4 0.393267 0.047487 0.535556
O O5 0.319814 0.905428 0.890093
O O6 0.221583 0.908879 0.843412
O O7 0.250000 0.750000 0.000000
O O8 0.233286 0.939431 0.125723
O O9 0.096834 0.265643 0.624502
O O10 0.000000 0.157347 0.750000
O O11 0.026208 0.213829 0.472397
O O12 0.088343 0.065542 0.563946
O O13 0.437124 0.639941 0.406718
O O14 0.346492 0.574707 0.613602
O O15 0.351389 0.573524 0.320162
O O16 0.500000 0.203160 0.750000
#
# Coordination Sequence:
#
# PCOD8149485 Si02
#       7
#     8   8   8   8   8   8   8
#     4  12  24  43  64  95 136 171 219 268 325 409
#     4  11  25  46  73  96 134 178 235 286 339 393
#     4  12  22  41  67  99 134 174 219 262 333 412
#     4  12  24  43  68  94 127 182 217 274 336 384
#     4  11  23  41  70  96 137 174 215 278 340 393
#     4  12  24  38  61 100 137 171 213 265 328 409
#     4  10  23  47  65 101 130 171 233 285 329 396
#
# _framework density 21.060327999999998
#
# number of rings (size 3 to 8) (size 9 to 14) (size 15 to 20)
#    0.000    0.571    2.857    6.429    2.000    0.000 
#    2.571    1.429    0.000    0.000    0.000    0.000 
#    0.000    0.000    0.000    0.000    0.000    0.000 
#
# Total GULP energy -347276.073396 kJ/mol
# GULP energy per Si atom -12402.716907 kJ/mol
# Density = 2.101239 g / cm^3
# Si number density = 21.060328 Si / 1000 Ang^3
#
#
#
# Elastic Constant Matrix: (Units=GPa)
#
#
# Indices 1 2 3 4 5 6 
#
# 1 90.0580 6.4579 31.3312 0.0000 -9.7955 0.0000
# 2 6.4579 92.7664 18.2780 0.0000 -8.8245 0.0000
# 3 31.3312 18.2780 114.9421 0.0000 2.6140 0.0000
# 4 0.0000 0.0000 0.0000 16.8680 0.0000 11.2365
# 5 -9.7955 -8.8245 2.6140 0.0000 26.8205 0.0000
# 6 0.0000 0.0000 0.0000 11.2365 0.0000 23.5238
#
#
#
# Elastic Compliance Matrix: (Units=1/GPa)
#
#
# Indices 1 2 3 4 5 6 
#
# 1 0.012930 0.000321 -0.003694 0.000000 0.005188 0.000000
# 2 0.000321 0.011546 -0.002017 0.000000 0.004113 0.000000
# 3 -0.003694 -0.002017 0.010096 0.000000 -0.002997 0.000000
# 4 0.000000 0.000000 0.000000 0.086951 0.000000 -0.041533
# 5 0.005188 0.004113 -0.002997 0.000000 0.040825 0.000000
# 6 0.000000 0.000000 0.000000 -0.041533 0.000000 0.062349
#
#
# Mechanical properties :
#
#
# Convention : Reuss Voigt Hill
#
# Bulk Modulus (GPa) = 42.02933 45.54453 43.78693
# Shear Modulus (GPa) = 20.54168 29.55575 25.04872
#
# Velocity S-wave (km/s) = 3.12649 3.75024 3.45248
# Velocity P-wave (km/s) = 5.74745 6.35807 6.06046
#
# Compressibility (1/GPa) = 0.02379291
#
# Stress axis : x y z
#
# Youngs Moduli (GPa) = 77.33802 86.60950 99.05153
#
# Poissons Ratio (x) = -0.02781 0.36586
# Poissons Ratio (y) = -0.02484 0.19980
# Poissons Ratio (z) = 0.28566 0.17470
#
# Static dielectric constant tensor:
#      x y z
#    x 4.317690 0.000000 -0.062780 
#    y 0.000000 13.778070 0.000000 
#    z -0.062780 0.000000 4.126070 
# 
# 
# High freq. dielectric constant tensor:
#      x y z
#    x 1.832600 0.000000 0.002660 
#    y 0.000000 1.823440 0.000000 
#    z 0.002660 0.000000 1.843140 
# 
# From -- ./inp_files/65432.got.cif
#   From: 2010.06.25/outbox.cif.g09.slc.cpg/sg15_33_cif.got.tgz:65432.got - 2010.06.28 07:06:18.
