data_PCOD8149082
_publ_section_title
;
Structure prediction by ZEFSAII (Michael W. Deem and Ramdas Pophale) SiO2 
 PCOD8149082
Probable space group: C 2/C
;
_chemical_formula_sum "Si O2"
_cell_formula_units_Z 44
_cell_length_a 30.844998
_cell_length_b 7.608711
_cell_length_c 23.686908
_cell_angle_alpha 90.000000
_cell_angle_beta 20.260404
_cell_angle_gamma 90.000000
_cell_volume 1925.045119
_symmetry_space_group_name_H-M "C 2/C"
_symmetry_group_IT_number 15
_symmetry_cell_setting 'monoclinic'
loop_
_space_group_symop_operation_xyz
x,y,z
-x,y,1/2-z
-x,-y,-z
x,-y,1/2+z
1/2+x,1/2+y,z
1/2-x,1/2+y,1/2-z
1/2-x,1/2-y,-z
1/2+x,1/2-y,1/2+z
loop_
_atom_site_type_symbol
_atom_site_label
_atom_site_fract_x
_atom_site_fract_y
_atom_site_fract_z
Si Si1 0.645237 0.587202 0.370080
Si Si2 0.000000 0.578503 0.250000
Si Si3 0.400348 0.913876 0.260296
Si Si4 0.411842 0.972650 0.055165
Si Si5 0.394530 0.562545 0.208945
Si Si6 0.752971 0.756863 0.562662
O O1 0.597678 0.771379 0.451433
O O2 0.777049 0.546241 0.237964
O O3 0.669218 0.597154 0.273537
O O4 0.543959 0.442333 0.513703
O O5 0.930323 0.453071 0.289518
O O6 0.895145 0.705214 0.407824
O O7 0.357187 0.712933 0.300560
O O8 0.293978 0.045749 0.364306
O O9 0.531333 0.928953 0.067741
O O10 0.500000 0.000000 0.000000
O O11 0.346949 0.377577 0.290004
O O12 0.750000 0.750000 0.500000
#
# Coordination Sequence:
#
# PCOD8149082 Si02
#       6
#     8   4   8   8   8   8
#     4  11  25  41  71 106 146 181 234 296 360 435
#     4  10  24  44  70  96 140 188 238 300 354 406
#     4  11  23  45  70 100 141 183 238 293 350 432
#     4  12  24  43  69 109 142 188 237 287 368 435
#     4  11  23  46  71 103 140 187 235 295 364 426
#     4  10  23  44  65  98 136 183 237 294 345 417
#
# _framework density 22.856605999999999
#
# number of rings (size 3 to 8) (size 9 to 14) (size 15 to 20)
#    0.000    1.091    3.636    2.182    2.545    4.364 
#    0.000    4.545    0.000    0.000    0.000    0.000 
#    0.000    0.000    0.000    0.000    0.000    0.000 
#
# Total GULP energy -272738.074985 kJ/mol
# GULP energy per Si atom -12397.185227 kJ/mol
# Density = 2.280458 g / cm^3
# Si number density = 22.856606 Si / 1000 Ang^3
#
#
#
# Elastic Constant Matrix: (Units=GPa)
#
#
# Indices 1 2 3 4 5 6 
#
# 1 76.8735 21.7740 29.5616 0.0013 -15.8590 0.0005
# 2 21.7740 119.0493 28.2030 -0.0270 -10.7995 0.0003
# 3 29.5616 28.2030 123.5027 -0.0280 -21.2239 -0.0023
# 4 0.0013 -0.0270 -0.0280 32.5780 0.0018 9.9496
# 5 -15.8590 -10.7995 -21.2239 0.0018 35.5281 0.0015
# 6 0.0005 0.0003 -0.0023 9.9496 0.0015 30.1436
#
#
#
# Elastic Compliance Matrix: (Units=1/GPa)
#
#
# Indices 1 2 3 4 5 6 
#
# 1 0.015471 -0.001805 -0.002450 -0.000005 0.004894 0.000001
# 2 -0.001805 0.009179 -0.001474 0.000007 0.001104 -0.000003
# 3 -0.002450 -0.001474 0.009757 0.000008 0.004287 -0.000002
# 4 -0.000005 0.000007 0.000008 0.034137 0.000003 -0.011268
# 5 0.004894 0.001104 0.004287 0.000003 0.033227 -0.000003
# 6 0.000001 -0.000003 -0.000002 -0.011268 -0.000003 0.036894
#
#
# Mechanical properties :
#
#
# Convention : Reuss Voigt Hill
#
# Bulk Modulus (GPa) = 43.57643 53.16695 48.37169
# Shear Modulus (GPa) = 31.69076 35.64240 33.66658
#
# Velocity S-wave (km/s) = 3.72762 3.95320 3.84206
# Velocity P-wave (km/s) = 6.13460 6.64444 6.39461
#
# Compressibility (1/GPa) = 0.02294819
#
# Stress axis : x y z
#
# Youngs Moduli (GPa) = 64.63510 108.93851 102.49270
#
# Poissons Ratio (x) = 0.19667 0.25111
# Poissons Ratio (y) = 0.11669 0.15112
# Poissons Ratio (z) = 0.15835 0.16062
#
# Static dielectric constant tensor:
#      x y z
#    x 4.082720 -0.000050 0.001770 
#    y -0.000050 4.432520 0.000870 
#    z 0.001770 0.000870 6.895360 
# 
# 
# High freq. dielectric constant tensor:
#      x y z
#    x 1.887690 0.000000 0.003900 
#    y 0.000000 1.902770 0.000000 
#    z 0.003900 0.000000 1.913510 
# 
# From -- ./inp_files/284370.got.cif
#   From: 2010.06.25/outbox.cif.g09.slc.cpg/sg15_143_cif.got.tgz:284370.got - 2010.06.28 07:06:18.
