data_PCOD8149607
_publ_section_title
;
Structure prediction by ZEFSAII (Michael W. Deem and Ramdas Pophale) SiO2 
 PCOD8149607
Probable space group: C 2/C
;
_chemical_formula_sum "Si O2"
_cell_formula_units_Z 36
_cell_length_a 15.676835
_cell_length_b 14.872739
_cell_length_c 12.659167
_cell_angle_alpha 90.000000
_cell_angle_beta 34.032439
_cell_angle_gamma 90.000000
_cell_volume 1651.887394
_symmetry_space_group_name_H-M "C 2/C"
_symmetry_group_IT_number 15
_symmetry_cell_setting 'monoclinic'
loop_
_space_group_symop_operation_xyz
x,y,z
-x,y,1/2-z
-x,-y,-z
x,-y,1/2+z
1/2+x,1/2+y,z
1/2-x,1/2+y,1/2-z
1/2-x,1/2-y,-z
1/2+x,1/2-y,1/2+z
loop_
_atom_site_type_symbol
_atom_site_label
_atom_site_fract_x
_atom_site_fract_y
_atom_site_fract_z
Si Si1 0.759226 0.702325 0.843108
Si Si2 0.822510 0.653257 0.407448
Si Si3 0.331419 0.576911 0.741845
Si Si4 0.832456 0.882216 0.646206
Si Si5 0.000000 0.258183 0.250000
O O1 0.770144 0.630620 0.738869
O O2 0.792723 0.801997 0.766025
O O3 0.887583 0.678111 0.798147
O O4 0.595968 0.696389 0.069632
O O5 0.750000 0.750000 0.500000
O O6 0.743478 0.582909 0.566872
O O7 0.791376 0.619179 0.320687
O O8 0.000000 0.657774 0.250000
O O9 0.328110 0.472991 0.717269
O O10 0.497394 0.624213 0.576278
#
# Coordination Sequence:
#
# PCOD8149607 Si02
#       5
#     8   8   8   8   4
#     4  11  22  45  66  96 130 181 218 281 330 406
#     4  12  26  44  72 102 139 185 230 283 349 409
#     4  11  25  46  72 100 134 180 231 282 342 411
#     4  11  25  46  72 100 134 180 231 282 342 411
#     4  10  24  38  68  94 134 172 220 268 350 388
#
# _framework density 21.793253
#
# number of rings (size 3 to 8) (size 9 to 14) (size 15 to 20)
#    0.000    0.889    4.444    2.000    3.111    4.444 
#    4.000    0.000    0.000    0.000    0.000    0.000 
#    0.000    0.000    0.000    0.000    0.000    0.000 
#
# Total GULP energy -223257.775932 kJ/mol
# GULP energy per Si atom -12403.209774 kJ/mol
# Density = 2.174365 g / cm^3
# Si number density = 21.793253 Si / 1000 Ang^3
#
#
#
# Elastic Constant Matrix: (Units=GPa)
#
#
# Indices 1 2 3 4 5 6 
#
# 1 129.1127 13.9322 41.3133 0.0002 -8.3865 -0.0002
# 2 13.9322 80.5877 34.6382 0.0001 1.1774 -0.0001
# 3 41.3133 34.6382 127.2298 0.0001 -8.1707 -0.0002
# 4 0.0002 0.0001 0.0001 24.2910 -0.0002 -0.7709
# 5 -8.3865 1.1774 -8.1707 -0.0002 37.6055 0.0002
# 6 -0.0002 -0.0001 -0.0002 -0.7709 0.0002 24.0718
#
#
#
# Elastic Compliance Matrix: (Units=1/GPa)
#
#
# Indices 1 2 3 4 5 6 
#
# 1 0.008721 -0.000395 -0.002635 0.000000 0.001385 0.000000
# 2 -0.000395 0.014133 -0.003807 0.000000 -0.001358 0.000000
# 3 -0.002635 -0.003807 0.009859 0.000000 0.001674 0.000000
# 4 0.000000 0.000000 0.000000 0.041209 0.000000 0.001320
# 5 0.001385 -0.001358 0.001674 0.000000 0.027307 0.000000
# 6 0.000000 0.000000 0.000000 0.001320 0.000000 0.041585
#
#
# Mechanical properties :
#
#
# Convention : Reuss Voigt Hill
#
# Bulk Modulus (GPa) = 52.52313 57.41086 54.96699
# Shear Modulus (GPa) = 30.70592 33.66342 32.18467
#
# Velocity S-wave (km/s) = 3.75769 3.93449 3.84711
# Velocity P-wave (km/s) = 6.55591 6.85864 6.70898
#
# Compressibility (1/GPa) = 0.01903923
#
# Stress axis : x y z
#
# Youngs Moduli (GPa) = 114.66568 70.75558 101.42661
#
# Poissons Ratio (x) = 0.02796 0.26729
# Poissons Ratio (y) = 0.04532 0.38609
# Poissons Ratio (z) = 0.30218 0.26934
#
# Static dielectric constant tensor:
#      x y z
#    x 4.344040 0.000000 -0.044680 
#    y 0.000000 3.654520 0.000000 
#    z -0.044680 0.000000 4.145960 
# 
# 
# High freq. dielectric constant tensor:
#      x y z
#    x 1.881690 0.000000 0.002080 
#    y 0.000000 1.832470 0.000000 
#    z 0.002080 0.000000 1.865880 
# 
# From -- ./inp_files/38869.got.cif
#   From: 2010.06.25/outbox.cif.g09.slc.cpg/sg15_20_cif.got.tgz:38869.got - 2010.06.28 07:06:18.
