data_PCOD8149976
_publ_section_title
;
Structure prediction by ZEFSAII (Michael W. Deem and Ramdas Pophale) SiO2 
 PCOD8149976
Probable space group: C 2/C
;
_chemical_formula_sum "Si O2"
_cell_formula_units_Z 36
_cell_length_a 7.245191
_cell_length_b 16.253224
_cell_length_c 17.646442
_cell_angle_alpha 90.000000
_cell_angle_beta 126.082100
_cell_angle_gamma 90.000000
_cell_volume 1679.389150
_symmetry_space_group_name_H-M "C 2/C"
_symmetry_group_IT_number 15
_symmetry_cell_setting 'monoclinic'
loop_
_space_group_symop_operation_xyz
x,y,z
-x,y,1/2-z
-x,-y,-z
x,-y,1/2+z
1/2+x,1/2+y,z
1/2-x,1/2+y,1/2-z
1/2-x,1/2-y,-z
1/2+x,1/2-y,1/2+z
loop_
_atom_site_type_symbol
_atom_site_label
_atom_site_fract_x
_atom_site_fract_y
_atom_site_fract_z
Si Si1 0.710428 0.346098 0.495041
Si Si2 0.386901 0.913917 0.803586
Si Si3 0.500000 0.293706 0.750000
Si Si4 0.116722 0.445250 0.091581
Si Si5 0.271073 0.815458 0.070456
O O1 0.750000 0.250000 0.500000
O O2 0.701677 0.387449 0.408746
O O3 0.466812 0.362465 0.473806
O O4 0.913158 0.382452 0.593895
O O5 0.500000 0.933331 0.750000
O O6 0.178541 0.849287 0.745046
O O7 0.280493 0.996116 0.817455
O O8 0.649864 0.234989 0.837913
O O9 0.940155 0.387215 0.090780
O O10 0.000000 0.500000 0.000000
O O11 0.250000 0.750000 0.000000
#
# Coordination Sequence:
#
# PCOD8149976 Si02
#       5
#     8   8   4   8   8
#     4  11  21  44  72  96 128 179 225 275 332 402
#     4  11  25  43  65  99 140 174 222 279 341 396
#     4  12  26  42  68 100 134 178 228 282 330 402
#     4  10  24  43  66  98 133 174 220 274 344 403
#     4  12  23  42  74  99 133 175 230 278 333 397
#
# _framework density 21.436364999999999
#
# number of rings (size 3 to 8) (size 9 to 14) (size 15 to 20)
#    0.000    0.889    4.444    2.667    1.556    5.333 
#    0.000    0.000    0.000    0.000    0.000    0.000 
#    0.000    0.000    0.000    0.000    0.000    0.000 
#
# Total GULP energy -223136.279388 kJ/mol
# GULP energy per Si atom -12396.459966 kJ/mol
# Density = 2.138758 g / cm^3
# Si number density = 21.436365 Si / 1000 Ang^3
#
#
#
# Elastic Constant Matrix: (Units=GPa)
#
#
# Indices 1 2 3 4 5 6 
#
# 1 140.1668 34.1899 19.4148 0.0000 -10.7234 0.0000
# 2 34.1899 111.0018 21.3907 0.0000 -16.1018 0.0000
# 3 19.4148 21.3907 64.6802 0.0000 -11.9792 0.0000
# 4 0.0000 0.0000 0.0000 24.5074 0.0000 -10.5379
# 5 -10.7234 -16.1018 -11.9792 0.0000 39.8028 0.0000
# 6 0.0000 0.0000 0.0000 -10.5379 0.0000 50.2646
#
#
#
# Elastic Compliance Matrix: (Units=1/GPa)
#
#
# Indices 1 2 3 4 5 6 
#
# 1 0.007905 -0.002013 -0.001550 0.000000 0.000849 0.000000
# 2 -0.002013 0.010512 -0.002314 0.000000 0.003014 0.000000
# 3 -0.001550 -0.002314 0.017411 0.000000 0.003886 0.000000
# 4 0.000000 0.000000 0.000000 0.044847 0.000000 0.009402
# 5 0.000849 0.003014 0.003886 0.000000 0.027741 0.000000
# 6 0.000000 0.000000 0.000000 0.009402 0.000000 0.021866
#
#
# Mechanical properties :
#
#
# Convention : Reuss Voigt Hill
#
# Bulk Modulus (GPa) = 41.53844 51.75994 46.64919
# Shear Modulus (GPa) = 33.31985 38.97183 36.14584
#
# Velocity S-wave (km/s) = 3.94682 4.26846 4.11078
# Velocity P-wave (km/s) = 6.33951 6.96356 6.65885
#
# Compressibility (1/GPa) = 0.02407409
#
# Stress axis : x y z
#
# Youngs Moduli (GPa) = 126.50219 95.12933 57.43501
#
# Poissons Ratio (x) = 0.19150 0.08902
# Poissons Ratio (y) = 0.25465 0.13291
# Poissons Ratio (z) = 0.19606 0.22014
#
# Static dielectric constant tensor:
#      x y z
#    x 4.420970 0.000000 -0.159870 
#    y 0.000000 4.402970 0.000000 
#    z -0.159870 0.000000 3.872870 
# 
# 
# High freq. dielectric constant tensor:
#      x y z
#    x 1.854930 0.000000 -0.013540 
#    y 0.000000 1.859950 0.000000 
#    z -0.013540 0.000000 1.829000 
# 
# From -- ./inp_files/184442.got.cif
#   From: 2010.06.25/outbox.cif.g09.slc.cpg/sg15_93_cif.got.tgz:184442.got - 2010.06.28 07:06:18.
