data_PCOD8149670
_publ_section_title
;
Structure prediction by ZEFSAII (Michael W. Deem and Ramdas Pophale) SiO2 
 PCOD8149670
Probable space group: C 2/C
;
_chemical_formula_sum "Si O2"
_cell_formula_units_Z 60
_cell_length_a 22.712548
_cell_length_b 22.309554
_cell_length_c 8.532457
_cell_angle_alpha 90.000000
_cell_angle_beta 142.747770
_cell_angle_gamma 90.000000
_cell_volume 2617.094730
_symmetry_space_group_name_H-M "C 2/C"
_symmetry_group_IT_number 15
_symmetry_cell_setting 'monoclinic'
loop_
_space_group_symop_operation_xyz
x,y,z
-x,y,1/2-z
-x,-y,-z
x,-y,1/2+z
1/2+x,1/2+y,z
1/2-x,1/2+y,1/2-z
1/2-x,1/2-y,-z
1/2+x,1/2-y,1/2+z
loop_
_atom_site_type_symbol
_atom_site_label
_atom_site_fract_x
_atom_site_fract_y
_atom_site_fract_z
Si Si1 0.503299 0.815409 0.440665
Si Si2 0.000000 0.500217 0.750000
Si Si3 0.390515 0.071311 0.254023
Si Si4 0.815714 0.971169 0.219001
Si Si5 0.307472 0.799460 0.214107
Si Si6 0.911968 0.774226 0.181049
Si Si7 0.831611 0.087130 0.084524
Si Si8 0.466634 0.402459 0.347484
O O1 0.500000 0.828440 0.250000
O O2 0.576920 0.860291 0.684386
O O3 0.399248 0.820108 0.304578
O O4 0.554904 0.751515 0.579946
O O5 0.085905 0.459202 0.862770
O O6 0.953823 0.541633 0.522536
O O7 0.276417 0.065278 0.043299
O O8 0.835361 0.955207 0.440242
O O9 0.909672 0.954091 0.316259
O O10 0.799393 0.042956 0.159961
O O11 0.326956 0.765858 0.422166
O O12 0.250000 0.750000 0.000000
O O13 0.243672 0.859060 0.105311
O O14 0.894230 0.845049 0.169767
O O15 0.000000 0.766671 0.250000
O O16 0.937120 0.115531 0.348340
O O17 0.500000 0.428253 0.250000
#
# Coordination Sequence:
#
# PCOD8149670 Si02
#       8
#     8   4   8   8   8   8   8   8
#     4  11  24  40  65  97 134 173 226 285 353 424
#     4  10  24  40  66  88 140 176 222 282 360 418
#     4  11  24  42  63  98 133 180 225 287 351 426
#     4  12  27  43  71 104 143 190 242 289 358 426
#     4  11  25  46  72 102 135 184 236 295 366 434
#     4   9  21  42  68  95 130 180 227 288 356 419
#     4  12  26  45  71 104 143 190 240 296 352 422
#     4  11  24  47  70 100 141 188 237 300 352 420
#
# _framework density 22.926185
#
# number of rings (size 3 to 8) (size 9 to 14) (size 15 to 20)
#    0.000    1.067    0.667    5.600    8.400    5.333 
#    0.000    2.000    0.000    0.000    0.000    0.000 
#    0.000    0.000    0.000    0.000    0.000    0.000 
#
# Total GULP energy -371920.957632 kJ/mol
# GULP energy per Si atom -12397.365254 kJ/mol
# Density = 2.287400 g / cm^3
# Si number density = 22.926185 Si / 1000 Ang^3
#
#
#
# Elastic Constant Matrix: (Units=GPa)
#
#
# Indices 1 2 3 4 5 6 
#
# 1 68.9785 23.5540 16.5413 0.0000 4.1552 0.0000
# 2 23.5540 102.0176 33.9181 0.0000 -4.2860 0.0000
# 3 16.5413 33.9181 94.4781 0.0000 10.2656 0.0000
# 4 0.0000 0.0000 0.0000 43.4797 0.0000 4.0616
# 5 4.1552 -4.2860 10.2656 0.0000 34.7921 0.0000
# 6 0.0000 0.0000 0.0000 4.0616 0.0000 26.0655
#
#
#
# Elastic Compliance Matrix: (Units=1/GPa)
#
#
# Indices 1 2 3 4 5 6 
#
# 1 0.016087 -0.003324 -0.001415 0.000000 -0.001913 0.000000
# 2 -0.003324 0.012056 -0.004082 0.000000 0.003087 0.000000
# 3 -0.001415 -0.004082 0.012742 0.000000 -0.004094 0.000000
# 4 0.000000 0.000000 0.000000 0.023339 0.000000 -0.003637
# 5 -0.001913 0.003087 -0.004094 0.000000 0.030559 0.000000
# 6 0.000000 0.000000 0.000000 -0.003637 0.000000 0.038932
#
#
# Mechanical properties :
#
#
# Convention : Reuss Voigt Hill
#
# Bulk Modulus (GPa) = 43.02239 45.94456 44.48347
# Shear Modulus (GPa) = 31.42581 33.63153 32.52867
#
# Velocity S-wave (km/s) = 3.70637 3.83423 3.77084
# Velocity P-wave (km/s) = 6.09283 6.29964 6.19710
#
# Compressibility (1/GPa) = 0.02324371
#
# Stress axis : x y z
#
# Youngs Moduli (GPa) = 62.16213 82.94341 78.47815
#
# Poissons Ratio (x) = 0.27570 0.11107
# Poissons Ratio (y) = 0.20663 0.32033
# Poissons Ratio (z) = 0.08798 0.33855
#
# Static dielectric constant tensor:
#      x y z
#    x 4.312110 0.000000 0.027480 
#    y 0.000000 4.459850 0.000000 
#    z 0.027480 0.000000 4.420000 
# 
# 
# High freq. dielectric constant tensor:
#      x y z
#    x 1.887150 0.000000 -0.007480 
#    y 0.000000 1.917500 0.000000 
#    z -0.007480 0.000000 1.921480 
# 
# From -- ./inp_files/67737.got.cif
#   From: 2010.06.25/outbox.cif.g09.slc.cpg/sg15_34_cif.got.tgz:67737.got - 2010.06.28 07:06:18.
