data_PCOD8149541
_publ_section_title
;
Structure prediction by ZEFSAII (Michael W. Deem and Ramdas Pophale) SiO2 
 PCOD8149541
Probable space group: C 2/C
;
_chemical_formula_sum "Si O2"
_cell_formula_units_Z 48
_cell_length_a 13.343417
_cell_length_b 11.894446
_cell_length_c 15.081796
_cell_angle_alpha 90.000000
_cell_angle_beta 57.954858
_cell_angle_gamma 90.000000
_cell_volume 2028.947567
_symmetry_space_group_name_H-M "C 2/C"
_symmetry_group_IT_number 15
_symmetry_cell_setting 'monoclinic'
loop_
_space_group_symop_operation_xyz
x,y,z
-x,y,1/2-z
-x,-y,-z
x,-y,1/2+z
1/2+x,1/2+y,z
1/2-x,1/2+y,1/2-z
1/2-x,1/2-y,-z
1/2+x,1/2-y,1/2+z
loop_
_atom_site_type_symbol
_atom_site_label
_atom_site_fract_x
_atom_site_fract_y
_atom_site_fract_z
Si Si1 0.323937 0.782775 0.227367
Si Si2 0.892261 0.205301 0.018293
Si Si3 0.180500 0.432169 0.539377
Si Si4 0.777911 0.156977 0.415571
Si Si5 0.577011 0.357905 0.295250
Si Si6 0.000000 0.552538 0.750000
Si Si7 0.500000 0.566695 0.250000
O O1 0.402383 0.711475 0.120467
O O2 0.252520 0.702869 0.329020
O O3 0.215067 0.832053 0.221896
O O4 0.407773 0.872724 0.236693
O O5 0.796414 0.110521 0.037164
O O6 0.862851 0.331380 0.001293
O O7 0.018702 0.171834 0.917240
O O8 0.212038 0.539859 0.463951
O O9 0.075943 0.469693 0.653305
O O10 0.750000 0.250000 0.500000
O O11 0.919658 0.143785 0.350133
O O12 0.500000 0.301408 0.250000
O O13 0.577264 0.491926 0.281065
#
# Coordination Sequence:
#
# PCOD8149541 Si02
#       7
#     8   8   8   8   8   4   4
#     4  12  28  47  79 117 155 201 255 318 385 454
#     4  11  25  48  79 116 145 203 264 314 376 455
#     4  11  25  50  78 111 157 199 254 319 383 459
#     4  12  25  47  74 106 157 200 246 312 387 453
#     4  10  23  49  79 110 150 197 255 315 373 450
#     4  12  29  49  76 118 162 201 249 320 400 454
#     4  10  23  49  78 102 150 197 253 310 366 464
#
# _framework density 23.657585999999998
#
# number of rings (size 3 to 8) (size 9 to 14) (size 15 to 20)
#    0.500    0.333    3.333    3.500    5.833    3.333 
#    0.000    2.500    0.000    0.000    0.000    0.000 
#    0.000    0.000    0.000    0.000    0.000    0.000 
#
# Total GULP energy -297383.962349 kJ/mol
# GULP energy per Si atom -12390.998431 kJ/mol
# Density = 2.360374 g / cm^3
# Si number density = 23.657586 Si / 1000 Ang^3
#
#
#
# Elastic Constant Matrix: (Units=GPa)
#
#
# Indices 1 2 3 4 5 6 
#
# 1 102.6941 31.0813 25.7082 0.0000 -7.2653 0.0000
# 2 31.0813 129.4723 55.3438 0.0000 -7.6449 0.0000
# 3 25.7082 55.3438 194.6952 0.0000 -16.0377 0.0000
# 4 0.0000 0.0000 0.0000 62.8979 0.0000 -8.9156
# 5 -7.2653 -7.6449 -16.0377 0.0000 40.0414 0.0000
# 6 0.0000 0.0000 0.0000 -8.9156 0.0000 25.7298
#
#
#
# Elastic Compliance Matrix: (Units=1/GPa)
#
#
# Indices 1 2 3 4 5 6 
#
# 1 0.010660 -0.002194 -0.000681 0.000000 0.001242 0.000000
# 2 -0.002194 0.009263 -0.002306 0.000000 0.000446 0.000000
# 3 -0.000681 -0.002306 0.006034 0.000000 0.001853 0.000000
# 4 0.000000 0.000000 0.000000 0.016720 0.000000 0.005794
# 5 0.001242 0.000446 0.001853 0.000000 0.026027 0.000000
# 6 0.000000 0.000000 0.000000 0.005794 0.000000 0.040873
#
#
# Mechanical properties :
#
#
# Convention : Reuss Voigt Hill
#
# Bulk Modulus (GPa) = 64.13259 72.34759 68.24009
# Shear Modulus (GPa) = 39.95526 46.71572 43.33549
#
# Velocity S-wave (km/s) = 4.11408 4.44854 4.28457
# Velocity P-wave (km/s) = 7.05231 7.55205 7.30645
#
# Compressibility (1/GPa) = 0.01559270
#
# Stress axis : x y z
#
# Youngs Moduli (GPa) = 93.80572 107.95934 165.71408
#
# Poissons Ratio (x) = 0.23691 0.11293
# Poissons Ratio (y) = 0.20585 0.38221
# Poissons Ratio (z) = 0.06393 0.24901
#
# Static dielectric constant tensor:
#      x y z
#    x 4.057050 0.000000 -0.164200 
#    y 0.000000 4.414680 0.000000 
#    z -0.164200 0.000000 4.515720 
# 
# 
# High freq. dielectric constant tensor:
#      x y z
#    x 1.919950 0.000000 -0.014560 
#    y 0.000000 1.946900 0.000000 
#    z -0.014560 0.000000 1.963260 
# 
# From -- ./inp_files/152512.got.cif
#   From: 2010.06.25/outbox.cif.g09.slc.cpg/sg15_77_cif.got.tgz:152512.got - 2010.06.28 07:06:18.
