data_PCOD8149709
_publ_section_title
;
Structure prediction by ZEFSAII (Michael W. Deem and Ramdas Pophale) SiO2 
 PCOD8149709
Probable space group: C 2/C
;
_chemical_formula_sum "Si O2"
_cell_formula_units_Z 44
_cell_length_a 19.475506
_cell_length_b 5.028817
_cell_length_c 19.193501
_cell_angle_alpha 90.000000
_cell_angle_beta 77.874942
_cell_angle_gamma 90.000000
_cell_volume 1837.852302
_symmetry_space_group_name_H-M "C 2/C"
_symmetry_group_IT_number 15
_symmetry_cell_setting 'monoclinic'
loop_
_space_group_symop_operation_xyz
x,y,z
-x,y,1/2-z
-x,-y,-z
x,-y,1/2+z
1/2+x,1/2+y,z
1/2-x,1/2+y,1/2-z
1/2-x,1/2-y,-z
1/2+x,1/2-y,1/2+z
loop_
_atom_site_type_symbol
_atom_site_label
_atom_site_fract_x
_atom_site_fract_y
_atom_site_fract_z
Si Si1 0.500000 0.107691 0.750000
Si Si2 0.615610 0.194857 0.147971
Si Si3 0.247118 0.249930 0.705326
Si Si4 0.882927 0.606729 0.981939
Si Si5 0.363516 0.584120 0.073604
Si Si6 0.504510 0.593157 0.111436
O O1 0.522109 0.287386 0.810221
O O2 0.432417 0.932443 0.782066
O O3 0.679840 0.336968 0.173376
O O4 0.568119 0.388506 0.110874
O O5 0.648845 0.979176 0.086885
O O6 0.225175 0.481508 0.764363
O O7 0.306496 0.381884 0.645301
O O8 0.878361 0.368541 0.037183
O O9 0.840097 0.860718 0.022175
O O10 0.964091 0.684628 0.947646
O O11 0.435949 0.465552 0.090746
#
# Coordination Sequence:
#
# PCOD8149709 Si02
#       6
#     4   8   8   8   8   8
#     4  10  24  40  72 104 142 188 238 296 356 412
#     4  11  26  45  73 107 143 187 243 300 351 429
#     4  12  30  50  72 103 147 188 241 295 363 430
#     4  11  25  45  72 107 142 183 240 292 352 427
#     4  12  26  45  73 103 143 191 229 293 363 422
#     4  11  24  43  72 104 145 183 241 293 353 425
#
# _framework density 23.940988000000001
#
# number of rings (size 3 to 8) (size 9 to 14) (size 15 to 20)
#    0.000    0.727    1.818    3.818   15.273    1.455 
#    0.000    0.000    0.000    0.000    0.000    0.000 
#    0.000    0.000    0.000    0.000    0.000    0.000 
#
# Total GULP energy -272771.364194 kJ/mol
# GULP energy per Si atom -12398.698372 kJ/mol
# Density = 2.388650 g / cm^3
# Si number density = 23.940988 Si / 1000 Ang^3
#
#
#
# Elastic Constant Matrix: (Units=GPa)
#
#
# Indices 1 2 3 4 5 6 
#
# 1 79.2079 14.0751 15.7753 0.0000 7.0594 0.0000
# 2 14.0751 116.9611 32.7390 0.0000 -0.5267 0.0000
# 3 15.7753 32.7390 110.0645 0.0000 -19.7830 0.0000
# 4 0.0000 0.0000 0.0000 46.7334 0.0000 0.4725
# 5 7.0594 -0.5267 -19.7830 0.0000 22.9945 0.0000
# 6 0.0000 0.0000 0.0000 0.4725 0.0000 22.5136
#
#
#
# Elastic Compliance Matrix: (Units=1/GPa)
#
#
# Indices 1 2 3 4 5 6 
#
# 1 0.013988 -0.000880 -0.002979 0.000000 -0.006877 0.000000
# 2 -0.000880 0.009512 -0.003094 0.000000 -0.002174 0.000000
# 3 -0.002979 -0.003094 0.012521 0.000000 0.011616 0.000000
# 4 0.000000 0.000000 0.000000 0.021403 0.000000 -0.000449
# 5 -0.006877 -0.002174 0.011616 0.000000 0.055544 0.000000
# 6 0.000000 0.000000 0.000000 -0.000449 0.000000 0.044427
#
#
# Mechanical properties :
#
#
# Convention : Reuss Voigt Hill
#
# Bulk Modulus (GPa) = 45.22090 47.93472 46.57781
# Shear Modulus (GPa) = 27.98430 34.69123 31.33777
#
# Velocity S-wave (km/s) = 3.42261 3.81074 3.62188
# Velocity P-wave (km/s) = 5.87780 6.27916 6.08179
#
# Compressibility (1/GPa) = 0.02211367
#
# Stress axis : x y z
#
# Youngs Moduli (GPa) = 71.49125 105.13009 79.86798
#
# Poissons Ratio (x) = 0.09255 0.23794
# Poissons Ratio (y) = 0.06294 0.24710
# Poissons Ratio (z) = 0.21298 0.32526
#
# Static dielectric constant tensor:
#      x y z
#    x 4.010320 0.000000 -0.031160 
#    y 0.000000 4.399040 0.000000 
#    z -0.031160 0.000000 4.613360 
# 
# 
# High freq. dielectric constant tensor:
#      x y z
#    x 1.920820 0.000000 -0.007330 
#    y 0.000000 1.951360 0.000000 
#    z -0.007330 0.000000 1.979040 
# 
# From -- ./inp_files/212879.got.cif
#   From: 2010.06.25/outbox.cif.g09.slc.cpg/sg15_107_cif.got.tgz:212879.got - 2010.06.28 07:06:18.
