data_PCOD8149153
_publ_section_title
;
Structure prediction by ZEFSAII (Michael W. Deem and Ramdas Pophale) SiO2 
 PCOD8149153
Probable space group: C 2/C
;
_chemical_formula_sum "Si O2"
_cell_formula_units_Z 48
_cell_length_a 11.408618
_cell_length_b 11.177374
_cell_length_c 17.779889
_cell_angle_alpha 90.000000
_cell_angle_beta 67.539316
_cell_angle_gamma 90.000000
_cell_volume 2095.272596
_symmetry_space_group_name_H-M "C 2/C"
_symmetry_group_IT_number 15
_symmetry_cell_setting 'monoclinic'
loop_
_space_group_symop_operation_xyz
x,y,z
-x,y,1/2-z
-x,-y,-z
x,-y,1/2+z
1/2+x,1/2+y,z
1/2-x,1/2+y,1/2-z
1/2-x,1/2-y,-z
1/2+x,1/2-y,1/2+z
loop_
_atom_site_type_symbol
_atom_site_label
_atom_site_fract_x
_atom_site_fract_y
_atom_site_fract_z
Si Si1 0.462074 0.466896 0.340680
Si Si2 0.388631 0.836700 0.337297
Si Si3 0.991836 0.185264 0.436223
Si Si4 0.887463 0.773265 0.124059
Si Si5 0.244919 0.785778 0.088375
Si Si6 0.050422 0.408620 0.657635
O O1 0.500000 0.523881 0.250000
O O2 0.507320 0.552221 0.397980
O O3 0.545307 0.347703 0.326764
O O4 0.314040 0.420301 0.384818
O O5 0.500000 0.819093 0.250000
O O6 0.393862 0.743678 0.403534
O O7 0.260487 0.795844 0.326608
O O8 0.386723 0.964697 0.381757
O O9 0.117715 0.268576 0.407717
O O10 0.930546 0.177560 0.532948
O O11 0.939974 0.637287 0.126559
O O12 0.157017 0.688145 0.148543
O O13 0.250000 0.750000 0.000000
O O14 0.000000 0.446796 0.750000
#
# Coordination Sequence:
#
# PCOD8149153 Si02
#       6
#     8   8   8   8   8   8
#     4  11  25  44  70 101 135 180 230 285 341 411
#     4  11  27  43  64 101 138 179 224 279 348 411
#     4  12  25  42  68 102 138 176 226 288 338 411
#     4  11  23  44  69  95 136 178 226 281 340 410
#     4  11  22  42  71  99 127 176 231 276 337 406
#     4  10  23  44  68  94 135 180 222 282 338 408
#
# _framework density 22.908714
#
# number of rings (size 3 to 8) (size 9 to 14) (size 15 to 20)
#    0.000    1.000    3.333    4.500    7.000    2.000 
#    3.000    0.000    0.000    0.000    0.000    0.000 
#    0.000    0.000    0.000    0.000    0.000    0.000 
#
# Total GULP energy -297367.818028 kJ/mol
# GULP energy per Si atom -12390.325751 kJ/mol
# Density = 2.285657 g / cm^3
# Si number density = 22.908714 Si / 1000 Ang^3
#
#
#
# Elastic Constant Matrix: (Units=GPa)
#
#
# Indices 1 2 3 4 5 6 
#
# 1 125.3177 28.0589 16.7900 0.0000 -15.9123 0.0000
# 2 28.0589 75.8022 4.4725 0.0000 2.8866 0.0000
# 3 16.7900 4.4725 97.6634 0.0000 3.1820 0.0000
# 4 0.0000 0.0000 0.0000 27.4344 0.0000 9.8073
# 5 -15.9123 2.8866 3.1820 0.0000 30.6932 0.0000
# 6 0.0000 0.0000 0.0000 9.8073 0.0000 40.1659
#
#
#
# Elastic Compliance Matrix: (Units=1/GPa)
#
#
# Indices 1 2 3 4 5 6 
#
# 1 0.009747 -0.003721 -0.001687 0.000000 0.005578 0.000000
# 2 -0.003721 0.014691 0.000075 0.000000 -0.003318 0.000000
# 3 -0.001687 0.000075 0.010590 0.000000 -0.001980 0.000000
# 4 0.000000 0.000000 0.000000 0.039937 0.000000 -0.009751
# 5 0.005578 -0.003318 -0.001980 0.000000 0.035990 0.000000
# 6 0.000000 0.000000 0.000000 -0.009751 0.000000 0.027278
#
#
# Mechanical properties :
#
#
# Convention : Reuss Voigt Hill
#
# Bulk Modulus (GPa) = 41.04559 44.15845 42.60202
# Shear Modulus (GPa) = 31.84312 36.28948 34.06630
#
# Velocity S-wave (km/s) = 3.73232 3.98438 3.86041
# Velocity P-wave (km/s) = 6.04396 6.36276 6.20541
#
# Compressibility (1/GPa) = 0.02436315
#
# Stress axis : x y z
#
# Youngs Moduli (GPa) = 102.59424 68.06662 94.42568
#
# Poissons Ratio (x) = 0.25327 0.15930
# Poissons Ratio (y) = 0.38174 -0.00708
# Poissons Ratio (z) = 0.17308 -0.00511
#
# Static dielectric constant tensor:
#      x y z
#    x 4.045830 0.000000 0.064570 
#    y 0.000000 8.766590 0.000000 
#    z 0.064570 0.000000 3.974860 
# 
# 
# High freq. dielectric constant tensor:
#      x y z
#    x 1.901780 0.000000 0.001180 
#    y 0.000000 1.906610 0.000000 
#    z 0.001180 0.000000 1.905320 
# 
# From -- ./inp_files/196524.got.cif
#   From: 2010.06.25/outbox.cif.g09.slc.cpg/sg15_99_cif.got.tgz:196524.got - 2010.06.28 07:06:18.
