data_PCOD8149078
_publ_section_title
;
Structure prediction by ZEFSAII (Michael W. Deem and Ramdas Pophale) SiO2 
 PCOD8149078
Probable space group: C 2/C
;
_chemical_formula_sum "Si O2"
_cell_formula_units_Z 36
_cell_length_a 13.200031
_cell_length_b 11.359562
_cell_length_c 12.857433
_cell_angle_alpha 90.000000
_cell_angle_beta 61.768474
_cell_angle_gamma 90.000000
_cell_volume 1698.588045
_symmetry_space_group_name_H-M "C 2/C"
_symmetry_group_IT_number 15
_symmetry_cell_setting 'monoclinic'
loop_
_space_group_symop_operation_xyz
x,y,z
-x,y,1/2-z
-x,-y,-z
x,-y,1/2+z
1/2+x,1/2+y,z
1/2-x,1/2+y,1/2-z
1/2-x,1/2-y,-z
1/2+x,1/2-y,1/2+z
loop_
_atom_site_type_symbol
_atom_site_label
_atom_site_fract_x
_atom_site_fract_y
_atom_site_fract_z
Si Si1 0.269124 0.111001 0.393243
Si Si2 0.212575 0.088549 0.192509
Si Si3 0.626704 0.646304 0.650536
Si Si4 0.416044 0.066313 0.961135
Si Si5 0.000000 0.741859 0.750000
O O1 0.226254 0.058875 0.306604
O O2 0.337502 0.227309 0.324178
O O3 0.153052 0.144815 0.513655
O O4 0.355606 0.023749 0.410216
O O5 0.108606 0.174878 0.217269
O O6 0.205002 0.956511 0.155240
O O7 0.324571 0.137723 0.077225
O O8 0.500000 0.616765 0.750000
O O9 0.484377 0.162246 0.860025
O O10 0.500000 0.000000 0.000000
#
# Coordination Sequence:
#
# PCOD8149078 Si02
#       5
#     8   8   8   8   4
#     4  10  25  42  69  97 132 178 222 270 332 411
#     4  11  25  45  67 101 135 176 223 280 337 398
#     4  10  23  44  65  97 133 170 223 271 340 394
#     4  11  26  46  69  99 136 179 228 273 338 404
#     4  12  26  44  68 100 136 178 224 286 330 394
#
# _framework density 21.194071999999998
#
# number of rings (size 3 to 8) (size 9 to 14) (size 15 to 20)
#    0.000    1.333    1.111    2.000   17.111    0.889 
#    0.000    0.000    0.000    0.000    0.000    0.000 
#    0.000    0.000    0.000    0.000    0.000    0.000 
#
# Total GULP energy -223088.720150 kJ/mol
# GULP energy per Si atom -12393.817786 kJ/mol
# Density = 2.114583 g / cm^3
# Si number density = 21.194072 Si / 1000 Ang^3
#
#
#
# Elastic Constant Matrix: (Units=GPa)
#
#
# Indices 1 2 3 4 5 6 
#
# 1 113.6516 33.8385 66.5194 0.0000 0.1460 0.0000
# 2 33.8385 94.1362 36.7718 0.0000 7.8678 0.0000
# 3 66.5194 36.7718 133.0742 0.0000 2.3082 0.0000
# 4 0.0000 0.0000 0.0000 38.1283 0.0000 -4.9803
# 5 0.1460 7.8678 2.3082 0.0000 41.4970 0.0000
# 6 0.0000 0.0000 0.0000 -4.9803 0.0000 16.0429
#
#
#
# Elastic Compliance Matrix: (Units=1/GPa)
#
#
# Indices 1 2 3 4 5 6 
#
# 1 0.012916 -0.002441 -0.005795 0.000000 0.000740 0.000000
# 2 -0.002441 0.012551 -0.002209 0.000000 -0.002248 0.000000
# 3 -0.005795 -0.002209 0.011025 0.000000 -0.000174 0.000000
# 4 0.000000 0.000000 0.000000 0.027336 0.000000 0.008486
# 5 0.000740 -0.002248 -0.000174 0.000000 0.024531 0.000000
# 6 0.000000 0.000000 0.000000 0.008486 0.000000 0.064967
#
#
# Mechanical properties :
#
#
# Convention : Reuss Voigt Hill
#
# Bulk Modulus (GPa) = 64.09275 68.34683 66.21979
# Shear Modulus (GPa) = 27.86806 32.71580 30.29193
#
# Velocity S-wave (km/s) = 3.63009 3.93317 3.78466
# Velocity P-wave (km/s) = 6.91929 7.27630 7.10004
#
# Compressibility (1/GPa) = 0.01560239
#
# Stress axis : x y z
#
# Youngs Moduli (GPa) = 77.42154 79.67367 90.70637
#
# Poissons Ratio (x) = 0.19450 0.52562
# Poissons Ratio (y) = 0.18900 0.20036
# Poissons Ratio (z) = 0.44863 0.17599
#
# Static dielectric constant tensor:
#      x y z
#    x 3.745120 0.000000 -0.271240 
#    y 0.000000 3.931020 0.000000 
#    z -0.271240 0.000000 4.374430 
# 
# 
# High freq. dielectric constant tensor:
#      x y z
#    x 1.822430 0.000000 -0.013050 
#    y 0.000000 1.837180 0.000000 
#    z -0.013050 0.000000 1.858450 
# 
# From -- ./inp_files/84379.got.cif
#   From: 2010.06.25/outbox.cif.g09.slc.cpg/sg15_43_cif.got.tgz:84379.got - 2010.06.28 07:06:18.
