data_PCOD8149966
_publ_section_title
;
Structure prediction by ZEFSAII (Michael W. Deem and Ramdas Pophale) SiO2 
 PCOD8149966
Probable space group: C 2/C
;
_chemical_formula_sum "Si O2"
_cell_formula_units_Z 56
_cell_length_a 27.578279
_cell_length_b 16.752066
_cell_length_c 9.094935
_cell_angle_alpha 90.000000
_cell_angle_beta 36.849071
_cell_angle_gamma 90.000000
_cell_volume 2519.856574
_symmetry_space_group_name_H-M "C 2/C"
_symmetry_group_IT_number 15
_symmetry_cell_setting 'monoclinic'
loop_
_space_group_symop_operation_xyz
x,y,z
-x,y,1/2-z
-x,-y,-z
x,-y,1/2+z
1/2+x,1/2+y,z
1/2-x,1/2+y,1/2-z
1/2-x,1/2-y,-z
1/2+x,1/2-y,1/2+z
loop_
_atom_site_type_symbol
_atom_site_label
_atom_site_fract_x
_atom_site_fract_y
_atom_site_fract_z
Si Si1 0.351184 0.530232 0.593899
Si Si2 0.669383 0.036867 0.057631
Si Si3 0.325695 0.781846 0.906028
Si Si4 0.911148 0.421677 0.035749
Si Si5 0.663893 0.245370 0.780576
Si Si6 0.582281 0.595246 0.368330
Si Si7 0.442685 0.342355 0.025838
O O1 0.365889 0.554283 0.388693
O O2 0.413272 0.461799 0.499209
O O3 0.365048 0.607007 0.663636
O O4 0.259779 0.500415 0.844202
O O5 0.665423 0.123930 0.141311
O O6 0.601824 0.979147 0.292718
O O7 0.651841 0.045012 0.928785
O O8 0.410757 0.743788 0.650399
O O9 0.250000 0.750000 0.000000
O O10 0.316400 0.754863 0.095767
O O11 0.888217 0.332072 0.139124
O O12 0.000000 0.424264 0.750000
O O13 0.750000 0.250000 0.500000
O O14 0.614098 0.319629 0.841888
O O15 0.490012 0.609270 0.539365
O O16 0.500000 0.327994 0.750000
#
# Coordination Sequence:
#
# PCOD8149966 Si02
#       7
#     8   8   8   8   8   8   8
#     4  11  22  44  67 105 141 184 237 289 355 441
#     4  11  23  43  72  96 139 180 233 291 353 427
#     4  11  24  44  73 101 139 189 241 293 360 436
#     4  11  26  47  68 103 136 180 238 301 359 424
#     4  11  26  45  70 101 141 189 241 296 366 436
#     4  11  25  42  72 102 147 187 235 297 367 430
#     4  10  24  43  66 104 144 183 232 298 359 431
#
# _framework density 22.223488
#
# number of rings (size 3 to 8) (size 9 to 14) (size 15 to 20)
#    0.000    1.143    1.429    4.286    8.000    2.857 
#    0.000    0.000    0.000    0.000    0.000    0.000 
#    0.000    0.000    0.000    0.000    0.000    0.000 
#
# Total GULP energy -347183.716137 kJ/mol
# GULP energy per Si atom -12399.418433 kJ/mol
# Density = 2.217291 g / cm^3
# Si number density = 22.223488 Si / 1000 Ang^3
#
#
#
# Elastic Constant Matrix: (Units=GPa)
#
#
# Indices 1 2 3 4 5 6 
#
# 1 88.5829 40.6813 31.1210 0.0000 7.1511 0.0000
# 2 40.6813 122.8110 46.4677 0.0000 23.9302 0.0000
# 3 31.1210 46.4677 95.9670 0.0000 -9.6155 0.0000
# 4 0.0000 0.0000 0.0000 40.1574 0.0000 0.5426
# 5 7.1511 23.9302 -9.6155 0.0000 30.4871 0.0000
# 6 0.0000 0.0000 0.0000 0.5426 0.0000 37.2061
#
#
#
# Elastic Compliance Matrix: (Units=1/GPa)
#
#
# Indices 1 2 3 4 5 6 
#
# 1 0.013979 -0.003016 -0.003268 0.000000 -0.001942 0.000000
# 2 -0.003016 0.014418 -0.007297 0.000000 -0.012912 0.000000
# 3 -0.003268 -0.007297 0.016175 0.000000 0.011596 0.000000
# 4 0.000000 0.000000 0.000000 0.024907 0.000000 -0.000363
# 5 -0.001942 -0.012912 0.011596 0.000000 0.047048 0.000000
# 6 0.000000 0.000000 0.000000 -0.000363 0.000000 0.026883
#
#
# Mechanical properties :
#
#
# Convention : Reuss Voigt Hill
#
# Bulk Modulus (GPa) = 57.43395 60.43342 58.93369
# Shear Modulus (GPa) = 28.34884 34.17619 31.26252
#
# Velocity S-wave (km/s) = 3.57546 3.92579 3.75471
# Velocity P-wave (km/s) = 6.55326 6.91387 6.73598
#
# Compressibility (1/GPa) = 0.01741130
#
# Stress axis : x y z
#
# Youngs Moduli (GPa) = 71.53840 69.35579 61.82361
#
# Poissons Ratio (x) = 0.20915 0.20201
# Poissons Ratio (y) = 0.21573 0.45114
# Poissons Ratio (z) = 0.23375 0.50610
#
# Static dielectric constant tensor:
#      x y z
#    x 4.217870 0.000000 0.074720 
#    y 0.000000 4.336390 0.000000 
#    z 0.074720 0.000000 3.791750 
# 
# 
# High freq. dielectric constant tensor:
#      x y z
#    x 1.888390 0.000000 -0.002070 
#    y 0.000000 1.880960 0.000000 
#    z -0.002070 0.000000 1.874450 
# 
# From -- ./inp_files/67116.got.cif
#   From: 2010.06.25/outbox.cif.g09.slc.cpg/sg15_34_cif.got.tgz:67116.got - 2010.06.28 07:06:18.
