data_PCOD8149553
_publ_section_title
;
Structure prediction by ZEFSAII (Michael W. Deem and Ramdas Pophale) SiO2 
 PCOD8149553
Probable space group: C 2/C
;
_chemical_formula_sum "Si O2"
_cell_formula_units_Z 64
_cell_length_a 21.365387
_cell_length_b 17.087561
_cell_length_c 10.933652
_cell_angle_alpha 90.000000
_cell_angle_beta 65.613435
_cell_angle_gamma 90.000000
_cell_volume 3635.547419
_symmetry_space_group_name_H-M "C 2/C"
_symmetry_group_IT_number 15
_symmetry_cell_setting 'monoclinic'
loop_
_space_group_symop_operation_xyz
x,y,z
-x,y,1/2-z
-x,-y,-z
x,-y,1/2+z
1/2+x,1/2+y,z
1/2-x,1/2+y,1/2-z
1/2-x,1/2-y,-z
1/2+x,1/2-y,1/2+z
loop_
_atom_site_type_symbol
_atom_site_label
_atom_site_fract_x
_atom_site_fract_y
_atom_site_fract_z
Si Si1 0.794148 0.463065 0.961679
Si Si2 0.727449 0.311743 0.916535
Si Si3 0.439853 0.215835 0.150493
Si Si4 0.561036 0.039468 0.293332
Si Si5 0.310537 0.236606 0.112930
Si Si6 0.279550 0.867467 0.408871
Si Si7 0.410907 0.760641 0.947442
Si Si8 0.629182 0.087602 0.881143
O O1 0.741440 0.397758 0.956705
O O2 0.866252 0.458096 0.833753
O O3 0.756889 0.545618 0.966487
O O4 0.808941 0.455744 0.095193
O O5 0.766897 0.299498 0.758514
O O6 0.750000 0.250000 0.000000
O O7 0.645750 0.300203 0.956174
O O8 0.390331 0.244162 0.083042
O O9 0.511560 0.263213 0.077304
O O10 0.403515 0.236370 0.307440
O O11 0.454516 0.122944 0.132625
O O12 0.500000 0.015847 0.250000
O O13 0.568721 0.973574 0.393536
O O14 0.285165 0.323067 0.097957
O O15 0.307323 0.178408 0.002671
O O16 0.341468 0.869982 0.262154
O O17 0.400222 0.848248 0.003678
#
# Coordination Sequence:
#
# PCOD8149553 Si02
#       8
#     8   8   8   8   8   8   8   8
#     4  11  21  35  55  83 107 144 192 230 276 326
#     4  12  19  36  61  80 108 148 188 235 274 322
#     4  11  20  36  54  79 110 144 184 229 277 324
#     4  11  20  31  47  79 114 150 177 216 270 327
#     4  11  20  39  57  79 118 147 185 236 276 326
#     4  10  24  34  56  86 110 149 191 226 281 333
#     4  11  21  34  54  82 106 143 191 223 273 334
#     4  11  20  34  51  75 115 147 185 216 265 345
#
# _framework density 17.603952
#
# number of rings (size 3 to 8) (size 9 to 14) (size 15 to 20)
#    0.000    1.000    7.500    0.750    1.750    4.000 
#    0.000    0.000    0.000    0.750    0.000    0.000 
#    0.000    0.000    0.000    0.000    0.000    0.000 
#
# Total GULP energy -396789.508348 kJ/mol
# GULP energy per Si atom -12399.672136 kJ/mol
# Density = 1.756388 g / cm^3
# Si number density = 17.603952 Si / 1000 Ang^3
#
#
#
# Elastic Constant Matrix: (Units=GPa)
#
#
# Indices 1 2 3 4 5 6 
#
# 1 143.9072 61.2268 31.2941 0.0000 6.6862 0.0000
# 2 61.2268 93.8594 11.8039 0.0000 -0.3378 0.0000
# 3 31.2941 11.8039 46.6330 0.0000 4.2004 0.0000
# 4 0.0000 0.0000 0.0000 21.2241 0.0000 3.0168
# 5 6.6862 -0.3378 4.2004 0.0000 25.7525 0.0000
# 6 0.0000 0.0000 0.0000 3.0168 0.0000 30.7220
#
#
#
# Elastic Compliance Matrix: (Units=1/GPa)
#
#
# Indices 1 2 3 4 5 6 
#
# 1 0.011017 -0.006494 -0.005566 0.000000 -0.002038 0.000000
# 2 -0.006494 0.014842 0.000438 0.000000 0.001809 0.000000
# 3 -0.005566 0.000438 0.025309 0.000000 -0.002677 0.000000
# 4 0.000000 0.000000 0.000000 0.047783 0.000000 -0.004692
# 5 -0.002038 0.001809 -0.002677 0.000000 0.039821 0.000000
# 6 0.000000 0.000000 0.000000 -0.004692 0.000000 0.033011
#
#
# Mechanical properties :
#
#
# Convention : Reuss Voigt Hill
#
# Bulk Modulus (GPa) = 35.81044 54.78325 45.29685
# Shear Modulus (GPa) = 24.46973 27.54470 26.00721
#
# Velocity S-wave (km/s) = 3.73233 3.95991 3.84780
# Velocity P-wave (km/s) = 6.24181 7.21770 6.74742
#
# Compressibility (1/GPa) = 0.02792481
#
# Stress axis : x y z
#
# Youngs Moduli (GPa) = 90.77001 67.37725 39.51106
#
# Poissons Ratio (x) = 0.43754 0.21991
# Poissons Ratio (y) = 0.58946 -0.01731
# Poissons Ratio (z) = 0.50521 -0.02952
#
# Static dielectric constant tensor:
#      x y z
#    x 3.580420 0.000000 0.131740 
#    y 0.000000 3.322040 0.000000 
#    z 0.131740 0.000000 3.332790 
# 
# 
# High freq. dielectric constant tensor:
#      x y z
#    x 1.679630 0.000000 0.011980 
#    y 0.000000 1.658790 0.000000 
#    z 0.011980 0.000000 1.682220 
# 
# From -- ./inp_files/113477.got.cif
#   From: 2010.06.25/outbox.cif.g09.slc.cpg/sg15_57_cif.got.tgz:113477.got - 2010.06.28 07:06:18.
