data_PCOD8149629
_publ_section_title
;
Structure prediction by ZEFSAII (Michael W. Deem and Ramdas Pophale) SiO2 
 PCOD8149629
Probable space group: C 2/C
;
_chemical_formula_sum "Si O2"
_cell_formula_units_Z 44
_cell_length_a 11.584105
_cell_length_b 24.675002
_cell_length_c 9.388567
_cell_angle_alpha 90.000000
_cell_angle_beta 124.798384
_cell_angle_gamma 90.000000
_cell_volume 2203.685347
_symmetry_space_group_name_H-M "C 2/C"
_symmetry_group_IT_number 15
_symmetry_cell_setting 'monoclinic'
loop_
_space_group_symop_operation_xyz
x,y,z
-x,y,1/2-z
-x,-y,-z
x,-y,1/2+z
1/2+x,1/2+y,z
1/2-x,1/2+y,1/2-z
1/2-x,1/2-y,-z
1/2+x,1/2-y,1/2+z
loop_
_atom_site_type_symbol
_atom_site_label
_atom_site_fract_x
_atom_site_fract_y
_atom_site_fract_z
Si Si1 0.091413 0.281015 0.523634
Si Si2 0.693182 0.198060 0.782678
Si Si3 0.309910 0.527658 0.364647
Si Si4 0.076474 0.387089 0.665557
Si Si5 0.882102 0.577497 0.787665
Si Si6 0.000000 0.003241 0.250000
O O1 0.158281 0.227770 0.646409
O O2 0.138449 0.281743 0.394772
O O3 0.145723 0.336644 0.632489
O O4 0.921473 0.281262 0.414429
O O5 0.706422 0.133171 0.790166
O O6 0.199686 0.574695 0.304910
O O7 0.232256 0.469715 0.300500
O O8 0.397448 0.538431 0.279999
O O9 0.408025 0.532143 0.573993
O O10 0.000000 0.363705 0.750000
O O11 0.966520 0.422476 0.495358
O O12 0.000000 0.571560 0.750000
#
# Coordination Sequence:
#
# PCOD8149629 Si02
#       6
#     8   8   8   8   8   4
#     4   9  18  35  55  85 114 148 193 244 290 338
#     4   9  17  35  57  84 112 147 198 246 279 341
#     4  11  22  39  58  84 119 159 192 238 299 346
#     4  11  21  36  60  89 117 149 193 247 295 347
#     4  11  19  36  62  88 112 148 205 248 284 339
#     4  10  24  40  52  78 130 154 196 234 276 368
#
# _framework density 19.966552
#
# number of rings (size 3 to 8) (size 9 to 14) (size 15 to 20)
#    0.000    1.818    3.636    3.273    0.000    0.000 
#    6.545    3.636    2.000    0.000    0.000    0.000 
#    0.000    0.000    0.000    0.000    0.000    0.000 
#
# Total GULP energy -272657.607143 kJ/mol
# GULP energy per Si atom -12393.527597 kJ/mol
# Density = 1.992111 g / cm^3
# Si number density = 19.966552 Si / 1000 Ang^3
#
#
#
# Elastic Constant Matrix: (Units=GPa)
#
#
# Indices 1 2 3 4 5 6 
#
# 1 70.1177 43.1542 31.7573 0.0000 5.4132 0.0000
# 2 43.1542 97.5922 25.1602 0.0000 22.4762 0.0000
# 3 31.7573 25.1602 98.4289 0.0000 0.0020 0.0000
# 4 0.0000 0.0000 0.0000 22.2126 0.0000 12.7486
# 5 5.4132 22.4762 0.0020 0.0000 26.1736 0.0000
# 6 0.0000 0.0000 0.0000 12.7486 0.0000 -12.6479
#
#
#
# Elastic Compliance Matrix: (Units=1/GPa)
#
#
# Indices 1 2 3 4 5 6 
#
# 1 0.021786 -0.009213 -0.004674 0.000000 0.003406 0.000000
# 2 -0.009213 0.017812 -0.001580 0.000000 -0.013390 0.000000
# 3 -0.004674 -0.001580 0.012072 0.000000 0.002323 0.000000
# 4 0.000000 0.000000 0.000000 0.028520 0.000000 0.028747
# 5 0.003406 -0.013390 0.002323 0.000000 0.049000 0.000000
# 6 0.000000 0.000000 0.000000 0.028747 0.000000 -0.050088
#
#
# Mechanical properties :
#
#
# Convention : Reuss Voigt Hill
#
# Bulk Modulus (GPa) = 48.22834 51.80914 50.01874
# Shear Modulus (GPa) = 42.75414 18.21881 30.48647
#
# Velocity S-wave (km/s) = 4.63243 3.02398 3.91177
# Velocity P-wave (km/s) = 7.26770 6.18037 6.74598
#
# Compressibility (1/GPa) = 0.02073470
#
# Stress axis : x y z
#
# Youngs Moduli (GPa) = 45.90136 56.14258 82.83910
#
# Poissons Ratio (x) = 0.51723 0.38720
# Poissons Ratio (y) = 0.42288 0.13091
# Poissons Ratio (z) = 0.21455 0.08872
#
# Static dielectric constant tensor:
#      x y z
#    x 3.754060 0.000000 0.264240 
#    y 0.000000 3.498720 0.000000 
#    z 0.264240 0.000000 4.107800 
# 
# 
# High freq. dielectric constant tensor:
#      x y z
#    x 1.763290 0.000000 0.007360 
#    y 0.000000 1.760080 0.000000 
#    z 0.007360 0.000000 1.792460 
# 
# From -- ./inp_files/32732.got.cif
#   From: 2010.06.25/outbox.cif.g09.slc.cpg/sg15_17_cif.got.tgz:32732.got - 2010.06.28 07:06:18.
