data_PCOD8149803
_publ_section_title
;
Structure prediction by ZEFSAII (Michael W. Deem and Ramdas Pophale) SiO2 
 PCOD8149803
Probable space group: C 2/C
;
_chemical_formula_sum "Si O2"
_cell_formula_units_Z 56
_cell_length_a 24.360262
_cell_length_b 17.727954
_cell_length_c 8.230051
_cell_angle_alpha 90.000000
_cell_angle_beta 47.491877
_cell_angle_gamma 90.000000
_cell_volume 2620.098112
_symmetry_space_group_name_H-M "C 2/C"
_symmetry_group_IT_number 15
_symmetry_cell_setting 'monoclinic'
loop_
_space_group_symop_operation_xyz
x,y,z
-x,y,1/2-z
-x,-y,-z
x,-y,1/2+z
1/2+x,1/2+y,z
1/2-x,1/2+y,1/2-z
1/2-x,1/2-y,-z
1/2+x,1/2-y,1/2+z
loop_
_atom_site_type_symbol
_atom_site_label
_atom_site_fract_x
_atom_site_fract_y
_atom_site_fract_z
Si Si1 0.500000 0.875325 0.250000
Si Si2 0.375156 0.750000 0.999687
Si Si3 0.802589 0.597832 0.753986
Si Si4 0.345800 0.446610 0.085583
Si Si5 0.000000 0.124675 0.250000
Si Si6 0.197411 0.097832 0.464342
Si Si7 0.154200 0.446610 0.968784
Si Si8 0.000000 0.250000 0.997324
O O1 0.571544 0.926858 0.073204
O O2 0.477733 0.823035 0.143982
O O3 0.323506 0.681225 0.049871
O O4 0.428233 0.775284 0.747258
O O5 0.323506 0.818775 0.156104
O O6 0.428233 0.724716 0.039812
O O7 0.712900 0.591900 0.921282
O O8 0.838507 0.537191 0.557856
O O9 0.829731 0.580928 0.881276
O O10 0.329731 0.419072 0.299800
O O11 0.428456 0.426858 0.859381
O O12 0.338507 0.537191 0.088118
O O13 0.977733 0.176965 0.445085
O O14 0.287100 0.091900 0.272881
#
# Coordination Sequence:
#
# PCOD8149803 Si02
#       8
#     4   8   8   8   4   8   8   8
#     4  11  24  44  70  99 138 184 224 283 350 398
#     4  11  24  44  70  99 138 184 224 283 350 398
#     4  11  25  45  70 101 137 180 233 281 337 413
#     4  11  25  45  70 101 137 180 233 281 337 413
#     4  11  24  44  70  99 138 184 224 283 350 398
#     4  11  25  45  70 101 137 180 233 281 337 413
#     4  11  25  45  70 101 137 180 233 281 337 413
#     4  10  24  42  64 106 144 166 228 294 332 418
#
# _framework density 21.373244
#
# number of rings (size 3 to 8) (size 9 to 14) (size 15 to 20)
#    0.000    1.143    2.857    3.429    8.000    6.857 
#    0.000    0.000    0.000    0.000    0.000    0.000 
#    0.000    0.000    0.000    0.000    0.000    0.000 
#
# Total GULP energy -347242.214560 kJ/mol
# GULP energy per Si atom -12401.507663 kJ/mol
# Density = 2.132460 g / cm^3
# Si number density = 21.373244 Si / 1000 Ang^3
#
#
#
# Elastic Constant Matrix: (Units=GPa)
#
#
# Indices 1 2 3 4 5 6 
#
# 1 90.4435 31.2965 47.6516 0.0000 -16.6694 0.0000
# 2 31.2965 108.9036 32.0468 0.0000 -12.6196 0.0000
# 3 47.6516 32.0468 92.5249 0.0000 -18.3384 0.0000
# 4 0.0000 0.0000 0.0000 26.7310 0.0000 -8.2087
# 5 -16.6694 -12.6196 -18.3384 0.0000 49.9600 0.0000
# 6 0.0000 0.0000 0.0000 -8.2087 0.0000 26.2429
#
#
#
# Elastic Compliance Matrix: (Units=1/GPa)
#
#
# Indices 1 2 3 4 5 6 
#
# 1 0.015922 -0.002269 -0.006983 0.000000 0.002176 0.000000
# 2 -0.002269 0.010637 -0.002301 0.000000 0.001085 0.000000
# 3 -0.006983 -0.002301 0.015771 0.000000 0.002878 0.000000
# 4 0.000000 0.000000 0.000000 0.041385 0.000000 0.012945
# 5 0.002176 0.001085 0.002878 0.000000 0.022073 0.000000
# 6 0.000000 0.000000 0.000000 0.012945 0.000000 0.042155
#
#
# Mechanical properties :
#
#
# Convention : Reuss Voigt Hill
#
# Bulk Modulus (GPa) = 52.01295 57.09577 54.55436
# Shear Modulus (GPa) = 28.17602 32.64527 30.41064
#
# Velocity S-wave (km/s) = 3.63476 3.91242 3.77614
# Velocity P-wave (km/s) = 6.48102 6.86885 6.67775
#
# Compressibility (1/GPa) = 0.01922598
#
# Stress axis : x y z
#
# Youngs Moduli (GPa) = 62.80719 94.00972 63.40552
#
# Poissons Ratio (x) = 0.21327 0.44275
# Poissons Ratio (y) = 0.14248 0.14588
# Poissons Ratio (z) = 0.43857 0.21630
#
# Static dielectric constant tensor:
#      x y z
#    x 3.913310 0.000000 0.026260 
#    y 0.000000 3.851730 0.000000 
#    z 0.026260 0.000000 3.911750 
# 
# 
# High freq. dielectric constant tensor:
#      x y z
#    x 1.844880 0.000000 0.000370 
#    y 0.000000 1.838180 0.000000 
#    z 0.000370 0.000000 1.844860 
# 
# From -- ./inp_files/67159.got.cif
#   From: 2010.06.25/outbox.cif.g09.slc.cpg/sg15_34_cif.got.tgz:67159.got - 2010.06.28 07:06:18.
