data_PCOD8149501
_publ_section_title
;
Structure prediction by ZEFSAII (Michael W. Deem and Ramdas Pophale) SiO2 
 PCOD8149501
Probable space group: C 2/C
;
_chemical_formula_sum "Si O2"
_cell_formula_units_Z 52
_cell_length_a 27.756279
_cell_length_b 11.356182
_cell_length_c 7.873747
_cell_angle_alpha 90.000000
_cell_angle_beta 63.603364
_cell_angle_gamma 90.000000
_cell_volume 2223.084534
_symmetry_space_group_name_H-M "C 2/C"
_symmetry_group_IT_number 15
_symmetry_cell_setting 'monoclinic'
loop_
_space_group_symop_operation_xyz
x,y,z
-x,y,1/2-z
-x,-y,-z
x,-y,1/2+z
1/2+x,1/2+y,z
1/2-x,1/2+y,1/2-z
1/2-x,1/2-y,-z
1/2+x,1/2-y,1/2+z
loop_
_atom_site_type_symbol
_atom_site_label
_atom_site_fract_x
_atom_site_fract_y
_atom_site_fract_z
Si Si1 0.598692 0.864247 0.001228
Si Si2 0.884362 0.376628 0.140998
Si Si3 0.676784 0.678835 0.768998
Si Si4 0.652512 0.451255 0.963287
Si Si5 0.000000 0.784848 0.750000
Si Si6 0.720589 0.253647 0.725053
Si Si7 0.955533 0.159830 0.966666
O O1 0.624267 0.864380 0.145831
O O2 0.541307 0.802280 0.093107
O O3 0.637339 0.789686 0.818935
O O4 0.594506 0.994766 0.936035
O O5 0.825229 0.344695 0.164593
O O6 0.929968 0.289920 0.997505
O O7 0.664025 0.591437 0.947459
O O8 0.664825 0.597089 0.628929
O O9 0.737023 0.729108 0.690393
O O10 0.693840 0.382414 0.775710
O O11 0.590866 0.435100 0.998737
O O12 0.977188 0.863526 0.627657
O O13 0.750000 0.250000 0.500000
O O14 0.000000 0.148478 0.750000
#
# Coordination Sequence:
#
# PCOD8149501 Si02
#       7
#     8   8   8   8   4   8   8
#     4  11  25  43  68 107 137 188 233 291 359 424
#     4  10  25  40  71 101 145 176 235 294 353 422
#     4  12  26  45  73 100 148 187 237 288 356 423
#     4  11  27  46  71 104 141 188 238 296 349 426
#     4  10  24  42  74 100 142 182 242 292 362 422
#     4  11  23  46  70 102 139 186 233 289 352 420
#     4  10  23  47  72 103 139 189 244 301 360 423
#
# _framework density 23.390922
#
# number of rings (size 3 to 8) (size 9 to 14) (size 15 to 20)
#    0.000    1.231    1.538    2.308   14.000    2.462 
#    1.385    1.538    0.000    0.000    0.000    0.000 
#    0.000    0.000    0.000    0.000    0.000    0.000 
#
# Total GULP energy -322376.905211 kJ/mol
# GULP energy per Si atom -12399.111739 kJ/mol
# Density = 2.333768 g / cm^3
# Si number density = 23.390922 Si / 1000 Ang^3
#
#
#
# Elastic Constant Matrix: (Units=GPa)
#
#
# Indices 1 2 3 4 5 6 
#
# 1 137.1240 -0.6488 30.6709 0.0000 -11.9947 0.0000
# 2 -0.6488 43.4176 -4.0126 0.0000 -2.9715 0.0000
# 3 30.6709 -4.0126 90.9151 0.0000 -7.9209 0.0000
# 4 0.0000 0.0000 0.0000 19.7711 0.0000 8.9674
# 5 -11.9947 -2.9715 -7.9209 0.0000 32.6884 0.0000
# 6 0.0000 0.0000 0.0000 8.9674 0.0000 18.7231
#
#
#
# Elastic Compliance Matrix: (Units=1/GPa)
#
#
# Indices 1 2 3 4 5 6 
#
# 1 0.008061 0.000049 -0.002512 0.000000 0.002354 0.000000
# 2 0.000049 0.023313 0.001224 0.000000 0.002434 0.000000
# 3 -0.002512 0.001224 0.012085 0.000000 0.002118 0.000000
# 4 0.000000 0.000000 0.000000 0.064616 0.000000 -0.030948
# 5 0.002354 0.002434 0.002118 0.000000 0.032190 0.000000
# 6 0.000000 0.000000 0.000000 -0.030948 0.000000 0.068232
#
#
# Mechanical properties :
#
#
# Convention : Reuss Voigt Hill
#
# Bulk Modulus (GPa) = 24.40109 35.94172 30.17141
# Shear Modulus (GPa) = 22.25842 30.59967 26.42905
#
# Velocity S-wave (km/s) = 3.08812 3.62081 3.36502
# Velocity P-wave (km/s) = 4.81351 5.73405 5.29383
#
# Compressibility (1/GPa) = 0.04098178
#
# Stress axis : x y z
#
# Youngs Moduli (GPa) = 124.05931 42.89528 82.74504
#
# Poissons Ratio (x) = -0.00212 0.20786
# Poissons Ratio (y) = -0.00612 -0.10131
# Poissons Ratio (z) = 0.31165 -0.05252
#
# Static dielectric constant tensor:
#      x y z
#    x 4.468300 0.000000 0.010760 
#    y 0.000000 4.509500 0.000000 
#    z 0.010760 0.000000 4.243600 
# 
# 
# High freq. dielectric constant tensor:
#      x y z
#    x 1.939390 0.000000 0.000350 
#    y 0.000000 1.922290 0.000000 
#    z 0.000350 0.000000 1.934430 
# 
# From -- ./inp_files/65123.got.cif
#   From: 2010.06.25/outbox.cif.g09.slc.cpg/sg15_33_cif.got.tgz:65123.got - 2010.06.28 07:06:18.
