data_PCOD8149375
_publ_section_title
;
Structure prediction by ZEFSAII (Michael W. Deem and Ramdas Pophale) SiO2 
 PCOD8149375
Probable space group: C 2/C
;
_chemical_formula_sum "Si O2"
_cell_formula_units_Z 32
_cell_length_a 16.627356
_cell_length_b 5.094260
_cell_length_c 22.011794
_cell_angle_alpha 90.000000
_cell_angle_beta 138.746971
_cell_angle_gamma 90.000000
_cell_volume 1229.416888
_symmetry_space_group_name_H-M "C 2/C"
_symmetry_group_IT_number 15
_symmetry_cell_setting 'monoclinic'
loop_
_space_group_symop_operation_xyz
x,y,z
-x,y,1/2-z
-x,-y,-z
x,-y,1/2+z
1/2+x,1/2+y,z
1/2-x,1/2+y,1/2-z
1/2-x,1/2-y,-z
1/2+x,1/2-y,1/2+z
loop_
_atom_site_type_symbol
_atom_site_label
_atom_site_fract_x
_atom_site_fract_y
_atom_site_fract_z
Si Si1 0.550292 0.788976 0.362283
Si Si2 0.875648 0.404481 0.959176
Si Si3 0.823656 0.778685 0.102396
Si Si4 0.772972 0.681565 0.724127
O O1 0.604824 0.798379 0.461665
O O2 0.572266 0.502238 0.346709
O O3 0.410296 0.869767 0.281785
O O4 0.613546 0.996567 0.351854
O O5 0.773384 0.638420 0.900560
O O6 0.819915 0.172774 0.885949
O O7 0.000000 0.500000 0.000000
O O8 0.750000 0.750000 0.000000
O O9 0.730378 0.466272 0.747319
#
# Coordination Sequence:
#
# PCOD8149375 Si02
#       4
#     8   8   8   8
#     4  11  24  48  72 100 145 180 237 299 346 429
#     4  11  24  47  75 106 140 195 233 292 363 420
#     4  10  23  45  72 103 137 187 233 292 357 418
#     4  12  27  45  71 110 145 186 243 300 355 424
#
# _framework density 26.028600000000001
#
# number of rings (size 3 to 8) (size 9 to 14) (size 15 to 20)
#    0.000    1.000    2.500    4.500    3.500    8.000 
#    0.000    5.000    0.000    0.000    0.000    0.000 
#    0.000    0.000    0.000    0.000    0.000    0.000 
#
# Total GULP energy -198392.222946 kJ/mol
# GULP energy per Si atom -12399.513934 kJ/mol
# Density = 2.596936 g / cm^3
# Si number density = 26.028600 Si / 1000 Ang^3
#
#
#
# Elastic Constant Matrix: (Units=GPa)
#
#
# Indices 1 2 3 4 5 6 
#
# 1 135.1490 20.4453 38.7409 -0.0006 15.9712 -0.0024
# 2 20.4453 104.6894 11.3152 0.0014 -6.8512 -0.0073
# 3 38.7409 11.3152 117.1434 -0.0003 0.6049 -0.0002
# 4 -0.0006 0.0014 -0.0003 20.5078 -0.0001 9.9863
# 5 15.9712 -6.8512 0.6049 -0.0001 51.9755 -0.0008
# 6 -0.0024 -0.0073 -0.0002 9.9863 -0.0008 40.7027
#
#
#
# Elastic Compliance Matrix: (Units=1/GPa)
#
#
# Indices 1 2 3 4 5 6 
#
# 1 0.008764 -0.001605 -0.002728 0.000000 -0.002873 0.000000
# 2 -0.001605 0.010033 -0.000448 -0.000002 0.001821 0.000002
# 3 -0.002728 -0.000448 0.009479 0.000000 0.000669 0.000000
# 4 0.000000 -0.000002 0.000000 0.055378 0.000000 -0.013587
# 5 -0.002873 0.001821 0.000669 0.000000 0.020355 0.000001
# 6 0.000000 0.000002 0.000000 -0.013587 0.000001 0.027902
#
#
# Mechanical properties :
#
#
# Convention : Reuss Voigt Hill
#
# Bulk Modulus (GPa) = 53.43722 55.33162 54.38442
# Shear Modulus (GPa) = 33.85022 41.73588 37.79305
#
# Velocity S-wave (km/s) = 3.61016 4.00867 3.81462
# Velocity P-wave (km/s) = 6.16055 6.53682 6.35148
#
# Compressibility (1/GPa) = 0.01871355
#
# Stress axis : x y z
#
# Youngs Moduli (GPa) = 114.10880 99.67108 105.50002
#
# Poissons Ratio (x) = 0.15993 0.28785
# Poissons Ratio (y) = 0.18310 0.04725
# Poissons Ratio (z) = 0.31134 0.04464
#
# Static dielectric constant tensor:
#      x y z
#    x 7.594680 0.000070 2.181550 
#    y 0.000070 5.703850 0.000050 
#    z 2.181550 0.000050 6.777020 
# 
# 
# High freq. dielectric constant tensor:
#      x y z
#    x 2.054830 0.000000 0.003520 
#    y 0.000000 2.038300 0.000000 
#    z 0.003520 0.000000 2.056360 
# 
# From -- ./inp_files/275546.got.cif
#   From: 2010.06.25/outbox.cif.g09.slc.cpg/sg15_138_cif.got.tgz:275546.got - 2010.06.28 07:06:18.
