data_PCOD8149735
_publ_section_title
;
Structure prediction by ZEFSAII (Michael W. Deem and Ramdas Pophale) SiO2 
 PCOD8149735
Probable space group: C 2/C
;
_chemical_formula_sum "Si O2"
_cell_formula_units_Z 48
_cell_length_a 16.623703
_cell_length_b 25.762308
_cell_length_c 8.609540
_cell_angle_alpha 90.000000
_cell_angle_beta 145.074878
_cell_angle_gamma 90.000000
_cell_volume 2110.921546
_symmetry_space_group_name_H-M "C 2/C"
_symmetry_group_IT_number 15
_symmetry_cell_setting 'monoclinic'
loop_
_space_group_symop_operation_xyz
x,y,z
-x,y,1/2-z
-x,-y,-z
x,-y,1/2+z
1/2+x,1/2+y,z
1/2-x,1/2+y,1/2-z
1/2-x,1/2-y,-z
1/2+x,1/2-y,1/2+z
loop_
_atom_site_type_symbol
_atom_site_label
_atom_site_fract_x
_atom_site_fract_y
_atom_site_fract_z
Si Si1 0.500000 0.241444 0.250000
Si Si2 0.602557 0.976802 0.289880
Si Si3 0.500000 0.593282 0.750000
Si Si4 0.318242 0.324361 0.794613
Si Si5 0.776308 0.623508 0.647375
Si Si6 0.090218 0.661767 0.165637
Si Si7 0.767377 0.923967 0.102989
O O1 0.587308 0.274443 0.515669
O O2 0.610495 0.206485 0.328159
O O3 0.500000 0.948954 0.250000
O O4 0.710741 0.933456 0.406382
O O5 0.690554 0.021857 0.517941
O O6 0.500000 0.000000 0.000000
O O7 0.384559 0.626693 0.482035
O O8 0.587372 0.561459 0.757639
O O9 0.314753 0.337087 0.604303
O O10 0.160451 0.318317 0.615754
O O11 0.702686 0.611539 0.696618
O O12 0.925612 0.651204 0.896172
O O13 0.162572 0.608538 0.330011
#
# Coordination Sequence:
#
# PCOD8149735 Si02
#       7
#     4   8   4   8   8   8   8
#     4  11  22  42  68  96 134 188 214 266 339 398
#     4  12  22  38  67 103 133 168 219 274 333 385
#     4   9  24  44  64  88 136 182 214 266 331 400
#     4  10  24  41  64  95 132 177 220 271 329 391
#     4  12  23  40  68 100 133 168 223 281 325 387
#     4  11  20  41  67  96 132 168 219 275 331 387
#     4  11  22  42  65  98 132 176 216 268 333 395
#
# _framework density 22.738883000000001
#
# number of rings (size 3 to 8) (size 9 to 14) (size 15 to 20)
#    0.000    1.000    5.000    2.000    2.333    1.333 
#    0.000    3.333    0.000    0.000    0.000    0.000 
#    0.000    0.000    0.000    0.000    0.000    0.000 
#
# Total GULP energy -297415.087076 kJ/mol
# GULP energy per Si atom -12392.295295 kJ/mol
# Density = 2.268713 g / cm^3
# Si number density = 22.738883 Si / 1000 Ang^3
#
#
#
# Elastic Constant Matrix: (Units=GPa)
#
#
# Indices 1 2 3 4 5 6 
#
# 1 122.9851 9.2609 33.3219 0.0000 6.5576 0.0000
# 2 9.2609 83.9893 23.3321 0.0000 3.2097 0.0000
# 3 33.3219 23.3321 81.1850 0.0000 -8.5120 0.0000
# 4 0.0000 0.0000 0.0000 -34.6228 0.0000 -56.9157
# 5 6.5576 3.2097 -8.5120 0.0000 33.3822 0.0000
# 6 0.0000 0.0000 0.0000 -56.9157 0.0000 1.1608
#
#
#
# Elastic Compliance Matrix: (Units=1/GPa)
#
#
# Indices 1 2 3 4 5 6 
#
# 1 0.009421 0.000255 -0.004250 0.000000 -0.002959 0.000000
# 2 0.000255 0.013113 -0.004121 0.000000 -0.002362 0.000000
# 3 -0.004250 -0.004121 0.015798 0.000000 0.005259 0.000000
# 4 0.000000 0.000000 0.000000 -0.000354 0.000000 -0.017355
# 5 -0.002959 -0.002362 0.005259 0.000000 0.032106 0.000000
# 6 0.000000 0.000000 0.000000 -0.017355 0.000000 0.010557
#
#
# Mechanical properties :
#
#
# Convention : Reuss Voigt Hill
#
# Bulk Modulus (GPa) = 45.24963 46.66546 45.95755
# Shear Modulus (GPa) = 47.96608 14.80033 31.38321
#
# Velocity S-wave (km/s) = 4.59784 2.55401 3.71908
# Velocity P-wave (km/s) = 6.93755 5.40963 6.22068
#
# Compressibility (1/GPa) = 0.02209963
#
# Stress axis : x y z
#
# Youngs Moduli (GPa) = 106.14287 76.25899 63.29955
#
# Poissons Ratio (x) = -0.01945 0.26905
# Poissons Ratio (y) = -0.02707 0.26085
# Poissons Ratio (z) = 0.45115 0.31426
#
# Static dielectric constant tensor:
#      x y z
#    x 4.940490 0.000000 -0.279430 
#    y 0.000000 4.079790 0.000000 
#    z -0.279430 0.000000 4.077440 
# 
# 
# High freq. dielectric constant tensor:
#      x y z
#    x 1.904970 0.000000 -0.006200 
#    y 0.000000 1.886540 0.000000 
#    z -0.006200 0.000000 1.877960 
# 
# From -- ./inp_files/52899.got.cif
#   From: 2010.06.25/outbox.cif.g09.slc.cpg/sg15_27_cif.got.tgz:52899.got - 2010.06.28 07:06:18.
