data_PCOD8149387
_publ_section_title
;
Structure prediction by ZEFSAII (Michael W. Deem and Ramdas Pophale) SiO2 
 PCOD8149387
Probable space group: C 2/C
;
_chemical_formula_sum "Si O2"
_cell_formula_units_Z 36
_cell_length_a 17.968995
_cell_length_b 7.826244
_cell_length_c 33.833677
_cell_angle_alpha 90.000000
_cell_angle_beta 159.668756
_cell_angle_gamma 90.000000
_cell_volume 1653.160378
_symmetry_space_group_name_H-M "C 2/C"
_symmetry_group_IT_number 15
_symmetry_cell_setting 'monoclinic'
loop_
_space_group_symop_operation_xyz
x,y,z
-x,y,1/2-z
-x,-y,-z
x,-y,1/2+z
1/2+x,1/2+y,z
1/2-x,1/2+y,1/2-z
1/2-x,1/2-y,-z
1/2+x,1/2-y,1/2+z
loop_
_atom_site_type_symbol
_atom_site_label
_atom_site_fract_x
_atom_site_fract_y
_atom_site_fract_z
Si Si1 0.500000 0.755071 0.750000
Si Si2 0.642883 0.034334 0.533737
Si Si3 0.164391 0.727708 0.178500
Si Si4 0.633034 0.746249 0.400635
Si Si5 0.373961 0.943753 0.760656
O O1 0.348857 0.644380 0.646903
O O2 0.349418 0.864064 0.704783
O O3 0.511091 0.128995 0.434171
O O4 0.500000 0.000000 0.500000
O O5 0.718477 0.848629 0.556905
O O6 0.402110 0.650310 0.288795
O O7 0.108724 0.702784 0.197164
O O8 0.172852 0.930162 0.171269
O O9 0.750000 0.750000 0.500000
O O10 0.592876 0.943631 0.368179
#
# Coordination Sequence:
#
# PCOD8149387 Si02
#       5
#     4   8   8   8   8
#     4  12  30  44  70 104 146 182 230 288 356 402
#     4  12  26  44  71 102 143 184 230 291 350 409
#     4  10  24  45  71 100 137 183 235 280 346 414
#     4  10  23  45  74 100 137 180 235 285 343 409
#     4  10  26  45  71 104 138 180 232 286 345 421
#
# _framework density 21.776471000000001
#
# number of rings (size 3 to 8) (size 9 to 14) (size 15 to 20)
#    1.333    0.000    2.222    1.333   12.444    3.556 
#    0.000    0.000    0.000    0.000    0.000    0.000 
#    0.000    0.000    0.000    0.000    0.000    0.000 
#
# Total GULP energy -223087.593468 kJ/mol
# GULP energy per Si atom -12393.755193 kJ/mol
# Density = 2.172691 g / cm^3
# Si number density = 21.776471 Si / 1000 Ang^3
#
#
#
# Elastic Constant Matrix: (Units=GPa)
#
#
# Indices 1 2 3 4 5 6 
#
# 1 157.5887 52.8851 19.7301 0.0030 -11.9433 -0.0028
# 2 52.8851 82.0840 7.4449 0.0028 1.0372 -0.0017
# 3 19.7301 7.4449 104.8005 0.0080 0.4037 -0.0046
# 4 0.0030 0.0028 0.0080 18.5510 -0.0003 -1.1177
# 5 -11.9433 1.0372 0.4037 -0.0003 29.1223 0.0016
# 6 -0.0028 -0.0017 -0.0046 -1.1177 0.0016 55.9847
#
#
#
# Elastic Compliance Matrix: (Units=1/GPa)
#
#
# Indices 1 2 3 4 5 6 
#
# 1 0.008630 -0.005494 -0.001249 0.000000 0.003752 0.000000
# 2 -0.005494 0.015765 -0.000075 -0.000001 -0.002814 0.000000
# 3 -0.001249 -0.000075 0.009785 -0.000004 -0.000645 0.000001
# 4 0.000000 -0.000001 -0.000004 0.053970 0.000001 0.001077
# 5 0.003752 -0.002814 -0.000645 0.000001 0.035986 -0.000001
# 6 0.000000 0.000000 0.000001 0.001077 -0.000001 0.017884
#
#
# Mechanical properties :
#
#
# Convention : Reuss Voigt Hill
#
# Bulk Modulus (GPa) = 48.67599 56.06592 52.37096
# Shear Modulus (GPa) = 30.76849 38.35915 34.56382
#
# Velocity S-wave (km/s) = 3.76297 4.20157 3.98830
# Velocity P-wave (km/s) = 6.42503 7.02421 6.73129
#
# Compressibility (1/GPa) = 0.02054401
#
# Stress axis : x y z
#
# Youngs Moduli (GPa) = 115.87150 63.43189 102.19875
#
# Poissons Ratio (x) = 0.34852 0.12764
# Poissons Ratio (y) = 0.63665 0.00763
# Poissons Ratio (z) = 0.14471 0.00474
#
# Static dielectric constant tensor:
#      x y z
#    x 3.650040 -0.000220 0.039870 
#    y -0.000220 3.984530 0.000110 
#    z 0.039870 0.000110 3.945870 
# 
# 
# High freq. dielectric constant tensor:
#      x y z
#    x 1.861300 0.000000 -0.005510 
#    y 0.000000 1.851560 0.000000 
#    z -0.005510 0.000000 1.851780 
# 
# From -- ./inp_files/295502.got.cif
#   From: 2010.06.25/outbox.cif.g09.slc.cpg/sg15_148_cif.got.tgz:295502.got - 2010.06.28 07:06:18.
