data_PCOD8149428
_publ_section_title
;
Structure prediction by ZEFSAII (Michael W. Deem and Ramdas Pophale) SiO2 
 PCOD8149428
Probable space group: C 2/C
;
_chemical_formula_sum "Si O2"
_cell_formula_units_Z 60
_cell_length_a 23.203834
_cell_length_b 14.114764
_cell_length_c 8.613286
_cell_angle_alpha 90.000000
_cell_angle_beta 71.671232
_cell_angle_gamma 90.000000
_cell_volume 2677.878968
_symmetry_space_group_name_H-M "C 2/C"
_symmetry_group_IT_number 15
_symmetry_cell_setting 'monoclinic'
loop_
_space_group_symop_operation_xyz
x,y,z
-x,y,1/2-z
-x,-y,-z
x,-y,1/2+z
1/2+x,1/2+y,z
1/2-x,1/2+y,1/2-z
1/2-x,1/2-y,-z
1/2+x,1/2-y,1/2+z
loop_
_atom_site_type_symbol
_atom_site_label
_atom_site_fract_x
_atom_site_fract_y
_atom_site_fract_z
Si Si1 0.112665 0.428840 0.719547
Si Si2 0.000000 0.016129 0.750000
Si Si3 0.214323 0.715036 0.182247
Si Si4 0.913272 0.949040 0.578702
Si Si5 0.376271 0.339597 0.066428
Si Si6 0.903910 0.623249 0.611760
Si Si7 0.479907 0.216324 0.091641
Si Si8 0.670119 0.293885 0.734913
O O1 0.180046 0.385358 0.685943
O O2 0.104592 0.539535 0.758656
O O3 0.095475 0.422332 0.556286
O O4 0.065416 0.372580 0.866047
O O5 0.037798 0.079663 0.595883
O O6 0.950465 0.950055 0.707937
O O7 0.166147 0.797719 0.261835
O O8 0.258332 0.696561 0.292311
O O9 0.250000 0.750000 0.000000
O O10 0.863221 0.868710 0.625412
O O11 0.878932 0.047355 0.575001
O O12 0.444932 0.302873 0.036843
O O13 0.346977 0.308507 0.928825
O O14 0.846977 0.690084 0.691616
O O15 0.965181 0.686741 0.570350
O O16 0.500000 0.244837 0.250000
#
# Coordination Sequence:
#
# PCOD8149428 Si02
#       8
#     8   4   8   8   8   8   8   8
#     4  10  23  46  68 102 133 188 230 289 345 418
#     4  10  24  42  68 100 144 182 226 280 340 440
#     4  11  25  49  74  98 137 182 245 294 349 411
#     4  11  25  44  70 105 143 185 235 278 361 421
#     4  11  26  46  71 105 136 190 231 294 351 418
#     4  11  24  42  72 103 143 177 230 282 360 416
#     4   9  22  42  71 103 140 183 228 281 354 420
#     4  12  27  47  67 105 142 186 236 298 342 415
#
# _framework density 22.405791000000001
#
# number of rings (size 3 to 8) (size 9 to 14) (size 15 to 20)
#    0.000    1.333    2.667    0.800   10.267    1.600 
#    2.400    0.000    0.000    0.000    0.000    0.000 
#    0.000    0.000    0.000    0.000    0.000    0.000 
#
# Total GULP energy -372032.703898 kJ/mol
# GULP energy per Si atom -12401.090130 kJ/mol
# Density = 2.235479 g / cm^3
# Si number density = 22.405791 Si / 1000 Ang^3
#
#
#
# Elastic Constant Matrix: (Units=GPa)
#
#
# Indices 1 2 3 4 5 6 
#
# 1 119.6413 13.4195 20.1865 0.0000 4.8728 0.0000
# 2 13.4195 87.3493 14.8613 0.0000 2.3360 0.0000
# 3 20.1865 14.8613 72.8336 0.0000 2.5287 0.0000
# 4 0.0000 0.0000 0.0000 31.5273 0.0000 -3.3176
# 5 4.8728 2.3360 2.5287 0.0000 30.9797 0.0000
# 6 0.0000 0.0000 0.0000 -3.3176 0.0000 20.3249
#
#
#
# Elastic Compliance Matrix: (Units=1/GPa)
#
#
# Indices 1 2 3 4 5 6 
#
# 1 0.008888 -0.000956 -0.002229 0.000000 -0.001144 0.000000
# 2 -0.000956 0.011978 -0.002159 0.000000 -0.000577 0.000000
# 3 -0.002229 -0.002159 0.014812 0.000000 -0.000696 0.000000
# 4 0.000000 0.000000 0.000000 0.032273 0.000000 0.005268
# 5 -0.001144 -0.000577 -0.000696 0.000000 0.032559 0.000000
# 6 0.000000 0.000000 0.000000 0.005268 0.000000 0.050061
#
#
# Mechanical properties :
#
#
# Convention : Reuss Voigt Hill
#
# Bulk Modulus (GPa) = 40.01390 41.86208 40.93799
# Shear Modulus (GPa) = 29.48308 31.99016 30.73662
#
# Velocity S-wave (km/s) = 3.63143 3.78267 3.70782
# Velocity P-wave (km/s) = 5.95655 6.14836 6.05322
#
# Compressibility (1/GPa) = 0.02499131
#
# Stress axis : x y z
#
# Youngs Moduli (GPa) = 112.50938 83.48719 67.51126
#
# Poissons Ratio (x) = 0.07979 0.15046
# Poissons Ratio (y) = 0.10753 0.14576
# Poissons Ratio (z) = 0.25075 0.18026
#
# Static dielectric constant tensor:
#      x y z
#    x 4.229300 0.000000 -0.042440 
#    y 0.000000 3.972590 0.000000 
#    z -0.042440 0.000000 4.052880 
# 
# 
# High freq. dielectric constant tensor:
#      x y z
#    x 1.888510 0.000000 0.000710 
#    y 0.000000 1.881510 0.000000 
#    z 0.000710 0.000000 1.886520 
# 
# From -- ./inp_files/61903.got.cif
#   From: 2010.06.25/outbox.cif.g09.slc.cpg/sg15_31_cif.got.tgz:61903.got - 2010.06.28 07:06:18.
