data_PCOD8149729
_publ_section_title
;
Structure prediction by ZEFSAII (Michael W. Deem and Ramdas Pophale) SiO2 
 PCOD8149729
Probable space group: C 2/C
;
_chemical_formula_sum "Si O2"
_cell_formula_units_Z 52
_cell_length_a 15.170905
_cell_length_b 6.450036
_cell_length_c 28.545090
_cell_angle_alpha 90.000000
_cell_angle_beta 116.635744
_cell_angle_gamma 90.000000
_cell_volume 2496.788199
_symmetry_space_group_name_H-M "C 2/C"
_symmetry_group_IT_number 15
_symmetry_cell_setting 'monoclinic'
loop_
_space_group_symop_operation_xyz
x,y,z
-x,y,1/2-z
-x,-y,-z
x,-y,1/2+z
1/2+x,1/2+y,z
1/2-x,1/2+y,1/2-z
1/2-x,1/2-y,-z
1/2+x,1/2-y,1/2+z
loop_
_atom_site_type_symbol
_atom_site_label
_atom_site_fract_x
_atom_site_fract_y
_atom_site_fract_z
Si Si1 0.749287 0.440351 0.564059
Si Si2 0.392060 0.867353 0.519100
Si Si3 0.000000 0.996120 0.750000
Si Si4 0.797863 0.531478 0.318366
Si Si5 0.347868 0.220695 0.177424
Si Si6 0.642264 0.844379 0.257469
Si Si7 0.386353 0.181671 0.433555
O O1 0.672515 0.325024 0.512799
O O2 0.845094 0.483121 0.553777
O O3 0.792734 0.294646 0.614988
O O4 0.690954 0.633412 0.573516
O O5 0.500266 0.763026 0.553066
O O6 0.393019 0.042372 0.480541
O O7 0.054379 0.136547 0.802260
O O8 0.070400 0.849596 0.736871
O O9 0.722726 0.338180 0.302815
O O10 0.750774 0.751790 0.292833
O O11 0.871522 0.469534 0.294148
O O12 0.849253 0.551102 0.380576
O O13 0.380318 0.996146 0.204406
#
# Coordination Sequence:
#
# PCOD8149729 Si02
#       7
#     8   8   4   8   8   8   8
#     4  11  22  43  67  90 129 172 211 272 331 385
#     4  10  24  41  63  97 126 166 221 267 321 396
#     4  10  26  40  62  96 130 166 218 272 322 390
#     4  11  22  39  66  92 125 171 215 260 332 384
#     4  11  22  42  62  92 130 166 215 268 329 392
#     4  11  22  42  64  92 128 170 211 269 316 395
#     4  11  22  42  65  94 129 168 216 269 327 391
#
# _framework density 20.826754999999999
#
# number of rings (size 3 to 8) (size 9 to 14) (size 15 to 20)
#    0.000    1.231    4.615    1.385    0.000    2.462 
#    2.769    1.538    0.000    0.000    0.000    0.000 
#    0.000    0.000    0.000    0.000    0.000    0.000 
#
# Total GULP energy -322187.648764 kJ/mol
# GULP energy per Si atom -12391.832645 kJ/mol
# Density = 2.077935 g / cm^3
# Si number density = 20.826755 Si / 1000 Ang^3
#
#
#
# Elastic Constant Matrix: (Units=GPa)
#
#
# Indices 1 2 3 4 5 6 
#
# 1 119.5805 41.6474 52.7433 0.0000 -1.3028 0.0000
# 2 41.6474 95.8825 42.8608 0.0000 3.2826 0.0000
# 3 52.7433 42.8608 99.2744 0.0000 -2.1911 0.0000
# 4 0.0000 0.0000 0.0000 34.4961 0.0000 1.0064
# 5 -1.3028 3.2826 -2.1911 0.0000 28.1513 0.0000
# 6 0.0000 0.0000 0.0000 1.0064 0.0000 34.2948
#
#
#
# Elastic Compliance Matrix: (Units=1/GPa)
#
#
# Indices 1 2 3 4 5 6 
#
# 1 0.011507 -0.002833 -0.004879 0.000000 0.000483 0.000000
# 2 -0.002833 0.013728 -0.004468 0.000000 -0.002080 0.000000
# 3 -0.004879 -0.004468 0.014626 0.000000 0.001434 0.000000
# 4 0.000000 0.000000 0.000000 0.029014 0.000000 -0.000851
# 5 0.000483 -0.002080 0.001434 0.000000 0.035899 0.000000
# 6 0.000000 0.000000 0.000000 -0.000851 0.000000 0.029184
#
#
# Mechanical properties :
#
#
# Convention : Reuss Voigt Hill
#
# Bulk Modulus (GPa) = 64.51546 65.47114 64.99330
# Shear Modulus (GPa) = 30.58374 31.22083 30.90229
#
# Velocity S-wave (km/s) = 3.83624 3.87599 3.85616
# Velocity P-wave (km/s) = 7.11806 7.17881 7.14850
#
# Compressibility (1/GPa) = 0.01550016
#
# Stress axis : x y z
#
# Youngs Moduli (GPa) = 86.90471 72.84136 68.37135
#
# Poissons Ratio (x) = 0.20639 0.33362
# Poissons Ratio (y) = 0.24624 0.30546
# Poissons Ratio (z) = 0.42405 0.32543
#
# Static dielectric constant tensor:
#      x y z
#    x 4.081360 0.000000 0.121650 
#    y 0.000000 3.732860 0.000000 
#    z 0.121650 0.000000 3.752660 
# 
# 
# High freq. dielectric constant tensor:
#      x y z
#    x 1.818470 0.000000 0.003610 
#    y 0.000000 1.814340 0.000000 
#    z 0.003610 0.000000 1.816750 
# 
# From -- ./inp_files/312410.got.cif
#   From: 2010.06.25/outbox.cif.g09.slc.cpg/sg15_157_cif.got.tgz:312410.got - 2010.06.28 07:06:18.
