data_PCOD8149500
_publ_section_title
;
Structure prediction by ZEFSAII (Michael W. Deem and Ramdas Pophale) SiO2 
 PCOD8149500
Probable space group: C 2/C
;
_chemical_formula_sum "Si O2"
_cell_formula_units_Z 64
_cell_length_a 26.311080
_cell_length_b 9.606623
_cell_length_c 12.108597
_cell_angle_alpha 90.000000
_cell_angle_beta 90.281287
_cell_angle_gamma 90.000000
_cell_volume 3060.539678
_symmetry_space_group_name_H-M "C 2/C"
_symmetry_group_IT_number 15
_symmetry_cell_setting 'monoclinic'
loop_
_space_group_symop_operation_xyz
x,y,z
-x,y,1/2-z
-x,-y,-z
x,-y,1/2+z
1/2+x,1/2+y,z
1/2-x,1/2+y,1/2-z
1/2-x,1/2-y,-z
1/2+x,1/2-y,1/2+z
loop_
_atom_site_type_symbol
_atom_site_label
_atom_site_fract_x
_atom_site_fract_y
_atom_site_fract_z
Si Si1 0.206558 0.432174 0.294619
Si Si2 0.382249 0.704466 0.912684
Si Si3 0.356316 0.675364 0.148478
Si Si4 0.554986 0.773500 0.205115
Si Si5 0.299101 0.825501 0.546425
Si Si6 0.527083 0.507229 0.624251
Si Si7 0.871930 0.482148 0.383793
Si Si8 0.183992 0.111125 0.780268
O O1 0.189931 0.284162 0.344762
O O2 0.221850 0.539768 0.389623
O O3 0.160495 0.503739 0.227683
O O4 0.255230 0.405588 0.218734
O O5 0.435343 0.639422 0.871635
O O6 0.386829 0.869999 0.936859
O O7 0.335729 0.682885 0.830177
O O8 0.365796 0.628346 0.023936
O O9 0.408027 0.743118 0.192271
O O10 0.343079 0.537182 0.214657
O O11 0.500000 0.813074 0.250000
O O12 0.555478 0.640359 0.124229
O O13 0.574744 0.906451 0.138071
O O14 0.250000 0.750000 0.500000
O O15 0.330112 0.713893 0.619919
O O16 0.338628 0.878327 0.456913
O O17 0.500000 0.512234 0.750000
O O18 0.500000 0.500000 0.500000
#
# Coordination Sequence:
#
# PCOD8149500 Si02
#       8
#     8   8   8   8   8   8   8   8
#     4  11  24  44  63  97 140 180 228 281 344 423
#     4  12  25  43  67 102 137 176 236 291 352 429
#     4  11  25  43  68  99 138 180 231 293 356 418
#     4  10  23  47  71  98 135 180 230 291 362 417
#     4  12  25  42  66  98 141 186 230 281 348 418
#     4  11  25  47  74 105 140 181 240 301 368 435
#     4  11  25  44  68  99 137 182 225 288 348 424
#     4  12  26  39  67  99 135 183 236 279 346 425
#
# _framework density 20.911346000000002
#
# number of rings (size 3 to 8) (size 9 to 14) (size 15 to 20)
#    0.000    0.750    5.000    2.250    5.250    1.000 
#    0.000    2.500    0.000    0.000    0.000    0.000 
#    0.000    0.000    0.000    0.000    0.000    0.000 
#
# Total GULP energy -396606.272356 kJ/mol
# GULP energy per Si atom -12393.946011 kJ/mol
# Density = 2.086375 g / cm^3
# Si number density = 20.911346 Si / 1000 Ang^3
#
#
#
# Elastic Constant Matrix: (Units=GPa)
#
#
# Indices 1 2 3 4 5 6 
#
# 1 112.7276 50.6047 29.5300 0.0000 -13.8073 0.0000
# 2 50.6047 120.5785 29.8265 0.0000 -8.7550 0.0000
# 3 29.5300 29.8265 101.2498 0.0000 -2.4670 0.0000
# 4 0.0000 0.0000 0.0000 34.8876 0.0000 0.4717
# 5 -13.8073 -8.7550 -2.4670 0.0000 33.1817 0.0000
# 6 0.0000 0.0000 0.0000 0.4717 0.0000 38.3524
#
#
#
# Elastic Compliance Matrix: (Units=1/GPa)
#
#
# Indices 1 2 3 4 5 6 
#
# 1 0.011725 -0.004135 -0.002113 0.000000 0.003631 0.000000
# 2 -0.004135 0.010562 -0.001883 0.000000 0.000926 0.000000
# 3 -0.002113 -0.001883 0.011034 0.000000 -0.000556 0.000000
# 4 0.000000 0.000000 0.000000 0.028668 0.000000 -0.000353
# 5 0.003631 0.000926 -0.000556 0.000000 0.031851 0.000000
# 6 0.000000 0.000000 0.000000 -0.000353 0.000000 0.026078
#
#
# Mechanical properties :
#
#
# Convention : Reuss Voigt Hill
#
# Bulk Modulus (GPa) = 58.61818 61.60871 60.11344
# Shear Modulus (GPa) = 35.24445 36.25732 35.75089
#
# Velocity S-wave (km/s) = 4.10984 4.16848 4.13927
# Velocity P-wave (km/s) = 7.11433 7.25907 7.18707
#
# Compressibility (1/GPa) = 0.01705955
#
# Stress axis : x y z
#
# Youngs Moduli (GPa) = 85.28559 94.68331 90.62867
#
# Poissons Ratio (x) = 0.39147 0.19153
# Poissons Ratio (y) = 0.35261 0.17064
# Poissons Ratio (z) = 0.18024 0.17827
#
# Static dielectric constant tensor:
#      x y z
#    x 3.790260 0.000000 0.026260 
#    y 0.000000 3.922860 0.000000 
#    z 0.026260 0.000000 4.158560 
# 
# 
# High freq. dielectric constant tensor:
#      x y z
#    x 1.810740 0.000000 0.002130 
#    y 0.000000 1.833380 0.000000 
#    z 0.002130 0.000000 1.827790 
# 
# From -- ./inp_files/125907.got.cif
#   From: 2010.06.25/outbox.cif.g09.slc.cpg/sg15_63_cif.got.tgz:125907.got - 2010.06.28 07:06:18.
