data_PCOD8149006
_publ_section_title
;
Structure prediction by ZEFSAII (Michael W. Deem and Ramdas Pophale) SiO2 
 PCOD8149006
Probable space group: C 2/C
;
_chemical_formula_sum "Si O2"
_cell_formula_units_Z 32
_cell_length_a 11.848264
_cell_length_b 15.602106
_cell_length_c 8.289666
_cell_angle_alpha 90.000000
_cell_angle_beta 116.781319
_cell_angle_gamma 90.000000
_cell_volume 1368.032641
_symmetry_space_group_name_H-M "C 2/C"
_symmetry_group_IT_number 15
_symmetry_cell_setting 'monoclinic'
loop_
_space_group_symop_operation_xyz
x,y,z
-x,y,1/2-z
-x,-y,-z
x,-y,1/2+z
1/2+x,1/2+y,z
1/2-x,1/2+y,1/2-z
1/2-x,1/2-y,-z
1/2+x,1/2-y,1/2+z
loop_
_atom_site_type_symbol
_atom_site_label
_atom_site_fract_x
_atom_site_fract_y
_atom_site_fract_z
Si Si1 0.247535 0.031447 0.063037
Si Si2 0.899684 0.760604 0.549816
Si Si3 0.096743 0.577648 0.046450
Si Si4 0.605591 0.583646 0.688271
O O1 0.329193 0.088176 0.237466
O O2 0.121914 0.996930 0.075629
O O3 0.227743 0.087157 0.887347
O O4 0.315672 0.943453 0.051410
O O5 0.750000 0.750000 0.500000
O O6 0.959504 0.670911 0.526565
O O7 0.912713 0.827031 0.412220
O O8 0.000000 0.792714 0.750000
O O9 0.000000 0.500000 0.000000
O O10 0.500000 0.561895 0.750000
#
# Coordination Sequence:
#
# PCOD8149006 Si02
#       4
#     8   8   8   8
#     4  10  23  43  71 103 145 186 254 304 380 451
#     4  12  28  49  74 109 158 197 250 323 388 450
#     4  11  23  44  74 106 145 198 252 308 379 459
#     4  11  25  43  71 105 143 196 243 311 382 456
#
# _framework density 23.391255999999998
#
# number of rings (size 3 to 8) (size 9 to 14) (size 15 to 20)
#    0.000    1.000    2.500    3.000    7.000    4.000 
#    0.000    0.000    0.000    0.000    0.000    0.000 
#    0.000    0.000    0.000    0.000    0.000    0.000 
#
# Total GULP energy -198218.816786 kJ/mol
# GULP energy per Si atom -12388.676049 kJ/mol
# Density = 2.333802 g / cm^3
# Si number density = 23.391256 Si / 1000 Ang^3
#
#
#
# Elastic Constant Matrix: (Units=GPa)
#
#
# Indices 1 2 3 4 5 6 
#
# 1 84.8880 24.1962 60.0134 0.0000 0.8483 0.0000
# 2 24.1962 132.9323 69.0461 0.0000 -7.1091 0.0000
# 3 60.0134 69.0461 134.6769 0.0000 -24.6234 0.0000
# 4 0.0000 0.0000 0.0000 41.4075 0.0000 -1.2822
# 5 0.8483 -7.1091 -24.6234 0.0000 32.5703 0.0000
# 6 0.0000 0.0000 0.0000 -1.2822 0.0000 26.3776
#
#
#
# Elastic Compliance Matrix: (Units=1/GPa)
#
#
# Indices 1 2 3 4 5 6 
#
# 1 0.019103 0.001762 -0.010950 0.000000 -0.008391 0.000000
# 2 0.001762 0.010530 -0.006698 0.000000 -0.002811 0.000000
# 3 -0.010950 -0.006698 0.018013 0.000000 0.012441 0.000000
# 4 0.000000 0.000000 0.000000 0.024187 0.000000 0.001176
# 5 -0.008391 -0.002811 0.012441 0.000000 0.039713 0.000000
# 6 0.000000 0.000000 0.000000 0.001176 0.000000 0.037968
#
#
# Mechanical properties :
#
#
# Convention : Reuss Voigt Hill
#
# Bulk Modulus (GPa) = 62.99331 73.22318 68.10825
# Shear Modulus (GPa) = 26.79838 33.35385 30.07611
#
# Velocity S-wave (km/s) = 3.38843 3.78022 3.58967
# Velocity P-wave (km/s) = 6.50364 7.10106 6.80891
#
# Compressibility (1/GPa) = 0.01587470
#
# Stress axis : x y z
#
# Youngs Moduli (GPa) = 52.34714 94.96247 55.51550
#
# Poissons Ratio (x) = -0.16728 0.60789
# Poissons Ratio (y) = -0.09221 0.37182
# Poissons Ratio (z) = 0.57320 0.63603
#
# Static dielectric constant tensor:
#      x y z
#    x 5.092160 0.000000 0.438510 
#    y 0.000000 3.845510 0.000000 
#    z 0.438510 0.000000 5.230940 
# 
# 
# High freq. dielectric constant tensor:
#      x y z
#    x 1.927520 0.000000 -0.004710 
#    y 0.000000 1.905130 0.000000 
#    z -0.004710 0.000000 1.955680 
# 
# From -- ./inp_files/28012.got.cif
#   From: 2010.06.25/outbox.cif.g09.slc.cpg/sg15_15_cif.got.tgz:28012.got - 2010.06.28 07:06:18.
