data_PCOD8149095
_publ_section_title
;
Structure prediction by ZEFSAII (Michael W. Deem and Ramdas Pophale) SiO2 
 PCOD8149095
Probable space group: C 2/C
;
_chemical_formula_sum "Si O2"
_cell_formula_units_Z 52
_cell_length_a 15.414256
_cell_length_b 18.407066
_cell_length_c 8.567877
_cell_angle_alpha 90.000000
_cell_angle_beta 94.330285
_cell_angle_gamma 90.000000
_cell_volume 2424.034708
_symmetry_space_group_name_H-M "C 2/C"
_symmetry_group_IT_number 15
_symmetry_cell_setting 'monoclinic'
loop_
_space_group_symop_operation_xyz
x,y,z
-x,y,1/2-z
-x,-y,-z
x,-y,1/2+z
1/2+x,1/2+y,z
1/2-x,1/2+y,1/2-z
1/2-x,1/2-y,-z
1/2+x,1/2-y,1/2+z
loop_
_atom_site_type_symbol
_atom_site_label
_atom_site_fract_x
_atom_site_fract_y
_atom_site_fract_z
Si Si1 0.158412 0.326287 0.079281
Si Si2 0.041365 0.932234 0.421940
Si Si3 0.314609 0.240023 0.242190
Si Si4 0.422358 0.316827 0.515842
Si Si5 0.268116 0.400292 0.641747
Si Si6 0.265267 0.457865 0.981755
Si Si7 0.500000 0.795776 0.250000
O O1 0.223972 0.281837 0.200007
O O2 0.192921 0.405265 0.041616
O O3 0.066753 0.341787 0.152973
O O4 0.142269 0.280356 0.917990
O O5 0.144610 0.938451 0.420728
O O6 0.000000 0.928622 0.250000
O O7 0.014447 0.857179 0.503586
O O8 0.000000 0.000000 0.500000
O O9 0.379948 0.291133 0.346434
O O10 0.296582 0.167681 0.343457
O O11 0.360941 0.373271 0.596489
O O12 0.438216 0.249620 0.629004
O O13 0.234317 0.459061 0.509457
O O14 0.279629 0.445976 0.801173
#
# Coordination Sequence:
#
# PCOD8149095 Si02
#       7
#     8   8   8   8   8   8   4
#     4  10  24  44  65  94 134 172 221 271 331 385
#     4  12  25  37  58  94 134 170 204 256 324 395
#     4  10  23  44  66  95 129 172 220 270 325 390
#     4  12  25  39  64  97 133 170 218 266 319 389
#     4  11  23  41  65  95 127 172 217 265 321 391
#     4  11  24  41  63  94 134 173 210 268 333 391
#     4  12  26  40  66  96 128 170 218 278 316 386
#
# _framework density 21.451837999999999
#
# number of rings (size 3 to 8) (size 9 to 14) (size 15 to 20)
#    0.000    0.923    3.077    3.231    9.692    0.000 
#    0.000    0.000    0.000    8.308    0.000    0.000 
#    0.000    0.000    0.000    0.000    0.000    0.000 
#
# Total GULP energy -322431.762160 kJ/mol
# GULP energy per Si atom -12401.221622 kJ/mol
# Density = 2.140301 g / cm^3
# Si number density = 21.451838 Si / 1000 Ang^3
#
#
#
# Elastic Constant Matrix: (Units=GPa)
#
#
# Indices 1 2 3 4 5 6 
#
# 1 91.7883 36.3226 33.8186 0.0000 -25.1941 0.0000
# 2 36.3226 96.0745 24.3528 0.0000 -9.0078 0.0000
# 3 33.8186 24.3528 75.4559 0.0000 -5.7591 0.0000
# 4 0.0000 0.0000 0.0000 37.0040 0.0000 -1.5488
# 5 -25.1941 -9.0078 -5.7591 0.0000 34.8463 0.0000
# 6 0.0000 0.0000 0.0000 -1.5488 0.0000 34.9434
#
#
#
# Elastic Compliance Matrix: (Units=1/GPa)
#
#
# Indices 1 2 3 4 5 6 
#
# 1 0.017598 -0.004202 -0.005715 0.000000 0.010693 0.000000
# 2 -0.004202 0.012533 -0.002174 0.000000 -0.000157 0.000000
# 3 -0.005715 -0.002174 0.016364 0.000000 -0.001989 0.000000
# 4 0.000000 0.000000 0.000000 0.027074 0.000000 0.001200
# 5 0.010693 -0.000157 -0.001989 0.000000 0.036059 0.000000
# 6 0.000000 0.000000 0.000000 0.001200 0.000000 0.028671
#
#
# Mechanical properties :
#
#
# Convention : Reuss Voigt Hill
#
# Bulk Modulus (GPa) = 44.81535 50.25632 47.53584
# Shear Modulus (GPa) = 29.42575 32.61371 31.01973
#
# Velocity S-wave (km/s) = 3.70768 3.90336 3.80678
# Velocity P-wave (km/s) = 6.26624 6.61765 6.44434
#
# Compressibility (1/GPa) = 0.02231378
#
# Stress axis : x y z
#
# Youngs Moduli (GPa) = 56.82439 79.78617 61.11012
#
# Poissons Ratio (x) = 0.33527 0.34924
# Poissons Ratio (y) = 0.23878 0.13284
# Poissons Ratio (z) = 0.32475 0.17344
#
# Static dielectric constant tensor:
#      x y z
#    x 3.660110 0.000000 -0.102440 
#    y 0.000000 3.927930 0.000000 
#    z -0.102440 0.000000 4.006670 
# 
# 
# High freq. dielectric constant tensor:
#      x y z
#    x 1.818870 0.000000 -0.016690 
#    y 0.000000 1.842250 0.000000 
#    z -0.016690 0.000000 1.859870 
# 
# From -- ./inp_files/40822.got.cif
#   From: 2010.06.25/outbox.cif.g09.slc.cpg/sg15_21_cif.got.tgz:40822.got - 2010.06.28 07:06:18.
