data_PCOD8149688
_publ_section_title
;
Structure prediction by ZEFSAII (Michael W. Deem and Ramdas Pophale) SiO2 
 PCOD8149688
Probable space group: C 2/C
;
_chemical_formula_sum "Si O2"
_cell_formula_units_Z 52
_cell_length_a 14.319471
_cell_length_b 10.287221
_cell_length_c 22.967268
_cell_angle_alpha 90.000000
_cell_angle_beta 128.049990
_cell_angle_gamma 90.000000
_cell_volume 2664.220816
_symmetry_space_group_name_H-M "C 2/C"
_symmetry_group_IT_number 15
_symmetry_cell_setting 'monoclinic'
loop_
_space_group_symop_operation_xyz
x,y,z
-x,y,1/2-z
-x,-y,-z
x,-y,1/2+z
1/2+x,1/2+y,z
1/2-x,1/2+y,1/2-z
1/2-x,1/2-y,-z
1/2+x,1/2-y,1/2+z
loop_
_atom_site_type_symbol
_atom_site_label
_atom_site_fract_x
_atom_site_fract_y
_atom_site_fract_z
Si Si1 0.745128 0.750994 0.330031
Si Si2 0.081371 0.384914 0.178875
Si Si3 0.303955 0.145932 0.564594
Si Si4 0.542518 0.171481 0.155132
Si Si5 0.689808 0.116206 0.492854
Si Si6 0.246743 0.053366 0.852133
Si Si7 0.000000 0.820882 0.250000
O O1 0.630576 0.796647 0.250058
O O2 0.748737 0.830838 0.391393
O O3 0.862335 0.772934 0.335355
O O4 0.747241 0.599248 0.343157
O O5 0.097006 0.537211 0.201385
O O6 0.158988 0.365599 0.150219
O O7 0.946397 0.340511 0.117321
O O8 0.250000 0.250000 0.500000
O O9 0.264432 0.000806 0.530978
O O10 0.474854 0.236019 0.183048
O O11 0.451209 0.133102 0.068907
O O12 0.750000 0.250000 0.500000
O O13 0.719076 0.080771 0.569254
O O14 0.115250 0.093829 0.784024
#
# Coordination Sequence:
#
# PCOD8149688 Si02
#       7
#     8   8   8   8   8   8   4
#     4  11  23  43  62  97 126 165 216 269 320 378
#     4  10  24  41  63  93 124 171 207 267 322 382
#     4  11  24  40  66  92 127 168 216 263 319 375
#     4  10  24  40  68  90 128 170 216 257 326 395
#     4  11  23  43  64  94 128 176 212 262 320 387
#     4  11  24  40  68  90 132 167 214 263 325 383
#     4  12  22  42  62  98 122 168 212 264 318 388
#
# _framework density 19.517903
#
# number of rings (size 3 to 8) (size 9 to 14) (size 15 to 20)
#    0.000    1.231    4.615    0.462    8.615    1.846 
#    0.000    0.769    0.000    0.000    0.000    0.000 
#    0.000    0.000    0.000    0.000    0.000    0.000 
#
# Total GULP energy -322380.016309 kJ/mol
# GULP energy per Si atom -12399.231396 kJ/mol
# Density = 1.947348 g / cm^3
# Si number density = 19.517903 Si / 1000 Ang^3
#
#
#
# Elastic Constant Matrix: (Units=GPa)
#
#
# Indices 1 2 3 4 5 6 
#
# 1 104.1290 39.9185 34.4517 0.0000 -11.0687 0.0000
# 2 39.9185 98.5894 52.9324 0.0000 -8.2081 0.0000
# 3 34.4517 52.9324 118.8977 0.0000 -16.2551 0.0000
# 4 0.0000 0.0000 0.0000 36.4465 0.0000 -0.9928
# 5 -11.0687 -8.2081 -16.2551 0.0000 32.3072 0.0000
# 6 0.0000 0.0000 0.0000 -0.9928 0.0000 33.1041
#
#
#
# Elastic Compliance Matrix: (Units=1/GPa)
#
#
# Indices 1 2 3 4 5 6 
#
# 1 0.011781 -0.003829 -0.001385 0.000000 0.002366 0.000000
# 2 -0.003829 0.014579 -0.005427 0.000000 -0.000339 0.000000
# 3 -0.001385 -0.005427 0.011786 0.000000 0.004076 0.000000
# 4 0.000000 0.000000 0.000000 0.027460 0.000000 0.000824
# 5 0.002366 -0.000339 0.004076 0.000000 0.033728 0.000000
# 6 0.000000 0.000000 0.000000 0.000824 0.000000 0.030232
#
#
# Mechanical properties :
#
#
# Convention : Reuss Voigt Hill
#
# Bulk Modulus (GPa) = 59.30500 64.02459 61.66479
# Shear Modulus (GPa) = 31.95461 33.32580 32.64021
#
# Velocity S-wave (km/s) = 4.05062 4.13661 4.09384
# Velocity P-wave (km/s) = 7.23378 7.46255 7.34905
#
# Compressibility (1/GPa) = 0.01686199
#
# Stress axis : x y z
#
# Youngs Moduli (GPa) = 84.87945 68.59045 84.84998
#
# Poissons Ratio (x) = 0.26266 0.11755
# Poissons Ratio (y) = 0.32504 0.46051
# Poissons Ratio (z) = 0.11759 0.37226
#
# Static dielectric constant tensor:
#      x y z
#    x 3.635850 0.000000 0.102290 
#    y 0.000000 3.344470 0.000000 
#    z 0.102290 0.000000 3.590370 
# 
# 
# High freq. dielectric constant tensor:
#      x y z
#    x 1.764640 0.000000 -0.003430 
#    y 0.000000 1.761430 0.000000 
#    z -0.003430 0.000000 1.770740 
# 
# From -- ./inp_files/243794.got.cif
#   From: 2010.06.25/outbox.cif.g09.slc.cpg/sg15_122_cif.got.tgz:243794.got - 2010.06.28 07:06:18.
