data_PCOD8149753
_publ_section_title
;
Structure prediction by ZEFSAII (Michael W. Deem and Ramdas Pophale) SiO2 
 PCOD8149753
Probable space group: C 2/C
;
_chemical_formula_sum "Si O2"
_cell_formula_units_Z 32
_cell_length_a 17.230185
_cell_length_b 17.362492
_cell_length_c 7.929811
_cell_angle_alpha 90.000000
_cell_angle_beta 34.301941
_cell_angle_gamma 90.000000
_cell_volume 1336.904541
_symmetry_space_group_name_H-M "C 2/C"
_symmetry_group_IT_number 15
_symmetry_cell_setting 'monoclinic'
loop_
_space_group_symop_operation_xyz
x,y,z
-x,y,1/2-z
-x,-y,-z
x,-y,1/2+z
1/2+x,1/2+y,z
1/2-x,1/2+y,1/2-z
1/2-x,1/2-y,-z
1/2+x,1/2-y,1/2+z
loop_
_atom_site_type_symbol
_atom_site_label
_atom_site_fract_x
_atom_site_fract_y
_atom_site_fract_z
Si Si1 0.500000 0.153352 0.250000
Si Si2 0.000000 0.882919 0.750000
Si Si3 0.147517 0.612708 0.541856
Si Si4 0.423339 0.698523 0.049980
Si Si5 0.710632 0.045616 0.782663
O O1 0.549896 0.208789 0.004759
O O2 0.370942 0.098018 0.431489
O O3 0.127997 0.939293 0.499256
O O4 0.988471 0.830742 0.605618
O O5 0.140725 0.572073 0.734627
O O6 0.190816 0.544997 0.336196
O O7 0.259897 0.681446 0.333801
O O8 0.000000 0.646608 0.750000
O O9 0.500000 0.660189 0.750000
#
# Coordination Sequence:
#
# PCOD8149753 Si02
#       5
#     4   4   8   8   8
#     4  10  24  47  62 101 138 172 226 270 342 397
#     4  10  24  41  68 103 130 176 226 276 326 405
#     4  11  24  42  69  97 135 177 223 275 334 397
#     4   9  24  46  67  96 136 178 220 273 338 394
#     4  11  25  43  67 102 134 173 228 275 333 402
#
# _framework density 23.935891000000002
#
# number of rings (size 3 to 8) (size 9 to 14) (size 15 to 20)
#    0.750    1.000    1.250    0.750    5.250    7.000 
#    9.000    0.000    0.000    0.000    0.000    0.000 
#    0.000    0.000    0.000    0.000    0.000    0.000 
#
# Total GULP energy -198338.762975 kJ/mol
# GULP energy per Si atom -12396.172686 kJ/mol
# Density = 2.388141 g / cm^3
# Si number density = 23.935891 Si / 1000 Ang^3
#
#
#
# Elastic Constant Matrix: (Units=GPa)
#
#
# Indices 1 2 3 4 5 6 
#
# 1 129.1724 8.9946 48.0162 0.0001 -15.7667 0.0000
# 2 8.9946 54.8694 22.9433 0.0000 2.4041 0.0000
# 3 48.0162 22.9433 121.4084 0.0002 -19.2427 0.0000
# 4 0.0001 0.0000 0.0002 3.3741 -0.0002 1.4894
# 5 -15.7667 2.4041 -19.2427 -0.0002 35.5693 0.0000
# 6 0.0000 0.0000 0.0000 1.4894 0.0000 11.0011
#
#
#
# Elastic Compliance Matrix: (Units=1/GPa)
#
#
# Indices 1 2 3 4 5 6 
#
# 1 0.009251 -0.000269 -0.003232 0.000000 0.002370 0.000000
# 2 -0.000269 0.020246 -0.004326 0.000000 -0.003828 0.000000
# 3 -0.003232 -0.004326 0.011104 0.000000 0.004867 0.000000
# 4 0.000000 0.000000 0.000000 0.315216 0.000002 -0.042675
# 5 0.002370 -0.003828 0.004867 0.000002 0.032056 0.000000
# 6 0.000000 0.000000 0.000000 -0.042675 0.000000 0.096677
#
#
# Mechanical properties :
#
#
# Convention : Reuss Voigt Hill
#
# Bulk Modulus (GPa) = 40.08657 51.70648 45.89652
# Shear Modulus (GPa) = 9.83243 25.02198 17.42720
#
# Velocity S-wave (km/s) = 2.02897 3.23673 2.70122
# Velocity P-wave (km/s) = 4.71941 5.96804 5.38007
#
# Compressibility (1/GPa) = 0.02494601
#
# Stress axis : x y z
#
# Youngs Moduli (GPa) = 108.09489 49.39259 90.05784
#
# Poissons Ratio (x) = 0.01328 0.29109
# Poissons Ratio (y) = 0.02906 0.38963
# Poissons Ratio (z) = 0.34939 0.21369
#
# Static dielectric constant tensor:
#      x y z
#    x 4.187250 0.000000 0.095910 
#    y 0.000000 4.297880 0.000000 
#    z 0.095910 0.000000 4.574280 
# 
# 
# High freq. dielectric constant tensor:
#      x y z
#    x 1.936620 0.000000 0.005620 
#    y 0.000000 1.951090 0.000000 
#    z 0.005620 0.000000 1.971050 
# 
# From -- ./inp_files/28053.got.cif
#   From: 2010.06.25/outbox.cif.g09.slc.cpg/sg15_15_cif.got.tgz:28053.got - 2010.06.28 07:06:18.
