data_PCOD8149932
_publ_section_title
;
Structure prediction by ZEFSAII (Michael W. Deem and Ramdas Pophale) SiO2 
 PCOD8149932
Probable space group: C 2/C
;
_chemical_formula_sum "Si O2"
_cell_formula_units_Z 44
_cell_length_a 27.332561
_cell_length_b 7.524973
_cell_length_c 9.553197
_cell_angle_alpha 90.000000
_cell_angle_beta 91.008195
_cell_angle_gamma 90.000000
_cell_volume 1964.566647
_symmetry_space_group_name_H-M "C 2/C"
_symmetry_group_IT_number 15
_symmetry_cell_setting 'monoclinic'
loop_
_space_group_symop_operation_xyz
x,y,z
-x,y,1/2-z
-x,-y,-z
x,-y,1/2+z
1/2+x,1/2+y,z
1/2-x,1/2+y,1/2-z
1/2-x,1/2-y,-z
1/2+x,1/2-y,1/2+z
loop_
_atom_site_type_symbol
_atom_site_label
_atom_site_fract_x
_atom_site_fract_y
_atom_site_fract_z
Si Si1 0.125404 0.287431 0.522422
Si Si2 0.000000 0.996807 0.250000
Si Si3 0.565015 0.553766 0.002068
Si Si4 0.806093 0.790373 0.243098
Si Si5 0.649219 0.172740 0.522776
Si Si6 0.801035 0.800398 0.709472
O O1 0.077987 0.159844 0.496561
O O2 0.144419 0.277427 0.681427
O O3 0.115623 0.497339 0.494490
O O4 0.171691 0.230084 0.433486
O O5 0.966156 0.105110 0.359503
O O6 0.964332 0.888683 0.141265
O O7 0.615095 0.656275 0.012379
O O8 0.756393 0.730569 0.315741
O O9 0.810136 0.000001 0.254145
O O10 0.807926 0.702781 0.088915
O O11 0.676802 0.166041 0.673054
#
# Coordination Sequence:
#
# PCOD8149932 Si02
#       6
#     8   4   8   8   8   8
#     4  12  24  42  66  94 129 175 214 262 323 383
#     4  10  24  42  74  94 124 164 204 282 326 410
#     4  11  22  46  66  96 128 164 214 262 346 375
#     4  12  23  40  60  94 134 175 223 266 305 368
#     4  12  24  42  66  94 129 175 214 262 323 383
#     4  12  23  40  60  94 134 175 223 266 305 368
#
# _framework density 22.396795999999998
#
# number of rings (size 3 to 8) (size 9 to 14) (size 15 to 20)
#    0.000    0.364    3.636    6.545    0.000    0.000 
#    0.000    5.455    0.000    0.000    0.000    0.000 
#    0.000    0.000    0.000    0.000    0.000    0.000 
#
# Total GULP energy -272680.771373 kJ/mol
# GULP energy per Si atom -12394.580517 kJ/mol
# Density = 2.234582 g / cm^3
# Si number density = 22.396796 Si / 1000 Ang^3
#
#
#
# Elastic Constant Matrix: (Units=GPa)
#
#
# Indices 1 2 3 4 5 6 
#
# 1 75.5545 16.5244 24.2649 0.0000 5.6554 0.0000
# 2 16.5244 107.8075 8.5915 0.0000 -6.5026 0.0000
# 3 24.2649 8.5915 106.3669 0.0000 -0.5194 0.0000
# 4 0.0000 0.0000 0.0000 29.2460 0.0000 4.0876
# 5 5.6554 -6.5026 -0.5194 0.0000 41.2883 0.0000
# 6 0.0000 0.0000 0.0000 4.0876 0.0000 11.9958
#
#
#
# Elastic Compliance Matrix: (Units=1/GPa)
#
#
# Indices 1 2 3 4 5 6 
#
# 1 0.014935 -0.002177 -0.003243 0.000000 -0.002429 0.000000
# 2 -0.002177 0.009742 -0.000281 0.000000 0.001829 0.000000
# 3 -0.003243 -0.000281 0.010167 0.000000 0.000528 0.000000
# 4 0.000000 0.000000 0.000000 0.035903 0.000000 -0.012234
# 5 -0.002429 0.001829 0.000528 0.000000 0.024847 0.000000
# 6 0.000000 0.000000 0.000000 -0.012234 0.000000 0.087531
#
#
# Mechanical properties :
#
#
# Convention : Reuss Voigt Hill
#
# Bulk Modulus (GPa) = 42.66101 43.16561 42.91331
# Shear Modulus (GPa) = 24.71067 32.52923 28.61995
#
# Velocity S-wave (km/s) = 3.32522 3.81518 3.57859
# Velocity P-wave (km/s) = 5.81652 6.22273 6.02305
#
# Compressibility (1/GPa) = 0.02344061
#
# Stress axis : x y z
#
# Youngs Moduli (GPa) = 66.95657 102.64556 98.36188
#
# Poissons Ratio (x) = 0.22349 0.31899
# Poissons Ratio (y) = 0.14578 0.02767
# Poissons Ratio (z) = 0.21714 0.02887
#
# Static dielectric constant tensor:
#      x y z
#    x 3.273950 0.000000 0.033790 
#    y 0.000000 4.064360 0.000000 
#    z 0.033790 0.000000 4.198840 
# 
# 
# High freq. dielectric constant tensor:
#      x y z
#    x 1.872430 0.000000 -0.003080 
#    y 0.000000 1.866600 0.000000 
#    z -0.003080 0.000000 1.901970 
# 
# From -- ./inp_files/68349.got.cif
#   From: 2010.06.25/outbox.cif.g09.slc.cpg/sg15_35_cif.got.tgz:68349.got - 2010.06.28 07:06:18.
