data_PCOD8149544
_publ_section_title
;
Structure prediction by ZEFSAII (Michael W. Deem and Ramdas Pophale) SiO2 
 PCOD8149544
Probable space group: C 2/C
;
_chemical_formula_sum "Si O2"
_cell_formula_units_Z 56
_cell_length_a 9.430478
_cell_length_b 11.572145
_cell_length_c 27.244475
_cell_angle_alpha 90.000000
_cell_angle_beta 57.663948
_cell_angle_gamma 90.000000
_cell_volume 2512.143257
_symmetry_space_group_name_H-M "C 2/C"
_symmetry_group_IT_number 15
_symmetry_cell_setting 'monoclinic'
loop_
_space_group_symop_operation_xyz
x,y,z
-x,y,1/2-z
-x,-y,-z
x,-y,1/2+z
1/2+x,1/2+y,z
1/2-x,1/2+y,1/2-z
1/2-x,1/2-y,-z
1/2+x,1/2-y,1/2+z
loop_
_atom_site_type_symbol
_atom_site_label
_atom_site_fract_x
_atom_site_fract_y
_atom_site_fract_z
Si Si1 0.020537 0.919370 0.569179
Si Si2 0.265697 0.947480 0.262907
Si Si3 0.500000 0.751685 0.250000
Si Si4 0.796363 0.663428 0.330723
Si Si5 0.479518 0.043798 0.139040
Si Si6 0.500000 0.357451 0.250000
Si Si7 0.795045 0.894839 0.063633
Si Si8 0.196560 0.153161 0.127971
O O1 0.124881 0.871718 0.504162
O O2 0.136879 0.932540 0.595592
O O3 0.880363 0.822471 0.608648
O O4 0.929226 0.040745 0.574139
O O5 0.333647 0.829786 0.274799
O O6 0.069975 0.934291 0.282445
O O7 0.287650 0.052653 0.296265
O O8 0.372228 0.962361 0.193949
O O9 0.544677 0.669223 0.195548
O O10 0.838771 0.779809 0.294104
O O11 0.944687 0.647327 0.342508
O O12 0.361955 0.095853 0.119249
O O13 0.630211 0.972609 0.086357
O O14 0.746996 0.775729 0.096719
#
# Coordination Sequence:
#
# PCOD8149544 Si02
#       8
#     8   8   4   8   8   4   8   8
#     4  10  24  44  74  95 133 179 225 275 329 394
#     4  12  23  42  62  96 135 175 214 273 322 405
#     4  12  21  41  68  92 140 178 209 267 354 386
#     4  11  22  45  61  96 135 171 214 272 324 395
#     4  11  23  42  66  94 134 171 222 272 330 386
#     4  12  25  37  66  92 130 174 217 265 336 382
#     4  10  23  51  68  94 135 180 222 277 334 385
#     4  12  25  41  68 103 129 177 224 276 328 401
#
# _framework density 22.291720999999999
#
# number of rings (size 3 to 8) (size 9 to 14) (size 15 to 20)
#    0.000    0.857    4.286    3.000    4.000    0.571 
#    0.000    7.857    0.000    0.000    0.000    0.000 
#    0.000    0.000    0.000    0.000    0.000    0.000 
#
# Total GULP energy -347233.675437 kJ/mol
# GULP energy per Si atom -12401.202694 kJ/mol
# Density = 2.224098 g / cm^3
# Si number density = 22.291721 Si / 1000 Ang^3
#
#
#
# Elastic Constant Matrix: (Units=GPa)
#
#
# Indices 1 2 3 4 5 6 
#
# 1 170.2713 41.9967 42.7009 0.0000 22.1949 0.0000
# 2 41.9967 57.4360 40.9870 0.0000 2.7602 0.0000
# 3 42.7009 40.9870 156.2048 0.0000 -0.1054 0.0000
# 4 0.0000 0.0000 0.0000 6.7954 0.0000 4.3032
# 5 22.1949 2.7602 -0.1054 0.0000 32.6600 0.0000
# 6 0.0000 0.0000 0.0000 4.3032 0.0000 27.7718
#
#
#
# Elastic Compliance Matrix: (Units=1/GPa)
#
#
# Indices 1 2 3 4 5 6 
#
# 1 0.007968 -0.004958 -0.000881 0.000000 -0.004999 0.000000
# 2 -0.004958 0.024616 -0.005103 0.000000 0.001272 0.000000
# 3 -0.000881 -0.005103 0.007982 0.000000 0.001056 0.000000
# 4 0.000000 0.000000 0.000000 0.163169 0.000000 -0.025283
# 5 -0.004999 0.001272 0.001056 0.000000 0.033912 0.000000
# 6 0.000000 0.000000 0.000000 -0.025283 0.000000 0.039925
#
#
# Mechanical properties :
#
#
# Convention : Reuss Voigt Hill
#
# Bulk Modulus (GPa) = 53.52186 70.58681 62.05433
# Shear Modulus (GPa) = 16.35680 30.66059 23.50869
#
# Velocity S-wave (km/s) = 2.71174 3.71270 3.25097
# Velocity P-wave (km/s) = 5.81950 7.07902 6.47994
#
# Compressibility (1/GPa) = 0.01868395
#
# Stress axis : x y z
#
# Youngs Moduli (GPa) = 125.49854 40.62397 125.27679
#
# Poissons Ratio (x) = 0.20139 0.11034
# Poissons Ratio (y) = 0.62216 0.63929
# Poissons Ratio (z) = 0.11054 0.20730
#
# Static dielectric constant tensor:
#      x y z
#    x 4.393060 0.000000 0.003170 
#    y 0.000000 3.892960 0.000000 
#    z 0.003170 0.000000 4.241290 
# 
# 
# High freq. dielectric constant tensor:
#      x y z
#    x 1.894370 0.000000 -0.000890 
#    y 0.000000 1.865710 0.000000 
#    z -0.000890 0.000000 1.876360 
# 
# From -- ./inp_files/287976.got.cif
#   From: 2010.06.25/outbox.cif.g09.slc.cpg/sg15_144_cif.got.tgz:287976.got - 2010.06.28 07:06:18.
