data_PCOD8149786
_publ_section_title
;
Structure prediction by ZEFSAII (Michael W. Deem and Ramdas Pophale) SiO2 
 PCOD8149786
Probable space group: C 2/C
;
_chemical_formula_sum "Si O2"
_cell_formula_units_Z 40
_cell_length_a 10.536560
_cell_length_b 18.212299
_cell_length_c 10.286645
_cell_angle_alpha 90.000000
_cell_angle_beta 101.874625
_cell_angle_gamma 90.000000
_cell_volume 1931.713319
_symmetry_space_group_name_H-M "C 2/C"
_symmetry_group_IT_number 15
_symmetry_cell_setting 'monoclinic'
loop_
_space_group_symop_operation_xyz
x,y,z
-x,y,1/2-z
-x,-y,-z
x,-y,1/2+z
1/2+x,1/2+y,z
1/2-x,1/2+y,1/2-z
1/2-x,1/2-y,-z
1/2+x,1/2-y,1/2+z
loop_
_atom_site_type_symbol
_atom_site_label
_atom_site_fract_x
_atom_site_fract_y
_atom_site_fract_z
Si Si1 0.714668 0.482789 0.148214
Si Si2 0.631903 0.176615 0.194660
Si Si3 0.932526 0.165835 0.873035
Si Si4 0.905367 0.131423 0.347361
Si Si5 0.863199 0.526761 0.425719
O O1 0.668540 0.399646 0.139297
O O2 0.602160 0.542295 0.153728
O O3 0.828181 0.491447 0.278945
O O4 0.762060 0.499635 0.012646
O O5 0.500000 0.167729 0.250000
O O6 0.640362 0.256223 0.129464
O O7 0.761354 0.165635 0.308012
O O8 0.634254 0.115195 0.082864
O O9 0.000000 0.160494 0.750000
O O10 0.039189 0.161700 0.007296
O O11 0.000000 0.155380 0.250000
O O12 0.000000 0.500000 0.500000
#
# Coordination Sequence:
#
# PCOD8149786 Si02
#       5
#     8   8   8   8   8
#     4  11  22  38  62  90 121 157 206 253 298 357
#     4  10  24  42  61  89 127 161 196 250 311 359
#     4  11  23  39  63  90 119 158 206 249 299 364
#     4  11  23  41  63  89 125 160 198 253 306 354
#     4  11  22  39  62  88 123 163 203 248 302 363
#
# _framework density 20.707004999999999
#
# number of rings (size 3 to 8) (size 9 to 14) (size 15 to 20)
#    0.000    1.200    0.000    7.800    0.000    8.000 
#    0.000    0.000    0.000    0.000    0.000    0.000 
#    0.000    0.000    0.000    0.000    0.000    0.000 
#
# Total GULP energy -248017.556186 kJ/mol
# GULP energy per Si atom -12400.877809 kJ/mol
# Density = 2.065988 g / cm^3
# Si number density = 20.707005 Si / 1000 Ang^3
#
#
#
# Elastic Constant Matrix: (Units=GPa)
#
#
# Indices 1 2 3 4 5 6 
#
# 1 106.6572 56.1310 50.7286 0.0000 7.4589 0.0000
# 2 56.1310 138.2649 53.7310 0.0000 31.8234 0.0000
# 3 50.7286 53.7310 148.7978 0.0000 11.6515 0.0000
# 4 0.0000 0.0000 0.0000 33.0302 0.0000 -2.2201
# 5 7.4589 31.8234 11.6515 0.0000 37.2128 0.0000
# 6 0.0000 0.0000 0.0000 -2.2201 0.0000 30.9120
#
#
#
# Elastic Compliance Matrix: (Units=1/GPa)
#
#
# Indices 1 2 3 4 5 6 
#
# 1 0.013090 -0.004703 -0.002946 0.000000 0.002321 0.000000
# 2 -0.004703 0.011909 -0.002023 0.000000 -0.008608 0.000000
# 3 -0.002946 -0.002023 0.008482 0.000000 -0.000335 0.000000
# 4 0.000000 0.000000 0.000000 0.030422 0.000000 0.002185
# 5 0.002321 -0.008608 -0.000335 0.000000 0.033874 0.000000
# 6 0.000000 0.000000 0.000000 0.002185 0.000000 0.032507
#
#
# Mechanical properties :
#
#
# Convention : Reuss Voigt Hill
#
# Bulk Modulus (GPa) = 70.73986 79.43345 75.08665
# Shear Modulus (GPa) = 32.39584 35.77296 34.08440
#
# Velocity S-wave (km/s) = 3.95965 4.16092 4.06153
# Velocity P-wave (km/s) = 7.42574 7.84400 7.63773
#
# Compressibility (1/GPa) = 0.01413630
#
# Stress axis : x y z
#
# Youngs Moduli (GPa) = 76.39406 83.96730 117.90216
#
# Poissons Ratio (x) = 0.39494 0.34734
# Poissons Ratio (y) = 0.35932 0.23850
# Poissons Ratio (z) = 0.22506 0.16986
#
# Static dielectric constant tensor:
#      x y z
#    x 3.546910 0.000000 0.171850 
#    y 0.000000 4.550370 0.000000 
#    z 0.171850 0.000000 3.694040 
# 
# 
# High freq. dielectric constant tensor:
#      x y z
#    x 1.813050 0.000000 0.003430 
#    y 0.000000 1.816590 0.000000 
#    z 0.003430 0.000000 1.820260 
# 
# From -- ./inp_files/29085.got.cif
#   From: 2010.06.25/outbox.cif.g09.slc.cpg/sg15_15_cif.got.tgz:29085.got - 2010.06.28 07:06:18.
