data_PCOD8149327
_publ_section_title
;
Structure prediction by ZEFSAII (Michael W. Deem and Ramdas Pophale) SiO2 
 PCOD8149327
Probable space group: C 2/C
;
_chemical_formula_sum "Si O2"
_cell_formula_units_Z 32
_cell_length_a 16.700538
_cell_length_b 11.824358
_cell_length_c 12.773225
_cell_angle_alpha 90.000000
_cell_angle_beta 33.851281
_cell_angle_gamma 90.000000
_cell_volume 1405.058181
_symmetry_space_group_name_H-M "C 2/C"
_symmetry_group_IT_number 15
_symmetry_cell_setting 'monoclinic'
loop_
_space_group_symop_operation_xyz
x,y,z
-x,y,1/2-z
-x,-y,-z
x,-y,1/2+z
1/2+x,1/2+y,z
1/2-x,1/2+y,1/2-z
1/2-x,1/2-y,-z
1/2+x,1/2-y,1/2+z
loop_
_atom_site_type_symbol
_atom_site_label
_atom_site_fract_x
_atom_site_fract_y
_atom_site_fract_z
Si Si1 0.222189 0.998641 0.459693
Si Si2 0.098809 0.788782 0.996666
Si Si3 0.500000 0.906178 0.750000
Si Si4 0.000000 0.164033 0.250000
Si Si5 0.147979 0.186255 0.890812
O O1 0.147776 0.120887 0.529935
O O2 0.384134 0.011500 0.322892
O O3 0.132652 0.920195 0.638669
O O4 0.215697 0.934292 0.353447
O O5 0.225653 0.773204 0.773885
O O6 0.074799 0.669998 0.080452
O O7 0.953566 0.831422 0.099188
O O8 0.949373 0.237060 0.406092
#
# Coordination Sequence:
#
# PCOD8149327 Si02
#       5
#     8   8   4   4   8
#     4  10  23  45  67  99 140 184 220 285 344 404
#     4  12  23  44  71 107 136 179 234 286 338 407
#     4  12  25  40  73 106 140 172 243 282 333 406
#     4   8  23  46  65  96 134 192 213 276 349 406
#     4  10  25  43  70 101 140 181 229 280 348 404
#
# _framework density 22.774858999999999
#
# number of rings (size 3 to 8) (size 9 to 14) (size 15 to 20)
#    1.500    0.000    2.500    2.250    3.500    2.000 
#    4.500    0.000    0.000    0.000    0.000    0.000 
#    0.000    0.000    0.000    0.000    0.000    0.000 
#
# Total GULP energy -198272.654848 kJ/mol
# GULP energy per Si atom -12392.040928 kJ/mol
# Density = 2.272302 g / cm^3
# Si number density = 22.774859 Si / 1000 Ang^3
#
#
#
# Elastic Constant Matrix: (Units=GPa)
#
#
# Indices 1 2 3 4 5 6 
#
# 1 128.6682 26.7717 45.4555 0.0000 -35.6969 0.0000
# 2 26.7717 33.3751 24.7673 0.0000 -10.5129 0.0000
# 3 45.4555 24.7673 110.1221 0.0000 -1.8783 0.0000
# 4 0.0000 0.0000 0.0000 26.2167 0.0000 -0.5551
# 5 -35.6969 -10.5129 -1.8783 0.0000 54.4109 0.0000
# 6 0.0000 0.0000 0.0000 -0.5551 0.0000 37.1221
#
#
#
# Elastic Compliance Matrix: (Units=1/GPa)
#
#
# Indices 1 2 3 4 5 6 
#
# 1 0.011966 -0.004646 -0.003778 0.000000 0.006822 0.000000
# 2 -0.004646 0.040366 -0.007084 0.000000 0.004507 0.000000
# 3 -0.003778 -0.007084 0.012175 0.000000 -0.003427 0.000000
# 4 0.000000 0.000000 0.000000 0.038156 0.000000 0.000571
# 5 0.006822 0.004507 -0.003427 0.000000 0.023607 0.000000
# 6 0.000000 0.000000 0.000000 0.000571 0.000000 0.026947
#
#
# Mechanical properties :
#
#
# Convention : Reuss Voigt Hill
#
# Bulk Modulus (GPa) = 29.85871 51.79492 40.82682
# Shear Modulus (GPa) = 25.58914 35.22803 30.40858
#
# Velocity S-wave (km/s) = 3.35561 3.93720 3.65798
# Velocity P-wave (km/s) = 5.30587 6.59244 5.98383
#
# Compressibility (1/GPa) = 0.03349106
#
# Stress axis : x y z
#
# Youngs Moduli (GPa) = 83.56996 24.77353 82.13509
#
# Poissons Ratio (x) = 0.11510 0.31031
# Poissons Ratio (y) = 0.38826 0.58184
# Poissons Ratio (z) = 0.31573 0.17549
#
# Static dielectric constant tensor:
#      x y z
#    x 3.879800 0.000000 -0.064820 
#    y 0.000000 3.661770 0.000000 
#    z -0.064820 0.000000 4.203790 
# 
# 
# High freq. dielectric constant tensor:
#      x y z
#    x 1.890230 0.000000 -0.010590 
#    y 0.000000 1.870150 0.000000 
#    z -0.010590 0.000000 1.908250 
# 
# From -- ./inp_files/37401.got.cif
#   From: 2010.06.25/outbox.cif.g09.slc.cpg/sg15_19_cif.got.tgz:37401.got - 2010.06.28 07:06:18.
