data_PCOD8149609
_publ_section_title
;
Structure prediction by ZEFSAII (Michael W. Deem and Ramdas Pophale) SiO2 
 PCOD8149609
Probable space group: C 2/C
;
_chemical_formula_sum "Si O2"
_cell_formula_units_Z 44
_cell_length_a 16.125633
_cell_length_b 12.199914
_cell_length_c 26.173968
_cell_angle_alpha 90.000000
_cell_angle_beta 21.415280
_cell_angle_gamma 90.000000
_cell_volume 1880.116508
_symmetry_space_group_name_H-M "C 2/C"
_symmetry_group_IT_number 15
_symmetry_cell_setting 'monoclinic'
loop_
_space_group_symop_operation_xyz
x,y,z
-x,y,1/2-z
-x,-y,-z
x,-y,1/2+z
1/2+x,1/2+y,z
1/2-x,1/2+y,1/2-z
1/2-x,1/2-y,-z
1/2+x,1/2-y,1/2+z
loop_
_atom_site_type_symbol
_atom_site_label
_atom_site_fract_x
_atom_site_fract_y
_atom_site_fract_z
Si Si1 0.513465 0.619554 0.013226
Si Si2 0.522696 0.819481 0.535860
Si Si3 0.500000 0.292316 0.250000
Si Si4 0.536188 0.666865 0.289421
Si Si5 0.523940 0.867469 0.824431
Si Si6 0.337279 0.107447 0.919308
O O1 0.293960 0.647281 0.172735
O O2 0.500000 0.500000 0.000000
O O3 0.527871 0.697964 0.955986
O O4 0.727305 0.633812 0.927416
O O5 0.289598 0.883864 0.655335
O O6 0.573150 0.826596 0.566608
O O7 0.767533 0.861545 0.370879
O O8 0.580237 0.212022 0.158486
O O9 0.500000 0.654908 0.250000
O O10 0.514224 0.791964 0.324099
O O11 0.345236 0.598364 0.429755
O O12 0.467942 0.993154 0.843159
#
# Coordination Sequence:
#
# PCOD8149609 Si02
#       6
#     8   8   4   8   8   8
#     4  11  22  39  69 101 131 177 234 282 330 415
#     4  11  22  42  65  98 137 174 227 285 352 399
#     4  10  24  38  68  94 136 182 224 276 344 422
#     4  11  23  42  69  95 134 178 232 283 344 408
#     4  11  23  41  63 101 136 177 231 282 348 409
#     4  11  23  40  66  99 131 178 227 284 338 407
#
# _framework density 23.402805000000001
#
# number of rings (size 3 to 8) (size 9 to 14) (size 15 to 20)
#    0.000    1.091    3.636    3.818    1.273    0.000 
#    1.636    2.727    0.000    0.000    0.000    0.000 
#    0.000    0.000    0.000    0.000    0.000    0.000 
#
# Total GULP energy -272591.557617 kJ/mol
# GULP energy per Si atom -12390.525346 kJ/mol
# Density = 2.334954 g / cm^3
# Si number density = 23.402805 Si / 1000 Ang^3
#
#
#
# Elastic Constant Matrix: (Units=GPa)
#
#
# Indices 1 2 3 4 5 6 
#
# 1 115.6282 10.7726 32.8572 0.0050 1.4334 -0.0011
# 2 10.7726 34.5117 2.0189 -0.0180 1.8836 0.0073
# 3 32.8572 2.0189 120.5394 -0.0397 -30.8898 0.0197
# 4 0.0050 -0.0180 -0.0397 23.2025 0.0083 0.5296
# 5 1.4334 1.8836 -30.8898 0.0083 44.7183 -0.0019
# 6 -0.0011 0.0073 0.0197 0.5296 -0.0019 21.8431
#
#
#
# Elastic Compliance Matrix: (Units=1/GPa)
#
#
# Indices 1 2 3 4 5 6 
#
# 1 0.009866 -0.002754 -0.003274 -0.000009 -0.002462 0.000004
# 2 -0.002754 0.029905 -0.000061 0.000024 -0.001214 -0.000011
# 3 -0.003274 -0.000061 0.011200 0.000017 0.007844 -0.000010
# 4 -0.000009 0.000024 0.000017 0.043123 0.000003 -0.001046
# 5 -0.002462 -0.001214 0.007844 0.000003 0.027910 -0.000004
# 6 0.000004 -0.000011 -0.000010 -0.001046 -0.000004 0.045806
#
#
# Mechanical properties :
#
#
# Convention : Reuss Voigt Hill
#
# Bulk Modulus (GPa) = 25.77816 40.21962 32.99889
# Shear Modulus (GPa) = 25.91762 32.95481 29.43622
#
# Velocity S-wave (km/s) = 3.33146 3.75661 3.55041
# Velocity P-wave (km/s) = 5.08302 6.00327 5.56221
#
# Compressibility (1/GPa) = 0.03879252
#
# Stress axis : x y z
#
# Youngs Moduli (GPa) = 101.35991 33.43915 89.28883
#
# Poissons Ratio (x) = 0.09208 0.29233
# Poissons Ratio (y) = 0.27911 0.00547
# Poissons Ratio (z) = 0.33186 0.00205
#
# Static dielectric constant tensor:
#      x y z
#    x 4.021150 0.000040 -0.198210 
#    y 0.000040 3.799770 0.000130 
#    z -0.198210 0.000130 4.953100 
# 
# 
# High freq. dielectric constant tensor:
#      x y z
#    x 1.926600 0.000000 -0.006650 
#    y 0.000000 1.883620 0.000010 
#    z -0.006650 0.000010 1.962990 
# 
# From -- ./inp_files/299138.got.cif
#   From: 2010.06.25/outbox.cif.g09.slc.cpg/sg15_150_cif.got.tgz:299138.got - 2010.06.28 07:06:18.
