data_PCOD8149310
_publ_section_title
;
Structure prediction by ZEFSAII (Michael W. Deem and Ramdas Pophale) SiO2 
 PCOD8149310
Probable space group: C 2/C
;
_chemical_formula_sum "Si O2"
_cell_formula_units_Z 44
_cell_length_a 15.923119
_cell_length_b 25.096410
_cell_length_c 4.952181
_cell_angle_alpha 90.000000
_cell_angle_beta 99.267637
_cell_angle_gamma 90.000000
_cell_volume 1953.124877
_symmetry_space_group_name_H-M "C 2/C"
_symmetry_group_IT_number 15
_symmetry_cell_setting 'monoclinic'
loop_
_space_group_symop_operation_xyz
x,y,z
-x,y,1/2-z
-x,-y,-z
x,-y,1/2+z
1/2+x,1/2+y,z
1/2-x,1/2+y,1/2-z
1/2-x,1/2-y,-z
1/2+x,1/2-y,1/2+z
loop_
_atom_site_type_symbol
_atom_site_label
_atom_site_fract_x
_atom_site_fract_y
_atom_site_fract_z
Si Si1 0.641165 0.035109 0.380539
Si Si2 0.928132 0.710849 0.523130
Si Si3 0.000000 0.617212 0.250000
Si Si4 0.558565 0.358303 0.524657
Si Si5 0.845082 0.754132 0.951189
Si Si6 0.164649 0.963129 0.499080
O O1 0.576368 0.082502 0.413078
O O2 0.737318 0.056508 0.459147
O O3 0.624235 0.985787 0.570769
O O4 0.961556 0.651630 0.477940
O O5 0.909601 0.736878 0.223558
O O6 0.000000 0.741415 0.750000
O O7 0.848652 0.714455 0.690056
O O8 0.500000 0.369888 0.750000
O O9 0.630641 0.313955 0.625700
O O10 0.605758 0.411829 0.460609
O O11 0.500000 0.338291 0.250000
O O12 0.750000 0.750000 0.000000
O O13 0.142958 0.000732 0.240629
#
# Coordination Sequence:
#
# PCOD8149310 Si02
#       6
#     8   8   4   8   8   8
#     4  10  24  43  67  99 142 179 227 282 338 419
#     4  12  25  44  68 100 139 182 225 287 331 420
#     4  12  26  40  76 102 142 186 230 276 354 420
#     4  12  26  43  71 100 132 178 228 288 344 410
#     4  12  27  48  69 100 141 186 233 287 351 415
#     4  10  23  45  66  98 134 173 223 286 347 410
#
# _framework density 22.528003999999999
#
# number of rings (size 3 to 8) (size 9 to 14) (size 15 to 20)
#    0.000    0.727    1.818    4.909    5.091    2.182 
#    6.545    0.000    0.000    0.000    0.000    0.000 
#    0.000    0.000    0.000    0.000    0.000    0.000 
#
# Total GULP energy -272792.002774 kJ/mol
# GULP energy per Si atom -12399.636490 kJ/mol
# Density = 2.247673 g / cm^3
# Si number density = 22.528004 Si / 1000 Ang^3
#
#
#
# Elastic Constant Matrix: (Units=GPa)
#
#
# Indices 1 2 3 4 5 6 
#
# 1 115.8001 79.7638 13.1492 0.0000 -19.5222 0.0000
# 2 79.7638 113.9937 29.0858 0.0000 -10.6880 0.0000
# 3 13.1492 29.0858 112.6988 0.0000 -19.0088 0.0000
# 4 0.0000 0.0000 0.0000 12.1942 0.0000 -9.5677
# 5 -19.5222 -10.6880 -19.0088 0.0000 40.5197 0.0000
# 6 0.0000 0.0000 0.0000 -9.5677 0.0000 74.5737
#
#
#
# Elastic Compliance Matrix: (Units=1/GPa)
#
#
# Indices 1 2 3 4 5 6 
#
# 1 0.018243 -0.012731 0.002251 0.000000 0.006487 0.000000
# 2 -0.012731 0.018355 -0.003768 0.000000 -0.003060 0.000000
# 3 0.002251 -0.003768 0.010423 0.000000 0.004981 0.000000
# 4 0.000000 0.000000 0.000000 0.091185 0.000000 0.011699
# 5 0.006487 -0.003060 0.004981 0.000000 0.029334 0.000000
# 6 0.000000 0.000000 0.000000 0.011699 0.000000 0.014911
#
#
# Mechanical properties :
#
#
# Convention : Reuss Voigt Hill
#
# Bulk Modulus (GPa) = 53.97841 65.16557 59.57199
# Shear Modulus (GPa) = 23.02860 40.15710 31.59285
#
# Velocity S-wave (km/s) = 3.20069 4.22660 3.74890
# Velocity P-wave (km/s) = 6.13774 7.26692 6.72606
#
# Compressibility (1/GPa) = 0.01852593
#
# Stress axis : x y z
#
# Youngs Moduli (GPa) = 54.81600 54.48071 95.94155
#
# Poissons Ratio (x) = 0.69360 -0.21600
# Poissons Ratio (y) = 0.69787 0.36149
# Poissons Ratio (z) = -0.12341 0.20527
#
# Static dielectric constant tensor:
#      x y z
#    x 4.200070 0.000000 -0.195200 
#    y 0.000000 3.892620 0.000000 
#    z -0.195200 0.000000 4.195000 
# 
# 
# High freq. dielectric constant tensor:
#      x y z
#    x 1.899980 0.000000 -0.012740 
#    y 0.000000 1.878890 0.000000 
#    z -0.012740 0.000000 1.903810 
# 
# From -- ./inp_files/7631.got.cif
#   From: 2010.06.25/outbox.cif.g09.slc.cpg/sg15_4_cif.got.tgz:7631.got - 2010.06.28 07:06:18.
