data_PCOD8149578
_publ_section_title
;
Structure prediction by ZEFSAII (Michael W. Deem and Ramdas Pophale) SiO2 
 PCOD8149578
Probable space group: C 2/C
;
_chemical_formula_sum "Si O2"
_cell_formula_units_Z 56
_cell_length_a 27.251550
_cell_length_b 8.957057
_cell_length_c 12.523957
_cell_angle_alpha 90.000000
_cell_angle_beta 62.790304
_cell_angle_gamma 90.000000
_cell_volume 2718.726097
_symmetry_space_group_name_H-M "C 2/C"
_symmetry_group_IT_number 15
_symmetry_cell_setting 'monoclinic'
loop_
_space_group_symop_operation_xyz
x,y,z
-x,y,1/2-z
-x,-y,-z
x,-y,1/2+z
1/2+x,1/2+y,z
1/2-x,1/2+y,1/2-z
1/2-x,1/2-y,-z
1/2+x,1/2-y,1/2+z
loop_
_atom_site_type_symbol
_atom_site_label
_atom_site_fract_x
_atom_site_fract_y
_atom_site_fract_z
Si Si1 0.840986 0.908280 0.363781
Si Si2 0.840810 0.590003 0.454241
Si Si3 0.542159 0.502926 0.308204
Si Si4 0.042114 0.498147 0.107920
Si Si5 0.749713 0.503008 0.893233
Si Si6 0.250159 0.813069 0.199846
Si Si7 0.000246 0.249946 0.501553
O O1 0.858275 0.740394 0.376117
O O2 0.808869 0.987681 0.491633
O O3 0.800740 0.903565 0.301897
O O4 0.895335 0.006584 0.294061
O O5 0.895186 0.491474 0.415399
O O6 0.799900 0.488927 0.425443
O O7 0.808851 0.633899 0.593997
O O8 0.500000 0.503640 0.250000
O O9 0.536929 0.649721 0.386208
O O10 0.536391 0.356058 0.387113
O O11 0.000000 0.493497 0.250000
O O12 0.036706 0.649554 0.044555
O O13 0.036453 0.355733 0.036762
O O14 0.758530 0.362229 0.806294
O O15 0.750114 0.654810 0.825575
#
# Coordination Sequence:
#
# PCOD8149578 Si02
#       7
#     8   8   8   8   8   8   8
#     4   9  19  36  58  82 113 155 193 234 293 351
#     4   9  19  36  58  82 113 155 193 234 293 351
#     4  11  22  40  60  85 119 154 196 248 295 353
#     4  11  22  40  60  85 119 154 196 248 295 353
#     4   9  19  37  58  84 114 153 193 237 295 343
#     4   9  19  35  56  82 114 147 193 237 280 353
#     4  10  24  38  58  88 114 154 200 238 304 358
#
# _framework density 20.597881999999998
#
# number of rings (size 3 to 8) (size 9 to 14) (size 15 to 20)
#    0.000    2.286    0.000    4.286    0.000    9.143 
#    0.000    5.714    0.000    0.000    0.000    0.000 
#    0.000    0.000    0.000    0.000    0.000    0.000 
#
# Total GULP energy -347159.972349 kJ/mol
# GULP energy per Si atom -12398.570441 kJ/mol
# Density = 2.055100 g / cm^3
# Si number density = 20.597882 Si / 1000 Ang^3
#
#
#
# Elastic Constant Matrix: (Units=GPa)
#
#
# Indices 1 2 3 4 5 6 
#
# 1 114.1066 36.3791 54.0919 0.0000 -18.3993 0.0000
# 2 36.3791 80.4640 42.3182 0.0000 2.2406 0.0000
# 3 54.0919 42.3182 95.8543 0.0000 3.5873 0.0000
# 4 0.0000 0.0000 0.0000 36.3433 0.0000 6.9915
# 5 -18.3993 2.2406 3.5873 0.0000 32.0259 0.0000
# 6 0.0000 0.0000 0.0000 6.9915 0.0000 24.3240
#
#
#
# Elastic Compliance Matrix: (Units=1/GPa)
#
#
# Indices 1 2 3 4 5 6 
#
# 1 0.014749 -0.003085 -0.007317 0.000000 0.009509 0.000000
# 2 -0.003085 0.016835 -0.005605 0.000000 -0.002322 0.000000
# 3 -0.007317 -0.005605 0.017251 0.000000 -0.005744 0.000000
# 4 0.000000 0.000000 0.000000 0.029126 0.000000 -0.008372
# 5 0.009509 -0.002322 -0.005744 0.000000 0.037494 0.000000
# 6 0.000000 0.000000 0.000000 -0.008372 0.000000 0.043518
#
#
# Mechanical properties :
#
#
# Convention : Reuss Voigt Hill
#
# Bulk Modulus (GPa) = 59.44640 61.77815 60.61228
# Shear Modulus (GPa) = 25.43322 29.04768 27.24045
#
# Velocity S-wave (km/s) = 3.51771 3.75937 3.64055
# Velocity P-wave (km/s) = 6.73960 6.99296 6.86744
#
# Compressibility (1/GPa) = 0.01682188
#
# Stress axis : x y z
#
# Youngs Moduli (GPa) = 67.80027 59.40032 57.96774
#
# Poissons Ratio (x) = 0.18324 0.42416
# Poissons Ratio (y) = 0.20916 0.32489
# Poissons Ratio (z) = 0.49610 0.33292
#
# Static dielectric constant tensor:
#      x y z
#    x 3.603380 0.000000 0.126250 
#    y 0.000000 3.622590 0.000000 
#    z 0.126250 0.000000 3.774770 
# 
# 
# High freq. dielectric constant tensor:
#      x y z
#    x 1.802790 0.000000 0.004580 
#    y 0.000000 1.797120 0.000000 
#    z 0.004580 0.000000 1.811370 
# 
# From -- ./inp_files/125846.got.cif
#   From: 2010.06.25/outbox.cif.g09.slc.cpg/sg15_63_cif.got.tgz:125846.got - 2010.06.28 07:06:18.
