data_PCOD8149469
_publ_section_title
;
Structure prediction by ZEFSAII (Michael W. Deem and Ramdas Pophale) SiO2 
 PCOD8149469
Probable space group: C 2/C
;
_chemical_formula_sum "Si O2"
_cell_formula_units_Z 36
_cell_length_a 7.516708
_cell_length_b 18.846604
_cell_length_c 9.859377
_cell_angle_alpha 90.000000
_cell_angle_beta 99.644936
_cell_angle_gamma 90.000000
_cell_volume 1376.980153
_symmetry_space_group_name_H-M "C 2/C"
_symmetry_group_IT_number 15
_symmetry_cell_setting 'monoclinic'
loop_
_space_group_symop_operation_xyz
x,y,z
-x,y,1/2-z
-x,-y,-z
x,-y,1/2+z
1/2+x,1/2+y,z
1/2-x,1/2+y,1/2-z
1/2-x,1/2-y,-z
1/2+x,1/2-y,1/2+z
loop_
_atom_site_type_symbol
_atom_site_label
_atom_site_fract_x
_atom_site_fract_y
_atom_site_fract_z
Si Si1 0.593081 0.943825 0.116435
Si Si2 0.221898 0.337959 0.916002
Si Si3 0.500000 0.280011 0.250000
Si Si4 0.639317 0.679176 0.514490
Si Si5 0.201831 0.928110 0.811957
O O1 0.500000 0.926473 0.250000
O O2 0.773146 0.987948 0.176740
O O3 0.653436 0.871437 0.049313
O O4 0.500000 0.000000 0.000000
O O5 0.174264 0.393401 0.789455
O O6 0.113812 0.265472 0.873784
O O7 0.433383 0.319567 0.935886
O O8 0.366608 0.329340 0.322353
O O9 0.750000 0.750000 0.500000
O O10 0.747041 0.612953 0.460849
O O11 0.000000 0.911453 0.750000
#
# Coordination Sequence:
#
# PCOD8149469 Si02
#       5
#     8   8   4   8   8
#     4  12  25  46  76 112 151 198 248 313 383 457
#     4  11  24  47  73 106 148 197 251 316 377 451
#     4  12  24  48  70 104 152 192 256 316 368 448
#     4  11  25  44  75 100 142 201 251 309 382 442
#     4  10  23  46  73 102 147 194 247 313 379 447
#
# _framework density 26.144166999999999
#
# number of rings (size 3 to 8) (size 9 to 14) (size 15 to 20)
#    0.000    0.889    4.444    2.000    0.000    5.333 
#    2.000    0.000    0.000    0.000    0.000    0.000 
#    0.000    0.000    0.000    0.000    0.000    0.000 
#
# Total GULP energy -223010.076422 kJ/mol
# GULP energy per Si atom -12389.448690 kJ/mol
# Density = 2.608466 g / cm^3
# Si number density = 26.144167 Si / 1000 Ang^3
#
#
#
# Elastic Constant Matrix: (Units=GPa)
#
#
# Indices 1 2 3 4 5 6 
#
# 1 93.7378 36.6588 45.5740 0.0000 -28.0577 0.0000
# 2 36.6588 113.7112 59.0036 0.0000 -30.2848 0.0000
# 3 45.5740 59.0036 190.7949 0.0000 -62.5826 0.0000
# 4 0.0000 0.0000 0.0000 55.4893 0.0000 -13.4882
# 5 -28.0577 -30.2848 -62.5826 0.0000 49.0605 0.0000
# 6 0.0000 0.0000 0.0000 -13.4882 0.0000 39.2961
#
#
#
# Elastic Compliance Matrix: (Units=1/GPa)
#
#
# Indices 1 2 3 4 5 6 
#
# 1 0.013613 -0.002616 -0.000720 0.000000 0.005252 0.000000
# 2 -0.002616 0.011459 -0.001873 0.000000 0.003188 0.000000
# 3 -0.000720 -0.001873 0.009419 0.000000 0.010448 0.000000
# 4 0.000000 0.000000 0.000000 0.019662 0.000000 0.006749
# 5 0.005252 0.003188 0.010448 0.000000 0.038682 0.000000
# 6 0.000000 0.000000 0.000000 0.006749 0.000000 0.027764
#
#
# Mechanical properties :
#
#
# Convention : Reuss Voigt Hill
#
# Bulk Modulus (GPa) = 41.54080 75.63518 58.58799
# Shear Modulus (GPa) = 35.96033 45.90299 40.93166
#
# Velocity S-wave (km/s) = 3.71275 4.19473 3.96108
# Velocity P-wave (km/s) = 5.85687 7.24250 6.58623
#
# Compressibility (1/GPa) = 0.02407272
#
# Stress axis : x y z
#
# Youngs Moduli (GPa) = 73.45747 87.27088 106.16465
#
# Poissons Ratio (x) = 0.22834 0.07642
# Poissons Ratio (y) = 0.19219 0.19885
# Poissons Ratio (z) = 0.05288 0.16346
#
# Static dielectric constant tensor:
#      x y z
#    x 4.823400 0.000000 -0.343790 
#    y 0.000000 4.854700 0.000000 
#    z -0.343790 0.000000 5.737400 
# 
# 
# High freq. dielectric constant tensor:
#      x y z
#    x 2.055600 0.000000 -0.009050 
#    y 0.000000 2.040020 0.000000 
#    z -0.009050 0.000000 2.068670 
# 
# From -- ./inp_files/23188.got.cif
#   From: 2010.06.25/outbox.cif.g09.slc.cpg/sg15_12_cif.got.tgz:23188.got - 2010.06.28 07:06:18.
