data_PCOD8149349
_publ_section_title
;
Structure prediction by ZEFSAII (Michael W. Deem and Ramdas Pophale) SiO2 
 PCOD8149349
Probable space group: C 2/C
;
_chemical_formula_sum "Si O2"
_cell_formula_units_Z 40
_cell_length_a 10.136956
_cell_length_b 20.720531
_cell_length_c 15.897221
_cell_angle_alpha 90.000000
_cell_angle_beta 33.718968
_cell_angle_gamma 90.000000
_cell_volume 1853.601562
_symmetry_space_group_name_H-M "C 2/C"
_symmetry_group_IT_number 15
_symmetry_cell_setting 'monoclinic'
loop_
_space_group_symop_operation_xyz
x,y,z
-x,y,1/2-z
-x,-y,-z
x,-y,1/2+z
1/2+x,1/2+y,z
1/2-x,1/2+y,1/2-z
1/2-x,1/2-y,-z
1/2+x,1/2-y,1/2+z
loop_
_atom_site_type_symbol
_atom_site_label
_atom_site_fract_x
_atom_site_fract_y
_atom_site_fract_z
Si Si1 0.252868 0.696366 0.781346
Si Si2 0.000000 0.423760 0.750000
Si Si3 0.155426 0.630384 0.588602
Si Si4 0.500000 0.589756 0.750000
Si Si5 0.868583 0.497539 0.980284
Si Si6 0.402300 0.679155 0.051083
O O1 0.299688 0.633683 0.813250
O O2 0.462460 0.703245 0.603129
O O3 0.257585 0.761723 0.832074
O O4 0.993231 0.686790 0.878585
O O5 0.024493 0.467244 0.821422
O O6 0.764547 0.380755 0.882148
O O7 0.204133 0.570255 0.502514
O O8 0.409750 0.658830 0.477778
O O9 0.000000 0.606056 0.750000
O O10 0.628711 0.544445 0.613702
O O11 0.000000 0.500000 0.000000
#
# Coordination Sequence:
#
# PCOD8149349 Si02
#       6
#     8   4   8   4   8   8
#     4  11  24  45  66 100 136 180 235 284 348 411
#     4  12  27  46  70 104 139 184 232 284 360 410
#     4  10  23  45  69  98 138 182 228 285 348 415
#     4  12  25  42  70 102 137 176 232 290 342 416
#     4  12  26  45  71 104 140 181 230 289 349 420
#     4  11  26  43  70  97 138 186 230 291 346 412
#
# _framework density 21.579611
#
# number of rings (size 3 to 8) (size 9 to 14) (size 15 to 20)
#    0.000    0.800    5.000    1.200    5.600    2.400 
#    0.000    0.000    0.000    0.000    0.000    0.000 
#    0.000    0.000    0.000    0.000    0.000    0.000 
#
# Total GULP energy -248089.753418 kJ/mol
# GULP energy per Si atom -12404.487671 kJ/mol
# Density = 2.153049 g / cm^3
# Si number density = 21.579611 Si / 1000 Ang^3
#
#
#
# Elastic Constant Matrix: (Units=GPa)
#
#
# Indices 1 2 3 4 5 6 
#
# 1 94.7739 25.2903 34.7800 0.0012 7.3058 -0.0019
# 2 25.2903 102.8025 48.1080 0.0070 18.9179 -0.0001
# 3 34.7800 48.1080 98.9035 -0.0071 9.4894 -0.0119
# 4 0.0012 0.0070 -0.0071 38.9892 0.0099 6.0819
# 5 7.3058 18.9179 9.4894 0.0099 39.7456 0.0029
# 6 -0.0019 -0.0001 -0.0119 6.0819 0.0029 32.6169
#
#
#
# Elastic Compliance Matrix: (Units=1/GPa)
#
#
# Indices 1 2 3 4 5 6 
#
# 1 0.012271 -0.001144 -0.003679 -0.000001 -0.000833 0.000000
# 2 -0.001144 0.013596 -0.005742 -0.000002 -0.004890 -0.000001
# 3 -0.003679 -0.005742 0.014195 0.000003 0.000020 0.000004
# 4 -0.000001 -0.000002 0.000003 0.026416 -0.000006 -0.004926
# 5 -0.000833 -0.004890 0.000020 -0.000006 0.027636 -0.000001
# 6 0.000000 -0.000001 0.000004 -0.004926 -0.000001 0.031577
#
#
# Mechanical properties :
#
#
# Convention : Reuss Voigt Hill
#
# Bulk Modulus (GPa) = 52.81735 56.98184 54.89960
# Shear Modulus (GPa) = 32.65167 34.82378 33.73772
#
# Velocity S-wave (km/s) = 3.89405 4.02149 3.95828
# Velocity P-wave (km/s) = 6.68931 6.93007 6.81076
#
# Compressibility (1/GPa) = 0.01893317
#
# Stress axis : x y z
#
# Youngs Moduli (GPa) = 81.49340 73.55341 70.44515
#
# Poissons Ratio (x) = 0.08414 0.25915
# Poissons Ratio (y) = 0.09322 0.40447
# Poissons Ratio (z) = 0.29980 0.42232
#
# Static dielectric constant tensor:
#      x y z
#    x 3.970080 -0.000020 0.082350 
#    y -0.000020 3.836800 0.000040 
#    z 0.082350 0.000040 3.792390 
# 
# 
# High freq. dielectric constant tensor:
#      x y z
#    x 1.855430 0.000000 0.002580 
#    y 0.000000 1.857090 0.000000 
#    z 0.002580 0.000000 1.844350 
# 
# From -- ./inp_files/51682.got.cif
#   From: 2010.06.25/outbox.cif.g09.slc.cpg/sg15_26_cif.got.tgz:51682.got - 2010.06.28 07:06:18.
