data_PCOD8149930
_publ_section_title
;
Structure prediction by ZEFSAII (Michael W. Deem and Ramdas Pophale) SiO2 
 PCOD8149930
Probable space group: C 2/C
;
_chemical_formula_sum "Si O2"
_cell_formula_units_Z 44
_cell_length_a 11.709981
_cell_length_b 12.528503
_cell_length_c 13.275204
_cell_angle_alpha 90.000000
_cell_angle_beta 80.614949
_cell_angle_gamma 90.000000
_cell_volume 1921.516754
_symmetry_space_group_name_H-M "C 2/C"
_symmetry_group_IT_number 15
_symmetry_cell_setting 'monoclinic'
loop_
_space_group_symop_operation_xyz
x,y,z
-x,y,1/2-z
-x,-y,-z
x,-y,1/2+z
1/2+x,1/2+y,z
1/2-x,1/2+y,1/2-z
1/2-x,1/2-y,-z
1/2+x,1/2-y,1/2+z
loop_
_atom_site_type_symbol
_atom_site_label
_atom_site_fract_x
_atom_site_fract_y
_atom_site_fract_z
Si Si1 0.432966 0.693222 0.475111
Si Si2 0.110621 0.457274 0.670017
Si Si3 0.500000 0.622726 0.250000
Si Si4 0.645619 0.725775 0.590084
Si Si5 0.713489 0.522457 0.707350
Si Si6 0.199142 0.411462 0.989581
O O1 0.481668 0.693683 0.353358
O O2 0.535759 0.682615 0.541904
O O3 0.335120 0.600808 0.505496
O O4 0.368428 0.802381 0.503293
O O5 0.120940 0.329281 0.661956
O O6 0.214345 0.529114 0.700919
O O7 0.117434 0.502432 0.556488
O O8 0.000000 0.489455 0.750000
O O9 0.395314 0.545210 0.244116
O O10 0.750000 0.750000 0.500000
O O11 0.680524 0.636076 0.665405
O O12 0.797464 0.454428 0.623736
#
# Coordination Sequence:
#
# PCOD8149930 Si02
#       6
#     8   8   4   8   8   8
#     4  10  24  45  75 102 142 189 237 282 362 415
#     4  12  28  44  71 104 143 186 238 293 361 418
#     4  10  24  42  74 108 136 186 238 298 336 430
#     4  12  26  45  74 101 143 191 237 291 351 434
#     4  11  26  45  70 104 143 183 239 294 352 420
#     4  10  24  47  68 103 144 186 225 304 348 422
#
# _framework density 22.898575999999998
#
# number of rings (size 3 to 8) (size 9 to 14) (size 15 to 20)
#    0.000    1.091    1.818    2.182    7.636    7.273 
#    0.000    0.000    0.000    0.000    0.000    0.000 
#    0.000    0.000    0.000    0.000    0.000    0.000 
#
# Total GULP energy -272676.090189 kJ/mol
# GULP energy per Si atom -12394.367736 kJ/mol
# Density = 2.284646 g / cm^3
# Si number density = 22.898576 Si / 1000 Ang^3
#
#
#
# Elastic Constant Matrix: (Units=GPa)
#
#
# Indices 1 2 3 4 5 6 
#
# 1 80.7374 -5.6986 26.3209 0.0000 -0.6116 0.0000
# 2 -5.6986 68.8487 20.2663 0.0000 -0.7501 0.0000
# 3 26.3209 20.2663 76.0562 0.0000 -19.9924 0.0000
# 4 0.0000 0.0000 0.0000 351.6284 0.0000 5.5041
# 5 -0.6116 -0.7501 -19.9924 0.0000 50.3339 0.0000
# 6 0.0000 0.0000 0.0000 5.5041 0.0000 34.4413
#
#
#
# Elastic Compliance Matrix: (Units=1/GPa)
#
#
# Indices 1 2 3 4 5 6 
#
# 1 0.014724 0.003122 -0.006552 0.000000 -0.002377 0.000000
# 2 0.003122 0.016539 -0.006044 0.000000 -0.002116 0.000000
# 3 -0.006552 -0.006044 0.018961 0.000000 0.007362 0.000000
# 4 0.000000 0.000000 0.000000 0.002851 0.000000 -0.000456
# 5 -0.002377 -0.002116 0.007362 0.000000 0.022731 0.000000
# 6 0.000000 0.000000 0.000000 -0.000456 0.000000 0.029108
#
#
# Mechanical properties :
#
#
# Convention : Reuss Voigt Hill
#
# Bulk Modulus (GPa) = 31.97361 34.15773 33.06567
# Shear Modulus (GPa) = 37.23343 99.59764 68.41554
#
# Velocity S-wave (km/s) = 4.03676 6.60224 5.47197
# Velocity P-wave (km/s) = 5.97668 8.54803 7.37528
#
# Compressibility (1/GPa) = 0.03127580
#
# Stress axis : x y z
#
# Youngs Moduli (GPa) = 67.91526 60.46348 52.73914
#
# Poissons Ratio (x) = -0.18874 0.34556
# Poissons Ratio (y) = -0.21200 0.31873
# Poissons Ratio (z) = 0.44500 0.36542
#
# Static dielectric constant tensor:
#      x y z
#    x 4.430530 0.000000 -0.188300 
#    y 0.000000 4.123930 0.000000 
#    z -0.188300 0.000000 4.126460 
# 
# 
# High freq. dielectric constant tensor:
#      x y z
#    x 1.917020 0.000000 -0.014560 
#    y 0.000000 1.902300 0.000000 
#    z -0.014560 0.000000 1.918430 
# 
# From -- ./inp_files/142250.got.cif
#   From: 2010.06.25/outbox.cif.g09.slc.cpg/sg15_72_cif.got.tgz:142250.got - 2010.06.28 07:06:18.
