data_PCOD8149890
_publ_section_title
;
Structure prediction by ZEFSAII (Michael W. Deem and Ramdas Pophale) SiO2 
 PCOD8149890
Probable space group: C 2/C
;
_chemical_formula_sum "Si O2"
_cell_formula_units_Z 64
_cell_length_a 15.033227
_cell_length_b 22.658451
_cell_length_c 14.958502
_cell_angle_alpha 90.000000
_cell_angle_beta 37.548843
_cell_angle_gamma 90.000000
_cell_volume 3105.272541
_symmetry_space_group_name_H-M "C 2/C"
_symmetry_group_IT_number 15
_symmetry_cell_setting 'monoclinic'
loop_
_space_group_symop_operation_xyz
x,y,z
-x,y,1/2-z
-x,-y,-z
x,-y,1/2+z
1/2+x,1/2+y,z
1/2-x,1/2+y,1/2-z
1/2-x,1/2-y,-z
1/2+x,1/2-y,1/2+z
loop_
_atom_site_type_symbol
_atom_site_label
_atom_site_fract_x
_atom_site_fract_y
_atom_site_fract_z
Si Si1 0.448998 0.883578 0.195491
Si Si2 0.646628 0.146096 0.089250
Si Si3 0.463833 0.195025 0.505367
Si Si4 0.744243 0.302331 0.832657
Si Si5 0.154373 0.074026 0.344604
Si Si6 0.872621 0.527606 0.044140
Si Si7 0.164357 0.044980 0.948052
Si Si8 0.166252 0.040046 0.599326
O O1 0.500000 0.854410 0.250000
O O2 0.282131 0.905030 0.332212
O O3 0.464947 0.839852 0.098284
O O4 0.553428 0.940509 0.099613
O O5 0.500000 0.119307 0.250000
O O6 0.625094 0.161544 0.002263
O O7 0.693643 0.202248 0.114406
O O8 0.768402 0.095998 0.003059
O O9 0.382908 0.256542 0.587027
O O10 0.627693 0.207899 0.341673
O O11 0.676583 0.367709 0.884699
O O12 0.279013 0.077318 0.169648
O O13 0.991675 0.076082 0.436145
O O14 0.181187 0.012755 0.373850
O O15 0.763249 0.473245 0.109443
O O16 0.000000 0.500000 0.000000
O O17 0.178132 0.021628 0.037529
O O18 0.000000 0.056672 0.750000
#
# Coordination Sequence:
#
# PCOD8149890 Si02
#       8
#     8   8   8   8   8   8   8   8
#     4  12  25  42  68  97 131 178 226 275 333 406
#     4  10  24  42  68  99 134 173 221 273 340 409
#     4  11  26  45  69  97 129 177 231 281 335 397
#     4  11  24  45  70  96 131 175 225 282 337 400
#     4  11  23  41  64  96 135 171 217 272 342 393
#     4  12  23  38  64  95 135 176 215 271 332 406
#     4  11  24  39  63  98 135 174 215 269 337 405
#     4  12  24  38  61 101 138 175 218 270 335 411
#
# _framework density 20.610108
#
# number of rings (size 3 to 8) (size 9 to 14) (size 15 to 20)
#    0.000    0.750    6.250    1.125    5.250    1.000 
#    0.000    0.625    2.750    0.000    0.000    0.000 
#    0.000    0.000    0.000    0.000    0.000    0.000 
#
# Total GULP energy -396674.085181 kJ/mol
# GULP energy per Si atom -12396.065162 kJ/mol
# Density = 2.056320 g / cm^3
# Si number density = 20.610108 Si / 1000 Ang^3
#
#
#
# Elastic Constant Matrix: (Units=GPa)
#
#
# Indices 1 2 3 4 5 6 
#
# 1 128.8157 47.2659 67.0991 -0.0025 -2.1678 0.0035
# 2 47.2659 77.6224 49.2283 0.0020 -2.1630 -0.0017
# 3 67.0991 49.2283 121.6298 -0.0070 -9.8033 -0.0083
# 4 -0.0025 0.0020 -0.0070 28.7901 -0.0015 -4.3588
# 5 -2.1678 -2.1630 -9.8033 -0.0015 42.4671 0.0014
# 6 0.0035 -0.0017 -0.0083 -4.3588 0.0014 28.1946
#
#
#
# Elastic Compliance Matrix: (Units=1/GPa)
#
#
# Indices 1 2 3 4 5 6 
#
# 1 0.011816 -0.004095 -0.004921 0.000000 -0.000741 -0.000003
# 2 -0.004095 0.018774 -0.005379 -0.000003 -0.000495 0.000000
# 3 -0.004921 -0.005379 0.013319 0.000004 0.002549 0.000005
# 4 0.000000 -0.000003 0.000004 0.035567 0.000002 0.005498
# 5 -0.000741 -0.000495 0.002549 0.000002 0.024073 0.000000
# 6 -0.000003 0.000000 0.000005 0.005498 0.000000 0.036318
#
#
# Mechanical properties :
#
#
# Convention : Reuss Voigt Hill
#
# Bulk Modulus (GPa) = 66.14253 72.80607 69.47430
# Shear Modulus (GPa) = 28.78555 30.85535 29.82045
#
# Velocity S-wave (km/s) = 3.74126 3.87343 3.80792
# Velocity P-wave (km/s) = 7.12914 7.44357 7.28805
#
# Compressibility (1/GPa) = 0.01511887
#
# Stress axis : x y z
#
# Youngs Moduli (GPa) = 84.62758 53.26433 75.07931
#
# Poissons Ratio (x) = 0.21812 0.36947
# Poissons Ratio (y) = 0.34655 0.40389
# Poissons Ratio (z) = 0.41646 0.28653
#
# Static dielectric constant tensor:
#      x y z
#    x 3.825370 -0.000010 -0.018320 
#    y -0.000010 3.448200 0.000030 
#    z -0.018320 0.000030 3.915500 
# 
# 
# High freq. dielectric constant tensor:
#      x y z
#    x 1.816470 0.000000 -0.005670 
#    y 0.000000 1.776440 0.000000 
#    z -0.005670 0.000000 1.821220 
# 
# From -- ./inp_files/156795.got.cif
#   From: 2010.06.25/outbox.cif.g09.slc.cpg/sg15_79_cif.got.tgz:156795.got - 2010.06.28 07:06:18.
