data_PCOD8149710
_publ_section_title
;
Structure prediction by ZEFSAII (Michael W. Deem and Ramdas Pophale) SiO2 
 PCOD8149710
Probable space group: C 2/C
;
_chemical_formula_sum "Si O2"
_cell_formula_units_Z 36
_cell_length_a 22.741622
_cell_length_b 8.029276
_cell_length_c 19.428484
_cell_angle_alpha 90.000000
_cell_angle_beta 155.350845
_cell_angle_gamma 90.000000
_cell_volume 1479.571620
_symmetry_space_group_name_H-M "C 2/C"
_symmetry_group_IT_number 15
_symmetry_cell_setting 'monoclinic'
loop_
_space_group_symop_operation_xyz
x,y,z
-x,y,1/2-z
-x,-y,-z
x,-y,1/2+z
1/2+x,1/2+y,z
1/2-x,1/2+y,1/2-z
1/2-x,1/2-y,-z
1/2+x,1/2-y,1/2+z
loop_
_atom_site_type_symbol
_atom_site_label
_atom_site_fract_x
_atom_site_fract_y
_atom_site_fract_z
Si Si1 0.672347 0.345243 0.554838
Si Si2 0.112621 0.225927 0.505324
Si Si3 0.959682 0.320815 0.926216
Si Si4 0.000000 0.877527 0.250000
Si Si5 0.334093 0.657695 0.148276
O O1 0.654673 0.542096 0.526586
O O2 0.839776 0.317295 0.739453
O O3 0.596841 0.268895 0.541694
O O4 0.600622 0.268651 0.408481
O O5 0.102382 0.217916 0.576309
O O6 0.227968 0.360976 0.600986
O O7 0.963853 0.273055 0.311753
O O8 0.000000 0.500000 0.000000
O O9 0.893021 0.982559 0.184713
O O10 0.250000 0.750000 0.000000
#
# Coordination Sequence:
#
# PCOD8149710 Si02
#       5
#     8   8   8   4   8
#     4  11  24  45  66  95 136 175 226 275 335 395
#     4  11  23  40  68  97 130 171 219 280 328 391
#     4  12  26  43  67  97 134 177 227 272 336 398
#     4  10  24  40  72  98 142 176 220 276 344 400
#     4  11  18  37  65  99 128 164 219 265 330 394
#
# _framework density 24.331368999999999
#
# number of rings (size 3 to 8) (size 9 to 14) (size 15 to 20)
#    0.000    0.889    4.444    4.667    0.000    6.222 
#    0.000    0.000    0.000    0.000    0.000    0.000 
#    0.000    0.000    0.000    0.000    0.000    0.000 
#
# Total GULP energy -223093.208735 kJ/mol
# GULP energy per Si atom -12394.067152 kJ/mol
# Density = 2.427599 g / cm^3
# Si number density = 24.331369 Si / 1000 Ang^3
#
#
#
# Elastic Constant Matrix: (Units=GPa)
#
#
# Indices 1 2 3 4 5 6 
#
# 1 100.2079 11.1206 23.6573 0.0000 10.8402 0.0000
# 2 11.1206 25.9044 16.2112 0.0000 2.3472 0.0000
# 3 23.6573 16.2112 177.3972 0.0000 -7.4657 0.0000
# 4 0.0000 0.0000 0.0000 25.2574 0.0000 -5.2009
# 5 10.8402 2.3472 -7.4657 0.0000 51.8401 0.0000
# 6 0.0000 0.0000 0.0000 -5.2009 0.0000 30.0517
#
#
#
# Elastic Compliance Matrix: (Units=1/GPa)
#
#
# Indices 1 2 3 4 5 6 
#
# 1 0.010927 -0.003724 -0.001213 0.000000 -0.002291 0.000000
# 2 -0.003724 0.042515 -0.003458 0.000000 -0.001644 0.000000
# 3 -0.001213 -0.003458 0.006170 0.000000 0.001299 0.000000
# 4 0.000000 0.000000 0.000000 0.041055 0.000000 0.007105
# 5 -0.002291 -0.001644 0.001299 0.000000 0.020031 0.000000
# 6 0.000000 0.000000 0.000000 0.007105 0.000000 0.034506
#
#
# Mechanical properties :
#
#
# Convention : Reuss Voigt Hill
#
# Bulk Modulus (GPa) = 23.35284 45.05421 34.20352
# Shear Modulus (GPa) = 26.84321 38.26452 32.55387
#
# Velocity S-wave (km/s) = 3.32510 3.96996 3.66175
# Velocity P-wave (km/s) = 4.93563 6.29056 5.65383
#
# Compressibility (1/GPa) = 0.04282135
#
# Stress axis : x y z
#
# Youngs Moduli (GPa) = 91.51826 23.52111 162.08738
#
# Poissons Ratio (x) = 0.08759 0.19666
# Poissons Ratio (y) = 0.34081 0.56046
# Poissons Ratio (z) = 0.11104 0.08133
#
# Static dielectric constant tensor:
#      x y z
#    x 4.955580 0.000000 -0.194090 
#    y 0.000000 3.924770 0.000000 
#    z -0.194090 0.000000 5.267130 
# 
# 
# High freq. dielectric constant tensor:
#      x y z
#    x 1.976170 0.000000 -0.007190 
#    y 0.000000 1.916820 0.000000 
#    z -0.007190 0.000000 1.998450 
# 
# From -- ./inp_files/59734.got.cif
#   From: 2010.06.25/outbox.cif.g09.slc.cpg/sg15_30_cif.got.tgz:59734.got - 2010.06.28 07:06:18.
