data_PCOD8149725
_publ_section_title
;
Structure prediction by ZEFSAII (Michael W. Deem and Ramdas Pophale) SiO2 
 PCOD8149725
Probable space group: C 2/C
;
_chemical_formula_sum "Si O2"
_cell_formula_units_Z 48
_cell_length_a 16.241349
_cell_length_b 8.796453
_cell_length_c 29.761094
_cell_angle_alpha 90.000000
_cell_angle_beta 34.132889
_cell_angle_gamma 90.000000
_cell_volume 2385.777051
_symmetry_space_group_name_H-M "C 2/C"
_symmetry_group_IT_number 15
_symmetry_cell_setting 'monoclinic'
loop_
_space_group_symop_operation_xyz
x,y,z
-x,y,1/2-z
-x,-y,-z
x,-y,1/2+z
1/2+x,1/2+y,z
1/2-x,1/2+y,1/2-z
1/2-x,1/2-y,-z
1/2+x,1/2-y,1/2+z
loop_
_atom_site_type_symbol
_atom_site_label
_atom_site_fract_x
_atom_site_fract_y
_atom_site_fract_z
Si Si1 0.366661 0.757452 0.654244
Si Si2 0.162757 0.165112 0.076860
Si Si3 0.859694 0.170420 0.078505
Si Si4 0.310232 0.159168 0.515051
Si Si5 0.313943 0.326197 0.083501
Si Si6 0.648893 0.590011 0.317164
O O1 0.515667 0.840193 0.571980
O O2 0.271609 0.728226 0.652492
O O3 0.387265 0.589616 0.666187
O O4 0.287035 0.873994 0.723387
O O5 0.181711 0.262523 0.113511
O O6 0.993025 0.167126 0.140440
O O7 0.250000 0.250000 0.000000
O O8 0.235127 0.002401 0.049999
O O9 0.809214 0.164295 0.153333
O O10 0.833744 0.005766 0.068840
O O11 0.771232 0.274558 0.082618
O O12 0.026071 0.233913 0.003801
O O13 0.250000 0.250000 0.500000
#
# Coordination Sequence:
#
# PCOD8149725 Si02
#       6
#     8   8   8   8   8   8
#     4  10  24  41  63  89 130 165 203 255 321 367
#     4  12  23  37  66  96 120 157 217 261 300 366
#     4   9  19  40  63  84 125 164 207 244 313 371
#     4  11  22  41  66  93 119 163 214 260 300 369
#     4   9  19  38  62  91 120 165 202 254 302 373
#     4  11  23  42  62  92 126 167 202 259 315 368
#
# _framework density 20.119230999999999
#
# number of rings (size 3 to 8) (size 9 to 14) (size 15 to 20)
#    0.000    1.667    3.333    2.000    2.333    4.667 
#    0.000    0.833    0.000    0.000    0.000    0.000 
#    0.000    0.000    0.000    0.000    0.000    0.000 
#
# Total GULP energy -297369.001519 kJ/mol
# GULP energy per Si atom -12390.375063 kJ/mol
# Density = 2.007344 g / cm^3
# Si number density = 20.119231 Si / 1000 Ang^3
#
#
#
# Elastic Constant Matrix: (Units=GPa)
#
#
# Indices 1 2 3 4 5 6 
#
# 1 127.9110 41.1363 21.4467 -0.0024 7.4278 0.0014
# 2 41.1363 57.7477 17.8881 -0.0021 5.9779 0.0005
# 3 21.4467 17.8881 76.5298 -0.0003 9.7462 -0.0020
# 4 -0.0024 -0.0021 -0.0003 29.6206 -0.0011 3.2040
# 5 7.4278 5.9779 9.7462 -0.0011 25.2254 -0.0017
# 6 0.0014 0.0005 -0.0020 3.2040 -0.0017 43.8299
#
#
#
# Elastic Compliance Matrix: (Units=1/GPa)
#
#
# Indices 1 2 3 4 5 6 
#
# 1 0.010274 -0.006862 -0.001154 0.000000 -0.000953 0.000000
# 2 -0.006862 0.023453 -0.003269 0.000001 -0.002274 0.000000
# 3 -0.001154 -0.003269 0.014737 0.000000 -0.004580 0.000001
# 4 0.000000 0.000001 0.000000 0.034029 0.000001 -0.002488
# 5 -0.000953 -0.002274 -0.004580 0.000001 0.042232 0.000001
# 6 0.000000 0.000000 0.000001 -0.002488 0.000001 0.022997
#
#
# Mechanical properties :
#
#
# Convention : Reuss Voigt Hill
#
# Bulk Modulus (GPa) = 38.61931 47.01452 42.81692
# Shear Modulus (GPa) = 27.94476 31.84968 29.89722
#
# Velocity S-wave (km/s) = 3.73092 3.98307 3.85905
# Velocity P-wave (km/s) = 6.14789 6.67621 6.41749
#
# Compressibility (1/GPa) = 0.02589378
#
# Stress axis : x y z
#
# Youngs Moduli (GPa) = 97.33634 42.63815 67.85417
#
# Poissons Ratio (x) = 0.29260 0.07828
# Poissons Ratio (y) = 0.66796 0.22183
# Poissons Ratio (z) = 0.11230 0.13939
#
# Static dielectric constant tensor:
#      x y z
#    x 3.994660 -0.000040 0.222710 
#    y -0.000040 3.503550 0.000030 
#    z 0.222710 0.000030 3.392290 
# 
# 
# High freq. dielectric constant tensor:
#      x y z
#    x 1.801820 0.000000 0.018790 
#    y 0.000000 1.783740 0.000000 
#    z 0.018790 0.000000 1.762250 
# 
# From -- ./inp_files/209300.got.cif
#   From: 2010.06.25/outbox.cif.g09.slc.cpg/sg15_105_cif.got.tgz:209300.got - 2010.06.28 07:06:18.
