data_PCOD8149199
_publ_section_title
;
Structure prediction by ZEFSAII (Michael W. Deem and Ramdas Pophale) SiO2 
 PCOD8149199
Probable space group: C 2/C
;
_chemical_formula_sum "Si O2"
_cell_formula_units_Z 56
_cell_length_a 13.673338
_cell_length_b 11.446464
_cell_length_c 29.000248
_cell_angle_alpha 90.000000
_cell_angle_beta 30.982647
_cell_angle_gamma 90.000000
_cell_volume 2336.511703
_symmetry_space_group_name_H-M "C 2/C"
_symmetry_group_IT_number 15
_symmetry_cell_setting 'monoclinic'
loop_
_space_group_symop_operation_xyz
x,y,z
-x,y,1/2-z
-x,-y,-z
x,-y,1/2+z
1/2+x,1/2+y,z
1/2-x,1/2+y,1/2-z
1/2-x,1/2-y,-z
1/2+x,1/2-y,1/2+z
loop_
_atom_site_type_symbol
_atom_site_label
_atom_site_fract_x
_atom_site_fract_y
_atom_site_fract_z
Si Si1 0.776071 0.670949 0.330720
Si Si2 0.554259 0.551478 0.882644
Si Si3 0.974407 0.770000 0.484574
Si Si4 0.697156 0.452086 0.595935
Si Si5 0.669171 0.858543 0.297927
Si Si6 0.083332 0.510340 0.410033
Si Si7 0.890432 0.292380 0.340537
O O1 0.663361 0.551046 0.365878
O O2 0.689608 0.733120 0.410940
O O3 0.741374 0.754166 0.301042
O O4 0.000000 0.647318 0.250000
O O5 0.418905 0.631155 0.969441
O O6 0.427611 0.514804 0.890918
O O7 0.705616 0.638516 0.798640
O O8 0.013028 0.644259 0.444684
O O9 0.169045 0.822054 0.426909
O O10 0.757263 0.528020 0.616752
O O11 0.580075 0.345236 0.663963
O O12 0.904101 0.421050 0.489418
O O13 0.459041 0.847063 0.361231
O O14 0.671895 0.982531 0.324225
O O15 0.000000 0.333640 0.250000
#
# Coordination Sequence:
#
# PCOD8149199 Si02
#       7
#     8   8   8   8   8   8   8
#     4  12  30  51  74 112 155 199 254 311 374 444
#     4  12  28  45  76 108 149 200 249 308 377 445
#     4  11  27  52  74 108 154 203 240 312 383 439
#     4  10  23  44  70 106 140 196 246 301 375 438
#     4  12  27  45  77 111 144 197 254 310 371 443
#     4  10  25  46  75 107 148 190 249 316 365 449
#     4  11  23  46  75 106 149 193 251 305 369 453
#
# _framework density 23.967354
#
# number of rings (size 3 to 8) (size 9 to 14) (size 15 to 20)
#    0.000    0.857    2.857    3.000   14.000    2.857 
#    0.000    0.000    0.000    0.000    0.000    0.000 
#    0.000    0.000    0.000    0.000    0.000    0.000 
#
# Total GULP energy -346898.591028 kJ/mol
# GULP energy per Si atom -12389.235394 kJ/mol
# Density = 2.391280 g / cm^3
# Si number density = 23.967354 Si / 1000 Ang^3
#
#
#
# Elastic Constant Matrix: (Units=GPa)
#
#
# Indices 1 2 3 4 5 6 
#
# 1 92.8598 53.0030 39.5946 0.0034 -5.2072 0.0040
# 2 53.0030 90.8968 17.7039 -0.0024 14.8877 -0.0024
# 3 39.5946 17.7039 74.7154 -0.0042 6.9053 -0.0039
# 4 0.0034 -0.0024 -0.0042 30.8058 -0.0006 4.2529
# 5 -5.2072 14.8877 6.9053 -0.0006 37.7520 0.0011
# 6 0.0040 -0.0024 -0.0039 4.2529 0.0011 32.4311
#
#
#
# Elastic Compliance Matrix: (Units=1/GPa)
#
#
# Indices 1 2 3 4 5 6 
#
# 1 0.023227 -0.013257 -0.010118 -0.000004 0.010282 -0.000005
# 2 -0.013257 0.019766 0.003287 0.000003 -0.010225 0.000003
# 3 -0.010118 0.003287 0.018529 0.000003 -0.006081 0.000003
# 4 -0.000004 0.000003 0.000003 0.033060 -0.000002 -0.004335
# 5 0.010282 -0.010225 -0.006081 -0.000002 0.033051 -0.000004
# 6 -0.000005 0.000003 0.000003 -0.004335 -0.000004 0.031403
#
#
# Mechanical properties :
#
#
# Convention : Reuss Voigt Hill
#
# Bulk Modulus (GPa) = 46.84728 53.23058 50.03893
# Shear Modulus (GPa) = 24.23321 30.07581 27.15451
#
# Velocity S-wave (km/s) = 3.18322 3.54625 3.36963
# Velocity P-wave (km/s) = 5.75319 6.24706 6.00520
#
# Compressibility (1/GPa) = 0.02134596
#
# Stress axis : x y z
#
# Youngs Moduli (GPa) = 43.05389 50.59071 53.96921
#
# Poissons Ratio (x) = 0.67070 0.54605
# Poissons Ratio (y) = 0.57078 -0.17739
# Poissons Ratio (z) = 0.43561 -0.16628
#
# Static dielectric constant tensor:
#      x y z
#    x 4.664840 0.000000 -0.095000 
#    y 0.000000 4.147050 0.000000 
#    z -0.095000 0.000000 4.533280 
# 
# 
# High freq. dielectric constant tensor:
#      x y z
#    x 1.972310 0.000000 0.003720 
#    y 0.000000 1.941190 0.000000 
#    z 0.003720 0.000000 1.944860 
# 
# From -- ./inp_files/313705.got.cif
#   From: 2010.06.25/outbox.cif.g09.slc.cpg/sg15_157_cif.got.tgz:313705.got - 2010.06.28 07:06:18.
