data_PCOD8149895
_publ_section_title
;
Structure prediction by ZEFSAII (Michael W. Deem and Ramdas Pophale) SiO2 
 PCOD8149895
Probable space group: C 2/C
;
_chemical_formula_sum "Si O2"
_cell_formula_units_Z 48
_cell_length_a 8.493192
_cell_length_b 16.612106
_cell_length_c 16.558649
_cell_angle_alpha 90.000000
_cell_angle_beta 94.987056
_cell_angle_gamma 90.000000
_cell_volume 2327.412351
_symmetry_space_group_name_H-M "C 2/C"
_symmetry_group_IT_number 15
_symmetry_cell_setting 'monoclinic'
loop_
_space_group_symop_operation_xyz
x,y,z
-x,y,1/2-z
-x,-y,-z
x,-y,1/2+z
1/2+x,1/2+y,z
1/2-x,1/2+y,1/2-z
1/2-x,1/2-y,-z
1/2+x,1/2-y,1/2+z
loop_
_atom_site_type_symbol
_atom_site_label
_atom_site_fract_x
_atom_site_fract_y
_atom_site_fract_z
Si Si1 0.396330 0.578488 0.985367
Si Si2 0.717994 0.846953 0.332427
Si Si3 0.094971 0.449159 0.571983
Si Si4 0.156341 0.185747 0.947619
Si Si5 0.955325 0.291496 0.837049
Si Si6 0.872021 0.601589 0.842070
O O1 0.313860 0.590897 0.894070
O O2 0.520808 0.651478 0.000949
O O3 0.500000 0.500000 0.000000
O O4 0.266982 0.577744 0.049231
O O5 0.785317 0.754988 0.337078
O O6 0.729346 0.881216 0.242267
O O7 0.534188 0.846740 0.351233
O O8 0.021636 0.364850 0.598609
O O9 0.099190 0.505587 0.651686
O O10 0.000000 0.500000 0.500000
O O11 0.274902 0.118060 0.919857
O O12 0.084664 0.225017 0.864183
O O13 0.250000 0.250000 0.000000
O O14 0.000000 0.322521 0.750000
#
# Coordination Sequence:
#
# PCOD8149895 Si02
#       6
#     8   8   8   8   8   8
#     4  11  24  42  65  96 132 174 222 275 331 401
#     4  10  24  42  69  93 134 177 223 270 341 398
#     4  12  25  43  67 100 135 175 226 276 337 400
#     4  11  24  41  69  94 132 173 221 270 330 400
#     4  11  25  44  66  97 136 170 220 275 336 400
#     4  11  22  44  69  96 132 177 217 275 336 405
#
# _framework density 20.623763
#
# number of rings (size 3 to 8) (size 9 to 14) (size 15 to 20)
#    0.000    1.000    5.000    1.000    4.667    1.333 
#    0.000    0.000    0.000    0.000    0.000    0.000 
#    0.000    0.000    0.000    0.000    0.000    0.000 
#
# Total GULP energy -297405.629676 kJ/mol
# GULP energy per Si atom -12391.901237 kJ/mol
# Density = 2.057682 g / cm^3
# Si number density = 20.623763 Si / 1000 Ang^3
#
#
#
# Elastic Constant Matrix: (Units=GPa)
#
#
# Indices 1 2 3 4 5 6 
#
# 1 111.0607 39.2308 37.0804 0.0000 -9.2172 0.0000
# 2 39.2308 113.4969 46.8115 0.0000 4.3379 0.0000
# 3 37.0804 46.8115 77.5910 0.0000 0.4993 0.0000
# 4 0.0000 0.0000 0.0000 41.8189 0.0000 1.7772
# 5 -9.2172 4.3379 0.4993 0.0000 38.8007 0.0000
# 6 0.0000 0.0000 0.0000 1.7772 0.0000 40.5962
#
#
#
# Elastic Compliance Matrix: (Units=1/GPa)
#
#
# Indices 1 2 3 4 5 6 
#
# 1 0.011457 -0.002410 -0.004041 0.000000 0.003043 0.000000
# 2 -0.002410 0.012294 -0.006254 0.000000 -0.001866 0.000000
# 3 -0.004041 -0.006254 0.018595 0.000000 -0.000500 0.000000
# 4 0.000000 0.000000 0.000000 0.023957 0.000000 -0.001049
# 5 0.003043 -0.001866 -0.000500 0.000000 0.026711 0.000000
# 6 0.000000 0.000000 0.000000 -0.001049 0.000000 0.024679
#
#
# Mechanical properties :
#
#
# Convention : Reuss Voigt Hill
#
# Bulk Modulus (GPa) = 59.03931 60.93269 59.98600
# Shear Modulus (GPa) = 33.61375 36.17822 34.89599
#
# Velocity S-wave (km/s) = 4.04153 4.19286 4.11789
# Velocity P-wave (km/s) = 7.10405 7.28348 7.19433
#
# Compressibility (1/GPa) = 0.01693787
#
# Stress axis : x y z
#
# Youngs Moduli (GPa) = 87.28243 81.33756 53.77668
#
# Poissons Ratio (x) = 0.19601 0.21731
# Poissons Ratio (y) = 0.21033 0.33630
# Poissons Ratio (z) = 0.35271 0.50866
#
# Static dielectric constant tensor:
#      x y z
#    x 4.132690 0.000000 -0.249870 
#    y 0.000000 3.923710 0.000000 
#    z -0.249870 0.000000 3.600630 
# 
# 
# High freq. dielectric constant tensor:
#      x y z
#    x 1.818090 0.000000 -0.000030 
#    y 0.000000 1.806560 0.000000 
#    z -0.000030 0.000000 1.802690 
# 
# From -- ./inp_files/134843.got.cif
#   From: 2010.06.25/outbox.cif.g09.slc.cpg/sg15_68_cif.got.tgz:134843.got - 2010.06.28 07:06:18.
