data_PCOD8149197
_publ_section_title
;
Structure prediction by ZEFSAII (Michael W. Deem and Ramdas Pophale) SiO2 
 PCOD8149197
Probable space group: C 2/C
;
_chemical_formula_sum "Si O2"
_cell_formula_units_Z 40
_cell_length_a 10.602694
_cell_length_b 11.139552
_cell_length_c 27.908779
_cell_angle_alpha 90.000000
_cell_angle_beta 148.332232
_cell_angle_gamma 90.000000
_cell_volume 1730.526495
_symmetry_space_group_name_H-M "C 2/C"
_symmetry_group_IT_number 15
_symmetry_cell_setting 'monoclinic'
loop_
_space_group_symop_operation_xyz
x,y,z
-x,y,1/2-z
-x,-y,-z
x,-y,1/2+z
1/2+x,1/2+y,z
1/2-x,1/2+y,1/2-z
1/2-x,1/2-y,-z
1/2+x,1/2-y,1/2+z
loop_
_atom_site_type_symbol
_atom_site_label
_atom_site_fract_x
_atom_site_fract_y
_atom_site_fract_z
Si Si1 0.305793 0.699796 0.149148
Si Si2 0.013651 0.241653 0.393142
Si Si3 0.406607 0.635596 0.537439
Si Si4 0.264509 0.974811 0.701484
Si Si5 0.943907 0.486186 0.863524
O O1 0.500000 0.747860 0.250000
O O2 0.430829 0.674212 0.139302
O O3 0.175600 0.581871 0.129600
O O4 0.121781 0.807871 0.075504
O O5 0.250000 0.250000 0.500000
O O6 0.818403 0.149268 0.351808
O O7 0.896126 0.372318 0.351984
O O8 0.250000 0.750000 0.500000
O O9 0.544259 0.570814 0.626305
O O10 0.231354 0.541363 0.454179
O O11 0.500000 0.022417 0.750000
O O12 0.321885 0.945138 0.775161
#
# Coordination Sequence:
#
# PCOD8149197 Si02
#       5
#     8   8   8   8   8
#     4  11  23  46  72 100 145 193 240 299 366 444
#     4  12  26  46  70 106 147 189 243 305 371 440
#     4  10  23  44  70 104 135 187 237 297 369 438
#     4  12  26  45  72 104 142 185 244 306 363 445
#     4  11  25  45  73 103 142 191 246 296 373 444
#
# _framework density 23.114352
#
# number of rings (size 3 to 8) (size 9 to 14) (size 15 to 20)
#    0.000    0.800    4.000    3.000    5.600    3.200 
#    0.000    0.000    0.000    0.000    0.000    0.000 
#    0.000    0.000    0.000    0.000    0.000    0.000 
#
# Total GULP energy -247816.338792 kJ/mol
# GULP energy per Si atom -12390.816940 kJ/mol
# Density = 2.306174 g / cm^3
# Si number density = 23.114352 Si / 1000 Ang^3
#
#
#
# Elastic Constant Matrix: (Units=GPa)
#
#
# Indices 1 2 3 4 5 6 
#
# 1 61.3768 33.7335 29.4033 0.0000 -5.5348 0.0000
# 2 33.7335 146.4320 55.9482 0.0000 15.4050 0.0000
# 3 29.4033 55.9482 166.6261 0.0000 7.4877 0.0000
# 4 0.0000 0.0000 0.0000 48.4598 0.0000 -1.4052
# 5 -5.5348 15.4050 7.4877 0.0000 37.1914 0.0000
# 6 0.0000 0.0000 0.0000 -1.4052 0.0000 12.4374
#
#
#
# Elastic Compliance Matrix: (Units=1/GPa)
#
#
# Indices 1 2 3 4 5 6 
#
# 1 0.020279 -0.004324 -0.002364 0.000000 0.005285 0.000000
# 2 -0.004324 0.009043 -0.002095 0.000000 -0.003968 0.000000
# 3 -0.002364 -0.002095 0.007164 0.000000 -0.000926 0.000000
# 4 0.000000 0.000000 0.000000 0.020704 0.000000 0.002339
# 5 0.005285 -0.003968 -0.000926 0.000000 0.029504 0.000000
# 6 0.000000 0.000000 0.000000 0.002339 0.000000 0.080667
#
#
# Mechanical properties :
#
#
# Convention : Reuss Voigt Hill
#
# Bulk Modulus (GPa) = 52.85754 68.06719 60.46237
# Shear Modulus (GPa) = 26.14612 36.64104 31.39358
#
# Velocity S-wave (km/s) = 3.36693 3.98579 3.68936
# Velocity P-wave (km/s) = 6.16704 7.11997 6.66057
#
# Compressibility (1/GPa) = 0.01891878
#
# Stress axis : x y z
#
# Youngs Moduli (GPa) = 49.31319 110.58070 139.59297
#
# Poissons Ratio (x) = 0.47819 0.32998
# Poissons Ratio (y) = 0.21325 0.29246
# Poissons Ratio (z) = 0.11657 0.23167
#
# Static dielectric constant tensor:
#      x y z
#    x 3.896530 0.000000 0.403160 
#    y 0.000000 5.298850 0.000000 
#    z 0.403160 0.000000 4.690880 
# 
# 
# High freq. dielectric constant tensor:
#      x y z
#    x 1.876880 0.000000 0.018710 
#    y 0.000000 1.931240 0.000000 
#    z 0.018710 0.000000 1.939500 
# 
# From -- ./inp_files/141723.got.cif
#   From: 2010.06.25/outbox.cif.g09.slc.cpg/sg15_71_cif.got.tgz:141723.got - 2010.06.28 07:06:18.
