data_PCOD8149088
_publ_section_title
;
Structure prediction by ZEFSAII (Michael W. Deem and Ramdas Pophale) SiO2 
 PCOD8149088
Probable space group: C 2/C
;
_chemical_formula_sum "Si O2"
_cell_formula_units_Z 52
_cell_length_a 8.350234
_cell_length_b 19.492416
_cell_length_c 18.468211
_cell_angle_alpha 90.000000
_cell_angle_beta 126.404586
_cell_angle_gamma 90.000000
_cell_volume 2419.368909
_symmetry_space_group_name_H-M "C 2/C"
_symmetry_group_IT_number 15
_symmetry_cell_setting 'monoclinic'
loop_
_space_group_symop_operation_xyz
x,y,z
-x,y,1/2-z
-x,-y,-z
x,-y,1/2+z
1/2+x,1/2+y,z
1/2-x,1/2+y,1/2-z
1/2-x,1/2-y,-z
1/2+x,1/2-y,1/2+z
loop_
_atom_site_type_symbol
_atom_site_label
_atom_site_fract_x
_atom_site_fract_y
_atom_site_fract_z
Si Si1 0.377534 0.355093 0.902800
Si Si2 0.415884 0.000296 0.362743
Si Si3 0.803606 0.613516 0.740277
Si Si4 0.000000 0.417125 0.750000
Si Si5 0.768126 0.953502 0.549598
Si Si6 0.722283 0.288242 0.336545
Si Si7 0.894027 0.890898 0.069339
O O1 0.581155 0.391988 0.930990
O O2 0.372728 0.272457 0.900008
O O3 0.203256 0.374341 0.799594
O O4 0.320292 0.374238 0.969330
O O5 0.254458 0.950095 0.281507
O O6 0.311504 0.054639 0.389201
O O7 0.530263 0.040343 0.331004
O O8 0.578174 0.951642 0.445909
O O9 0.831832 0.680626 0.796265
O O10 0.628624 0.623260 0.635825
O O11 0.000000 0.595632 0.750000
O O12 0.864703 0.028640 0.574269
O O13 0.500000 0.266197 0.250000
O O14 0.715466 0.343457 0.400519
#
# Coordination Sequence:
#
# PCOD8149088 Si02
#       7
#     8   8   8   4   8   8   8
#     4  12  24  42  62 101 129 169 214 272 326 395
#     4  11  23  42  65  99 128 170 210 277 328 391
#     4  11  22  40  68  93 124 169 223 268 315 395
#     4  12  24  38  70  90 134 160 214 268 336 378
#     4  11  24  41  66  96 136 164 218 272 335 384
#     4  10  23  44  66  90 131 177 217 262 327 399
#     4  11  22  42  68  92 125 177 219 260 326 401
#
# _framework density 21.493207999999999
#
# number of rings (size 3 to 8) (size 9 to 14) (size 15 to 20)
#    0.000    0.923    4.615    2.769    0.000    1.846 
#    2.769    3.077    0.000    0.000    0.000    0.000 
#    0.000    0.000    0.000    0.000    0.000    0.000 
#
# Total GULP energy -322218.765799 kJ/mol
# GULP energy per Si atom -12393.029454 kJ/mol
# Density = 2.144429 g / cm^3
# Si number density = 21.493208 Si / 1000 Ang^3
#
#
#
# Elastic Constant Matrix: (Units=GPa)
#
#
# Indices 1 2 3 4 5 6 
#
# 1 86.9697 31.1748 32.2184 0.0000 -13.1334 0.0000
# 2 31.1748 102.0866 22.9847 0.0000 -3.1470 0.0000
# 3 32.2184 22.9847 96.3332 0.0000 -8.9737 0.0000
# 4 0.0000 0.0000 0.0000 27.5552 0.0000 10.2836
# 5 -13.1334 -3.1470 -8.9737 0.0000 31.9044 0.0000
# 6 0.0000 0.0000 0.0000 10.2836 0.0000 31.3039
#
#
#
# Elastic Compliance Matrix: (Units=1/GPa)
#
#
# Indices 1 2 3 4 5 6 
#
# 1 0.014851 -0.003562 -0.003677 0.000000 0.004728 0.000000
# 2 -0.003562 0.011209 -0.001558 0.000000 -0.000799 0.000000
# 3 -0.003677 -0.001558 0.012145 0.000000 0.001749 0.000000
# 4 0.000000 0.000000 0.000000 0.041362 0.000000 -0.013588
# 5 0.004728 -0.000799 0.001749 0.000000 0.033703 0.000000
# 6 0.000000 0.000000 0.000000 -0.013588 0.000000 0.036409
#
#
# Mechanical properties :
#
#
# Convention : Reuss Voigt Hill
#
# Bulk Modulus (GPa) = 48.51263 50.90503 49.70883
# Shear Modulus (GPa) = 28.71232 31.42014 30.06623
#
# Velocity S-wave (km/s) = 3.65893 3.82758 3.74421
# Velocity P-wave (km/s) = 6.36164 6.57795 6.47070
#
# Compressibility (1/GPa) = 0.02061319
#
# Stress axis : x y z
#
# Youngs Moduli (GPa) = 67.33582 89.21135 82.33937
#
# Poissons Ratio (x) = 0.31773 0.30273
# Poissons Ratio (y) = 0.23982 0.12826
# Poissons Ratio (z) = 0.24757 0.13897
#
# Static dielectric constant tensor:
#      x y z
#    x 3.766900 0.000000 -0.111510 
#    y 0.000000 3.803800 0.000000 
#    z -0.111510 0.000000 4.096270 
# 
# 
# High freq. dielectric constant tensor:
#      x y z
#    x 1.834420 0.000000 -0.009300 
#    y 0.000000 1.828670 0.000000 
#    z -0.009300 0.000000 1.860970 
# 
# From -- ./inp_files/192609.got.cif
#   From: 2010.06.25/outbox.cif.g09.slc.cpg/sg15_97_cif.got.tgz:192609.got - 2010.06.28 07:06:18.
