data_PCOD8149098
_publ_section_title
;
Structure prediction by ZEFSAII (Michael W. Deem and Ramdas Pophale) SiO2 
 PCOD8149098
Probable space group: C 2/C
;
_chemical_formula_sum "Si O2"
_cell_formula_units_Z 48
_cell_length_a 6.209076
_cell_length_b 28.049924
_cell_length_c 13.605885
_cell_angle_alpha 90.000000
_cell_angle_beta 67.720850
_cell_angle_gamma 90.000000
_cell_volume 2192.756615
_symmetry_space_group_name_H-M "C 2/C"
_symmetry_group_IT_number 15
_symmetry_cell_setting 'monoclinic'
loop_
_space_group_symop_operation_xyz
x,y,z
-x,y,1/2-z
-x,-y,-z
x,-y,1/2+z
1/2+x,1/2+y,z
1/2-x,1/2+y,1/2-z
1/2-x,1/2-y,-z
1/2+x,1/2-y,1/2+z
loop_
_atom_site_type_symbol
_atom_site_label
_atom_site_fract_x
_atom_site_fract_y
_atom_site_fract_z
Si Si1 0.987533 0.116281 0.950008
Si Si2 0.333308 0.473631 0.365756
Si Si3 0.520240 0.885974 0.631452
Si Si4 0.486385 0.281041 0.457774
Si Si5 0.310773 0.699840 0.364804
Si Si6 0.156041 0.445068 0.008655
O O1 0.938284 0.077175 0.876665
O O2 0.984458 0.168726 0.898633
O O3 0.793534 0.120172 0.067758
O O4 0.229534 0.100717 0.959304
O O5 0.500000 0.493134 0.250000
O O6 0.339696 0.512154 0.454463
O O7 0.059780 0.464134 0.387079
O O8 0.500000 0.895037 0.750000
O O9 0.384087 0.840479 0.612703
O O10 0.434849 0.931510 0.584675
O O11 0.561566 0.298901 0.552929
O O12 0.684397 0.250305 0.370864
O O13 0.250000 0.250000 0.500000
O O14 0.500000 0.691170 0.250000
#
# Coordination Sequence:
#
# PCOD8149098 Si02
#       6
#     8   8   8   8   8   8
#     4  11  22  43  65  91 131 173 218 268 330 398
#     4  10  24  43  64  97 132 171 220 272 330 403
#     4  11  23  37  66 100 127 166 217 281 333 389
#     4  11  23  43  65  91 133 174 212 272 327 389
#     4  11  24  40  62  96 130 169 219 272 331 393
#     4  10  23  44  66  96 130 170 221 272 336 396
#
# _framework density 21.890253999999999
#
# number of rings (size 3 to 8) (size 9 to 14) (size 15 to 20)
#    0.000    1.333    3.333    1.500    2.333    0.667 
#    6.000    0.000    0.000    0.000    0.000    0.000 
#    0.000    0.000    0.000    0.000    0.000    0.000 
#
# Total GULP energy -297389.599543 kJ/mol
# GULP energy per Si atom -12391.233314 kJ/mol
# Density = 2.184043 g / cm^3
# Si number density = 21.890254 Si / 1000 Ang^3
#
#
#
# Elastic Constant Matrix: (Units=GPa)
#
#
# Indices 1 2 3 4 5 6 
#
# 1 93.6485 30.3514 26.7152 0.0000 -14.2022 0.0000
# 2 30.3514 129.4860 5.0256 0.0000 -9.4478 0.0000
# 3 26.7152 5.0256 82.9412 0.0000 -21.1973 0.0000
# 4 0.0000 0.0000 0.0000 24.8121 0.0000 -5.5351
# 5 -14.2022 -9.4478 -21.1973 0.0000 27.1938 0.0000
# 6 0.0000 0.0000 0.0000 -5.5351 0.0000 39.0314
#
#
#
# Elastic Compliance Matrix: (Units=1/GPa)
#
#
# Indices 1 2 3 4 5 6 
#
# 1 0.012953 -0.002667 -0.003145 0.000000 0.003387 0.000000
# 2 -0.002667 0.008478 0.000927 0.000000 0.002275 0.000000
# 3 -0.003145 0.000927 0.015830 0.000000 0.011018 0.000000
# 4 0.000000 0.000000 0.000000 0.041620 0.000000 0.005902
# 5 0.003387 0.002275 0.011018 0.000000 0.047921 0.000000
# 6 0.000000 0.000000 0.000000 0.005902 0.000000 0.026457
#
#
# Mechanical properties :
#
#
# Convention : Reuss Voigt Hill
#
# Bulk Modulus (GPa) = 36.37658 47.80669 42.09164
# Shear Modulus (GPa) = 29.03715 34.47303 31.75509
#
# Velocity S-wave (km/s) = 3.64605 3.97270 3.81287
# Velocity P-wave (km/s) = 5.86333 6.55208 6.21725
#
# Compressibility (1/GPa) = 0.02749021
#
# Stress axis : x y z
#
# Youngs Moduli (GPa) = 77.19931 117.95194 63.17289
#
# Poissons Ratio (x) = 0.31459 0.19869
# Poissons Ratio (y) = 0.20590 -0.05855
# Poissons Ratio (z) = 0.24280 -0.10931
#
# Static dielectric constant tensor:
#      x y z
#    x 4.076330 0.000000 -0.256200 
#    y 0.000000 4.420340 0.000000 
#    z -0.256200 0.000000 3.573980 
# 
# 
# High freq. dielectric constant tensor:
#      x y z
#    x 1.864390 0.000000 -0.019850 
#    y 0.000000 1.887120 0.000000 
#    z -0.019850 0.000000 1.830050 
# 
# From -- ./inp_files/130571.got.cif
#   From: 2010.06.25/outbox.cif.g09.slc.cpg/sg15_66_cif.got.tgz:130571.got - 2010.06.28 07:06:18.
