data_PCOD8149116
_publ_section_title
;
Structure prediction by ZEFSAII (Michael W. Deem and Ramdas Pophale) SiO2 
 PCOD8149116
Probable space group: C 2/C
;
_chemical_formula_sum "Si O2"
_cell_formula_units_Z 60
_cell_length_a 24.933466
_cell_length_b 14.840521
_cell_length_c 8.391410
_cell_angle_alpha 90.000000
_cell_angle_beta 113.974537
_cell_angle_gamma 90.000000
_cell_volume 2837.153190
_symmetry_space_group_name_H-M "C 2/C"
_symmetry_group_IT_number 15
_symmetry_cell_setting 'monoclinic'
loop_
_space_group_symop_operation_xyz
x,y,z
-x,y,1/2-z
-x,-y,-z
x,-y,1/2+z
1/2+x,1/2+y,z
1/2-x,1/2+y,1/2-z
1/2-x,1/2-y,-z
1/2+x,1/2-y,1/2+z
loop_
_atom_site_type_symbol
_atom_site_label
_atom_site_fract_x
_atom_site_fract_y
_atom_site_fract_z
Si Si1 0.547376 0.070526 0.999152
Si Si2 0.858733 0.293573 0.360941
Si Si3 0.305197 0.499917 0.214660
Si Si4 0.870281 0.110644 0.541277
Si Si5 0.000000 0.155654 0.750000
Si Si6 0.983014 0.751132 0.894465
Si Si7 0.376723 0.044417 0.123102
Si Si8 0.274081 0.078306 0.619184
O O1 0.593252 0.094875 0.193458
O O2 0.516576 0.159630 0.906252
O O3 0.500000 0.000000 0.000000
O O4 0.581015 0.034957 0.884900
O O5 0.847516 0.211232 0.469098
O O6 0.913241 0.264347 0.317056
O O7 0.870109 0.384944 0.472206
O O8 0.804331 0.322888 0.179859
O O9 0.356905 0.543335 0.380385
O O10 0.333256 0.418628 0.148861
O O11 0.252322 0.455196 0.246700
O O12 0.278619 0.581199 0.073726
O O13 0.939733 0.099637 0.661377
O O14 0.005547 0.210715 0.591294
O O15 0.000000 0.807028 0.750000
O O16 0.316942 0.000529 0.110986
#
# Coordination Sequence:
#
# PCOD8149116 Si02
#       8
#     8   8   8   8   4   8   8   8
#     4  12  20  29  51  85 128 186 225 255 311 386
#     4  11  22  39  65  95 135 176 230 265 332 404
#     4  10  23  44  67  92 128 166 224 281 345 388
#     4  10  24  46  71  98 126 167 216 286 348 415
#     4  10  24  48  70 100 132 162 222 300 340 406
#     4  11  22  39  59  96 143 180 223 274 324 399
#     4  12  21  34  56  90 132 184 222 263 322 392
#     4  11  20  40  62  93 135 173 215 275 315 398
#
# _framework density 21.147960999999999
#
# number of rings (size 3 to 8) (size 9 to 14) (size 15 to 20)
#    0.000    1.067    4.000    3.600    0.000    1.600 
#    9.600    0.000    0.000    0.000    0.000    0.000 
#    0.000    0.000    0.000    0.000    0.000    0.000 
#
# Total GULP energy -371808.710322 kJ/mol
# GULP energy per Si atom -12393.623677 kJ/mol
# Density = 2.109983 g / cm^3
# Si number density = 21.147961 Si / 1000 Ang^3
#
#
#
# Elastic Constant Matrix: (Units=GPa)
#
#
# Indices 1 2 3 4 5 6 
#
# 1 141.5882 51.4491 66.0911 0.0000 -5.8331 0.0000
# 2 51.4491 64.6634 27.8351 0.0000 -4.1064 0.0000
# 3 66.0911 27.8351 129.0620 0.0000 -9.9810 0.0000
# 4 0.0000 0.0000 0.0000 16.8272 0.0000 8.0083
# 5 -5.8331 -4.1064 -9.9810 0.0000 40.2077 0.0000
# 6 0.0000 0.0000 0.0000 8.0083 0.0000 32.1589
#
#
#
# Elastic Compliance Matrix: (Units=1/GPa)
#
#
# Indices 1 2 3 4 5 6 
#
# 1 0.011883 -0.007540 -0.004471 0.000000 -0.000156 0.000000
# 2 -0.007540 0.021860 -0.000780 0.000000 0.000945 0.000000
# 3 -0.004471 -0.000780 0.010348 0.000000 0.001841 0.000000
# 4 0.000000 0.000000 0.000000 0.067417 0.000000 -0.016788
# 5 -0.000156 0.000945 0.001841 0.000000 0.025402 0.000000
# 6 0.000000 0.000000 0.000000 -0.016788 0.000000 0.035276
#
#
# Mechanical properties :
#
#
# Convention : Reuss Voigt Hill
#
# Bulk Modulus (GPa) = 54.02929 69.56268 61.79599
# Shear Modulus (GPa) = 24.51710 30.50131 27.50920
#
# Velocity S-wave (km/s) = 3.40856 3.80186 3.61057
# Velocity P-wave (km/s) = 6.41052 7.22751 6.83124
#
# Compressibility (1/GPa) = 0.01850848
#
# Stress axis : x y z
#
# Youngs Moduli (GPa) = 84.15242 45.74600 96.63284
#
# Poissons Ratio (x) = 0.34493 0.43206
# Poissons Ratio (y) = 0.63452 0.07540
# Poissons Ratio (z) = 0.37626 0.03570
#
# Static dielectric constant tensor:
#      x y z
#    x 3.968340 0.000000 -0.051780 
#    y 0.000000 3.555090 0.000000 
#    z -0.051780 0.000000 4.287520 
# 
# 
# High freq. dielectric constant tensor:
#      x y z
#    x 1.836310 0.000000 -0.002740 
#    y 0.000000 1.791160 0.000000 
#    z -0.002740 0.000000 1.854690 
# 
# From -- ./inp_files/61966.got.cif
#   From: 2010.06.25/outbox.cif.g09.slc.cpg/sg15_31_cif.got.tgz:61966.got - 2010.06.28 07:06:18.
