data_PCOD8149113
_publ_section_title
;
Structure prediction by ZEFSAII (Michael W. Deem and Ramdas Pophale) SiO2 
 PCOD8149113
Probable space group: C 2/C
;
_chemical_formula_sum "Si O2"
_cell_formula_units_Z 56
_cell_length_a 13.806044
_cell_length_b 15.976160
_cell_length_c 22.267216
_cell_angle_alpha 90.000000
_cell_angle_beta 31.325355
_cell_angle_gamma 90.000000
_cell_volume 2553.436375
_symmetry_space_group_name_H-M "C 2/C"
_symmetry_group_IT_number 15
_symmetry_cell_setting 'monoclinic'
loop_
_space_group_symop_operation_xyz
x,y,z
-x,y,1/2-z
-x,-y,-z
x,-y,1/2+z
1/2+x,1/2+y,z
1/2-x,1/2+y,1/2-z
1/2-x,1/2-y,-z
1/2+x,1/2-y,1/2+z
loop_
_atom_site_type_symbol
_atom_site_label
_atom_site_fract_x
_atom_site_fract_y
_atom_site_fract_z
Si Si1 0.701193 0.098484 0.007078
Si Si2 0.500000 0.146860 0.750000
Si Si3 0.372708 0.813164 0.075143
Si Si4 0.297780 0.851175 0.861373
Si Si5 0.127888 0.503583 0.764254
Si Si6 0.616701 0.550281 0.767952
Si Si7 0.243804 0.216589 0.069942
Si Si8 0.000000 0.917197 0.750000
O O1 0.755828 0.143235 0.040381
O O2 0.533802 0.033619 0.107833
O O3 0.625531 0.161586 0.996084
O O4 0.892397 0.056447 0.884218
O O5 0.319465 0.204998 0.855794
O O6 0.545653 0.089542 0.782710
O O7 0.338229 0.713491 0.099333
O O8 0.215883 0.865256 0.193511
O O9 0.568163 0.825279 0.004542
O O10 0.500000 0.808752 0.750000
O O11 0.305749 0.941545 0.824275
O O12 0.311866 0.524902 0.704357
O O13 0.656201 0.473808 0.701215
O O14 0.095870 0.141397 0.149393
O O15 0.250000 0.250000 0.000000
#
# Coordination Sequence:
#
# PCOD8149113 Si02
#       8
#     8   4   8   8   8   8   8   4
#     4  11  23  44  70 102 142 186 225 301 340 433
#     4  11  24  50  67 106 138 182 243 284 352 431
#     4  12  25  44  69 106 138 187 232 291 362 411
#     4  10  23  44  67 103 139 180 232 292 352 424
#     4  11  25  45  73 101 144 185 238 290 358 419
#     4  12  26  42  75 103 142 182 242 288 353 432
#     4  11  28  46  72  96 143 186 233 296 348 420
#     4  11  26  48  65 106 134 180 239 282 352 425
#
# _framework density 21.931229999999999
#
# number of rings (size 3 to 8) (size 9 to 14) (size 15 to 20)
#    0.000    0.857    3.571    3.000    8.000    2.857 
#    2.571    0.000    0.000    0.000    0.000    0.000 
#    0.000    0.000    0.000    0.000    0.000    0.000 
#
# Total GULP energy -347158.036067 kJ/mol
# GULP energy per Si atom -12398.501288 kJ/mol
# Density = 2.188131 g / cm^3
# Si number density = 21.931230 Si / 1000 Ang^3
#
#
#
# Elastic Constant Matrix: (Units=GPa)
#
#
# Indices 1 2 3 4 5 6 
#
# 1 138.8331 43.7573 37.2550 0.0003 0.6909 0.0026
# 2 43.7573 113.3160 36.8121 0.0074 0.4603 0.0003
# 3 37.2550 36.8121 91.4271 0.0303 6.9001 0.0019
# 4 0.0003 0.0074 0.0303 17.5077 -0.0092 -7.5210
# 5 0.6909 0.4603 6.9001 -0.0092 35.1104 -0.0026
# 6 0.0026 0.0003 0.0019 -7.5210 -0.0026 34.3562
#
#
#
# Elastic Compliance Matrix: (Units=1/GPa)
#
#
# Indices 1 2 3 4 5 6 
#
# 1 0.008681 -0.002526 -0.002548 0.000006 0.000363 0.000001
# 2 -0.002526 0.010904 -0.003405 0.000002 0.000576 0.000001
# 3 -0.002548 -0.003405 0.013540 -0.000026 -0.002566 -0.000006
# 4 0.000006 0.000002 -0.000026 0.063047 0.000023 0.013802
# 5 0.000363 0.000576 -0.002566 0.000023 0.028971 0.000007
# 6 0.000001 0.000001 -0.000006 0.013802 0.000007 0.032128
#
#
# Mechanical properties :
#
#
# Convention : Reuss Voigt Hill
#
# Bulk Modulus (GPa) = 61.84747 64.35833 63.10290
# Shear Modulus (GPa) = 27.83700 32.44498 30.14099
#
# Velocity S-wave (km/s) = 3.56657 3.85046 3.71123
# Velocity P-wave (km/s) = 6.72476 7.01265 6.87022
#
# Compressibility (1/GPa) = 0.01616881
#
# Stress axis : x y z
#
# Youngs Moduli (GPa) = 115.19576 91.70982 73.85374
#
# Poissons Ratio (x) = 0.23166 0.18815
# Poissons Ratio (y) = 0.29098 0.25144
# Poissons Ratio (z) = 0.29348 0.31223
#
# Static dielectric constant tensor:
#      x y z
#    x 4.031720 0.000000 0.039200 
#    y 0.000000 3.980770 0.000020 
#    z 0.039200 0.000020 4.004330 
# 
# 
# High freq. dielectric constant tensor:
#      x y z
#    x 1.868380 0.000000 0.005830 
#    y 0.000000 1.872850 0.000000 
#    z 0.005830 0.000000 1.859470 
# 
# From -- ./inp_files/274499.got.cif
#   From: 2010.06.25/outbox.cif.g09.slc.cpg/sg15_138_cif.got.tgz:274499.got - 2010.06.28 07:06:18.
