data_PCOD8149713
_publ_section_title
;
Structure prediction by ZEFSAII (Michael W. Deem and Ramdas Pophale) SiO2 
 PCOD8149713
Probable space group: C 2/C
;
_chemical_formula_sum "Si O2"
_cell_formula_units_Z 28
_cell_length_a 15.012167
_cell_length_b 14.300804
_cell_length_c 8.852118
_cell_angle_alpha 90.000000
_cell_angle_beta 145.113932
_cell_angle_gamma 90.000000
_cell_volume 1086.942046
_symmetry_space_group_name_H-M "C 2/C"
_symmetry_group_IT_number 15
_symmetry_cell_setting 'monoclinic'
loop_
_space_group_symop_operation_xyz
x,y,z
-x,y,1/2-z
-x,-y,-z
x,-y,1/2+z
1/2+x,1/2+y,z
1/2-x,1/2+y,1/2-z
1/2-x,1/2-y,-z
1/2+x,1/2-y,1/2+z
loop_
_atom_site_type_symbol
_atom_site_label
_atom_site_fract_x
_atom_site_fract_y
_atom_site_fract_z
Si Si1 0.334707 0.468220 0.519037
Si Si2 0.342994 0.909993 0.946562
Si Si3 0.326660 0.297568 0.297643
Si Si4 0.500000 0.248763 0.250000
O O1 0.295968 0.432571 0.632298
O O2 0.193642 0.530238 0.255384
O O3 0.374641 0.376901 0.477882
O O4 0.500000 0.524414 0.750000
O O5 0.352102 0.802500 0.910810
O O6 0.500000 0.940022 0.250000
O O7 0.431390 0.310625 0.292652
O O8 0.143681 0.314776 0.006082
#
# Coordination Sequence:
#
# PCOD8149713 Si02
#       4
#     8   8   8   4
#     4  12  27  46  72 105 144 183 235 287 352 416
#     4  12  27  46  72 105 144 183 235 287 352 416
#     4  11  24  45  74  97 146 180 238 279 357 406
#     4  10  24  40  76 104 132 182 238 288 342 406
#
# _framework density 25.760342000000001
#
# number of rings (size 3 to 8) (size 9 to 14) (size 15 to 20)
#    0.000    0.571    0.000    6.857   12.000    0.000 
#    0.000    0.000    0.000    0.000    0.000    0.000 
#    0.000    0.000    0.000    0.000    0.000    0.000 
#
# Total GULP energy -173592.785982 kJ/mol
# GULP energy per Si atom -12399.484713 kJ/mol
# Density = 2.570171 g / cm^3
# Si number density = 25.760342 Si / 1000 Ang^3
#
#
#
# Elastic Constant Matrix: (Units=GPa)
#
#
# Indices 1 2 3 4 5 6 
#
# 1 118.2543 -1.3591 40.1260 0.0000 18.5657 0.0000
# 2 -1.3591 98.6451 34.2410 0.0000 -2.7228 0.0000
# 3 40.1260 34.2410 125.7324 0.0000 2.7601 0.0000
# 4 0.0000 0.0000 0.0000 12.0701 0.0000 -6.0657
# 5 18.5657 -2.7228 2.7601 0.0000 37.6712 0.0000
# 6 0.0000 0.0000 0.0000 -6.0657 0.0000 30.7886
#
#
#
# Elastic Compliance Matrix: (Units=1/GPa)
#
#
# Indices 1 2 3 4 5 6 
#
# 1 0.010432 0.001249 -0.003564 0.000000 -0.004790 0.000000
# 2 0.001249 0.011386 -0.003509 0.000000 0.000465 0.000000
# 3 -0.003564 -0.003509 0.010030 0.000000 0.000768 0.000000
# 4 0.000000 0.000000 0.000000 0.091954 0.000000 0.018116
# 5 -0.004790 0.000465 0.000768 0.000000 0.028883 0.000000
# 6 0.000000 0.000000 0.000000 0.018116 0.000000 0.036049
#
#
# Mechanical properties :
#
#
# Convention : Reuss Voigt Hill
#
# Bulk Modulus (GPa) = 49.51070 54.29418 51.90244
# Shear Modulus (GPa) = 24.14115 34.08090 29.11103
#
# Velocity S-wave (km/s) = 3.06460 3.64125 3.36530
# Velocity P-wave (km/s) = 5.63772 6.22902 5.94073
#
# Compressibility (1/GPa) = 0.02019766
#
# Stress axis : x y z
#
# Youngs Moduli (GPa) = 95.85778 87.83084 99.70367
#
# Poissons Ratio (x) = -0.10967 0.35536
# Poissons Ratio (y) = -0.11970 0.34989
# Poissons Ratio (z) = 0.34166 0.30823
#
# Static dielectric constant tensor:
#      x y z
#    x 4.860460 0.000000 -0.003340 
#    y 0.000000 4.251870 0.000000 
#    z -0.003340 0.000000 5.119080 
# 
# 
# High freq. dielectric constant tensor:
#      x y z
#    x 2.044680 0.000000 -0.002360 
#    y 0.000000 2.015870 0.000000 
#    z -0.002360 0.000000 2.055150 
# 
# From -- ./inp_files/21560.got.cif
#   From: 2010.06.25/outbox.cif.g09.slc.cpg/sg15_11_cif.got.tgz:21560.got - 2010.06.28 07:06:18.
