data_PCOD8149829
_publ_section_title
;
Structure prediction by ZEFSAII (Michael W. Deem and Ramdas Pophale) SiO2 
 PCOD8149829
Probable space group: C 2/C
;
_chemical_formula_sum "Si O2"
_cell_formula_units_Z 40
_cell_length_a 20.339305
_cell_length_b 6.647436
_cell_length_c 17.812122
_cell_angle_alpha 90.000000
_cell_angle_beta 127.597300
_cell_angle_gamma 90.000000
_cell_volume 1908.119956
_symmetry_space_group_name_H-M "C 2/C"
_symmetry_group_IT_number 15
_symmetry_cell_setting 'monoclinic'
loop_
_space_group_symop_operation_xyz
x,y,z
-x,y,1/2-z
-x,-y,-z
x,-y,1/2+z
1/2+x,1/2+y,z
1/2-x,1/2+y,1/2-z
1/2-x,1/2-y,-z
1/2+x,1/2-y,1/2+z
loop_
_atom_site_type_symbol
_atom_site_label
_atom_site_fract_x
_atom_site_fract_y
_atom_site_fract_z
Si Si1 0.462695 0.847574 0.911205
Si Si2 0.341871 0.480773 0.836985
Si Si3 0.136581 0.241169 0.997932
Si Si4 0.727683 0.967655 0.465070
Si Si5 0.167035 0.384384 0.260659
O O1 0.409551 0.654345 0.902768
O O2 0.406949 0.976681 0.817956
O O3 0.537978 0.750384 0.916017
O O4 0.500000 0.000000 0.000000
O O5 0.346831 0.306563 0.903536
O O6 0.251665 0.581378 0.773046
O O7 0.355677 0.353690 0.768798
O O8 0.184017 0.081353 0.978812
O O9 0.174135 0.454606 0.998248
O O10 0.750000 0.750000 0.500000
O O11 0.676411 0.958064 0.352360
#
# Coordination Sequence:
#
# PCOD8149829 Si02
#       5
#     8   8   8   8   8
#     4  12  25  40  70 102 138 173 228 290 342 396
#     4  11  23  41  68 102 133 178 228 282 338 399
#     4  10  24  42  65  99 132 175 226 273 335 408
#     4  10  25  44  69  92 138 186 219 272 349 410
#     4  11  24  40  68  99 133 176 232 274 340 412
#
# _framework density 20.963044
#
# number of rings (size 3 to 8) (size 9 to 14) (size 15 to 20)
#    0.000    1.200    4.000    0.600    8.400    2.400 
#    0.000    0.000    0.000    0.000    0.000    0.000 
#    0.000    0.000    0.000    0.000    0.000    0.000 
#
# Total GULP energy -247797.727360 kJ/mol
# GULP energy per Si atom -12389.886368 kJ/mol
# Density = 2.091533 g / cm^3
# Si number density = 20.963044 Si / 1000 Ang^3
#
#
#
# Elastic Constant Matrix: (Units=GPa)
#
#
# Indices 1 2 3 4 5 6 
#
# 1 79.5707 32.3695 55.2469 0.0000 25.5860 0.0000
# 2 32.3695 131.4397 69.4620 0.0000 4.0265 0.0001
# 3 55.2469 69.4620 122.6134 0.0000 23.7332 0.0000
# 4 0.0000 0.0000 0.0000 45.6428 0.0000 5.9964
# 5 25.5860 4.0265 23.7332 0.0000 34.0178 0.0000
# 6 0.0000 0.0001 0.0000 5.9964 0.0000 24.6140
#
#
#
# Elastic Compliance Matrix: (Units=1/GPa)
#
#
# Indices 1 2 3 4 5 6 
#
# 1 0.021387 -0.001402 -0.006660 0.000000 -0.011273 0.000000
# 2 -0.001402 0.011319 -0.006619 0.000000 0.004333 0.000000
# 3 -0.006660 -0.006619 0.015937 0.000000 -0.005326 0.000000
# 4 0.000000 0.000000 0.000000 0.022634 0.000000 -0.005514
# 5 -0.011273 0.004333 -0.005326 0.000000 0.041078 0.000000
# 6 0.000000 0.000000 0.000000 -0.005514 0.000000 0.041971
#
#
# Mechanical properties :
#
#
# Convention : Reuss Voigt Hill
#
# Bulk Modulus (GPa) = 51.86582 71.97562 61.92072
# Shear Modulus (GPa) = 26.29992 32.62462 29.46227
#
# Velocity S-wave (km/s) = 3.54585 3.94927 3.75299
# Velocity P-wave (km/s) = 6.44666 7.42998 6.95572
#
# Compressibility (1/GPa) = 0.01928052
#
# Stress axis : x y z
#
# Youngs Moduli (GPa) = 46.75761 88.35061 62.74553
#
# Poissons Ratio (x) = 0.12385 0.41790
# Poissons Ratio (y) = 0.06555 0.41532
# Poissons Ratio (z) = 0.31142 0.58480
#
# Static dielectric constant tensor:
#      x y z
#    x 3.850190 0.000000 0.387900 
#    y 0.000000 4.105580 0.000000 
#    z 0.387900 0.000000 3.642400 
# 
# 
# High freq. dielectric constant tensor:
#      x y z
#    x 1.809580 0.000000 0.015950 
#    y 0.000000 1.841080 0.000000 
#    z 0.015950 0.000000 1.817950 
# 
# From -- ./inp_files/217286.got.cif
#   From: 2010.06.25/outbox.cif.g09.slc.cpg/sg15_109_cif.got.tgz:217286.got - 2010.06.28 07:06:18.
