data_PCOD8149256
_publ_section_title
;
Structure prediction by ZEFSAII (Michael W. Deem and Ramdas Pophale) SiO2 
 PCOD8149256
Probable space group: C 2/C
;
_chemical_formula_sum "Si O2"
_cell_formula_units_Z 36
_cell_length_a 25.377838
_cell_length_b 8.559971
_cell_length_c 14.398883
_cell_angle_alpha 90.000000
_cell_angle_beta 152.534911
_cell_angle_gamma 90.000000
_cell_volume 1442.622185
_symmetry_space_group_name_H-M "C 2/C"
_symmetry_group_IT_number 15
_symmetry_cell_setting 'monoclinic'
loop_
_space_group_symop_operation_xyz
x,y,z
-x,y,1/2-z
-x,-y,-z
x,-y,1/2+z
1/2+x,1/2+y,z
1/2-x,1/2+y,1/2-z
1/2-x,1/2-y,-z
1/2+x,1/2-y,1/2+z
loop_
_atom_site_type_symbol
_atom_site_label
_atom_site_fract_x
_atom_site_fract_y
_atom_site_fract_z
Si Si1 0.500000 0.968299 0.750000
Si Si2 0.666849 0.140839 0.664214
Si Si3 0.875866 0.987061 0.909588
Si Si4 0.614752 0.611893 0.773240
Si Si5 0.639364 0.023401 0.304049
O O1 0.403747 0.871389 0.542165
O O2 0.426317 0.066231 0.712843
O O3 0.679477 0.322363 0.709103
O O4 0.793587 0.068935 0.854813
O O5 0.600772 0.050230 0.644896
O O6 0.888700 0.100024 0.842585
O O7 0.003334 0.960576 0.149405
O O8 0.608200 0.797213 0.778906
O O9 0.723190 0.516981 0.981140
#
# Coordination Sequence:
#
# PCOD8149256 Si02
#       5
#     4   8   8   8   8
#     4  12  24  46  66 106 132 190 232 282 328 440
#     4  12  26  44  72 100 141 183 230 283 346 404
#     4  11  24  44  68 107 140 177 231 282 342 416
#     4  10  23  44  73 101 140 173 239 277 347 406
#     4  11  24  45  75 100 137 187 225 288 344 406
#
# _framework density 24.954559
#
# number of rings (size 3 to 8) (size 9 to 14) (size 15 to 20)
#    0.000    0.889    4.444    2.000    3.111    1.778 
#    0.000    0.000    0.000    2.667    0.000    0.000 
#    0.000    0.000    0.000    0.000    0.000    0.000 
#
# Total GULP energy -223021.479950 kJ/mol
# GULP energy per Si atom -12390.082219 kJ/mol
# Density = 2.489776 g / cm^3
# Si number density = 24.954559 Si / 1000 Ang^3
#
#
#
# Elastic Constant Matrix: (Units=GPa)
#
#
# Indices 1 2 3 4 5 6 
#
# 1 181.7877 39.1674 54.3047 0.0000 12.2308 0.0000
# 2 39.1674 50.0187 31.7720 0.0000 19.1235 0.0000
# 3 54.3047 31.7720 89.7950 0.0000 15.8107 0.0000
# 4 0.0000 0.0000 0.0000 16.2905 0.0000 8.9210
# 5 12.2308 19.1235 15.8107 0.0000 53.5888 0.0000
# 6 0.0000 0.0000 0.0000 8.9210 0.0000 26.2203
#
#
#
# Elastic Compliance Matrix: (Units=1/GPa)
#
#
# Indices 1 2 3 4 5 6 
#
# 1 0.007232 -0.003956 -0.003092 0.000000 0.000674 0.000000
# 2 -0.003956 0.030594 -0.007035 0.000000 -0.007939 0.000000
# 3 -0.003092 -0.007035 0.015747 0.000000 -0.001430 0.000000
# 4 0.000000 0.000000 0.000000 0.075442 0.000000 -0.025668
# 5 0.000674 -0.007939 -0.001430 0.000000 0.021762 0.000000
# 6 0.000000 0.000000 0.000000 -0.025668 0.000000 0.046871
#
#
# Mechanical properties :
#
#
# Convention : Reuss Voigt Hill
#
# Bulk Modulus (GPa) = 39.35890 63.56553 51.46221
# Shear Modulus (GPa) = 21.34165 32.31042 26.82603
#
# Velocity S-wave (km/s) = 2.92759 3.60220 3.28227
# Velocity P-wave (km/s) = 5.21864 6.54438 5.91874
#
# Compressibility (1/GPa) = 0.02540722
#
# Stress axis : x y z
#
# Youngs Moduli (GPa) = 138.27947 32.68587 63.50242
#
# Poissons Ratio (x) = 0.12931 0.19637
# Poissons Ratio (y) = 0.54705 0.44672
# Poissons Ratio (z) = 0.42760 0.22993
#
# Static dielectric constant tensor:
#      x y z
#    x 4.736130 0.000000 0.465760 
#    y 0.000000 4.030210 0.000000 
#    z 0.465760 0.000000 4.683880 
# 
# 
# High freq. dielectric constant tensor:
#      x y z
#    x 2.019500 0.000000 0.024170 
#    y 0.000000 1.949650 0.000000 
#    z 0.024170 0.000000 2.002850 
# 
# From -- ./inp_files/177067.got.cif
#   From: 2010.06.25/outbox.cif.g09.slc.cpg/sg15_89_cif.got.tgz:177067.got - 2010.06.28 07:06:18.
