data_PCOD8149267
_publ_section_title
;
Structure prediction by ZEFSAII (Michael W. Deem and Ramdas Pophale) SiO2 
 PCOD8149267
Probable space group: C 2/C
;
_chemical_formula_sum "Si O2"
_cell_formula_units_Z 44
_cell_length_a 5.385707
_cell_length_b 26.012543
_cell_length_c 15.575173
_cell_angle_alpha 90.000000
_cell_angle_beta 113.974321
_cell_angle_gamma 90.000000
_cell_volume 1993.770584
_symmetry_space_group_name_H-M "C 2/C"
_symmetry_group_IT_number 15
_symmetry_cell_setting 'monoclinic'
loop_
_space_group_symop_operation_xyz
x,y,z
-x,y,1/2-z
-x,-y,-z
x,-y,1/2+z
1/2+x,1/2+y,z
1/2-x,1/2+y,1/2-z
1/2-x,1/2-y,-z
1/2+x,1/2-y,1/2+z
loop_
_atom_site_type_symbol
_atom_site_label
_atom_site_fract_x
_atom_site_fract_y
_atom_site_fract_z
Si Si1 0.079342 0.419263 0.979632
Si Si2 0.903500 0.910609 0.328376
Si Si3 0.784006 0.478417 0.069434
Si Si4 0.419113 0.263448 0.607134
Si Si5 0.035027 0.677150 0.352647
Si Si6 0.500000 0.820656 0.250000
O O1 0.029467 0.471354 0.916003
O O2 0.017033 0.371430 0.911682
O O3 0.367160 0.409138 0.065909
O O4 0.861901 0.427653 0.024528
O O5 0.702054 0.956068 0.331967
O O6 0.766768 0.855115 0.300101
O O7 0.000000 0.929902 0.250000
O O8 0.500000 0.500000 0.000000
O O9 0.250000 0.250000 0.500000
O O10 0.670296 0.296084 0.604607
O O11 0.543071 0.212886 0.669896
O O12 0.219219 0.288077 0.651478
O O13 0.000000 0.659135 0.250000
#
# Coordination Sequence:
#
# PCOD8149267 Si02
#       6
#     8   8   8   8   8   4
#     4  10  23  44  73  99 147 191 232 301 370 449
#     4  11  24  40  70 104 141 182 244 300 369 436
#     4   9  21  45  67 103 140 181 239 288 366 443
#     4  12  28  48  75 104 146 194 248 307 371 430
#     4  12  26  50  71 109 146 189 248 299 367 447
#     4  12  26  44  70 100 146 182 252 302 362 434
#
# _framework density 22.068736999999999
#
# number of rings (size 3 to 8) (size 9 to 14) (size 15 to 20)
#    0.000    1.091    1.818    2.727   12.727    0.000 
#   11.455    0.000    0.000    0.000    0.000    0.000 
#    0.000    0.000    0.000    0.000    0.000    0.000 
#
# Total GULP energy -272552.031765 kJ/mol
# GULP energy per Si atom -12388.728717 kJ/mol
# Density = 2.201851 g / cm^3
# Si number density = 22.068737 Si / 1000 Ang^3
#
#
#
# Elastic Constant Matrix: (Units=GPa)
#
#
# Indices 1 2 3 4 5 6 
#
# 1 130.2476 60.3643 34.8092 0.0000 -18.2356 0.0000
# 2 60.3643 145.0657 83.1009 0.0000 -14.1862 0.0000
# 3 34.8092 83.1009 125.2770 0.0000 -9.8684 0.0000
# 4 0.0000 0.0000 0.0000 39.9817 0.0000 -3.0707
# 5 -18.2356 -14.1862 -9.8684 0.0000 42.0058 0.0000
# 6 0.0000 0.0000 0.0000 -3.0707 0.0000 24.8365
#
#
#
# Elastic Compliance Matrix: (Units=1/GPa)
#
#
# Indices 1 2 3 4 5 6 
#
# 1 0.009864 -0.003833 0.000038 0.000000 0.002996 0.000000
# 2 -0.003833 0.012786 -0.007343 0.000000 0.000929 0.000000
# 3 0.000038 -0.007343 0.012887 0.000000 0.000564 0.000000
# 4 0.000000 0.000000 0.000000 0.025251 0.000000 0.003122
# 5 0.002996 0.000929 0.000564 0.000000 0.025553 0.000000
# 6 0.000000 0.000000 0.000000 0.003122 0.000000 0.040649
#
#
# Mechanical properties :
#
#
# Convention : Reuss Voigt Hill
#
# Bulk Modulus (GPa) = 75.41420 84.12656 79.77038
# Shear Modulus (GPa) = 32.53377 36.18587 34.35982
#
# Velocity S-wave (km/s) = 3.84370 4.05370 3.95010
# Velocity P-wave (km/s) = 7.34475 7.75326 7.55176
#
# Compressibility (1/GPa) = 0.01326010
#
# Stress axis : x y z
#
# Youngs Moduli (GPa) = 101.38342 78.21188 77.59704
#
# Poissons Ratio (x) = 0.29980 -0.00295
# Poissons Ratio (y) = 0.38862 0.56980
# Poissons Ratio (z) = -0.00386 0.57431
#
# Static dielectric constant tensor:
#      x y z
#    x 4.358690 0.000000 -0.357400 
#    y 0.000000 4.469160 0.000000 
#    z -0.357400 0.000000 4.212300 
# 
# 
# High freq. dielectric constant tensor:
#      x y z
#    x 1.882210 0.000000 -0.012870 
#    y 0.000000 1.869610 0.000000 
#    z -0.012870 0.000000 1.876210 
# 
# From -- ./inp_files/129480.got.cif
#   From: 2010.06.25/outbox.cif.g09.slc.cpg/sg15_65_cif.got.tgz:129480.got - 2010.06.28 07:06:18.
