data_PCOD8149173
_publ_section_title
;
Structure prediction by ZEFSAII (Michael W. Deem and Ramdas Pophale) SiO2 
 PCOD8149173
Probable space group: C 2/C
;
_chemical_formula_sum "Si O2"
_cell_formula_units_Z 64
_cell_length_a 16.684659
_cell_length_b 15.719488
_cell_length_c 13.609791
_cell_angle_alpha 90.000000
_cell_angle_beta 125.609317
_cell_angle_gamma 90.000000
_cell_volume 2902.023910
_symmetry_space_group_name_H-M "C 2/C"
_symmetry_group_IT_number 15
_symmetry_cell_setting 'monoclinic'
loop_
_space_group_symop_operation_xyz
x,y,z
-x,y,1/2-z
-x,-y,-z
x,-y,1/2+z
1/2+x,1/2+y,z
1/2-x,1/2+y,1/2-z
1/2-x,1/2-y,-z
1/2+x,1/2-y,1/2+z
loop_
_atom_site_type_symbol
_atom_site_label
_atom_site_fract_x
_atom_site_fract_y
_atom_site_fract_z
Si Si1 0.102092 0.669290 0.127052
Si Si2 0.734998 0.017494 0.153935
Si Si3 0.637662 0.759995 0.446522
Si Si4 0.745802 0.711645 0.106198
Si Si5 0.293625 0.518746 0.402905
Si Si6 0.597948 0.423457 0.868624
Si Si7 0.114920 0.358751 0.076794
Si Si8 0.401260 0.080826 0.713000
O O1 0.150960 0.579164 0.136186
O O2 0.148492 0.706747 0.261589
O O3 0.123071 0.733917 0.053204
O O4 0.985374 0.653391 0.057015
O O5 0.805123 0.996469 0.296373
O O6 0.801771 0.061613 0.120598
O O7 0.682358 0.932379 0.074731
O O8 0.750000 0.750000 0.500000
O O9 0.579664 0.676098 0.371569
O O10 0.596701 0.841216 0.361618
O O11 0.699005 0.618263 0.067634
O O12 0.673961 0.770299 0.119904
O O13 0.750000 0.750000 0.000000
O O14 0.386545 0.472374 0.518261
O O15 0.190830 0.480291 0.370544
O O16 0.500000 0.462367 0.750000
O O17 0.091593 0.384423 0.171537
O O18 0.500000 0.029538 0.750000
#
# Coordination Sequence:
#
# PCOD8149173 Si02
#       8
#     8   8   8   8   8   8   8   8
#     4  11  23  42  72 104 135 176 226 293 352 409
#     4  10  23  44  69 100 144 172 225 290 344 414
#     4  12  21  38  69 102 144 169 213 284 356 407
#     4  11  26  48  64  91 140 188 241 277 330 403
#     4  10  24  45  64  95 138 182 222 283 332 412
#     4  12  26  43  69 101 138 187 228 275 349 416
#     4  11  24  43  73 105 138 181 231 282 349 413
#     4  11  21  40  72 112 139 167 214 288 366 418
#
# _framework density 22.053574999999999
#
# number of rings (size 3 to 8) (size 9 to 14) (size 15 to 20)
#    0.000    1.000    3.750    2.250    3.500    1.000 
#   11.250    0.000    0.000    0.000    0.000    0.000 
#    0.000    0.000    0.000    0.000    0.000    0.000 
#
# Total GULP energy -396798.219623 kJ/mol
# GULP energy per Si atom -12399.944363 kJ/mol
# Density = 2.200338 g / cm^3
# Si number density = 22.053575 Si / 1000 Ang^3
#
#
#
# Elastic Constant Matrix: (Units=GPa)
#
#
# Indices 1 2 3 4 5 6 
#
# 1 47.5450 30.6661 27.3511 0.0000 -3.4805 0.0000
# 2 30.6661 125.6004 40.1155 0.0000 5.8439 0.0000
# 3 27.3511 40.1155 147.7163 0.0000 8.6551 0.0000
# 4 0.0000 0.0000 0.0000 36.5636 0.0000 -1.9063
# 5 -3.4805 5.8439 8.6551 0.0000 34.8033 0.0000
# 6 0.0000 0.0000 0.0000 -1.9063 0.0000 18.2526
#
#
#
# Elastic Compliance Matrix: (Units=1/GPa)
#
#
# Indices 1 2 3 4 5 6 
#
# 1 0.027180 -0.005647 -0.003769 0.000000 0.004604 0.000000
# 2 -0.005647 0.009918 -0.001540 0.000000 -0.001847 0.000000
# 3 -0.003769 -0.001540 0.008009 0.000000 -0.002110 0.000000
# 4 0.000000 0.000000 0.000000 0.027499 0.000000 0.002872
# 5 0.004604 -0.001847 -0.002110 0.000000 0.030028 0.000000
# 6 0.000000 0.000000 0.000000 0.002872 0.000000 0.055087
#
#
# Mechanical properties :
#
#
# Convention : Reuss Voigt Hill
#
# Bulk Modulus (GPa) = 43.10916 57.45856 50.28386
# Shear Modulus (GPa) = 26.68599 32.77250 29.72925
#
# Velocity S-wave (km/s) = 3.48236 3.85910 3.67556
# Velocity P-wave (km/s) = 5.97988 6.77994 6.39244
#
# Compressibility (1/GPa) = 0.02319693
#
# Stress axis : x y z
#
# Youngs Moduli (GPa) = 36.79200 100.82551 124.85379
#
# Poissons Ratio (x) = 0.56932 0.47056
# Poissons Ratio (y) = 0.20775 0.19224
# Poissons Ratio (z) = 0.13867 0.15524
#
# Static dielectric constant tensor:
#      x y z
#    x 3.701340 0.000000 -0.137200 
#    y 0.000000 4.862350 0.000000 
#    z -0.137200 0.000000 4.290400 
# 
# 
# High freq. dielectric constant tensor:
#      x y z
#    x 1.850200 0.000000 -0.002770 
#    y 0.000000 1.868380 0.000000 
#    z -0.002770 0.000000 1.886090 
# 
# From -- ./inp_files/162563.got.cif
#   From: 2010.06.25/outbox.cif.g09.slc.cpg/sg15_82_cif.got.tgz:162563.got - 2010.06.28 07:06:18.
