data_PCOD8149626
_publ_section_title
;
Structure prediction by ZEFSAII (Michael W. Deem and Ramdas Pophale) SiO2 
 PCOD8149626
Probable space group: C 2/C
;
_chemical_formula_sum "Si O2"
_cell_formula_units_Z 52
_cell_length_a 16.617345
_cell_length_b 17.053418
_cell_length_c 8.991522
_cell_angle_alpha 90.000000
_cell_angle_beta 122.083212
_cell_angle_gamma 90.000000
_cell_volume 2158.897402
_symmetry_space_group_name_H-M "C 2/C"
_symmetry_group_IT_number 15
_symmetry_cell_setting 'monoclinic'
loop_
_space_group_symop_operation_xyz
x,y,z
-x,y,1/2-z
-x,-y,-z
x,-y,1/2+z
1/2+x,1/2+y,z
1/2-x,1/2+y,1/2-z
1/2-x,1/2-y,-z
1/2+x,1/2-y,1/2+z
loop_
_atom_site_type_symbol
_atom_site_label
_atom_site_fract_x
_atom_site_fract_y
_atom_site_fract_z
Si Si1 0.744753 0.611928 0.732773
Si Si2 0.500000 0.491062 0.750000
Si Si3 0.387277 0.412407 0.900775
Si Si4 0.385547 0.256257 0.481416
Si Si5 0.671033 0.903340 0.675192
Si Si6 0.693536 0.004898 0.453886
Si Si7 0.603796 0.242624 0.669949
O O1 0.645798 0.661490 0.624152
O O2 0.748547 0.557449 0.590380
O O3 0.836917 0.669140 0.833733
O O4 0.739402 0.562162 0.879877
O O5 0.442744 0.433699 0.803848
O O6 0.430792 0.546142 0.587304
O O7 0.278511 0.438416 0.781214
O O8 0.386356 0.318764 0.923974
O O9 0.324857 0.189316 0.338740
O O10 0.491774 0.225647 0.561567
O O11 0.358115 0.261009 0.627148
O O12 0.628324 0.936664 0.788187
O O13 0.624546 0.951265 0.490921
#
# Coordination Sequence:
#
# PCOD8149626 Si02
#       7
#     8   4   8   8   8   8   8
#     4  11  22  47  69 101 137 177 233 283 343 408
#     4  10  24  40  62 104 138 174 224 278 332 426
#     4  11  22  41  66  94 140 177 216 276 341 400
#     4  11  23  41  71  97 134 177 228 276 339 418
#     4  11  21  42  65  98 127 179 221 270 342 399
#     4  10  24  39  72  99 130 181 224 287 337 399
#     4  11  23  42  67 101 132 185 223 276 342 413
#
# _framework density 24.086371
#
# number of rings (size 3 to 8) (size 9 to 14) (size 15 to 20)
#    0.000    1.231    3.077    3.231    0.000    8.000 
#    2.769    4.615    0.000    0.923    0.000    0.000 
#    0.000    0.000    0.000    0.000    0.000    0.000 
#
# Total GULP energy -322149.259398 kJ/mol
# GULP energy per Si atom -12390.356131 kJ/mol
# Density = 2.403155 g / cm^3
# Si number density = 24.086371 Si / 1000 Ang^3
#
#
#
# Elastic Constant Matrix: (Units=GPa)
#
#
# Indices 1 2 3 4 5 6 
#
# 1 61.3655 27.3214 31.3716 0.0000 8.1764 0.0000
# 2 27.3214 172.2290 67.2614 0.0000 -9.9795 0.0000
# 3 31.3716 67.2614 112.7777 0.0000 -16.5351 0.0000
# 4 0.0000 0.0000 0.0000 49.2325 0.0000 -2.5015
# 5 8.1764 -9.9795 -16.5351 0.0000 36.4817 0.0000
# 6 0.0000 0.0000 0.0000 -2.5015 0.0000 25.1636
#
#
#
# Elastic Compliance Matrix: (Units=1/GPa)
#
#
# Indices 1 2 3 4 5 6 
#
# 1 0.021151 -0.001386 -0.006221 0.000000 -0.007939 0.000000
# 2 -0.001386 0.007660 -0.004103 0.000000 0.000546 0.000000
# 3 -0.006221 -0.004103 0.014016 0.000000 0.006625 0.000000
# 4 0.000000 0.000000 0.000000 0.020415 0.000000 0.002029
# 5 -0.007939 0.000546 0.006625 0.000000 0.032342 0.000000
# 6 0.000000 0.000000 0.000000 0.002029 0.000000 0.039942
#
#
# Mechanical properties :
#
#
# Convention : Reuss Voigt Hill
#
# Bulk Modulus (GPa) = 51.52717 66.47567 59.00142
# Shear Modulus (GPa) = 30.22706 36.87007 33.54857
#
# Velocity S-wave (km/s) = 3.54636 3.91672 3.73613
# Velocity P-wave (km/s) = 6.18126 6.93636 6.56967
#
# Compressibility (1/GPa) = 0.01940724
#
# Stress axis : x y z
#
# Youngs Moduli (GPa) = 47.27902 130.54764 71.34774
#
# Poissons Ratio (x) = 0.18090 0.44387
# Poissons Ratio (y) = 0.06551 0.29274
# Poissons Ratio (z) = 0.29413 0.53563
#
# Static dielectric constant tensor:
#      x y z
#    x 4.136190 0.000000 -0.259700 
#    y 0.000000 4.534210 0.000000 
#    z -0.259700 0.000000 4.641310 
# 
# 
# High freq. dielectric constant tensor:
#      x y z
#    x 1.921330 0.000000 -0.009740 
#    y 0.000000 1.984470 0.000000 
#    z -0.009740 0.000000 1.955080 
# 
# From -- ./inp_files/57070.got.cif
#   From: 2010.06.25/outbox.cif.g09.slc.cpg/sg15_29_cif.got.tgz:57070.got - 2010.06.28 07:06:18.
