data_PCOD8149859
_publ_section_title
;
Structure prediction by ZEFSAII (Michael W. Deem and Ramdas Pophale) SiO2 
 PCOD8149859
Probable space group: C 2/C
;
_chemical_formula_sum "Si O2"
_cell_formula_units_Z 52
_cell_length_a 17.245120
_cell_length_b 17.651649
_cell_length_c 8.063414
_cell_angle_alpha 90.000000
_cell_angle_beta 101.442303
_cell_angle_gamma 90.000000
_cell_volume 2405.757877
_symmetry_space_group_name_H-M "C 2/C"
_symmetry_group_IT_number 15
_symmetry_cell_setting 'monoclinic'
loop_
_space_group_symop_operation_xyz
x,y,z
-x,y,1/2-z
-x,-y,-z
x,-y,1/2+z
1/2+x,1/2+y,z
1/2-x,1/2+y,1/2-z
1/2-x,1/2-y,-z
1/2+x,1/2-y,1/2+z
loop_
_atom_site_type_symbol
_atom_site_label
_atom_site_fract_x
_atom_site_fract_y
_atom_site_fract_z
Si Si1 0.550158 0.226085 0.608699
Si Si2 0.985429 0.415672 0.937055
Si Si3 0.500000 0.310710 0.250000
Si Si4 0.233957 0.254699 0.187074
Si Si5 0.307216 0.898053 0.843765
Si Si6 0.226846 0.007771 0.059426
Si Si7 0.660132 0.393367 0.265185
O O1 0.500000 0.252246 0.750000
O O2 0.542596 0.136201 0.573682
O O3 0.521787 0.262608 0.422484
O O4 0.640976 0.244574 0.685661
O O5 0.896767 0.388926 0.939903
O O6 0.000000 0.404292 0.750000
O O7 0.000000 0.500000 0.000000
O O8 0.572123 0.362705 0.225501
O O9 0.271865 0.184747 0.300024
O O10 0.276654 0.330717 0.270841
O O11 0.250000 0.250000 0.000000
O O12 0.302165 0.952597 0.680449
O O13 0.256638 0.940060 0.959895
O O14 0.164517 0.968811 0.156278
O O15 0.181449 0.078328 0.958289
#
# Coordination Sequence:
#
# PCOD8149859 Si02
#       7
#     8   8   4   8   8   8   8
#     4  12  28  44  69 106 143 184 243 294 358 429
#     4  12  25  41  65  99 141 185 231 300 361 425
#     4  12  24  50  72 102 138 184 232 304 354 414
#     4  12  23  45  71  99 137 191 234 289 355 430
#     4  11  23  42  67  97 135 184 231 284 354 419
#     4  10  24  42  67 101 133 177 233 288 347 435
#     4  11  25  44  73  98 138 179 232 290 359 422
#
# _framework density 21.614812000000001
#
# number of rings (size 3 to 8) (size 9 to 14) (size 15 to 20)
#    0.000    0.615    3.846    3.231    8.615    1.231 
#    0.000    0.000    0.000    0.000    0.000    0.000 
#    0.000    0.000    0.000    0.000    0.000    0.000 
#
# Total GULP energy -322405.707782 kJ/mol
# GULP energy per Si atom -12400.219530 kJ/mol
# Density = 2.156562 g / cm^3
# Si number density = 21.614812 Si / 1000 Ang^3
#
#
#
# Elastic Constant Matrix: (Units=GPa)
#
#
# Indices 1 2 3 4 5 6 
#
# 1 150.7707 48.6386 32.1614 0.0000 15.8982 0.0000
# 2 48.6386 138.0159 38.1388 0.0000 14.8403 0.0000
# 3 32.1614 38.1388 72.6699 0.0000 4.0063 0.0000
# 4 0.0000 0.0000 0.0000 57.3925 0.0000 7.3508
# 5 15.8982 14.8403 4.0063 0.0000 31.4139 0.0000
# 6 0.0000 0.0000 0.0000 7.3508 0.0000 25.5732
#
#
#
# Elastic Compliance Matrix: (Units=1/GPa)
#
#
# Indices 1 2 3 4 5 6 
#
# 1 0.008055 -0.001856 -0.002431 0.000000 -0.002889 0.000000
# 2 -0.001856 0.009293 -0.003893 0.000000 -0.002954 0.000000
# 3 -0.002431 -0.003893 0.016829 0.000000 0.000923 0.000000
# 4 0.000000 0.000000 0.000000 0.018090 0.000000 -0.005200
# 5 -0.002889 -0.002954 0.000923 0.000000 0.034573 0.000000
# 6 0.000000 0.000000 0.000000 -0.005200 0.000000 0.040598
#
#
# Mechanical properties :
#
#
# Convention : Reuss Voigt Hill
#
# Bulk Modulus (GPa) = 56.12859 66.59267 61.36063
# Shear Modulus (GPa) = 33.39179 39.04376 36.21778
#
# Velocity S-wave (km/s) = 3.93473 4.25472 4.09785
# Velocity P-wave (km/s) = 6.83131 7.41704 7.13020
#
# Compressibility (1/GPa) = 0.01781623
#
# Stress axis : x y z
#
# Youngs Moduli (GPa) = 124.15172 107.60726 59.42087
#
# Poissons Ratio (x) = 0.19972 0.14447
# Poissons Ratio (y) = 0.23042 0.23132
# Poissons Ratio (z) = 0.30186 0.41891
#
# Static dielectric constant tensor:
#      x y z
#    x 3.768470 0.000000 0.005590 
#    y 0.000000 4.073510 0.000000 
#    z 0.005590 0.000000 4.241750 
# 
# 
# High freq. dielectric constant tensor:
#      x y z
#    x 1.843920 0.000000 -0.001100 
#    y 0.000000 1.865950 0.000000 
#    z -0.001100 0.000000 1.859010 
# 
# From -- ./inp_files/48643.got.cif
#   From: 2010.06.25/outbox.cif.g09.slc.cpg/sg15_25_cif.got.tgz:48643.got - 2010.06.28 07:06:18.
