data_PCOD8149548
_publ_section_title
;
Structure prediction by ZEFSAII (Michael W. Deem and Ramdas Pophale) SiO2 
 PCOD8149548
Probable space group: C 2/C
;
_chemical_formula_sum "Si O2"
_cell_formula_units_Z 44
_cell_length_a 21.878487
_cell_length_b 13.558269
_cell_length_c 9.232398
_cell_angle_alpha 90.000000
_cell_angle_beta 122.145274
_cell_angle_gamma 90.000000
_cell_volume 2318.817185
_symmetry_space_group_name_H-M "C 2/C"
_symmetry_group_IT_number 15
_symmetry_cell_setting 'monoclinic'
loop_
_space_group_symop_operation_xyz
x,y,z
-x,y,1/2-z
-x,-y,-z
x,-y,1/2+z
1/2+x,1/2+y,z
1/2-x,1/2+y,1/2-z
1/2-x,1/2-y,-z
1/2+x,1/2-y,1/2+z
loop_
_atom_site_type_symbol
_atom_site_label
_atom_site_fract_x
_atom_site_fract_y
_atom_site_fract_z
Si Si1 0.728369 0.929033 0.090381
Si Si2 0.972461 0.867539 0.963419
Si Si3 0.500000 0.494168 0.750000
Si Si4 0.368090 0.303812 0.293700
Si Si5 0.720321 0.877421 0.751659
Si Si6 0.141787 0.248015 0.047281
O O1 0.808231 0.889984 0.232278
O O2 0.668963 0.859902 0.093532
O O3 0.712876 0.039655 0.120700
O O4 0.716886 0.926860 0.904589
O O5 0.056835 0.842667 0.047523
O O6 0.955686 0.937183 0.082020
O O7 0.948451 0.925262 0.786372
O O8 0.925799 0.768683 0.929093
O O9 0.342111 0.205287 0.345219
O O10 0.381450 0.275269 0.145029
O O11 0.796483 0.825859 0.823670
#
# Coordination Sequence:
#
# PCOD8149548 Si02
#       6
#     8   8   4   8   8   8
#     4   9  19  34  52  75 102 135 170 205 248 297
#     4  11  20  36  51  78 103 130 170 203 257 297
#     4  10  24  30  52  82 102 132 160 208 262 302
#     4   9  18  34  54  74 103 136 166 204 252 305
#     4   9  19  34  52  75 102 135 170 205 248 297
#     4   9  18  34  54  74 103 136 166 204 252 305
#
# _framework density 18.975190999999999
#
# number of rings (size 3 to 8) (size 9 to 14) (size 15 to 20)
#    0.000    2.545    1.818    2.182    5.091    0.000 
#    3.273    2.727    0.000    0.000    0.000    0.000 
#    0.000    0.000    0.000    0.000    0.000    0.000 
#
# Total GULP energy -272653.263650 kJ/mol
# GULP energy per Si atom -12393.330166 kJ/mol
# Density = 1.893200 g / cm^3
# Si number density = 18.975191 Si / 1000 Ang^3
#
#
#
# Elastic Constant Matrix: (Units=GPa)
#
#
# Indices 1 2 3 4 5 6 
#
# 1 86.5623 21.1568 18.2217 0.0000 4.6919 0.0000
# 2 21.1568 74.1001 16.9423 0.0000 -1.9619 0.0000
# 3 18.2217 16.9423 47.3503 0.0000 -5.1527 0.0000
# 4 0.0000 0.0000 0.0000 27.7833 0.0000 -15.4545
# 5 4.6919 -1.9619 -5.1527 0.0000 18.9566 0.0000
# 6 0.0000 0.0000 0.0000 -15.4545 0.0000 31.0005
#
#
#
# Elastic Compliance Matrix: (Units=1/GPa)
#
#
# Indices 1 2 3 4 5 6 
#
# 1 0.013521 -0.002917 -0.004695 0.000000 -0.004925 0.000000
# 2 -0.002917 0.015327 -0.004236 0.000000 0.001157 0.000000
# 3 -0.004695 -0.004236 0.025268 0.000000 0.007592 0.000000
# 4 0.000000 0.000000 0.000000 0.049804 0.000000 0.024828
# 5 -0.004925 0.001157 0.007592 0.000000 0.056154 0.000000
# 6 0.000000 0.000000 0.000000 0.024828 0.000000 0.044635
#
#
# Mechanical properties :
#
#
# Convention : Reuss Voigt Hill
#
# Bulk Modulus (GPa) = 32.87376 35.62828 34.25102
# Shear Modulus (GPa) = 20.96042 25.66087 23.31064
#
# Velocity S-wave (km/s) = 3.32719 3.68140 3.50877
# Velocity P-wave (km/s) = 5.66767 6.07349 5.87409
#
# Compressibility (1/GPa) = 0.03041940
#
# Stress axis : x y z
#
# Youngs Moduli (GPa) = 73.96081 65.24328 39.57619
#
# Poissons Ratio (x) = 0.19033 0.18582
# Poissons Ratio (y) = 0.21576 0.16763
# Poissons Ratio (z) = 0.34726 0.27635
#
# Static dielectric constant tensor:
#      x y z
#    x 3.430560 0.000000 -0.104940 
#    y 0.000000 3.493490 0.000000 
#    z -0.104940 0.000000 3.199290 
# 
# 
# High freq. dielectric constant tensor:
#      x y z
#    x 1.727350 0.000000 -0.012050 
#    y 0.000000 1.733880 0.000000 
#    z -0.012050 0.000000 1.711800 
# 
# From -- ./inp_files/47181.got.cif
#   From: 2010.06.25/outbox.cif.g09.slc.cpg/sg15_24_cif.got.tgz:47181.got - 2010.06.28 07:06:18.
