data_PCOD8149274
_publ_section_title
;
Structure prediction by ZEFSAII (Michael W. Deem and Ramdas Pophale) SiO2 
 PCOD8149274
Probable space group: C 2/C
;
_chemical_formula_sum "Si O2"
_cell_formula_units_Z 40
_cell_length_a 10.405499
_cell_length_b 10.632391
_cell_length_c 18.930455
_cell_angle_alpha 90.000000
_cell_angle_beta 53.096197
_cell_angle_gamma 90.000000
_cell_volume 1674.757854
_symmetry_space_group_name_H-M "C 2/C"
_symmetry_group_IT_number 15
_symmetry_cell_setting 'monoclinic'
loop_
_space_group_symop_operation_xyz
x,y,z
-x,y,1/2-z
-x,-y,-z
x,-y,1/2+z
1/2+x,1/2+y,z
1/2-x,1/2+y,1/2-z
1/2-x,1/2-y,-z
1/2+x,1/2-y,1/2+z
loop_
_atom_site_type_symbol
_atom_site_label
_atom_site_fract_x
_atom_site_fract_y
_atom_site_fract_z
Si Si1 0.810148 0.874453 0.799211
Si Si2 0.682279 0.146233 0.186090
Si Si3 0.592515 0.709896 0.962088
Si Si4 0.320567 0.887210 0.085658
Si Si5 0.674322 0.534936 0.493986
O O1 0.778339 0.850771 0.727661
O O2 0.745612 0.757530 0.866971
O O3 0.000000 0.894464 0.750000
O O4 0.704464 0.996324 0.854079
O O5 0.500000 0.102830 0.250000
O O6 0.687839 0.284202 0.149605
O O7 0.763555 0.047929 0.106561
O O8 0.638299 0.615051 0.011573
O O9 0.499011 0.827030 0.029897
O O10 0.478155 0.628615 0.946831
O O11 0.302059 0.930199 0.010828
#
# Coordination Sequence:
#
# PCOD8149274 Si02
#       5
#     8   8   8   8   8
#     4  12  28  43  70 112 151 185 235 317 377 430
#     4  11  24  46  73 102 145 192 246 301 371 436
#     4  10  23  45  71  99 144 186 250 293 365 433
#     4  11  24  46  73 101 143 197 249 294 369 447
#     4  10  23  44  76 101 136 199 254 296 356 451
#
# _framework density 23.884049000000001
#
# number of rings (size 3 to 8) (size 9 to 14) (size 15 to 20)
#    0.000    1.200    0.000    6.000   11.200    1.600 
#    3.600    0.000    0.000    0.000    0.000    0.000 
#    0.000    0.000    0.000    0.000    0.000    0.000 
#
# Total GULP energy -247950.715905 kJ/mol
# GULP energy per Si atom -12397.535795 kJ/mol
# Density = 2.382969 g / cm^3
# Si number density = 23.884049 Si / 1000 Ang^3
#
#
#
# Elastic Constant Matrix: (Units=GPa)
#
#
# Indices 1 2 3 4 5 6 
#
# 1 111.7440 40.0699 56.4951 0.0000 6.1900 0.0000
# 2 40.0699 126.7229 53.5159 0.0000 -1.6070 0.0000
# 3 56.4951 53.5159 121.5022 0.0000 0.5130 0.0000
# 4 0.0000 0.0000 0.0000 28.8529 0.0000 1.3237
# 5 6.1900 -1.6070 0.5130 0.0000 37.1211 0.0000
# 6 0.0000 0.0000 0.0000 1.3237 0.0000 28.8793
#
#
#
# Elastic Compliance Matrix: (Units=1/GPa)
#
#
# Indices 1 2 3 4 5 6 
#
# 1 0.012166 -0.001827 -0.004843 0.000000 -0.002041 0.000000
# 2 -0.001827 0.009977 -0.003548 0.000000 0.000786 0.000000
# 3 -0.004843 -0.003548 0.012043 0.000000 0.000488 0.000000
# 4 0.000000 0.000000 0.000000 0.034732 0.000000 -0.001592
# 5 -0.002041 0.000786 0.000488 0.000000 0.027306 0.000000
# 6 0.000000 0.000000 0.000000 -0.001592 0.000000 0.034700
#
#
# Mechanical properties :
#
#
# Convention : Reuss Voigt Hill
#
# Bulk Modulus (GPa) = 72.73460 73.34790 73.04125
# Shear Modulus (GPa) = 32.06251 32.96320 32.51286
#
# Velocity S-wave (km/s) = 3.66788 3.71905 3.69355
# Velocity P-wave (km/s) = 6.96112 7.01558 6.98840
#
# Compressibility (1/GPa) = 0.01374861
#
# Stress axis : x y z
#
# Youngs Moduli (GPa) = 82.19581 100.22592 83.03509
#
# Poissons Ratio (x) = 0.18315 0.40217
# Poissons Ratio (y) = 0.15021 0.29463
# Poissons Ratio (z) = 0.39811 0.35562
#
# Static dielectric constant tensor:
#      x y z
#    x 4.075080 0.000000 -0.082350 
#    y 0.000000 4.548360 0.000000 
#    z -0.082350 0.000000 4.310500 
# 
# 
# High freq. dielectric constant tensor:
#      x y z
#    x 1.937690 0.000000 -0.005930 
#    y 0.000000 1.963070 0.000000 
#    z -0.005930 0.000000 1.948460 
# 
# From -- ./inp_files/236443.got.cif
#   From: 2010.06.25/outbox.cif.g09.slc.cpg/sg15_119_cif.got.tgz:236443.got - 2010.06.28 07:06:18.
