data_PCOD8149862
_publ_section_title
;
Structure prediction by ZEFSAII (Michael W. Deem and Ramdas Pophale) SiO2 
 PCOD8149862
Probable space group: C 2/C
;
_chemical_formula_sum "Si O2"
_cell_formula_units_Z 36
_cell_length_a 19.676764
_cell_length_b 9.118776
_cell_length_c 9.098342
_cell_angle_alpha 90.000000
_cell_angle_beta 93.450278
_cell_angle_gamma 90.000000
_cell_volume 1629.538276
_symmetry_space_group_name_H-M "C 2/C"
_symmetry_group_IT_number 15
_symmetry_cell_setting 'monoclinic'
loop_
_space_group_symop_operation_xyz
x,y,z
-x,y,1/2-z
-x,-y,-z
x,-y,1/2+z
1/2+x,1/2+y,z
1/2-x,1/2+y,1/2-z
1/2-x,1/2-y,-z
1/2+x,1/2-y,1/2+z
loop_
_atom_site_type_symbol
_atom_site_label
_atom_site_fract_x
_atom_site_fract_y
_atom_site_fract_z
Si Si1 0.920611 0.030347 0.979212
Si Si2 0.719687 0.154091 0.126277
Si Si3 0.417916 0.140907 0.509832
Si Si4 0.000000 0.465868 0.750000
Si Si5 0.667522 0.418591 0.298365
O O1 0.871444 0.910756 0.051236
O O2 0.906197 0.189441 0.048337
O O3 0.894811 0.026852 0.810164
O O4 0.000000 0.000000 0.000000
O O5 0.653848 0.070360 0.050125
O O6 0.696359 0.260038 0.256951
O O7 0.770770 0.033979 0.195345
O O8 0.750000 0.250000 0.000000
O O9 0.443672 0.065868 0.662347
O O10 0.468737 0.132661 0.376063
#
# Coordination Sequence:
#
# PCOD8149862 Si02
#       5
#     8   8   8   4   8
#     4  11  25  42  68  99 131 174 226 276 330 397
#     4  11  24  45  64  99 135 169 224 272 329 399
#     4  10  24  42  67  92 135 164 225 266 332 395
#     4  10  24  44  64  98 124 182 206 276 334 392
#     4  11  24  45  69  96 136 177 221 281 329 393
#
# _framework density 22.092146
#
# number of rings (size 3 to 8) (size 9 to 14) (size 15 to 20)
#    0.000    1.333    4.444    0.667   12.444    0.889 
#    4.000    0.000    0.000    0.000    0.000    0.000 
#    0.000    0.000    0.000    0.000    0.000    0.000 
#
# Total GULP energy -223122.878416 kJ/mol
# GULP energy per Si atom -12395.715468 kJ/mol
# Density = 2.204186 g / cm^3
# Si number density = 22.092146 Si / 1000 Ang^3
#
#
#
# Elastic Constant Matrix: (Units=GPa)
#
#
# Indices 1 2 3 4 5 6 
#
# 1 150.1228 37.0039 11.4433 0.0000 30.7621 0.0000
# 2 37.0039 55.7243 20.1114 0.0000 17.6324 0.0000
# 3 11.4433 20.1114 52.5959 0.0000 7.6279 0.0000
# 4 0.0000 0.0000 0.0000 27.4274 0.0000 1.2162
# 5 30.7621 17.6324 7.6279 0.0000 54.7511 0.0000
# 6 0.0000 0.0000 0.0000 1.2162 0.0000 41.9953
#
#
#
# Elastic Compliance Matrix: (Units=1/GPa)
#
#
# Indices 1 2 3 4 5 6 
#
# 1 0.008472 -0.004745 0.000449 0.000000 -0.003294 0.000000
# 2 -0.004745 0.025387 -0.008038 0.000000 -0.004390 0.000000
# 3 0.000449 -0.008038 0.022096 0.000000 -0.000742 0.000000
# 4 0.000000 0.000000 0.000000 0.036507 0.000000 -0.001057
# 5 -0.003294 -0.004390 -0.000742 0.000000 0.021632 0.000000
# 6 0.000000 0.000000 0.000000 -0.001057 0.000000 0.023843
#
#
# Mechanical properties :
#
#
# Convention : Reuss Voigt Hill
#
# Bulk Modulus (GPa) = 31.96337 43.95114 37.95725
# Shear Modulus (GPa) = 28.89598 37.49371 33.19484
#
# Velocity S-wave (km/s) = 3.62052 4.12412 3.88050
# Velocity P-wave (km/s) = 5.65483 6.52805 6.10707
#
# Compressibility (1/GPa) = 0.03128582
#
# Stress axis : x y z
#
# Youngs Moduli (GPa) = 118.04013 39.39071 45.25617
#
# Poissons Ratio (x) = 0.18692 -0.02032
# Poissons Ratio (y) = 0.56015 0.36378
# Poissons Ratio (z) = -0.05301 0.31663
#
# Static dielectric constant tensor:
#      x y z
#    x 4.644840 0.000000 0.258440 
#    y 0.000000 3.864740 0.000000 
#    z 0.258440 0.000000 3.972890 
# 
# 
# High freq. dielectric constant tensor:
#      x y z
#    x 1.895450 0.000000 0.006450 
#    y 0.000000 1.847630 0.000000 
#    z 0.006450 0.000000 1.872140 
# 
# From -- ./inp_files/45886.got.cif
#   From: 2010.06.25/outbox.cif.g09.slc.cpg/sg15_23_cif.got.tgz:45886.got - 2010.06.28 07:06:18.
