data_PCOD8149576
_publ_section_title
;
Structure prediction by ZEFSAII (Michael W. Deem and Ramdas Pophale) SiO2 
 PCOD8149576
Probable space group: C 2/C
;
_chemical_formula_sum "Si O2"
_cell_formula_units_Z 56
_cell_length_a 10.219118
_cell_length_b 10.849648
_cell_length_c 21.399498
_cell_angle_alpha 90.000000
_cell_angle_beta 102.482370
_cell_angle_gamma 90.000000
_cell_volume 2316.561132
_symmetry_space_group_name_H-M "C 2/C"
_symmetry_group_IT_number 15
_symmetry_cell_setting 'monoclinic'
loop_
_space_group_symop_operation_xyz
x,y,z
-x,y,1/2-z
-x,-y,-z
x,-y,1/2+z
1/2+x,1/2+y,z
1/2-x,1/2+y,1/2-z
1/2-x,1/2-y,-z
1/2+x,1/2-y,1/2+z
loop_
_atom_site_type_symbol
_atom_site_label
_atom_site_fract_x
_atom_site_fract_y
_atom_site_fract_z
Si Si1 0.815283 0.755833 0.770907
Si Si2 0.392052 0.689281 0.653542
Si Si3 0.588372 0.767283 0.352267
Si Si4 0.940340 0.966676 0.846165
Si Si5 0.809310 0.902547 0.443311
Si Si6 0.199944 0.459244 0.045141
Si Si7 0.984596 0.332219 0.937960
O O1 0.673369 0.724358 0.787135
O O2 0.809499 0.730656 0.696539
O O3 0.940852 0.681623 0.816444
O O4 0.844261 0.901758 0.784970
O O5 0.508923 0.592123 0.679710
O O6 0.283329 0.630904 0.596620
O O7 0.453683 0.808217 0.624584
O O8 0.565751 0.626376 0.374426
O O9 0.659176 0.851417 0.411630
O O10 0.856208 0.993011 0.899813
O O11 0.799238 0.968968 0.508547
O O12 0.915366 0.791706 0.457344
O O13 0.123141 0.558882 0.079963
O O14 0.098414 0.370676 0.998108
#
# Coordination Sequence:
#
# PCOD8149576 Si02
#       7
#     8   8   8   8   8   8   8
#     4   9  21  40  60  84 115 154 201 253 304 357
#     4  11  22  39  62  86 122 159 196 250 299 353
#     4   9  21  40  60  84 115 154 201 253 304 357
#     4   9  21  38  61  86 112 153 199 240 299 355
#     4  11  22  39  62  86 122 159 196 250 299 353
#     4  11  24  37  60  92 125 162 197 240 296 361
#     4  10  24  38  56  90 117 155 198 233 293 355
#
# _framework density 24.173763999999998
#
# number of rings (size 3 to 8) (size 9 to 14) (size 15 to 20)
#    0.857    1.143    0.000    2.571    4.000    6.857 
#    0.000    2.143    0.000    0.000    0.000    0.000 
#    0.000    0.000    0.000    0.000    0.000    0.000 
#
# Total GULP energy -347137.830465 kJ/mol
# GULP energy per Si atom -12397.779659 kJ/mol
# Density = 2.411874 g / cm^3
# Si number density = 24.173764 Si / 1000 Ang^3
#
#
#
# Elastic Constant Matrix: (Units=GPa)
#
#
# Indices 1 2 3 4 5 6 
#
# 1 80.7973 25.0203 14.6552 0.0000 -33.7013 0.0000
# 2 25.0203 57.5906 17.8983 0.0000 -8.8301 0.0000
# 3 14.6552 17.8983 44.3099 0.0000 -18.1747 0.0000
# 4 0.0000 0.0000 0.0000 23.3138 0.0000 -9.4949
# 5 -33.7013 -8.8301 -18.1747 0.0000 31.9794 0.0000
# 6 0.0000 0.0000 0.0000 -9.4949 0.0000 32.9103
#
#
#
# Elastic Compliance Matrix: (Units=1/GPa)
#
#
# Indices 1 2 3 4 5 6 
#
# 1 0.025873 -0.008966 0.006823 0.000000 0.028669 0.000000
# 2 -0.008966 0.022999 -0.009904 0.000000 -0.008727 0.000000
# 3 0.006823 -0.009904 0.034086 0.000000 0.023828 0.000000
# 4 0.000000 0.000000 0.000000 0.048604 0.000000 0.014023
# 5 0.028669 -0.008727 0.023828 0.000000 0.072615 0.000000
# 6 0.000000 0.000000 0.000000 0.014023 0.000000 0.034431
#
#
# Mechanical properties :
#
#
# Convention : Reuss Voigt Hill
#
# Bulk Modulus (GPa) = 16.98808 33.09392 25.04100
# Shear Modulus (GPa) = 17.71019 25.98229 21.84624
#
# Velocity S-wave (km/s) = 2.70963 3.28199 3.00945
# Velocity P-wave (km/s) = 4.10271 5.29922 4.73888
#
# Compressibility (1/GPa) = 0.05886481
#
# Stress axis : x y z
#
# Youngs Moduli (GPa) = 38.64969 43.47979 29.33780
#
# Poissons Ratio (x) = 0.38982 -0.20018
# Poissons Ratio (y) = 0.34652 0.29057
# Poissons Ratio (z) = -0.26372 0.43064
#
# Static dielectric constant tensor:
#      x y z
#    x 4.495310 0.000000 -0.281560 
#    y 0.000000 4.262360 0.000000 
#    z -0.281560 0.000000 3.982900 
# 
# 
# High freq. dielectric constant tensor:
#      x y z
#    x 1.969150 0.000000 -0.013680 
#    y 0.000000 1.950180 0.000000 
#    z -0.013680 0.000000 1.944870 
# 
# From -- ./inp_files/268476.got.cif
#   From: 2010.06.25/outbox.cif.g09.slc.cpg/sg15_135_cif.got.tgz:268476.got - 2010.06.28 07:06:18.
