data_PCOD8149010
_publ_section_title
;
Structure prediction by ZEFSAII (Michael W. Deem and Ramdas Pophale) SiO2 
 PCOD8149010
Probable space group: C 2/C
;
_chemical_formula_sum "Si O2"
_cell_formula_units_Z 60
_cell_length_a 17.669778
_cell_length_b 22.495237
_cell_length_c 7.719189
_cell_angle_alpha 90.000000
_cell_angle_beta 70.754053
_cell_angle_gamma 90.000000
_cell_volume 2896.790014
_symmetry_space_group_name_H-M "C 2/C"
_symmetry_group_IT_number 15
_symmetry_cell_setting 'monoclinic'
loop_
_space_group_symop_operation_xyz
x,y,z
-x,y,1/2-z
-x,-y,-z
x,-y,1/2+z
1/2+x,1/2+y,z
1/2-x,1/2+y,1/2-z
1/2-x,1/2-y,-z
1/2+x,1/2-y,1/2+z
loop_
_atom_site_type_symbol
_atom_site_label
_atom_site_fract_x
_atom_site_fract_y
_atom_site_fract_z
Si Si1 0.180327 0.086752 0.442200
Si Si2 0.271340 0.813474 0.056894
Si Si3 0.571340 0.664521 0.319627
Si Si4 0.545450 0.212102 0.030645
Si Si5 0.168052 0.578174 0.617357
Si Si6 0.000000 0.365932 0.250000
Si Si7 0.250182 0.486473 0.342890
Si Si8 0.775150 0.815736 0.025761
O O1 0.243936 0.139342 0.432903
O O2 0.095881 0.113383 0.439808
O O3 0.174325 0.044464 0.615599
O O4 0.215528 0.044190 0.271560
O O5 0.219616 0.822351 0.270838
O O6 0.250000 0.750000 0.000000
O O7 0.366677 0.817219 0.019608
O O8 0.500000 0.642748 0.250000
O O9 0.550355 0.721733 0.450197
O O10 0.641282 0.674715 0.129847
O O11 0.500000 0.212131 0.250000
O O12 0.496275 0.174171 0.926099
O O13 0.181689 0.514370 0.517297
O O14 0.207407 0.567671 0.776296
O O15 0.212039 0.635594 0.499823
O O16 0.074609 0.589981 0.696981
O O17 0.750000 0.750000 0.000000
#
# Coordination Sequence:
#
# PCOD8149010 Si02
#       8
#     8   8   8   8   8   4   8   8
#     4  11  22  44  69  98 133 176 239 294 342 424
#     4  12  24  41  69 104 131 183 239 275 355 437
#     4  12  26  44  67 102 138 183 232 295 373 419
#     4  12  27  42  65 106 153 184 225 293 358 435
#     4  11  23  43  71 100 137 191 228 294 346 423
#     4  12  24  46  66 106 152 182 234 286 370 416
#     4  10  23  43  71  97 134 183 248 283 340 419
#     4  12  22  43  69  98 137 185 228 285 355 433
#
# _framework density 20.712581
#
# number of rings (size 3 to 8) (size 9 to 14) (size 15 to 20)
#    0.000    0.533    7.333    0.000    3.733    0.533 
#    0.000    0.667    0.000    0.000    0.000    0.000 
#    0.000    0.000    0.000    0.000    0.000    0.000 
#
# Total GULP energy -371785.372374 kJ/mol
# GULP energy per Si atom -12392.845746 kJ/mol
# Density = 2.066544 g / cm^3
# Si number density = 20.712581 Si / 1000 Ang^3
#
#
#
# Elastic Constant Matrix: (Units=GPa)
#
#
# Indices 1 2 3 4 5 6 
#
# 1 126.9360 58.2285 42.4594 0.0000 18.2740 0.0000
# 2 58.2285 140.5277 37.2797 0.0000 16.7142 0.0000
# 3 42.4594 37.2797 117.4529 0.0000 7.5814 0.0000
# 4 0.0000 0.0000 0.0000 27.3370 0.0000 3.3833
# 5 18.2740 16.7142 7.5814 0.0000 33.2353 0.0000
# 6 0.0000 0.0000 0.0000 3.3833 0.0000 32.3434
#
#
#
# Elastic Compliance Matrix: (Units=1/GPa)
#
#
# Indices 1 2 3 4 5 6 
#
# 1 0.010817 -0.003354 -0.002609 0.000000 -0.003666 0.000000
# 2 -0.003354 0.009207 -0.001553 0.000000 -0.002432 0.000000
# 3 -0.002609 -0.001553 0.009954 0.000000 -0.000055 0.000000
# 4 0.000000 0.000000 0.000000 0.037060 0.000000 -0.003877
# 5 -0.003666 -0.002432 -0.000055 0.000000 0.033340 0.000000
# 6 0.000000 0.000000 0.000000 -0.003877 0.000000 0.031324
#
#
# Mechanical properties :
#
#
# Convention : Reuss Voigt Hill
#
# Bulk Modulus (GPa) = 66.90908 73.42797 70.16852
# Shear Modulus (GPa) = 32.95651 35.04641 34.00146
#
# Velocity S-wave (km/s) = 3.99323 4.11790 4.05604
# Velocity P-wave (km/s) = 7.32359 7.62478 7.47570
#
# Compressibility (1/GPa) = 0.01494565
#
# Stress axis : x y z
#
# Youngs Moduli (GPa) = 92.44713 108.61370 100.46499
#
# Poissons Ratio (x) = 0.36428 0.26213
# Poissons Ratio (y) = 0.31006 0.15601
# Poissons Ratio (z) = 0.24121 0.16866
#
# Static dielectric constant tensor:
#      x y z
#    x 3.880510 0.000000 0.349050 
#    y 0.000000 4.072340 0.000000 
#    z 0.349050 0.000000 4.025020 
# 
# 
# High freq. dielectric constant tensor:
#      x y z
#    x 1.796730 0.000000 0.024650 
#    y 0.000000 1.831270 0.000000 
#    z 0.024650 0.000000 1.814930 
# 
# From -- ./inp_files/50195.got.cif
#   From: 2010.06.25/outbox.cif.g09.slc.cpg/sg15_26_cif.got.tgz:50195.got - 2010.06.28 07:06:18.
