data_PCOD8149030
_publ_section_title
;
Structure prediction by ZEFSAII (Michael W. Deem and Ramdas Pophale) SiO2 
 PCOD8149030
Probable space group: C 2/C
;
_chemical_formula_sum "Si O2"
_cell_formula_units_Z 32
_cell_length_a 17.699854
_cell_length_b 10.369631
_cell_length_c 8.393492
_cell_angle_alpha 90.000000
_cell_angle_beta 115.247215
_cell_angle_gamma 90.000000
_cell_volume 1393.389895
_symmetry_space_group_name_H-M "C 2/C"
_symmetry_group_IT_number 15
_symmetry_cell_setting 'monoclinic'
loop_
_space_group_symop_operation_xyz
x,y,z
-x,y,1/2-z
-x,-y,-z
x,-y,1/2+z
1/2+x,1/2+y,z
1/2-x,1/2+y,1/2-z
1/2-x,1/2-y,-z
1/2+x,1/2-y,1/2+z
loop_
_atom_site_type_symbol
_atom_site_label
_atom_site_fract_x
_atom_site_fract_y
_atom_site_fract_z
Si Si1 0.937469 0.388535 0.495651
Si Si2 0.232895 0.869758 0.871948
Si Si3 0.830121 0.537654 0.180562
Si Si4 0.958687 0.877011 0.880882
O O1 0.859294 0.409552 0.304478
O O2 0.908613 0.400991 0.654315
O O3 0.976470 0.247366 0.507119
O O4 0.000000 0.500000 0.500000
O O5 0.292829 0.857372 0.770353
O O6 0.139636 0.894558 0.730036
O O7 0.250000 0.750000 0.000000
O O8 0.257967 0.997128 0.993295
O O9 0.000000 0.849325 0.750000
O O10 0.000000 0.000000 0.000000
#
# Coordination Sequence:
#
# PCOD8149030 Si02
#       4
#     8   8   8   8
#     4  11  23  44  71 106 138 189 246 300 357 436
#     4  11  23  47  71 101 141 187 244 300 359 435
#     4  10  23  43  73 102 135 187 248 303 346 433
#     4  12  27  47  69 104 150 189 233 302 373 433
#
# _framework density 22.965575999999999
#
# number of rings (size 3 to 8) (size 9 to 14) (size 15 to 20)
#    0.000    1.000    2.500    3.750    3.500    3.000 
#    4.500    0.000    0.000    0.000    0.000    0.000 
#    0.000    0.000    0.000    0.000    0.000    0.000 
#
# Total GULP energy -198400.083768 kJ/mol
# GULP energy per Si atom -12400.005236 kJ/mol
# Density = 2.291331 g / cm^3
# Si number density = 22.965576 Si / 1000 Ang^3
#
#
#
# Elastic Constant Matrix: (Units=GPa)
#
#
# Indices 1 2 3 4 5 6 
#
# 1 180.5991 76.2896 68.1304 0.0000 -37.0289 0.0000
# 2 76.2896 167.7775 63.4757 0.0000 -16.3540 0.0000
# 3 68.1304 63.4757 105.7909 0.0000 -26.0470 0.0000
# 4 0.0000 0.0000 0.0000 26.6140 0.0000 -13.4701
# 5 -37.0289 -16.3540 -26.0470 0.0000 60.5841 0.0000
# 6 0.0000 0.0000 0.0000 -13.4701 0.0000 33.2713
#
#
#
# Elastic Compliance Matrix: (Units=1/GPa)
#
#
# Indices 1 2 3 4 5 6 
#
# 1 0.008359 -0.002265 -0.003262 0.000000 0.003095 0.000000
# 2 -0.002265 0.008325 -0.003717 0.000000 -0.000735 0.000000
# 3 -0.003262 -0.003717 0.014591 0.000000 0.003276 0.000000
# 4 0.000000 0.000000 0.000000 0.047258 0.000000 0.019133
# 5 0.003095 -0.000735 0.003276 0.000000 0.019607 0.000000
# 6 0.000000 0.000000 0.000000 0.019133 0.000000 0.037802
#
#
# Mechanical properties :
#
#
# Convention : Reuss Voigt Hill
#
# Bulk Modulus (GPa) = 78.21558 96.66208 87.43883
# Shear Modulus (GPa) = 31.50729 40.51199 36.00964
#
# Velocity S-wave (km/s) = 3.70798 4.20459 3.96407
# Velocity P-wave (km/s) = 7.24319 8.10881 7.68820
#
# Compressibility (1/GPa) = 0.01278518
#
# Stress axis : x y z
#
# Youngs Moduli (GPa) = 119.62789 120.12085 68.53761
#
# Poissons Ratio (x) = 0.27208 0.22359
# Poissons Ratio (y) = 0.27097 0.25478
# Poissons Ratio (z) = 0.39026 0.44654
#
# Static dielectric constant tensor:
#      x y z
#    x 8.979850 0.000000 3.303080 
#    y 0.000000 4.010480 0.000000 
#    z 3.303080 0.000000 7.019680 
# 
# 
# High freq. dielectric constant tensor:
#      x y z
#    x 1.920270 0.000000 -0.004260 
#    y 0.000000 1.888190 0.000000 
#    z -0.004260 0.000000 1.930320 
# 
# From -- ./inp_files/36857.got.cif
#   From: 2010.06.25/outbox.cif.g09.slc.cpg/sg15_19_cif.got.tgz:36857.got - 2010.06.28 07:06:18.
