data_PCOD8149949
_publ_section_title
;
Structure prediction by ZEFSAII (Michael W. Deem and Ramdas Pophale) SiO2 
 PCOD8149949
Probable space group: C 2/C
;
_chemical_formula_sum "Si O2"
_cell_formula_units_Z 64
_cell_length_a 14.666913
_cell_length_b 12.510024
_cell_length_c 27.066333
_cell_angle_alpha 90.000000
_cell_angle_beta 142.488758
_cell_angle_gamma 90.000000
_cell_volume 3024.018448
_symmetry_space_group_name_H-M "C 2/C"
_symmetry_group_IT_number 15
_symmetry_cell_setting 'monoclinic'
loop_
_space_group_symop_operation_xyz
x,y,z
-x,y,1/2-z
-x,-y,-z
x,-y,1/2+z
1/2+x,1/2+y,z
1/2-x,1/2+y,1/2-z
1/2-x,1/2-y,-z
1/2+x,1/2-y,1/2+z
loop_
_atom_site_type_symbol
_atom_site_label
_atom_site_fract_x
_atom_site_fract_y
_atom_site_fract_z
Si Si1 0.411343 0.115483 0.912213
Si Si2 0.103572 0.423439 0.981342
Si Si3 0.845440 0.960558 0.007397
Si Si4 0.175911 0.432767 0.833545
Si Si5 0.063485 0.219407 0.626747
Si Si6 0.675765 0.826820 0.324079
Si Si7 0.369699 0.726075 0.732997
Si Si8 0.655977 0.706516 0.505288
O O1 0.252948 0.132199 0.817277
O O2 0.493983 0.020331 0.918490
O O3 0.370275 0.076289 0.949223
O O4 0.512063 0.221770 0.954356
O O5 0.260731 0.443390 0.022412
O O6 0.038803 0.311180 0.938419
O O7 0.736726 0.923000 0.915822
O O8 0.896317 0.083712 0.023996
O O9 0.996286 0.890601 0.075322
O O10 0.214718 0.549253 0.829990
O O11 0.231021 0.331568 0.824823
O O12 0.000000 0.415939 0.750000
O O13 0.235204 0.233414 0.681577
O O14 0.053582 0.231611 0.680952
O O15 0.500000 0.801980 0.250000
O O16 0.734152 0.785473 0.401205
O O17 0.500000 0.699214 0.750000
O O18 0.750000 0.750000 0.500000
#
# Coordination Sequence:
#
# PCOD8149949 Si02
#       8
#     8   8   8   8   8   8   8   8
#     4  11  24  41  68  92 134 178 221 268 336 406
#     4  11  22  43  64  94 132 174 220 269 329 406
#     4  11  23  40  72  97 133 170 225 277 329 399
#     4   9  20  39  65  92 127 170 215 271 325 378
#     4  12  25  40  66  99 130 174 222 270 334 389
#     4  10  24  43  64  97 133 167 219 276 329 394
#     4  11  24  42  63  95 135 172 223 273 328 391
#     4  11  23  44  70  99 128 171 226 270 339 398
#
# _framework density 21.163893000000002
#
# number of rings (size 3 to 8) (size 9 to 14) (size 15 to 20)
#    0.000    1.250    2.500    3.375    3.500    3.000 
#    0.000    0.625    0.000    0.000    0.000    0.000 
#    0.000    0.000    0.000    0.000    0.000    0.000 
#
# Total GULP energy -396691.578461 kJ/mol
# GULP energy per Si atom -12396.611827 kJ/mol
# Density = 2.111572 g / cm^3
# Si number density = 21.163893 Si / 1000 Ang^3
#
#
#
# Elastic Constant Matrix: (Units=GPa)
#
#
# Indices 1 2 3 4 5 6 
#
# 1 83.7163 5.6504 20.0814 0.0000 1.1627 0.0000
# 2 5.6504 77.8747 5.1527 0.0000 -3.4868 0.0000
# 3 20.0814 5.1527 53.5858 0.0000 -4.8245 0.0000
# 4 0.0000 0.0000 0.0000 6.6723 0.0000 -3.5067
# 5 1.1627 -3.4868 -4.8245 0.0000 33.1577 0.0000
# 6 0.0000 0.0000 0.0000 -3.5067 0.0000 29.8345
#
#
#
# Elastic Compliance Matrix: (Units=1/GPa)
#
#
# Indices 1 2 3 4 5 6 
#
# 1 0.013208 -0.000684 -0.004997 0.000000 -0.001262 0.000000
# 2 -0.000684 0.013006 -0.000880 0.000000 0.001264 0.000000
# 3 -0.004997 -0.000880 0.020900 0.000000 0.003124 0.000000
# 4 0.000000 0.000000 0.000000 0.159742 0.000000 0.018776
# 5 -0.001262 0.001264 0.003124 0.000000 0.030791 0.000000
# 6 0.000000 0.000000 0.000000 0.018776 0.000000 0.035725
#
#
# Mechanical properties :
#
#
# Convention : Reuss Voigt Hill
#
# Bulk Modulus (GPa) = 29.42086 30.77174 30.09630
# Shear Modulus (GPa) = 16.78838 26.21904 21.50371
#
# Velocity S-wave (km/s) = 2.81953 3.52356 3.19102
# Velocity P-wave (km/s) = 4.95291 5.57900 5.27525
#
# Compressibility (1/GPa) = 0.03398949
#
# Stress axis : x y z
#
# Youngs Moduli (GPa) = 75.71418 76.88984 47.84612
#
# Poissons Ratio (x) = 0.05261 0.23911
# Poissons Ratio (y) = 0.05180 0.04213
# Poissons Ratio (z) = 0.37837 0.06770
#
# Static dielectric constant tensor:
#      x y z
#    x 3.875050 0.000000 -0.002250 
#    y 0.000000 4.220010 0.000000 
#    z -0.002250 0.000000 4.058940 
# 
# 
# High freq. dielectric constant tensor:
#      x y z
#    x 1.834910 0.000000 0.003280 
#    y 0.000000 1.836860 0.000000 
#    z 0.003280 0.000000 1.825790 
# 
# From -- ./inp_files/296164.got.cif
#   From: 2010.06.25/outbox.cif.g09.slc.cpg/sg15_149_cif.got.tgz:296164.got - 2010.06.28 07:06:18.
