data_PCOD8149648
_publ_section_title
;
Structure prediction by ZEFSAII (Michael W. Deem and Ramdas Pophale) SiO2 
 PCOD8149648
Probable space group: C 2/C
;
_chemical_formula_sum "Si O2"
_cell_formula_units_Z 64
_cell_length_a 14.229230
_cell_length_b 23.835738
_cell_length_c 16.087904
_cell_angle_alpha 90.000000
_cell_angle_beta 146.962067
_cell_angle_gamma 90.000000
_cell_volume 2974.819813
_symmetry_space_group_name_H-M "C 2/C"
_symmetry_group_IT_number 15
_symmetry_cell_setting 'monoclinic'
loop_
_space_group_symop_operation_xyz
x,y,z
-x,y,1/2-z
-x,-y,-z
x,-y,1/2+z
1/2+x,1/2+y,z
1/2-x,1/2+y,1/2-z
1/2-x,1/2-y,-z
1/2+x,1/2-y,1/2+z
loop_
_atom_site_type_symbol
_atom_site_label
_atom_site_fract_x
_atom_site_fract_y
_atom_site_fract_z
Si Si1 0.311111 0.981605 0.998362
Si Si2 0.047139 0.402800 0.878183
Si Si3 0.858105 0.424491 0.276440
Si Si4 0.236856 0.752570 0.194298
Si Si5 0.577313 0.827870 0.044434
Si Si6 0.746917 0.038733 0.233910
Si Si7 0.403749 0.408299 0.551896
Si Si8 0.397417 0.712496 0.067428
O O1 0.322337 0.967258 0.910052
O O2 0.484495 0.951562 0.159036
O O3 0.142823 0.957460 0.918096
O O4 0.311958 0.047534 0.020571
O O5 0.880710 0.425109 0.803988
O O6 0.000000 0.382878 0.750000
O O7 0.130401 0.351097 0.992382
O O8 0.927861 0.379864 0.395470
O O9 0.739285 0.474738 0.224779
O O10 0.741940 0.393752 0.123137
O O11 0.282102 0.782620 0.316419
O O12 0.415691 0.739538 0.278964
O O13 0.133354 0.792820 0.054856
O O14 0.115029 0.697712 0.112678
O O15 0.925165 0.072398 0.368598
O O16 0.414553 0.350982 0.613688
O O17 0.250000 0.750000 0.000000
#
# Coordination Sequence:
#
# PCOD8149648 Si02
#       8
#     8   8   8   8   8   8   8   8
#     4  11  22  38  62  98 135 177 220 252 331 419
#     4  11  22  42  71  95 123 176 230 281 341 413
#     4  11  21  40  63  88 131 183 214 267 328 402
#     4  10  24  40  63  91 122 176 231 274 330 399
#     4  11  21  44  68  90 125 168 229 281 343 387
#     4  11  22  41  63  98 136 171 221 271 336 399
#     4  12  25  37  63 101 142 173 216 273 326 396
#     4  11  24  37  57  92 136 180 223 263 318 398
#
# _framework density 21.513908000000001
#
# number of rings (size 3 to 8) (size 9 to 14) (size 15 to 20)
#    0.000    1.000    3.750    4.500    3.500    2.000 
#    0.000    0.625    0.000    0.000    0.000    0.000 
#    0.000    0.000    0.000    0.000    0.000    0.000 
#
# Total GULP energy -396543.383646 kJ/mol
# GULP energy per Si atom -12391.980739 kJ/mol
# Density = 2.146494 g / cm^3
# Si number density = 21.513908 Si / 1000 Ang^3
#
#
#
# Elastic Constant Matrix: (Units=GPa)
#
#
# Indices 1 2 3 4 5 6 
#
# 1 77.5392 26.5567 16.6122 0.0000 -15.2440 0.0000
# 2 26.5567 114.5294 29.6258 0.0000 0.7698 0.0000
# 3 16.6122 29.6258 82.6275 0.0001 -14.1948 0.0001
# 4 0.0000 0.0000 0.0001 33.0598 0.0001 1.8704
# 5 -15.2440 0.7698 -14.1948 0.0001 36.8638 0.0001
# 6 0.0000 0.0000 0.0001 1.8704 0.0001 27.1620
#
#
#
# Elastic Compliance Matrix: (Units=1/GPa)
#
#
# Indices 1 2 3 4 5 6 
#
# 1 0.015449 -0.003409 -0.000829 0.000000 0.006141 0.000000
# 2 -0.003409 0.010470 -0.003585 0.000000 -0.003009 0.000000
# 3 -0.000829 -0.003585 0.014466 0.000000 0.005302 0.000000
# 4 0.000000 0.000000 0.000000 0.030367 0.000000 -0.002091
# 5 0.006141 -0.003009 0.005302 0.000000 0.031771 0.000000
# 6 0.000000 0.000000 0.000000 -0.002091 0.000000 0.036960
#
#
# Mechanical properties :
#
#
# Convention : Reuss Voigt Hill
#
# Bulk Modulus (GPa) = 40.42424 46.69838 43.56131
# Shear Modulus (GPa) = 30.60463 32.87722 31.74093
#
# Velocity S-wave (km/s) = 3.77576 3.91344 3.84522
# Velocity P-wave (km/s) = 6.15135 6.49410 6.32505
#
# Compressibility (1/GPa) = 0.02473764
#
# Stress axis : x y z
#
# Youngs Moduli (GPa) = 64.72868 95.51516 69.12988
#
# Poissons Ratio (x) = 0.32563 0.05729
# Poissons Ratio (y) = 0.22067 0.24785
# Poissons Ratio (z) = 0.05365 0.34245
#
# Static dielectric constant tensor:
#      x y z
#    x 3.733800 0.000000 -0.156070 
#    y 0.000000 4.019390 0.000000 
#    z -0.156070 0.000000 4.055900 
# 
# 
# High freq. dielectric constant tensor:
#      x y z
#    x 1.816160 0.000000 -0.019160 
#    y 0.000000 1.847790 0.000000 
#    z -0.019160 0.000000 1.857320 
# 
# From -- ./inp_files/207383.got.cif
#   From: 2010.06.25/outbox.cif.g09.slc.cpg/sg15_104_cif.got.tgz:207383.got - 2010.06.28 07:06:18.
