data_PCOD8149698
_publ_section_title
;
Structure prediction by ZEFSAII (Michael W. Deem and Ramdas Pophale) SiO2 
 PCOD8149698
Probable space group: C 2/C
;
_chemical_formula_sum "Si O2"
_cell_formula_units_Z 44
_cell_length_a 15.575516
_cell_length_b 12.463720
_cell_length_c 9.777372
_cell_angle_alpha 90.000000
_cell_angle_beta 90.472208
_cell_angle_gamma 90.000000
_cell_volume 1898.005719
_symmetry_space_group_name_H-M "C 2/C"
_symmetry_group_IT_number 15
_symmetry_cell_setting 'monoclinic'
loop_
_space_group_symop_operation_xyz
x,y,z
-x,y,1/2-z
-x,-y,-z
x,-y,1/2+z
1/2+x,1/2+y,z
1/2-x,1/2+y,1/2-z
1/2-x,1/2-y,-z
1/2+x,1/2-y,1/2+z
loop_
_atom_site_type_symbol
_atom_site_label
_atom_site_fract_x
_atom_site_fract_y
_atom_site_fract_z
Si Si1 0.660918 0.277862 0.426712
Si Si2 0.593827 0.351099 0.692262
Si Si3 0.356201 0.827695 0.112802
Si Si4 0.859380 0.379547 0.820036
Si Si5 0.500000 0.034762 0.750000
Si Si6 0.785086 0.033401 0.755447
O O1 0.750000 0.250000 0.500000
O O2 0.589679 0.288840 0.546305
O O3 0.632451 0.185065 0.321935
O O4 0.667489 0.390355 0.350657
O O5 0.500000 0.371400 0.750000
O O6 0.650013 0.281306 0.800340
O O7 0.641403 0.464339 0.667219
O O8 0.443081 0.890128 0.152282
O O9 0.271597 0.898591 0.139178
O O10 0.357759 0.800324 0.951044
O O11 0.774778 0.451305 0.826650
O O12 0.939491 0.459256 0.840442
#
# Coordination Sequence:
#
# PCOD8149698 Si02
#       6
#     8   8   8   8   4   8
#     4  12  25  49  71 104 146 193 242 303 358 436
#     4  12  27  47  74 105 149 191 237 304 371 426
#     4  11  23  44  73 106 140 188 246 301 359 440
#     4  11  25  41  73 107 141 186 250 299 365 434
#     4  10  24  40  70 106 146 184 242 312 370 426
#     4  11  24  45  75 101 144 190 246 291 366 440
#
# _framework density 23.182227999999999
#
# number of rings (size 3 to 8) (size 9 to 14) (size 15 to 20)
#    0.000    0.727    4.545    1.636    5.091    5.091 
#    1.636    0.000    0.000    0.000    0.000    0.000 
#    0.000    0.000    0.000    0.000    0.000    0.000 
#
# Total GULP energy -272838.589069 kJ/mol
# GULP energy per Si atom -12401.754049 kJ/mol
# Density = 2.312946 g / cm^3
# Si number density = 23.182228 Si / 1000 Ang^3
#
#
#
# Elastic Constant Matrix: (Units=GPa)
#
#
# Indices 1 2 3 4 5 6 
#
# 1 108.0722 32.7966 27.7776 0.0000 -17.3963 0.0000
# 2 32.7966 90.5977 8.6534 0.0000 4.3862 0.0000
# 3 27.7776 8.6534 111.3794 0.0000 -1.6787 0.0000
# 4 0.0000 0.0000 0.0000 40.6180 0.0000 -3.2151
# 5 -17.3963 4.3862 -1.6787 0.0000 20.7568 0.0000
# 6 0.0000 0.0000 0.0000 -3.2151 0.0000 26.9507
#
#
#
# Elastic Compliance Matrix: (Units=1/GPa)
#
#
# Indices 1 2 3 4 5 6 
#
# 1 0.013516 -0.005218 -0.002782 0.000000 0.012206 0.000000
# 2 -0.005218 0.013258 0.000163 0.000000 -0.007162 0.000000
# 3 -0.002782 0.000163 0.009635 0.000000 -0.001586 0.000000
# 4 0.000000 0.000000 0.000000 0.024854 0.000000 0.002965
# 5 0.012206 -0.007162 -0.001586 0.000000 0.059792 0.000000
# 6 0.000000 0.000000 0.000000 0.002965 0.000000 0.037459
#
#
# Mechanical properties :
#
#
# Convention : Reuss Voigt Hill
#
# Bulk Modulus (GPa) = 48.22295 49.83385 49.02840
# Shear Modulus (GPa) = 27.60918 33.71987 30.66453
#
# Velocity S-wave (km/s) = 3.45478 3.81800 3.64092
# Velocity P-wave (km/s) = 6.06307 6.40152 6.23459
#
# Compressibility (1/GPa) = 0.02073701
#
# Stress axis : x y z
#
# Youngs Moduli (GPa) = 73.98455 75.42655 103.78371
#
# Poissons Ratio (x) = 0.39359 0.28868
# Poissons Ratio (y) = 0.38607 -0.01696
# Poissons Ratio (z) = 0.20579 -0.01233
#
# Static dielectric constant tensor:
#      x y z
#    x -1.350570 0.000000 4.851170 
#    y 0.000000 4.275340 0.000000 
#    z 4.851170 0.000000 -0.247230 
# 
# 
# High freq. dielectric constant tensor:
#      x y z
#    x 1.913630 0.000000 -0.011350 
#    y 0.000000 1.919280 0.000000 
#    z -0.011350 0.000000 1.915260 
# 
# From -- ./inp_files/47116.got.cif
#   From: 2010.06.25/outbox.cif.g09.slc.cpg/sg15_24_cif.got.tgz:47116.got - 2010.06.28 07:06:18.
