data_PCOD8149357
_publ_section_title
;
Structure prediction by ZEFSAII (Michael W. Deem and Ramdas Pophale) SiO2 
 PCOD8149357
Probable space group: C 2/C
;
_chemical_formula_sum "Si O2"
_cell_formula_units_Z 56
_cell_length_a 12.103154
_cell_length_b 9.098808
_cell_length_c 24.305320
_cell_angle_alpha 90.000000
_cell_angle_beta 111.421554
_cell_angle_gamma 90.000000
_cell_volume 2491.701758
_symmetry_space_group_name_H-M "C 2/C"
_symmetry_group_IT_number 15
_symmetry_cell_setting 'monoclinic'
loop_
_space_group_symop_operation_xyz
x,y,z
-x,y,1/2-z
-x,-y,-z
x,-y,1/2+z
1/2+x,1/2+y,z
1/2-x,1/2+y,1/2-z
1/2-x,1/2-y,-z
1/2+x,1/2-y,1/2+z
loop_
_atom_site_type_symbol
_atom_site_label
_atom_site_fract_x
_atom_site_fract_y
_atom_site_fract_z
Si Si1 0.872102 0.800388 0.969927
Si Si2 0.669548 0.596727 0.922480
Si Si3 0.020617 0.279218 0.818051
Si Si4 0.562180 0.704238 0.413961
Si Si5 0.785575 0.152355 0.799683
Si Si6 0.184616 0.527670 0.889701
Si Si7 0.094055 0.138188 0.219063
O O1 0.807880 0.644216 0.945968
O O2 0.995123 0.809946 0.959984
O O3 0.779877 0.928497 0.937626
O O4 0.897555 0.818259 0.039458
O O5 0.603084 0.644866 0.854354
O O6 0.661908 0.422093 0.928268
O O7 0.080113 0.434076 0.842569
O O8 0.000000 0.260405 0.750000
O O9 0.892532 0.269132 0.823473
O O10 0.626741 0.860827 0.422900
O O11 0.467387 0.682468 0.348743
O O12 0.749274 0.120753 0.855066
O O13 0.675835 0.223145 0.747834
O O14 0.826197 0.006325 0.774770
O O15 0.000000 0.108340 0.250000
#
# Coordination Sequence:
#
# PCOD8149357 Si02
#       7
#     8   8   8   8   8   8   8
#     4  10  23  47  71  93 134 176 223 274 342 380
#     4  10  23  45  70  99 130 176 227 276 324 409
#     4  11  24  42  67  95 135 176 217 270 339 396
#     4  12  24  41  68  98 133 171 222 280 331 394
#     4  12  25  41  63  93 136 178 213 273 334 392
#     4  11  25  42  64 101 130 174 223 271 330 401
#     4  12  26  40  63  98 135 173 224 269 331 407
#
# _framework density 22.474601
#
# number of rings (size 3 to 8) (size 9 to 14) (size 15 to 20)
#    0.000    0.857    4.286    1.714    6.000    1.714 
#    0.000    6.429    0.000    0.000    0.000    0.000 
#    0.000    0.000    0.000    0.000    0.000    0.000 
#
# Total GULP energy -347321.398360 kJ/mol
# GULP energy per Si atom -12404.335656 kJ/mol
# Density = 2.242345 g / cm^3
# Si number density = 22.474601 Si / 1000 Ang^3
#
#
#
# Elastic Constant Matrix: (Units=GPa)
#
#
# Indices 1 2 3 4 5 6 
#
# 1 85.1418 65.1375 9.9492 0.0000 -3.9986 0.0000
# 2 65.1375 107.2865 23.3395 0.0000 -1.9172 0.0000
# 3 9.9492 23.3395 68.9609 0.0000 -3.6543 0.0000
# 4 0.0000 0.0000 0.0000 19.7083 0.0000 -1.5563
# 5 -3.9986 -1.9172 -3.6543 0.0000 25.7760 0.0000
# 6 0.0000 0.0000 0.0000 -1.5563 0.0000 32.0269
#
#
#
# Elastic Compliance Matrix: (Units=1/GPa)
#
#
# Indices 1 2 3 4 5 6 
#
# 1 0.022246 -0.013808 0.001604 0.000000 0.002651 0.000000
# 2 -0.013808 0.018634 -0.004387 0.000000 -0.001378 0.000000
# 3 0.001604 -0.004387 0.015870 0.000000 0.002172 0.000000
# 4 0.000000 0.000000 0.000000 0.050936 0.000000 0.002475
# 5 0.002651 -0.001378 0.002172 0.000000 0.039413 0.000000
# 6 0.000000 0.000000 0.000000 0.002475 0.000000 0.031344
#
#
# Mechanical properties :
#
#
# Convention : Reuss Voigt Hill
#
# Bulk Modulus (GPa) = 42.43204 50.91572 46.67388
# Shear Modulus (GPa) = 22.78120 26.36645 24.57383
#
# Velocity S-wave (km/s) = 3.18723 3.42887 3.31025
# Velocity P-wave (km/s) = 5.69786 6.19517 5.95171
#
# Compressibility (1/GPa) = 0.02356710
#
# Stress axis : x y z
#
# Youngs Moduli (GPa) = 44.95234 53.66564 63.01369
#
# Poissons Ratio (x) = 0.74101 -0.10109
# Poissons Ratio (y) = 0.62069 0.27647
# Poissons Ratio (z) = -0.07211 0.23546
#
# Static dielectric constant tensor:
#      x y z
#    x 4.219850 0.000000 -0.038690 
#    y 0.000000 4.249350 0.000000 
#    z -0.038690 0.000000 4.092880 
# 
# 
# High freq. dielectric constant tensor:
#      x y z
#    x 1.885610 0.000000 -0.004280 
#    y 0.000000 1.889050 0.000000 
#    z -0.004280 0.000000 1.892060 
# 
# From -- ./inp_files/291599.got.cif
#   From: 2010.06.25/outbox.cif.g09.slc.cpg/sg15_146_cif.got.tgz:291599.got - 2010.06.28 07:06:18.
