data_PCOD8149240
_publ_section_title
;
Structure prediction by ZEFSAII (Michael W. Deem and Ramdas Pophale) SiO2 
 PCOD8149240
Probable space group: C 2/C
;
_chemical_formula_sum "Si O2"
_cell_formula_units_Z 40
_cell_length_a 23.967915
_cell_length_b 9.503263
_cell_length_c 16.844834
_cell_angle_alpha 90.000000
_cell_angle_beta 28.146540
_cell_angle_gamma 90.000000
_cell_volume 1809.929385
_symmetry_space_group_name_H-M "C 2/C"
_symmetry_group_IT_number 15
_symmetry_cell_setting 'monoclinic'
loop_
_space_group_symop_operation_xyz
x,y,z
-x,y,1/2-z
-x,-y,-z
x,-y,1/2+z
1/2+x,1/2+y,z
1/2-x,1/2+y,1/2-z
1/2-x,1/2-y,-z
1/2+x,1/2-y,1/2+z
loop_
_atom_site_type_symbol
_atom_site_label
_atom_site_fract_x
_atom_site_fract_y
_atom_site_fract_z
Si Si1 0.500000 0.374492 0.750000
Si Si2 0.281197 0.473417 0.110270
Si Si3 0.589544 0.375735 0.406029
Si Si4 0.000000 0.444227 0.750000
Si Si5 0.435894 0.169108 0.700556
Si Si6 0.267577 0.774656 0.068789
O O1 0.592461 0.471506 0.590596
O O2 0.420670 0.286246 0.787324
O O3 0.302346 0.423333 0.173034
O O4 0.185462 0.369012 0.191303
O O5 0.250065 0.636500 0.145155
O O6 0.500000 0.500000 0.500000
O O7 0.527605 0.233080 0.519580
O O8 0.654693 0.361914 0.240016
O O9 0.976591 0.532313 0.698888
O O10 0.106988 0.350781 0.582381
O O11 0.250000 0.750000 0.000000
#
# Coordination Sequence:
#
# PCOD8149240 Si02
#       6
#     4   8   8   4   8   8
#     4   9  21  40  70 104 135 179 232 298 344 433
#     4  11  24  43  71 101 142 187 237 291 368 417
#     4  11  30  46  72 103 145 186 244 298 358 431
#     4  11  25  46  74 110 145 181 250 290 370 425
#     4  10  23  44  72 102 139 189 234 293 357 437
#     4  12  28  46  73 106 144 191 234 304 357 432
#
# _framework density 22.10031
#
# number of rings (size 3 to 8) (size 9 to 14) (size 15 to 20)
#    0.000    1.200    2.000    1.200   14.000    4.000 
#    0.000    0.000    0.000    0.000    0.000    0.000 
#    0.000    0.000    0.000    0.000    0.000    0.000 
#
# Total GULP energy -247780.563504 kJ/mol
# GULP energy per Si atom -12389.028175 kJ/mol
# Density = 2.205001 g / cm^3
# Si number density = 22.100310 Si / 1000 Ang^3
#
#
#
# Elastic Constant Matrix: (Units=GPa)
#
#
# Indices 1 2 3 4 5 6 
#
# 1 144.8740 34.0138 50.6352 -0.0001 -10.0314 0.0000
# 2 34.0138 87.2753 53.9538 0.0000 -7.0494 -0.0001
# 3 50.6352 53.9538 141.9580 -0.0001 11.1320 0.0000
# 4 -0.0001 0.0000 -0.0001 34.7590 0.0000 3.6041
# 5 -10.0314 -7.0494 11.1320 0.0000 42.1632 0.0000
# 6 0.0000 -0.0001 0.0000 3.6041 0.0000 21.0893
#
#
#
# Elastic Compliance Matrix: (Units=1/GPa)
#
#
# Indices 1 2 3 4 5 6 
#
# 1 0.008321 -0.001430 -0.002615 0.000000 0.002431 0.000000
# 2 -0.001430 0.015947 -0.005855 0.000000 0.003872 0.000000
# 3 -0.002615 -0.005855 0.010546 0.000000 -0.004385 0.000000
# 4 0.000000 0.000000 0.000000 0.029289 0.000000 -0.005005
# 5 0.002431 0.003872 -0.004385 0.000000 0.026101 0.000000
# 6 0.000000 0.000000 0.000000 -0.005005 0.000000 0.048273
#
#
# Mechanical properties :
#
#
# Convention : Reuss Voigt Hill
#
# Bulk Modulus (GPa) = 66.60022 72.36809 69.48415
# Shear Modulus (GPa) = 30.62213 35.30260 32.96237
#
# Velocity S-wave (km/s) = 3.72640 4.00106 3.86617
# Velocity P-wave (km/s) = 6.97966 7.35942 7.17205
#
# Compressibility (1/GPa) = 0.01501497
#
# Stress axis : x y z
#
# Youngs Moduli (GPa) = 120.18404 62.70632 94.82072
#
# Poissons Ratio (x) = 0.08965 0.24797
# Poissons Ratio (y) = 0.17183 0.55515
# Poissons Ratio (z) = 0.31429 0.36713
#
# Static dielectric constant tensor:
#      x y z
#    x 4.229340 0.000000 0.016370 
#    y 0.000000 4.119900 0.000000 
#    z 0.016370 0.000000 3.989220 
# 
# 
# High freq. dielectric constant tensor:
#      x y z
#    x 1.883370 0.000000 0.001720 
#    y 0.000000 1.874280 0.000000 
#    z 0.001720 0.000000 1.875560 
# 
# From -- ./inp_files/102733.got.cif
#   From: 2010.06.25/outbox.cif.g09.slc.cpg/sg15_52_cif.got.tgz:102733.got - 2010.06.28 07:06:18.
