data_PCOD8149584
_publ_section_title
;
Structure prediction by ZEFSAII (Michael W. Deem and Ramdas Pophale) SiO2 
 PCOD8149584
Probable space group: C 2/C
;
_chemical_formula_sum "Si O2"
_cell_formula_units_Z 60
_cell_length_a 20.366574
_cell_length_b 17.522402
_cell_length_c 9.014866
_cell_angle_alpha 90.000000
_cell_angle_beta 116.186317
_cell_angle_gamma 90.000000
_cell_volume 2886.951128
_symmetry_space_group_name_H-M "C 2/C"
_symmetry_group_IT_number 15
_symmetry_cell_setting 'monoclinic'
loop_
_space_group_symop_operation_xyz
x,y,z
-x,y,1/2-z
-x,-y,-z
x,-y,1/2+z
1/2+x,1/2+y,z
1/2-x,1/2+y,1/2-z
1/2-x,1/2-y,-z
1/2+x,1/2-y,1/2+z
loop_
_atom_site_type_symbol
_atom_site_label
_atom_site_fract_x
_atom_site_fract_y
_atom_site_fract_z
Si Si1 0.873560 0.945055 0.247475
Si Si2 0.704792 0.349152 0.537489
Si Si3 0.800891 0.688012 0.870840
Si Si4 0.077201 0.089097 0.377081
Si Si5 0.735217 0.960838 0.670134
Si Si6 0.500000 0.006931 0.750000
Si Si7 0.595491 0.939973 0.093470
Si Si8 0.225451 0.164645 0.508564
O O1 0.865951 0.869809 0.135075
O O2 0.916423 0.925872 0.440791
O O3 0.918446 0.010028 0.207706
O O4 0.788721 0.970619 0.178517
O O5 0.776555 0.327067 0.514578
O O6 0.685532 0.279400 0.630015
O O7 0.725734 0.423230 0.650775
O O8 0.875559 0.645273 0.904604
O O9 0.738474 0.655645 0.697514
O O10 0.140478 0.147936 0.389113
O O11 0.000000 0.126279 0.250000
O O12 0.725095 0.897795 0.529363
O O13 0.657361 0.994847 0.638691
O O14 0.439832 0.057951 0.776985
O O15 0.464627 0.952519 0.592230
O O16 0.250000 0.250000 0.500000
#
# Coordination Sequence:
#
# PCOD8149584 Si02
#       8
#     8   8   8   8   8   4   8   8
#     4  11  21  38  63  98 122 160 212 257 317 389
#     4  11  21  36  60 101 121 157 203 275 323 373
#     4  11  22  37  64  90 129 157 209 272 324 372
#     4  11  23  39  63  91 131 167 204 261 318 384
#     4  11  21  36  67  94 123 160 218 271 317 372
#     4  10  24  38  62  90 124 164 222 258 322 392
#     4  11  21  40  63  91 122 170 211 268 320 381
#     4  11  22  39  62  92 125 166 214 264 312 383
#
# _framework density 20.783172
#
# number of rings (size 3 to 8) (size 9 to 14) (size 15 to 20)
#    0.000    1.067    5.333    2.000    1.867    0.000 
#    0.000    0.000   13.200    0.000    0.000    0.000 
#    0.000    0.000    0.000    0.000    0.000    0.000 
#
# Total GULP energy -371979.286489 kJ/mol
# GULP energy per Si atom -12399.309550 kJ/mol
# Density = 2.073587 g / cm^3
# Si number density = 20.783172 Si / 1000 Ang^3
#
#
#
# Elastic Constant Matrix: (Units=GPa)
#
#
# Indices 1 2 3 4 5 6 
#
# 1 110.5036 44.4777 37.3153 0.0000 1.8671 0.0000
# 2 44.4777 98.6523 36.4301 0.0000 6.5895 0.0000
# 3 37.3153 36.4301 121.2880 0.0000 -1.9613 0.0000
# 4 0.0000 0.0000 0.0000 31.5574 0.0000 -7.9496
# 5 1.8671 6.5895 -1.9613 0.0000 31.7175 0.0000
# 6 0.0000 0.0000 0.0000 -7.9496 0.0000 24.4013
#
#
#
# Elastic Compliance Matrix: (Units=1/GPa)
#
#
# Indices 1 2 3 4 5 6 
#
# 1 0.011574 -0.004398 -0.002238 0.000000 0.000094 0.000000
# 2 -0.004398 0.013288 -0.002681 0.000000 -0.002668 0.000000
# 3 -0.002238 -0.002681 0.009760 0.000000 0.001292 0.000000
# 4 0.000000 0.000000 0.000000 0.034521 0.000000 0.011247
# 5 0.000094 -0.002668 0.001292 0.000000 0.032157 0.000000
# 6 0.000000 0.000000 0.000000 0.011247 0.000000 0.044645
#
#
# Mechanical properties :
#
#
# Convention : Reuss Voigt Hill
#
# Bulk Modulus (GPa) = 62.55273 62.98779 62.77026
# Shear Modulus (GPa) = 29.42758 31.68329 30.55544
#
# Velocity S-wave (km/s) = 3.76697 3.90868 3.83848
# Velocity P-wave (km/s) = 7.00594 7.12343 7.06493
#
# Compressibility (1/GPa) = 0.01598651
#
# Stress axis : x y z
#
# Youngs Moduli (GPa) = 86.40150 75.25780 102.46210
#
# Poissons Ratio (x) = 0.33097 0.22935
# Poissons Ratio (y) = 0.37998 0.27472
# Poissons Ratio (z) = 0.19340 0.20178
#
# Static dielectric constant tensor:
#      x y z
#    x 3.703180 0.000000 -0.238400 
#    y 0.000000 3.764030 0.000000 
#    z -0.238400 0.000000 4.018020 
# 
# 
# High freq. dielectric constant tensor:
#      x y z
#    x 1.794140 0.000000 -0.019940 
#    y 0.000000 1.806540 0.000000 
#    z -0.019940 0.000000 1.830770 
# 
# From -- ./inp_files/57023.got.cif
#   From: 2010.06.25/outbox.cif.g09.slc.cpg/sg15_29_cif.got.tgz:57023.got - 2010.06.28 07:06:18.
