data_PCOD8149667
_publ_section_title
;
Structure prediction by ZEFSAII (Michael W. Deem and Ramdas Pophale) SiO2 
 PCOD8149667
Probable space group: C 2/C
;
_chemical_formula_sum "Si O2"
_cell_formula_units_Z 36
_cell_length_a 21.834141
_cell_length_b 10.268657
_cell_length_c 8.437972
_cell_angle_alpha 90.000000
_cell_angle_beta 58.611159
_cell_angle_gamma 90.000000
_cell_volume 1614.986250
_symmetry_space_group_name_H-M "C 2/C"
_symmetry_group_IT_number 15
_symmetry_cell_setting 'monoclinic'
loop_
_space_group_symop_operation_xyz
x,y,z
-x,y,1/2-z
-x,-y,-z
x,-y,1/2+z
1/2+x,1/2+y,z
1/2-x,1/2+y,1/2-z
1/2-x,1/2-y,-z
1/2+x,1/2-y,1/2+z
loop_
_atom_site_type_symbol
_atom_site_label
_atom_site_fract_x
_atom_site_fract_y
_atom_site_fract_z
Si Si1 0.193951 0.397918 0.227765
Si Si2 0.303045 0.829675 0.641075
Si Si3 0.059268 0.825480 0.442058
Si Si4 0.964566 0.621602 0.468096
Si Si5 0.000000 0.976021 0.250000
O O1 0.244660 0.284784 0.226679
O O2 0.224217 0.544165 0.221654
O O3 0.120601 0.389448 0.426027
O O4 0.180942 0.377086 0.059031
O O5 0.373893 0.770523 0.626151
O O6 0.985283 0.743287 0.552273
O O7 0.055999 0.938377 0.575009
O O8 0.057510 0.891855 0.271264
O O9 0.000000 0.642602 0.250000
O O10 0.000000 0.500000 0.500000
#
# Coordination Sequence:
#
# PCOD8149667 Si02
#       5
#     8   8   8   8   4
#     4  11  26  46  69 109 140 188 238 294 353 428
#     4  11  26  46  71 103 144 187 235 294 360 419
#     4  11  23  43  67 100 135 185 227 292 349 422
#     4  12  24  42  71 102 135 180 241 286 338 412
#     4  10  24  40  66 100 140 176 232 286 358 418
#
# _framework density 22.29121
#
# number of rings (size 3 to 8) (size 9 to 14) (size 15 to 20)
#    0.000    0.889    3.333    2.667    1.556    8.000 
#    0.000    0.000    0.000    0.000    0.000    0.000 
#    0.000    0.000    0.000    0.000    0.000    0.000 
#
# Total GULP energy -223132.366725 kJ/mol
# GULP energy per Si atom -12396.242596 kJ/mol
# Density = 2.224047 g / cm^3
# Si number density = 22.291210 Si / 1000 Ang^3
#
#
#
# Elastic Constant Matrix: (Units=GPa)
#
#
# Indices 1 2 3 4 5 6 
#
# 1 121.2540 81.4187 50.0630 0.0000 6.7376 0.0000
# 2 81.4187 192.9039 53.1855 0.0000 9.0470 0.0000
# 3 50.0630 53.1855 90.3329 0.0000 5.3071 0.0000
# 4 0.0000 0.0000 0.0000 20.8546 0.0000 -4.4333
# 5 6.7376 9.0470 5.3071 0.0000 36.3123 0.0000
# 6 0.0000 0.0000 0.0000 -4.4333 0.0000 52.5651
#
#
#
# Elastic Compliance Matrix: (Units=1/GPa)
#
#
# Indices 1 2 3 4 5 6 
#
# 1 0.013036 -0.004165 -0.004732 0.000000 -0.000689 0.000000
# 2 -0.004165 0.007557 -0.002094 0.000000 -0.000804 0.000000
# 3 -0.004732 -0.002094 0.014972 0.000000 -0.000789 0.000000
# 4 0.000000 0.000000 0.000000 0.048827 0.000000 0.004118
# 5 -0.000689 -0.000804 -0.000789 0.000000 0.027982 0.000000
# 6 0.000000 0.000000 0.000000 0.004118 0.000000 0.019371
#
#
# Mechanical properties :
#
#
# Convention : Reuss Voigt Hill
#
# Bulk Modulus (GPa) = 73.62056 85.98059 79.80057
# Shear Modulus (GPa) = 31.59492 36.60130 34.09811
#
# Velocity S-wave (km/s) = 3.76888 4.05651 3.91534
# Velocity P-wave (km/s) = 7.21372 7.78432 7.50444
#
# Compressibility (1/GPa) = 0.01358316
#
# Stress axis : x y z
#
# Youngs Moduli (GPa) = 76.71163 132.33043 66.79328
#
# Poissons Ratio (x) = 0.55117 0.31605
# Poissons Ratio (y) = 0.31951 0.13985
# Poissons Ratio (z) = 0.36298 0.27706
#
# Static dielectric constant tensor:
#      x y z
#    x 4.264010 0.000000 0.101880 
#    y 0.000000 4.823180 0.000000 
#    z 0.101880 0.000000 3.463260 
# 
# 
# High freq. dielectric constant tensor:
#      x y z
#    x 1.882220 0.000000 0.021420 
#    y 0.000000 1.915140 0.000000 
#    z 0.021420 0.000000 1.859060 
# 
# From -- ./inp_files/45884.got.cif
#   From: 2010.06.25/outbox.cif.g09.slc.cpg/sg15_23_cif.got.tgz:45884.got - 2010.06.28 07:06:18.
