data_PCOD8149526
_publ_section_title
;
Structure prediction by ZEFSAII (Michael W. Deem and Ramdas Pophale) SiO2 
 PCOD8149526
Probable space group: C 2/C
;
_chemical_formula_sum "Si O2"
_cell_formula_units_Z 36
_cell_length_a 15.789619
_cell_length_b 7.340684
_cell_length_c 13.953797
_cell_angle_alpha 90.000000
_cell_angle_beta 105.406110
_cell_angle_gamma 90.000000
_cell_volume 1559.221568
_symmetry_space_group_name_H-M "C 2/C"
_symmetry_group_IT_number 15
_symmetry_cell_setting 'monoclinic'
loop_
_space_group_symop_operation_xyz
x,y,z
-x,y,1/2-z
-x,-y,-z
x,-y,1/2+z
1/2+x,1/2+y,z
1/2-x,1/2+y,1/2-z
1/2-x,1/2-y,-z
1/2+x,1/2-y,1/2+z
loop_
_atom_site_type_symbol
_atom_site_label
_atom_site_fract_x
_atom_site_fract_y
_atom_site_fract_z
Si Si1 0.500000 0.688950 0.750000
Si Si2 0.335228 0.165136 0.482066
Si Si3 0.845624 0.059466 0.823340
Si Si4 0.669772 0.852701 0.163101
Si Si5 0.012535 0.506715 0.889622
O O1 0.418220 0.565135 0.760361
O O2 0.534952 0.814224 0.847882
O O3 0.250000 0.250000 0.500000
O O4 0.376319 0.298191 0.413789
O O5 0.402879 0.140309 0.591820
O O6 0.312750 0.969211 0.427693
O O7 0.749413 0.120708 0.760109
O O8 0.839256 0.859178 0.866544
O O9 0.577269 0.915979 0.185034
O O10 0.000000 0.500000 0.000000
#
# Coordination Sequence:
#
# PCOD8149526 Si02
#       5
#     4   8   8   8   8
#     4  12  24  44  78 102 148 194 246 300 374 430
#     4  11  26  46  72 107 147 186 243 302 364 434
#     4  12  25  46  72 107 139 195 245 293 366 439
#     4  11  24  47  71 101 144 185 239 294 362 431
#     4  10  23  48  70 104 147 187 238 308 357 433
#
# _framework density 23.088443999999999
#
# number of rings (size 3 to 8) (size 9 to 14) (size 15 to 20)
#    0.000    0.889    6.667    0.000    6.222    4.444 
#    4.000    0.000    0.000    0.000    0.000    0.000 
#    0.000    0.000    0.000    0.000    0.000    0.000 
#
# Total GULP energy -223128.667178 kJ/mol
# GULP energy per Si atom -12396.037065 kJ/mol
# Density = 2.303589 g / cm^3
# Si number density = 23.088444 Si / 1000 Ang^3
#
#
#
# Elastic Constant Matrix: (Units=GPa)
#
#
# Indices 1 2 3 4 5 6 
#
# 1 172.9338 53.0457 29.5956 0.0000 5.0129 0.0000
# 2 53.0457 167.5170 53.9237 0.0000 -3.1851 0.0000
# 3 29.5956 53.9237 64.5481 0.0000 -5.0436 0.0000
# 4 0.0000 0.0000 0.0000 35.6713 0.0000 -10.5040
# 5 5.0129 -3.1851 -5.0436 0.0000 36.3777 0.0000
# 6 0.0000 0.0000 0.0000 -10.5040 0.0000 38.2667
#
#
#
# Elastic Compliance Matrix: (Units=1/GPa)
#
#
# Indices 1 2 3 4 5 6 
#
# 1 0.006604 -0.001516 -0.001863 0.000000 -0.001301 0.000000
# 2 -0.001516 0.008515 -0.006413 0.000000 0.000065 0.000000
# 3 -0.001863 -0.006413 0.021918 0.000000 0.002734 0.000000
# 4 0.000000 0.000000 0.000000 0.030499 0.000000 0.008372
# 5 -0.001301 0.000065 0.002734 0.000000 0.028053 0.000000
# 6 0.000000 0.000000 0.000000 0.008372 0.000000 0.028430
#
#
# Mechanical properties :
#
#
# Convention : Reuss Voigt Hill
#
# Bulk Modulus (GPa) = 57.29986 75.34764 66.32375
# Shear Modulus (GPa) = 33.46198 39.95873 36.71036
#
# Velocity S-wave (km/s) = 3.81109 4.16466 3.99179
# Velocity P-wave (km/s) = 6.65111 7.47202 7.07348
#
# Compressibility (1/GPa) = 0.01745205
#
# Stress axis : x y z
#
# Youngs Moduli (GPa) = 151.41828 117.43375 45.62468
#
# Poissons Ratio (x) = 0.17807 0.08500
# Poissons Ratio (y) = 0.22960 0.29261
# Poissons Ratio (z) = 0.28209 0.75316
#
# Static dielectric constant tensor:
#      x y z
#    x 5.129030 0.000000 0.651640 
#    y 0.000000 4.229090 0.000000 
#    z 0.651640 0.000000 4.806060 
# 
# 
# High freq. dielectric constant tensor:
#      x y z
#    x 1.934780 0.000000 0.004900 
#    y 0.000000 1.910760 0.000000 
#    z 0.004900 0.000000 1.896650 
# 
# From -- ./inp_files/150286.got.cif
#   From: 2010.06.25/outbox.cif.g09.slc.cpg/sg15_76_cif.got.tgz:150286.got - 2010.06.28 07:06:18.
