data_PCOD8149424
_publ_section_title
;
Structure prediction by ZEFSAII (Michael W. Deem and Ramdas Pophale) SiO2 
 PCOD8149424
Probable space group: C 2/C
;
_chemical_formula_sum "Si O2"
_cell_formula_units_Z 60
_cell_length_a 8.789974
_cell_length_b 12.974925
_cell_length_c 26.117427
_cell_angle_alpha 90.000000
_cell_angle_beta 65.962637
_cell_angle_gamma 90.000000
_cell_volume 2720.362605
_symmetry_space_group_name_H-M "C 2/C"
_symmetry_group_IT_number 15
_symmetry_cell_setting 'monoclinic'
loop_
_space_group_symop_operation_xyz
x,y,z
-x,y,1/2-z
-x,-y,-z
x,-y,1/2+z
1/2+x,1/2+y,z
1/2-x,1/2+y,1/2-z
1/2-x,1/2-y,-z
1/2+x,1/2-y,1/2+z
loop_
_atom_site_type_symbol
_atom_site_label
_atom_site_fract_x
_atom_site_fract_y
_atom_site_fract_z
Si Si1 0.705316 0.213018 0.315836
Si Si2 0.177902 0.346502 0.342360
Si Si3 0.121824 0.791145 0.944210
Si Si4 0.603866 0.908172 0.191741
Si Si5 0.000000 0.740023 0.250000
Si Si6 0.404760 0.476824 0.811333
Si Si7 0.523921 0.276079 0.066225
Si Si8 0.915150 0.998627 0.609094
O O1 0.775507 0.327475 0.295023
O O2 0.581729 0.177903 0.286515
O O3 0.619311 0.216822 0.383496
O O4 0.856853 0.135365 0.297855
O O5 0.099920 0.288691 0.401491
O O6 0.348854 0.299344 0.297873
O O7 0.234956 0.462339 0.349354
O O8 0.025704 0.344722 0.324415
O O9 0.308786 0.780688 0.939039
O O10 0.070752 0.906553 0.933572
O O11 0.999744 0.762407 0.008381
O O12 0.500000 0.969708 0.250000
O O13 0.716165 0.982658 0.141852
O O14 0.500000 0.530677 0.750000
O O15 0.523246 0.463461 0.843678
O O16 0.518427 0.399574 0.078508
#
# Coordination Sequence:
#
# PCOD8149424 Si02
#       8
#     8   8   8   8   4   8   8   8
#     4  11  24  42  66  96 133 174 221 271 330 401
#     4  12  23  42  65  98 131 175 216 270 332 399
#     4  11  23  43  71  94 130 177 222 275 335 396
#     4  11  22  40  65  98 135 169 221 269 330 405
#     4  12  22  42  64  92 138 174 212 274 334 384
#     4  12  25  41  63  98 140 175 213 271 339 397
#     4  10  23  46  67  97 131 172 225 282 326 395
#     4  11  24  45  67  98 129 178 221 275 340 397
#
# _framework density 22.055882
#
# number of rings (size 3 to 8) (size 9 to 14) (size 15 to 20)
#    0.000    0.800    4.667    3.200    3.733    0.000 
#    2.400    8.000    0.000    0.000    0.000    0.000 
#    0.000    0.000    0.000    0.000    0.000    0.000 
#
# Total GULP energy -371803.955833 kJ/mol
# GULP energy per Si atom -12393.465194 kJ/mol
# Density = 2.200568 g / cm^3
# Si number density = 22.055882 Si / 1000 Ang^3
#
#
#
# Elastic Constant Matrix: (Units=GPa)
#
#
# Indices 1 2 3 4 5 6 
#
# 1 94.8092 13.0634 43.6007 0.0000 13.1275 0.0000
# 2 13.0634 64.6600 26.3180 0.0000 6.6352 0.0000
# 3 43.6007 26.3180 157.0477 0.0000 15.0515 0.0000
# 4 0.0000 0.0000 0.0000 26.1148 0.0000 3.4847
# 5 13.1275 6.6352 15.0515 0.0000 30.7784 0.0000
# 6 0.0000 0.0000 0.0000 3.4847 0.0000 30.2322
#
#
#
# Elastic Compliance Matrix: (Units=1/GPa)
#
#
# Indices 1 2 3 4 5 6 
#
# 1 0.012557 -0.000947 -0.002973 0.000000 -0.003698 0.000000
# 2 -0.000947 0.016829 -0.002359 0.000000 -0.002070 0.000000
# 3 -0.002973 -0.002359 0.007783 0.000000 -0.002029 0.000000
# 4 0.000000 0.000000 0.000000 0.038891 0.000000 -0.004483
# 5 -0.003698 -0.002070 -0.002029 0.000000 0.035506 0.000000
# 6 0.000000 0.000000 0.000000 -0.004483 0.000000 0.033594
#
#
# Mechanical properties :
#
#
# Convention : Reuss Voigt Hill
#
# Bulk Modulus (GPa) = 40.63255 53.60902 47.12079
# Shear Modulus (GPa) = 30.13456 32.99409 31.56433
#
# Velocity S-wave (km/s) = 3.70034 3.87192 3.78710
# Velocity P-wave (km/s) = 6.05964 6.65942 6.36659
#
# Compressibility (1/GPa) = 0.02461081
#
# Stress axis : x y z
#
# Youngs Moduli (GPa) = 79.63503 59.41959 128.49038
#
# Poissons Ratio (x) = 0.05630 0.38201
# Poissons Ratio (y) = 0.07545 0.30308
# Poissons Ratio (z) = 0.23676 0.14016
#
# Static dielectric constant tensor:
#      x y z
#    x 3.976590 0.000000 0.006730 
#    y 0.000000 3.761310 0.000000 
#    z 0.006730 0.000000 4.339350 
# 
# 
# High freq. dielectric constant tensor:
#      x y z
#    x 1.868840 0.000000 0.003930 
#    y 0.000000 1.853710 0.000000 
#    z 0.003930 0.000000 1.874040 
# 
# From -- ./inp_files/264674.got.cif
#   From: 2010.06.25/outbox.cif.g09.slc.cpg/sg15_133_cif.got.tgz:264674.got - 2010.06.28 07:06:18.
