data_PCOD8149908
_publ_section_title
;
Structure prediction by ZEFSAII (Michael W. Deem and Ramdas Pophale) SiO2 
 PCOD8149908
Probable space group: C 2/C
;
_chemical_formula_sum "Si O2"
_cell_formula_units_Z 52
_cell_length_a 18.931603
_cell_length_b 11.767158
_cell_length_c 10.608219
_cell_angle_alpha 90.000000
_cell_angle_beta 83.012669
_cell_angle_gamma 90.000000
_cell_volume 2345.653942
_symmetry_space_group_name_H-M "C 2/C"
_symmetry_group_IT_number 15
_symmetry_cell_setting 'monoclinic'
loop_
_space_group_symop_operation_xyz
x,y,z
-x,y,1/2-z
-x,-y,-z
x,-y,1/2+z
1/2+x,1/2+y,z
1/2-x,1/2+y,1/2-z
1/2-x,1/2-y,-z
1/2+x,1/2-y,1/2+z
loop_
_atom_site_type_symbol
_atom_site_label
_atom_site_fract_x
_atom_site_fract_y
_atom_site_fract_z
Si Si1 0.000000 0.726286 0.750000
Si Si2 0.653463 0.529300 0.470673
Si Si3 0.888719 0.579198 0.641908
Si Si4 0.757971 0.986118 0.800329
Si Si5 0.449148 0.334552 0.009564
Si Si6 0.635228 0.169008 0.328833
Si Si7 0.088772 0.249992 0.572173
O O1 0.068930 0.648495 0.760944
O O2 0.017505 0.810271 0.633107
O O3 0.692049 0.489811 0.589421
O O4 0.698783 0.499951 0.337703
O O5 0.577510 0.464326 0.477302
O O6 0.638229 0.663167 0.482008
O O7 0.802887 0.585072 0.682444
O O8 0.912155 0.446333 0.644004
O O9 0.908739 0.629188 0.500309
O O10 0.718751 0.863315 0.811091
O O11 0.381411 0.253148 0.052012
O O12 0.509387 0.302543 0.099590
O O13 0.618463 0.235243 0.204474
#
# Coordination Sequence:
#
# PCOD8149908 Si02
#       7
#     4   8   8   8   8   8   8
#     4  10  24  42  70  94 140 178 228 298 342 398
#     4  12  26  47  70 103 149 188 242 281 355 433
#     4   9  24  42  68 101 134 175 232 286 355 414
#     4  10  26  43  71 107 137 193 227 301 350 420
#     4  11  26  43  70 104 133 193 231 296 342 415
#     4  10  24  43  70 103 135 177 237 292 354 423
#     4  11  24  46  71 101 138 191 231 296 353 412
#
# _framework density 22.168655999999999
#
# number of rings (size 3 to 8) (size 9 to 14) (size 15 to 20)
#    0.923    0.615    0.000    2.769   10.769    5.538 
#    2.769    0.000    0.000    0.000    0.000    0.000 
#    0.000    0.000    0.000    0.000    0.000    0.000 
#
# Total GULP energy -322336.804819 kJ/mol
# GULP energy per Si atom -12397.569416 kJ/mol
# Density = 2.211820 g / cm^3
# Si number density = 22.168656 Si / 1000 Ang^3
#
#
#
# Elastic Constant Matrix: (Units=GPa)
#
#
# Indices 1 2 3 4 5 6 
#
# 1 95.6333 11.8458 29.7342 0.0000 -1.9904 0.0000
# 2 11.8458 65.8343 24.5398 0.0000 -7.7160 0.0000
# 3 29.7342 24.5398 113.1202 0.0000 -7.8641 0.0000
# 4 0.0000 0.0000 0.0000 27.2518 0.0000 -8.5815
# 5 -1.9904 -7.7160 -7.8641 0.0000 31.6990 0.0000
# 6 0.0000 0.0000 0.0000 -8.5815 0.0000 36.0906
#
#
#
# Elastic Compliance Matrix: (Units=1/GPa)
#
#
# Indices 1 2 3 4 5 6 
#
# 1 0.011452 -0.001044 -0.002800 0.000000 -0.000230 0.000000
# 2 -0.001044 0.016944 -0.003174 0.000000 0.003271 0.000000
# 3 -0.002800 -0.003174 0.010378 0.000000 0.001626 0.000000
# 4 0.000000 0.000000 0.000000 0.039665 0.000000 0.009431
# 5 -0.000230 0.003271 0.001626 0.000000 0.032732 0.000000
# 6 0.000000 0.000000 0.000000 0.009431 0.000000 0.029951
#
#
# Mechanical properties :
#
#
# Convention : Reuss Voigt Hill
#
# Bulk Modulus (GPa) = 40.42304 45.20304 42.81304
# Shear Modulus (GPa) = 30.59947 32.90615 31.75281
#
# Velocity S-wave (km/s) = 3.71927 3.85691 3.78872
# Velocity P-wave (km/s) = 6.05953 6.34580 6.20432
#
# Compressibility (1/GPa) = 0.02473836
#
# Stress axis : x y z
#
# Youngs Moduli (GPa) = 87.32410 59.01799 96.36102
#
# Poissons Ratio (x) = 0.06161 0.26977
# Poissons Ratio (y) = 0.09116 0.30584
# Poissons Ratio (z) = 0.24447 0.18732
#
# Static dielectric constant tensor:
#      x y z
#    x 4.091240 0.000000 0.010320 
#    y 0.000000 3.919890 0.000000 
#    z 0.010320 0.000000 3.841220 
# 
# 
# High freq. dielectric constant tensor:
#      x y z
#    x 1.874830 0.000000 -0.001030 
#    y 0.000000 1.870740 0.000000 
#    z -0.001030 0.000000 1.871600 
# 
# From -- ./inp_files/55337.got.cif
#   From: 2010.06.25/outbox.cif.g09.slc.cpg/sg15_28_cif.got.tgz:55337.got - 2010.06.28 07:06:18.
