data_PCOD8149216
_publ_section_title
;
Structure prediction by ZEFSAII (Michael W. Deem and Ramdas Pophale) SiO2 
 PCOD8149216
Probable space group: C 2/C
;
_chemical_formula_sum "Si O2"
_cell_formula_units_Z 24
_cell_length_a 16.565074
_cell_length_b 7.282875
_cell_length_c 12.609320
_cell_angle_alpha 90.000000
_cell_angle_beta 34.477012
_cell_angle_gamma 90.000000
_cell_volume 861.117254
_symmetry_space_group_name_H-M "C 2/C"
_symmetry_group_IT_number 15
_symmetry_cell_setting 'monoclinic'
loop_
_space_group_symop_operation_xyz
x,y,z
-x,y,1/2-z
-x,-y,-z
x,-y,1/2+z
1/2+x,1/2+y,z
1/2-x,1/2+y,1/2-z
1/2-x,1/2-y,-z
1/2+x,1/2-y,1/2+z
loop_
_atom_site_type_symbol
_atom_site_label
_atom_site_fract_x
_atom_site_fract_y
_atom_site_fract_z
Si Si1 0.682446 0.184491 0.963954
Si Si2 0.334697 0.570892 0.592736
Si Si3 0.471654 0.903677 0.141476
O O1 0.613370 0.361221 0.978476
O O2 0.798129 0.099882 0.756657
O O3 0.750000 0.250000 0.000000
O O4 0.560254 0.035934 0.125845
O O5 0.463558 0.700892 0.417125
O O6 0.199071 0.605181 0.660694
O O7 0.500000 0.000000 0.000000
#
# Coordination Sequence:
#
# PCOD8149216 Si02
#       3
#     8   8   8
#     4  11  24  43  70 102 142 189 233 287 360 425
#     4  11  23  47  71 101 146 182 238 297 352 416
#     4  10  23  44  71 101 144 189 233 298 356 412
#
# _framework density 27.870768999999999
#
# number of rings (size 3 to 8) (size 9 to 14) (size 15 to 20)
#    0.000    1.333    6.667    0.000    0.000   10.667 
#    0.000    0.000    0.000    0.000    0.000    0.000 
#    0.000    0.000    0.000    0.000    0.000    0.000 
#
# Total GULP energy -148716.267264 kJ/mol
# GULP energy per Si atom -12393.022272 kJ/mol
# Density = 2.780733 g / cm^3
# Si number density = 27.870769 Si / 1000 Ang^3
#
#
#
# Elastic Constant Matrix: (Units=GPa)
#
#
# Indices 1 2 3 4 5 6 
#
# 1 142.2805 -14.7429 5.1394 0.0002 1.9581 -0.0001
# 2 -14.7429 151.8253 18.8092 0.0001 8.4770 0.0001
# 3 5.1394 18.8092 74.3769 0.0001 -19.2712 0.0000
# 4 0.0002 0.0001 0.0001 -79.7840 -0.0001 -6.3466
# 5 1.9581 8.4770 -19.2712 -0.0001 51.4476 0.0000
# 6 -0.0001 0.0001 0.0000 -6.3466 0.0000 50.1600
#
#
#
# Elastic Compliance Matrix: (Units=1/GPa)
#
#
# Indices 1 2 3 4 5 6 
#
# 1 0.007159 0.000849 -0.000904 0.000000 -0.000751 0.000000
# 2 0.000849 0.007082 -0.002393 0.000000 -0.002096 0.000000
# 3 -0.000904 -0.002393 0.015753 0.000000 0.006329 0.000000
# 4 0.000000 0.000000 0.000000 -0.012409 0.000000 -0.001570
# 5 -0.000751 -0.002096 0.006329 0.000000 0.022182 0.000000
# 6 0.000000 0.000000 0.000000 -0.001570 0.000000 0.019738
#
#
# Mechanical properties :
#
#
# Convention : Reuss Voigt Hill
#
# Bulk Modulus (GPa) = 39.84217 42.98824 41.41520
# Shear Modulus (GPa) = 68.71306 28.31650 48.51478
#
# Velocity S-wave (km/s) = 4.97068 3.19092 4.17670
# Velocity P-wave (km/s) = 6.87531 5.38828 6.17671
#
# Compressibility (1/GPa) = 0.02509904
#
# Stress axis : x y z
#
# Youngs Moduli (GPa) = 139.67752 141.19502 63.48195
#
# Poissons Ratio (x) = -0.11989 0.05739
# Poissons Ratio (y) = -0.11861 0.15189
# Poissons Ratio (z) = 0.12627 0.33784
#
# Static dielectric constant tensor:
#      x y z
#    x 6.728960 0.000000 -0.800340 
#    y 0.000000 6.362570 0.000000 
#    z -0.800340 0.000000 5.311590 
# 
# 
# High freq. dielectric constant tensor:
#      x y z
#    x 2.147380 0.000000 0.002080 
#    y 0.000000 2.134890 0.000000 
#    z 0.002080 0.000000 2.113920 
# 
# From -- ./inp_files/150025.got.cif
#   From: 2010.06.25/outbox.cif.g09.slc.cpg/sg15_76_cif.got.tgz:150025.got - 2010.06.28 07:06:18.
