data_PCOD8149574
_publ_section_title
;
Structure prediction by ZEFSAII (Michael W. Deem and Ramdas Pophale) SiO2 
 PCOD8149574
Probable space group: C 2/C
;
_chemical_formula_sum "Si O2"
_cell_formula_units_Z 44
_cell_length_a 11.409378
_cell_length_b 28.602806
_cell_length_c 13.688892
_cell_angle_alpha 90.000000
_cell_angle_beta 146.472110
_cell_angle_gamma 90.000000
_cell_volume 2467.445842
_symmetry_space_group_name_H-M "C 2/C"
_symmetry_group_IT_number 15
_symmetry_cell_setting 'monoclinic'
loop_
_space_group_symop_operation_xyz
x,y,z
-x,y,1/2-z
-x,-y,-z
x,-y,1/2+z
1/2+x,1/2+y,z
1/2-x,1/2+y,1/2-z
1/2-x,1/2-y,-z
1/2+x,1/2-y,1/2+z
loop_
_atom_site_type_symbol
_atom_site_label
_atom_site_fract_x
_atom_site_fract_y
_atom_site_fract_z
Si Si1 0.370446 0.886275 0.250031
Si Si2 0.508051 0.126013 0.449862
Si Si3 0.500000 0.976077 0.250000
Si Si4 0.793104 0.804090 0.043186
Si Si5 0.608371 0.373997 0.550058
Si Si6 0.201915 0.948222 0.451894
O O1 0.500000 0.862754 0.250000
O O2 0.479376 0.869339 0.425321
O O3 0.384135 0.942934 0.249811
O O4 0.128839 0.869251 0.075014
O O5 0.593140 0.173287 0.459049
O O6 0.264302 0.118505 0.249915
O O7 0.645705 0.082074 0.510654
O O8 0.676379 0.006459 0.426505
O O9 0.000000 0.814899 0.250000
O O10 0.750000 0.750000 0.000000
O O11 0.824425 0.826778 0.958855
O O12 0.624392 0.417995 0.489400
O O13 0.000000 0.965279 0.250000
#
# Coordination Sequence:
#
# PCOD8149574 Si02
#       6
#     8   8   4   8   8   8
#     4  10  24  41  53  81 113 168 204 225 281 348
#     4  11  20  38  62  83 121 156 180 245 308 338
#     4  10  24  38  52  86 108 152 222 238 270 360
#     4  11  20  36  65 104 121 136 183 237 299 360
#     4  11  20  38  62  83 121 156 180 245 308 338
#     4  11  19  36  58  84 114 149 195 256 311 329
#
# _framework density 17.832205999999999
#
# number of rings (size 3 to 8) (size 9 to 14) (size 15 to 20)
#    0.545    0.727    5.455    3.818    0.000    3.636 
#    0.000    0.000    0.000    1.091    0.000    0.000 
#    0.000    0.000    0.000    0.000    0.000    0.000 
#
# Total GULP energy -272826.573147 kJ/mol
# GULP energy per Si atom -12401.207870 kJ/mol
# Density = 1.779162 g / cm^3
# Si number density = 17.832206 Si / 1000 Ang^3
#
#
#
# Elastic Constant Matrix: (Units=GPa)
#
#
# Indices 1 2 3 4 5 6 
#
# 1 130.8415 34.2840 61.1671 0.0000 3.5056 0.0000
# 2 34.2840 97.3985 27.9101 0.0000 0.0865 0.0000
# 3 61.1671 27.9101 181.1939 0.0000 -7.7304 0.0000
# 4 0.0000 0.0000 0.0000 26.7973 0.0000 -1.5908
# 5 3.5056 0.0865 -7.7304 0.0000 4.6034 0.0000
# 6 0.0000 0.0000 0.0000 -1.5908 0.0000 1.8655
#
#
#
# Elastic Compliance Matrix: (Units=1/GPa)
#
#
# Indices 1 2 3 4 5 6 
#
# 1 0.010447 -0.002595 -0.003732 0.000000 -0.014173 0.000000
# 2 -0.002595 0.011430 -0.000872 0.000000 0.000298 0.000000
# 3 -0.003732 -0.000872 0.007578 0.000000 0.015583 0.000000
# 4 0.000000 0.000000 0.000000 0.039307 0.000000 0.033520
# 5 -0.014173 0.000298 0.015583 0.000000 0.254189 0.000000
# 6 0.000000 0.000000 0.000000 0.033520 0.000000 0.564646
#
#
# Mechanical properties :
#
#
# Convention : Reuss Voigt Hill
#
# Bulk Modulus (GPa) = 66.41229 72.90625 69.65927
# Shear Modulus (GPa) = 5.51259 25.72476 15.61867
#
# Velocity S-wave (km/s) = 1.76014 3.80228 2.96272
# Velocity P-wave (km/s) = 6.43852 7.76207 7.13107
#
# Compressibility (1/GPa) = 0.01505745
#
# Stress axis : x y z
#
# Youngs Moduli (GPa) = 95.71984 87.48728 131.96442
#
# Poissons Ratio (x) = 0.22707 0.49244
# Poissons Ratio (y) = 0.24844 0.11504
# Poissons Ratio (z) = 0.35719 0.07627
#
# Static dielectric constant tensor:
#      x y z
#    x 3.171470 0.000000 -0.022840 
#    y 0.000000 3.138460 0.000000 
#    z -0.022840 0.000000 3.518240 
# 
# 
# High freq. dielectric constant tensor:
#      x y z
#    x 1.672780 0.000000 -0.002680 
#    y 0.000000 1.670710 0.000000 
#    z -0.002680 0.000000 1.713640 
# 
# From -- ./inp_files/149062.got.cif
#   From: 2010.06.25/outbox.cif.g09.slc.cpg/sg15_75_cif.got.tgz:149062.got - 2010.06.28 07:06:18.
