data_PCOD8149819
_publ_section_title
;
Structure prediction by ZEFSAII (Michael W. Deem and Ramdas Pophale) SiO2 
 PCOD8149819
Probable space group: C 2/C
;
_chemical_formula_sum "Si O2"
_cell_formula_units_Z 44
_cell_length_a 13.153132
_cell_length_b 17.445039
_cell_length_c 8.935810
_cell_angle_alpha 90.000000
_cell_angle_beta 67.584078
_cell_angle_gamma 90.000000
_cell_volume 1895.456517
_symmetry_space_group_name_H-M "C 2/C"
_symmetry_group_IT_number 15
_symmetry_cell_setting 'monoclinic'
loop_
_space_group_symop_operation_xyz
x,y,z
-x,y,1/2-z
-x,-y,-z
x,-y,1/2+z
1/2+x,1/2+y,z
1/2-x,1/2+y,1/2-z
1/2-x,1/2-y,-z
1/2+x,1/2-y,1/2+z
loop_
_atom_site_type_symbol
_atom_site_label
_atom_site_fract_x
_atom_site_fract_y
_atom_site_fract_z
Si Si1 0.121945 0.605455 0.365320
Si Si2 0.681636 0.545059 0.070184
Si Si3 0.113975 0.631819 0.040475
Si Si4 0.327669 0.600420 0.756243
Si Si5 0.962010 0.239245 0.576361
Si Si6 0.500000 0.339311 0.750000
O O1 0.194962 0.552523 0.431873
O O2 0.158356 0.595342 0.170582
O O3 0.133625 0.696758 0.398390
O O4 0.992241 0.583266 0.458719
O O5 0.635819 0.460505 0.137013
O O6 0.608536 0.608862 0.190925
O O7 0.681917 0.554423 0.893056
O O8 0.067077 0.719065 0.099429
O O9 0.208321 0.634651 0.863351
O O10 0.417100 0.667718 0.697632
O O11 0.006035 0.212890 0.391679
#
# Coordination Sequence:
#
# PCOD8149819 Si02
#       6
#     8   8   8   8   8   4
#     4   9  21  41  64 103 127 169 220 266 336 376
#     4  11  25  43  66  98 132 180 214 271 329 397
#     4   9  21  42  64 100 130 168 217 276 321 387
#     4  11  24  43  66  96 135 177 220 265 330 389
#     4   9  22  39  66  98 127 175 215 271 322 388
#     4  10  24  42  64  96 138 174 220 268 328 390
#
# _framework density 23.213404000000001
#
# number of rings (size 3 to 8) (size 9 to 14) (size 15 to 20)
#    1.091    1.091    0.000    1.091    5.091    6.545 
#   13.091    0.000    0.000    0.000    0.000    0.000 
#    0.000    0.000    0.000    0.000    0.000    0.000 
#
# Total GULP energy -272661.620006 kJ/mol
# GULP energy per Si atom -12393.710000 kJ/mol
# Density = 2.316057 g / cm^3
# Si number density = 23.213404 Si / 1000 Ang^3
#
#
#
# Elastic Constant Matrix: (Units=GPa)
#
#
# Indices 1 2 3 4 5 6 
#
# 1 46.0717 -9.8914 15.8830 0.0000 1.5482 0.0000
# 2 -9.8914 60.3465 11.0379 0.0000 -0.1965 0.0000
# 3 15.8830 11.0379 106.8400 0.0000 -21.0776 0.0000
# 4 0.0000 0.0000 0.0000 26.1559 0.0000 13.7029
# 5 1.5482 -0.1965 -21.0776 0.0000 25.1190 0.0000
# 6 0.0000 0.0000 0.0000 13.7029 0.0000 23.7566
#
#
#
# Elastic Compliance Matrix: (Units=1/GPa)
#
#
# Indices 1 2 3 4 5 6 
#
# 1 0.024854 0.005043 -0.005405 0.000000 -0.006028 0.000000
# 2 0.005043 0.017967 -0.003163 0.000000 -0.002824 0.000000
# 3 -0.005405 -0.003163 0.012644 0.000000 0.010918 0.000000
# 4 0.000000 0.000000 0.000000 0.054789 0.000000 -0.031602
# 5 -0.006028 -0.002824 0.010918 0.000000 0.049321 0.000000
# 6 0.000000 0.000000 0.000000 -0.031602 0.000000 0.060322
#
#
# Mechanical properties :
#
#
# Convention : Reuss Voigt Hill
#
# Bulk Modulus (GPa) = 20.65509 27.47970 24.06740
# Shear Modulus (GPa) = 20.56893 28.08821 24.32857
#
# Velocity S-wave (km/s) = 2.97994 3.48228 3.24086
# Velocity P-wave (km/s) = 4.55602 5.29452 4.93909
#
# Compressibility (1/GPa) = 0.04841422
#
# Stress axis : x y z
#
# Youngs Moduli (GPa) = 40.23522 55.65796 79.08866
#
# Poissons Ratio (x) = -0.28067 0.42747
# Poissons Ratio (y) = -0.20290 0.25016
# Poissons Ratio (z) = 0.21747 0.17605
#
# Static dielectric constant tensor:
#      x y z
#    x 3.797180 0.000000 -0.195470 
#    y 0.000000 4.103910 0.000000 
#    z -0.195470 0.000000 4.133980 
# 
# 
# High freq. dielectric constant tensor:
#      x y z
#    x 1.893550 0.000000 -0.009770 
#    y 0.000000 1.920190 0.000000 
#    z -0.009770 0.000000 1.928990 
# 
# From -- ./inp_files/39066.got.cif
#   From: 2010.06.25/outbox.cif.g09.slc.cpg/sg15_20_cif.got.tgz:39066.got - 2010.06.28 07:06:18.
