data_PCOD8149991
_publ_section_title
;
Structure prediction by ZEFSAII (Michael W. Deem and Ramdas Pophale) SiO2 
 PCOD8149991
Probable space group: C 2/C
;
_chemical_formula_sum "Si O2"
_cell_formula_units_Z 24
_cell_length_a 21.704384
_cell_length_b 5.275804
_cell_length_c 20.403746
_cell_angle_alpha 90.000000
_cell_angle_beta 151.724194
_cell_angle_gamma 90.000000
_cell_volume 1106.787945
_symmetry_space_group_name_H-M "C 2/C"
_symmetry_group_IT_number 15
_symmetry_cell_setting 'monoclinic'
loop_
_space_group_symop_operation_xyz
x,y,z
-x,y,1/2-z
-x,-y,-z
x,-y,1/2+z
1/2+x,1/2+y,z
1/2-x,1/2+y,1/2-z
1/2-x,1/2-y,-z
1/2+x,1/2-y,1/2+z
loop_
_atom_site_type_symbol
_atom_site_label
_atom_site_fract_x
_atom_site_fract_y
_atom_site_fract_z
Si Si1 0.904368 0.818834 0.720594
Si Si2 0.010304 0.085937 0.935710
Si Si3 0.707600 0.810907 0.843083
O O1 0.811592 0.574199 0.636509
O O2 0.000000 0.788505 0.750000
O O3 0.815722 0.073102 0.629097
O O4 0.988562 0.846262 0.866548
O O5 0.897767 0.293297 0.815010
O O6 0.149841 0.211024 0.053653
O O7 0.000000 0.000000 0.000000
#
# Coordination Sequence:
#
# PCOD8149991 Si02
#       3
#     8   8   8
#     4  10  24  43  68 100 133 174 218 274 329 389
#     4  10  26  44  70  95 139 170 224 271 330 391
#     4  10  25  43  69  97 131 175 223 266 331 390
#
# _framework density 21.684369
#
# number of rings (size 3 to 8) (size 9 to 14) (size 15 to 20)
#    2.000    0.000    0.000    1.000    9.333    4.000 
#    0.000    0.000    0.000    0.000    0.000    0.000 
#    0.000    0.000    0.000    0.000    0.000    0.000 
#
# Total GULP energy -148707.102216 kJ/mol
# GULP energy per Si atom -12392.258518 kJ/mol
# Density = 2.163501 g / cm^3
# Si number density = 21.684369 Si / 1000 Ang^3
#
#
#
# Elastic Constant Matrix: (Units=GPa)
#
#
# Indices 1 2 3 4 5 6 
#
# 1 69.9331 1.7703 13.4294 0.0001 0.0376 -0.0014
# 2 1.7703 131.8363 14.3625 -0.0061 6.4146 -0.0032
# 3 13.4294 14.3625 94.1096 -0.0009 33.1697 -0.0012
# 4 0.0001 -0.0061 -0.0009 18.8956 -0.0006 2.7439
# 5 0.0376 6.4146 33.1697 -0.0006 41.3695 -0.0006
# 6 -0.0014 -0.0032 -0.0012 2.7439 -0.0006 24.6454
#
#
#
# Elastic Compliance Matrix: (Units=1/GPa)
#
#
# Indices 1 2 3 4 5 6 
#
# 1 0.014865 0.000007 -0.002951 0.000000 0.002352 0.000001
# 2 0.000007 0.007717 -0.001055 0.000002 -0.000350 0.000001
# 3 -0.002951 -0.001055 0.015541 0.000000 -0.012295 0.000000
# 4 0.000000 0.000002 0.000000 0.053792 0.000000 -0.005989
# 5 0.002352 -0.000350 -0.012295 0.000000 0.034082 0.000000
# 6 0.000001 0.000001 0.000000 -0.005989 0.000000 0.041242
#
#
# Mechanical properties :
#
#
# Convention : Reuss Voigt Hill
#
# Bulk Modulus (GPa) = 33.19466 39.44481 36.31973
# Shear Modulus (GPa) = 26.98623 34.73654 30.86139
#
# Velocity S-wave (km/s) = 3.53158 4.00674 3.77664
# Velocity P-wave (km/s) = 5.65426 6.29565 5.98356
#
# Compressibility (1/GPa) = 0.03012533
#
# Stress axis : x y z
#
# Youngs Moduli (GPa) = 67.27371 129.58269 64.34395
#
# Poissons Ratio (x) = -0.00097 0.18989
# Poissons Ratio (y) = -0.00050 0.06790
# Poissons Ratio (z) = 0.19853 0.13675
#
# Static dielectric constant tensor:
#      x y z
#    x 3.924690 0.000050 0.317220 
#    y 0.000050 3.852000 0.000050 
#    z 0.317220 0.000050 4.021040 
# 
# 
# High freq. dielectric constant tensor:
#      x y z
#    x 1.846500 0.000000 0.011720 
#    y 0.000000 1.846720 0.000000 
#    z 0.011720 0.000000 1.850020 
# 
# From -- ./inp_files/59467.got.cif
#   From: 2010.06.25/outbox.cif.g09.slc.cpg/sg15_30_cif.got.tgz:59467.got - 2010.06.28 07:06:18.
