data_PCOD8149586
_publ_section_title
;
Structure prediction by ZEFSAII (Michael W. Deem and Ramdas Pophale) SiO2 
 PCOD8149586
Probable space group: C 2/C
;
_chemical_formula_sum "Si O2"
_cell_formula_units_Z 60
_cell_length_a 9.046718
_cell_length_b 20.910481
_cell_length_c 18.804742
_cell_angle_alpha 90.000000
_cell_angle_beta 53.407692
_cell_angle_gamma 90.000000
_cell_volume 2856.160226
_symmetry_space_group_name_H-M "C 2/C"
_symmetry_group_IT_number 15
_symmetry_cell_setting 'monoclinic'
loop_
_space_group_symop_operation_xyz
x,y,z
-x,y,1/2-z
-x,-y,-z
x,-y,1/2+z
1/2+x,1/2+y,z
1/2-x,1/2+y,1/2-z
1/2-x,1/2-y,-z
1/2+x,1/2-y,1/2+z
loop_
_atom_site_type_symbol
_atom_site_label
_atom_site_fract_x
_atom_site_fract_y
_atom_site_fract_z
Si Si1 0.150112 0.645071 0.464077
Si Si2 0.226633 0.979426 0.629868
Si Si3 0.159405 0.948165 0.805984
Si Si4 0.461393 0.255826 0.456310
Si Si5 0.893457 0.397972 0.147333
Si Si6 0.950486 0.187472 0.115623
Si Si7 0.500000 0.027404 0.750000
Si Si8 0.660033 0.285031 0.257515
O O1 0.147881 0.568903 0.451193
O O2 0.347444 0.679255 0.409157
O O3 0.034537 0.683320 0.438839
O O4 0.037112 0.650955 0.570030
O O5 0.212209 0.940779 0.708282
O O6 0.034666 0.986653 0.641466
O O7 0.314546 0.048935 0.615188
O O8 0.149118 0.880823 0.849208
O O9 0.313299 0.986394 0.805389
O O10 0.250000 0.250000 0.500000
O O11 0.479654 0.293756 0.525146
O O12 0.580190 0.288615 0.360141
O O13 0.719980 0.357566 0.224462
O O14 0.005479 0.429414 0.178890
O O15 0.833577 0.237746 0.196079
O O16 0.500000 0.262513 0.250000
#
# Coordination Sequence:
#
# PCOD8149586 Si02
#       8
#     8   8   8   8   8   8   4   8
#     4  11  23  44  67 100 133 173 229 276 328 396
#     4   9  20  41  68  92 129 182 223 265 324 407
#     4   9  20  40  65  92 128 173 224 269 326 383
#     4  12  25  44  67 102 135 176 224 272 338 396
#     4  11  24  41  65  96 136 173 222 270 334 397
#     4  11  24  44  68 100 135 171 225 280 325 401
#     4  10  24  38  62  96 132 176 216 276 330 394
#     4  12  26  43  69  97 134 177 215 277 340 396
#
# _framework density 21.007224000000001
#
# number of rings (size 3 to 8) (size 9 to 14) (size 15 to 20)
#    0.000    1.333    2.667    1.600    6.533    3.733 
#    0.000    4.000    0.000    0.000    0.000    0.000 
#    0.000    0.000    0.000    0.000    0.000    0.000 
#
# Total GULP energy -371880.728401 kJ/mol
# GULP energy per Si atom -12396.024280 kJ/mol
# Density = 2.095941 g / cm^3
# Si number density = 21.007224 Si / 1000 Ang^3
#
#
#
# Elastic Constant Matrix: (Units=GPa)
#
#
# Indices 1 2 3 4 5 6 
#
# 1 131.2219 68.9580 38.2117 0.0000 -15.2978 0.0000
# 2 68.9580 100.9392 41.5455 0.0000 -13.6180 0.0000
# 3 38.2117 41.5455 123.9999 0.0000 -14.5916 0.0000
# 4 0.0000 0.0000 0.0000 39.5471 0.0000 4.7425
# 5 -15.2978 -13.6180 -14.5916 0.0000 28.8854 0.0000
# 6 0.0000 0.0000 0.0000 4.7425 0.0000 22.2323
#
#
#
# Elastic Compliance Matrix: (Units=1/GPa)
#
#
# Indices 1 2 3 4 5 6 
#
# 1 0.012167 -0.007611 -0.000918 0.000000 0.002391 0.000000
# 2 -0.007611 0.016636 -0.002955 0.000000 0.002319 0.000000
# 3 -0.000918 -0.002955 0.009693 0.000000 0.003017 0.000000
# 4 0.000000 0.000000 0.000000 0.025950 0.000000 -0.005536
# 5 0.002391 0.002319 0.003017 0.000000 0.038503 0.000000
# 6 0.000000 0.000000 0.000000 -0.005536 0.000000 0.046161
#
#
# Mechanical properties :
#
#
# Convention : Reuss Voigt Hill
#
# Bulk Modulus (GPa) = 64.40725 72.62127 68.51426
# Shear Modulus (GPa) = 28.20819 31.96268 30.08544
#
# Velocity S-wave (km/s) = 3.66838 3.90488 3.78848
# Velocity P-wave (km/s) = 6.97630 7.41455 7.19876
#
# Compressibility (1/GPa) = 0.01552620
#
# Stress axis : x y z
#
# Youngs Moduli (GPa) = 82.19269 60.11038 103.17245
#
# Poissons Ratio (x) = 0.45752 0.09468
# Poissons Ratio (y) = 0.62560 0.30492
# Poissons Ratio (z) = 0.07542 0.17765
#
# Static dielectric constant tensor:
#      x y z
#    x 3.886450 0.000000 -0.074150 
#    y 0.000000 3.810000 0.000000 
#    z -0.074150 0.000000 3.923230 
# 
# 
# High freq. dielectric constant tensor:
#      x y z
#    x 1.827030 0.000000 -0.014400 
#    y 0.000000 1.826040 0.000000 
#    z -0.014400 0.000000 1.828520 
# 
# From -- ./inp_files/192536.got.cif
#   From: 2010.06.25/outbox.cif.g09.slc.cpg/sg15_97_cif.got.tgz:192536.got - 2010.06.28 07:06:18.
