data_PCOD8149279
_publ_section_title
;
Structure prediction by ZEFSAII (Michael W. Deem and Ramdas Pophale) SiO2 
 PCOD8149279
Probable space group: C 2/C
;
_chemical_formula_sum "Si O2"
_cell_formula_units_Z 44
_cell_length_a 6.940677
_cell_length_b 12.442092
_cell_length_c 26.798510
_cell_angle_alpha 90.000000
_cell_angle_beta 69.256082
_cell_angle_gamma 90.000000
_cell_volume 2164.201844
_symmetry_space_group_name_H-M "C 2/C"
_symmetry_group_IT_number 15
_symmetry_cell_setting 'monoclinic'
loop_
_space_group_symop_operation_xyz
x,y,z
-x,y,1/2-z
-x,-y,-z
x,-y,1/2+z
1/2+x,1/2+y,z
1/2-x,1/2+y,1/2-z
1/2-x,1/2-y,-z
1/2+x,1/2-y,1/2+z
loop_
_atom_site_type_symbol
_atom_site_label
_atom_site_fract_x
_atom_site_fract_y
_atom_site_fract_z
Si Si1 0.400629 0.815175 0.114047
Si Si2 0.421139 0.591636 0.070394
Si Si3 0.000000 0.068303 0.250000
Si Si4 0.478058 0.435057 0.157407
Si Si5 0.628983 0.226485 0.694259
Si Si6 0.173722 0.547521 0.519247
O O1 0.326130 0.706536 0.093904
O O2 0.216961 0.901279 0.136121
O O3 0.486294 0.778658 0.159127
O O4 0.583763 0.867380 0.065986
O O5 0.422012 0.509815 0.116357
O O6 0.276140 0.550714 0.039506
O O7 0.654641 0.606777 0.029864
O O8 0.832557 0.148457 0.292046
O O9 0.090785 0.993610 0.285210
O O10 0.348685 0.326040 0.164712
O O11 0.500000 0.166571 0.750000
O O12 0.000000 0.500000 0.500000
#
# Coordination Sequence:
#
# PCOD8149279 Si02
#       6
#     8   8   4   8   8   8
#     4  12  24  42  69  98 129 175 218 266 327 391
#     4  11  24  43  66  98 134 170 219 267 321 390
#     4  10  24  44  66  94 132 164 216 272 322 388
#     4  12  23  43  68  95 129 170 218 263 329 392
#     4  10  23  45  63  95 130 168 215 271 326 384
#     4  11  24  44  67  97 135 176 215 273 327 378
#
# _framework density 20.330821
#
# number of rings (size 3 to 8) (size 9 to 14) (size 15 to 20)
#    0.545    0.364    5.455    1.636    0.000    3.636 
#    3.273    0.000    0.000    0.000    0.000    0.000 
#    0.000    0.000    0.000    0.000    0.000    0.000 
#
# Total GULP energy -272766.960883 kJ/mol
# GULP energy per Si atom -12398.498222 kJ/mol
# Density = 2.028455 g / cm^3
# Si number density = 20.330821 Si / 1000 Ang^3
#
#
#
# Elastic Constant Matrix: (Units=GPa)
#
#
# Indices 1 2 3 4 5 6 
#
# 1 90.7288 27.8539 29.3727 0.0000 7.2173 0.0000
# 2 27.8539 90.2677 19.3177 0.0000 -6.6037 0.0000
# 3 29.3727 19.3177 92.7371 0.0000 8.9137 0.0000
# 4 0.0000 0.0000 0.0000 32.6370 0.0000 5.3682
# 5 7.2173 -6.6037 8.9137 0.0000 22.4012 0.0000
# 6 0.0000 0.0000 0.0000 5.3682 0.0000 18.4069
#
#
#
# Elastic Compliance Matrix: (Units=1/GPa)
#
#
# Indices 1 2 3 4 5 6 
#
# 1 0.013533 -0.003829 -0.003079 0.000000 -0.004264 0.000000
# 2 -0.003829 0.013143 -0.002096 0.000000 0.005942 0.000000
# 3 -0.003079 -0.002096 0.012643 0.000000 -0.004657 0.000000
# 4 0.000000 0.000000 0.000000 0.032184 0.000000 -0.009386
# 5 -0.004264 0.005942 -0.004657 0.000000 0.049619 0.000000
# 6 0.000000 0.000000 0.000000 -0.009386 0.000000 0.057065
#
#
# Mechanical properties :
#
#
# Convention : Reuss Voigt Hill
#
# Bulk Modulus (GPa) = 46.92491 47.42469 47.17480
# Shear Modulus (GPa) = 24.59440 27.83497 26.21469
#
# Velocity S-wave (km/s) = 3.48186 3.70415 3.59473
# Velocity P-wave (km/s) = 6.26859 6.45534 6.36265
#
# Compressibility (1/GPa) = 0.02131064
#
# Stress axis : x y z
#
# Youngs Moduli (GPa) = 73.89163 76.08636 79.09757
#
# Poissons Ratio (x) = 0.29133 0.24354
# Poissons Ratio (y) = 0.28293 0.16580
# Poissons Ratio (z) = 0.22751 0.15949
#
# Static dielectric constant tensor:
#      x y z
#    x 3.468630 0.000000 -0.017010 
#    y 0.000000 3.662290 0.000000 
#    z -0.017010 0.000000 4.030090 
# 
# 
# High freq. dielectric constant tensor:
#      x y z
#    x 1.778780 0.000000 0.008920 
#    y 0.000000 1.797490 0.000000 
#    z 0.008920 0.000000 1.817600 
# 
# From -- ./inp_files/285429.got.cif
#   From: 2010.06.25/outbox.cif.g09.slc.cpg/sg15_143_cif.got.tgz:285429.got - 2010.06.28 07:06:18.
