data_PCOD8149632
_publ_section_title
;
Structure prediction by ZEFSAII (Michael W. Deem and Ramdas Pophale) SiO2 
 PCOD8149632
Probable space group: C 2/C
;
_chemical_formula_sum "Si O2"
_cell_formula_units_Z 36
_cell_length_a 12.314742
_cell_length_b 21.021262
_cell_length_c 14.336790
_cell_angle_alpha 90.000000
_cell_angle_beta 149.200078
_cell_angle_gamma 90.000000
_cell_volume 1900.383949
_symmetry_space_group_name_H-M "C 2/C"
_symmetry_group_IT_number 15
_symmetry_cell_setting 'monoclinic'
loop_
_space_group_symop_operation_xyz
x,y,z
-x,y,1/2-z
-x,-y,-z
x,-y,1/2+z
1/2+x,1/2+y,z
1/2-x,1/2+y,1/2-z
1/2-x,1/2-y,-z
1/2+x,1/2-y,1/2+z
loop_
_atom_site_type_symbol
_atom_site_label
_atom_site_fract_x
_atom_site_fract_y
_atom_site_fract_z
Si Si1 0.299492 0.886561 0.049492
Si Si2 0.498748 0.823472 0.462633
Si Si3 0.073482 0.823472 0.037367
Si Si4 0.379552 0.130538 0.250000
Si Si5 0.500000 0.991199 0.750000
O O1 0.500000 0.853970 0.250000
O O2 0.314752 0.861969 0.954530
O O3 0.094309 0.861969 0.954531
O O4 0.319509 0.963683 0.069509
O O5 0.266510 0.837659 0.250000
O O6 0.557386 0.750000 0.500000
O O7 0.498403 0.847159 0.568069
O O8 0.862266 0.847159 0.931931
O O9 0.500000 0.162014 0.250000
O O10 0.392436 0.053357 0.250000
#
# Coordination Sequence:
#
# PCOD8149632 Si02
#       5
#     8   8   8   8   4
#     4   8  19  38  63  89 120 143 197 257 297 348
#     4  11  21  39  64  92 118 155 194 253 309 346
#     4  11  21  39  64  92 118 155 194 253 309 346
#     4  10  24  40  58  88 122 162 208 234 282 366
#     4   8  20  44  54  90 124 152 208 248 264 376
#
# _framework density 18.943539000000001
#
# number of rings (size 3 to 8) (size 9 to 14) (size 15 to 20)
#    1.333    0.889    2.222    0.667    0.000    4.444 
#    0.000    0.000    4.889    0.000    0.000    0.000 
#    0.000    0.000    0.000    0.000    0.000    0.000 
#
# Total GULP energy -223033.049137 kJ/mol
# GULP energy per Si atom -12390.724952 kJ/mol
# Density = 1.890042 g / cm^3
# Si number density = 18.943539 Si / 1000 Ang^3
#
#
#
# Elastic Constant Matrix: (Units=GPa)
#
#
# Indices 1 2 3 4 5 6 
#
# 1 127.0242 27.6889 48.5350 0.0001 -1.1480 0.0000
# 2 27.6889 118.6678 18.5689 0.0000 -0.2769 0.0000
# 3 48.5350 18.5689 94.8379 0.0001 0.1713 0.0000
# 4 0.0001 0.0000 0.0001 1.1184 0.0001 -1.3525
# 5 -1.1480 -0.2769 0.1713 0.0001 20.3746 0.0000
# 6 0.0000 0.0000 0.0000 -1.3525 0.0000 45.6785
#
#
#
# Elastic Compliance Matrix: (Units=1/GPa)
#
#
# Indices 1 2 3 4 5 6 
#
# 1 0.010076 -0.001591 -0.004846 0.000000 0.000587 0.000000
# 2 -0.001591 0.008945 -0.000937 0.000000 0.000040 0.000000
# 3 -0.004846 -0.000937 0.013209 -0.000001 -0.000397 0.000000
# 4 0.000000 0.000000 -0.000001 0.927342 -0.000002 0.027457
# 5 0.000587 0.000040 -0.000397 -0.000002 0.049118 0.000000
# 6 0.000000 0.000000 0.000000 0.027457 0.000000 0.022705
#
#
# Mechanical properties :
#
#
# Convention : Reuss Voigt Hill
#
# Bulk Modulus (GPa) = 57.20626 58.90171 58.05399
# Shear Modulus (GPa) = 4.75298 29.81677 17.28488
#
# Velocity S-wave (km/s) = 1.58571 3.97165 3.02394
# Velocity P-wave (km/s) = 5.79797 7.22446 6.55016
#
# Compressibility (1/GPa) = 0.01748060
#
# Stress axis : x y z
#
# Youngs Moduli (GPa) = 99.24140 111.79510 75.70797
#
# Poissons Ratio (x) = 0.17792 0.36690
# Poissons Ratio (y) = 0.15794 0.07094
# Poissons Ratio (z) = 0.48095 0.10475
#
# Static dielectric constant tensor:
#      x y z
#    x 3.487900 0.000000 -0.006810 
#    y 0.000000 3.344670 0.000000 
#    z -0.006810 0.000000 3.263620 
# 
# 
# High freq. dielectric constant tensor:
#      x y z
#    x 1.740210 0.000000 -0.000600 
#    y 0.000000 1.730680 0.000000 
#    z -0.000600 0.000000 1.720460 
# 
# From -- ./inp_files/147560.got.cif
#   From: 2010.06.25/outbox.cif.g09.slc.cpg/sg15_74_cif.got.tgz:147560.got - 2010.06.28 07:06:18.
