data_PCOD8149268
_publ_section_title
;
Structure prediction by ZEFSAII (Michael W. Deem and Ramdas Pophale) SiO2 
 PCOD8149268
Probable space group: C 2/C
;
_chemical_formula_sum "Si O2"
_cell_formula_units_Z 56
_cell_length_a 19.158345
_cell_length_b 22.467481
_cell_length_c 5.572008
_cell_angle_alpha 90.000000
_cell_angle_beta 73.035614
_cell_angle_gamma 90.000000
_cell_volume 2294.049897
_symmetry_space_group_name_H-M "C 2/C"
_symmetry_group_IT_number 15
_symmetry_cell_setting 'monoclinic'
loop_
_space_group_symop_operation_xyz
x,y,z
-x,y,1/2-z
-x,-y,-z
x,-y,1/2+z
1/2+x,1/2+y,z
1/2-x,1/2+y,1/2-z
1/2-x,1/2-y,-z
1/2+x,1/2-y,1/2+z
loop_
_atom_site_type_symbol
_atom_site_label
_atom_site_fract_x
_atom_site_fract_y
_atom_site_fract_z
Si Si1 0.235913 0.123034 0.131215
Si Si2 0.385270 0.535245 0.128670
Si Si3 0.000000 0.894191 0.750000
Si Si4 0.000000 0.609795 0.750000
Si Si5 0.887930 0.800410 0.943428
Si Si6 0.450164 0.786739 0.003166
Si Si7 0.681880 0.788571 0.641354
Si Si8 0.352307 0.963583 0.363728
O O1 0.177964 0.084233 0.336476
O O2 0.193350 0.177274 0.045848
O O3 0.294944 0.152252 0.247471
O O4 0.284093 0.081831 0.908016
O O5 0.376842 0.503179 0.397632
O O6 0.464365 0.566628 0.070963
O O7 0.936446 0.858266 0.955476
O O8 0.997712 0.655436 0.529545
O O9 0.929374 0.568799 0.814646
O O10 0.937406 0.766435 0.700618
O O11 0.875824 0.753987 0.166353
O O12 0.500000 0.756535 0.750000
O O13 0.367906 0.810186 0.029234
O O14 0.750000 0.750000 0.500000
O O15 0.346153 0.000323 0.620405
#
# Coordination Sequence:
#
# PCOD8149268 Si02
#       8
#     8   8   4   4   8   8   8   8
#     4  11  25  46  75 107 147 202 246 313 388 446
#     4  11  25  49  72 108 147 194 261 318 371 444
#     4  10  23  44  74 100 146 200 245 312 388 434
#     4  12  29  48  76 106 148 196 255 316 404 444
#     4  11  24  47  66 115 151 192 250 305 376 480
#     4  12  25  46  75 107 156 195 248 310 385 470
#     4  12  26  44  75 111 154 200 246 305 379 468
#     4  12  29  51  78 109 149 197 265 325 381 452
#
# _framework density 24.410975000000001
#
# number of rings (size 3 to 8) (size 9 to 14) (size 15 to 20)
#    0.000    0.571    1.429    6.000    6.000    2.286 
#    7.714    0.000    0.000    0.000    0.000    0.000 
#    0.000    0.000    0.000    0.000    0.000    0.000 
#
# Total GULP energy -346957.496525 kJ/mol
# GULP energy per Si atom -12391.339162 kJ/mol
# Density = 2.435541 g / cm^3
# Si number density = 24.410975 Si / 1000 Ang^3
#
#
#
# Elastic Constant Matrix: (Units=GPa)
#
#
# Indices 1 2 3 4 5 6 
#
# 1 107.1405 23.7480 13.2688 0.0000 -0.1151 0.0000
# 2 23.7480 103.8127 36.6506 0.0000 1.3764 0.0000
# 3 13.2688 36.6506 110.9856 0.0000 -3.5410 0.0000
# 4 0.0000 0.0000 0.0000 6.9752 0.0000 -20.1595
# 5 -0.1151 1.3764 -3.5410 0.0000 38.3639 0.0000
# 6 0.0000 0.0000 0.0000 -20.1595 0.0000 40.5688
#
#
#
# Elastic Compliance Matrix: (Units=1/GPa)
#
#
# Indices 1 2 3 4 5 6 
#
# 1 0.009856 -0.002083 -0.000489 0.000000 0.000059 0.000000
# 2 -0.002083 0.011364 -0.003527 0.000000 -0.000740 0.000000
# 3 -0.000489 -0.003527 0.010268 0.000000 0.001073 0.000000
# 4 0.000000 0.000000 0.000000 -0.328673 0.000000 -0.163325
# 5 0.000059 -0.000740 0.001073 0.000000 0.026192 0.000000
# 6 0.000000 0.000000 0.000000 -0.163325 0.000000 -0.056510
#
#
# Mechanical properties :
#
#
# Convention : Reuss Voigt Hill
#
# Bulk Modulus (GPa) = 51.84018 52.14150 51.99084
# Shear Modulus (GPa) = -16.18777 33.73299 8.77261
#
# Velocity S-wave (km/s) = -2.57793 3.72140 1.89777
# Velocity P-wave (km/s) = 3.52442 6.31437 5.11336
#
# Compressibility (1/GPa) = 0.01929006
#
# Stress axis : x y z
#
# Youngs Moduli (GPa) = 101.46319 87.99444 97.39308
#
# Poissons Ratio (x) = 0.18328 0.04758
# Poissons Ratio (y) = 0.21134 0.34355
# Poissons Ratio (z) = 0.04957 0.31039
#
# Static dielectric constant tensor:
#      x y z
#    x 5.077090 0.000000 -0.179250 
#    y 0.000000 3.648740 0.000000 
#    z -0.179250 0.000000 4.481080 
# 
# 
# High freq. dielectric constant tensor:
#      x y z
#    x 2.011040 0.000000 -0.009800 
#    y 0.000000 1.981250 0.000000 
#    z -0.009800 0.000000 1.949130 
# 
# From -- ./inp_files/13889.got.cif
#   From: 2010.06.25/outbox.cif.g09.slc.cpg/sg15_7_cif.got.tgz:13889.got - 2010.06.28 07:06:18.
