data_PCOD8149433
_publ_section_title
;
Structure prediction by ZEFSAII (Michael W. Deem and Ramdas Pophale) SiO2 
 PCOD8149433
Probable space group: C 2/C
;
_chemical_formula_sum "Si O2"
_cell_formula_units_Z 36
_cell_length_a 20.342359
_cell_length_b 9.281352
_cell_length_c 8.784951
_cell_angle_alpha 90.000000
_cell_angle_beta 88.297640
_cell_angle_gamma 90.000000
_cell_volume 1657.907049
_symmetry_space_group_name_H-M "C 2/C"
_symmetry_group_IT_number 15
_symmetry_cell_setting 'monoclinic'
loop_
_space_group_symop_operation_xyz
x,y,z
-x,y,1/2-z
-x,-y,-z
x,-y,1/2+z
1/2+x,1/2+y,z
1/2-x,1/2+y,1/2-z
1/2-x,1/2-y,-z
1/2+x,1/2-y,1/2+z
loop_
_atom_site_type_symbol
_atom_site_label
_atom_site_fract_x
_atom_site_fract_y
_atom_site_fract_z
Si Si1 0.200479 0.388043 0.351647
Si Si2 0.319480 0.402482 0.798806
Si Si3 0.115495 0.866756 0.392593
Si Si4 0.632831 0.122042 0.177599
Si Si5 0.500000 0.763514 0.750000
O O1 0.264982 0.486204 0.362775
O O2 0.216439 0.234514 0.273812
O O3 0.146608 0.466918 0.250313
O O4 0.172056 0.358848 0.519754
O O5 0.365852 0.475102 0.669021
O O6 0.365939 0.352222 0.933051
O O7 0.156329 0.747216 0.293145
O O8 0.037411 0.837195 0.372129
O O9 0.553756 0.137634 0.157808
#
# Coordination Sequence:
#
# PCOD8149433 Si02
#       5
#     8   8   8   8   4
#     4  12  25  43  71 103 137 176 223 281 342 400
#     4  12  25  43  71 103 137 176 223 281 342 400
#     4  10  23  46  68  98 138 179 221 278 333 396
#     4  10  23  46  68  98 138 179 221 278 333 396
#     4   8  24  48  68  96 140 172 236 270 324 412
#
# _framework density 21.714124000000002
#
# number of rings (size 3 to 8) (size 9 to 14) (size 15 to 20)
#    1.333    0.000    0.000    5.333    0.000    7.111 
#    0.000    2.222    0.000    0.000    0.000    0.000 
#    0.000    0.000    0.000    0.000    0.000    0.000 
#
# Total GULP energy -223129.384691 kJ/mol
# GULP energy per Si atom -12396.076927 kJ/mol
# Density = 2.166470 g / cm^3
# Si number density = 21.714124 Si / 1000 Ang^3
#
#
#
# Elastic Constant Matrix: (Units=GPa)
#
#
# Indices 1 2 3 4 5 6 
#
# 1 84.2822 6.2897 -7.2800 0.0000 17.4561 0.0000
# 2 6.2897 95.7660 17.1530 0.0000 4.7947 0.0000
# 3 -7.2800 17.1530 89.8621 0.0000 19.3353 0.0000
# 4 0.0000 0.0000 0.0000 13.1382 0.0000 40.2209
# 5 17.4561 4.7947 19.3353 0.0000 21.3638 0.0000
# 6 0.0000 0.0000 0.0000 40.2209 0.0000 -5.8772
#
#
#
# Elastic Compliance Matrix: (Units=1/GPa)
#
#
# Indices 1 2 3 4 5 6 
#
# 1 0.016075 -0.001123 0.005326 0.000000 -0.017703 0.000000
# 2 -0.001123 0.010899 -0.002288 0.000000 0.000543 0.000000
# 3 0.005326 -0.002288 0.015923 0.000000 -0.018249 0.000000
# 4 0.000000 0.000000 0.000000 0.003468 0.000000 0.023730
# 5 -0.017703 0.000543 -0.018249 0.000000 0.077668 0.000000
# 6 0.000000 0.000000 0.000000 0.023730 0.000000 -0.007751
#
#
# Mechanical properties :
#
#
# Convention : Reuss Voigt Hill
#
# Bulk Modulus (GPa) = 21.40158 33.58174 27.49166
# Shear Modulus (GPa) = 39.05420 22.64148 30.84784
#
# Velocity S-wave (km/s) = 4.24555 3.23260 3.77322
# Velocity P-wave (km/s) = 5.82326 5.42512 5.62771
#
# Compressibility (1/GPa) = 0.04672551
#
# Stress axis : x y z
#
# Youngs Moduli (GPa) = 62.20717 91.75526 62.80218
#
# Poissons Ratio (x) = 0.10308 -0.33447
# Poissons Ratio (y) = 0.06988 0.14370
# Poissons Ratio (z) = -0.33131 0.20995
#
# Static dielectric constant tensor:
#      x y z
#    x 3.813950 0.000000 0.134350 
#    y 0.000000 3.979370 0.000000 
#    z 0.134350 0.000000 3.699900 
# 
# 
# High freq. dielectric constant tensor:
#      x y z
#    x 1.849940 0.000000 0.007500 
#    y 0.000000 1.858530 0.000000 
#    z 0.007500 0.000000 1.847110 
# 
# From -- ./inp_files/59728.got.cif
#   From: 2010.06.25/outbox.cif.g09.slc.cpg/sg15_30_cif.got.tgz:59728.got - 2010.06.28 07:06:18.
