data_PCOD8149303
_publ_section_title
;
Structure prediction by ZEFSAII (Michael W. Deem and Ramdas Pophale) SiO2 
 PCOD8149303
Probable space group: C 2/C
;
_chemical_formula_sum "Si O2"
_cell_formula_units_Z 64
_cell_length_a 11.778199
_cell_length_b 15.027641
_cell_length_c 28.674917
_cell_angle_alpha 90.000000
_cell_angle_beta 36.343193
_cell_angle_gamma 90.000000
_cell_volume 3007.797465
_symmetry_space_group_name_H-M "C 2/C"
_symmetry_group_IT_number 15
_symmetry_cell_setting 'monoclinic'
loop_
_space_group_symop_operation_xyz
x,y,z
-x,y,1/2-z
-x,-y,-z
x,-y,1/2+z
1/2+x,1/2+y,z
1/2-x,1/2+y,1/2-z
1/2-x,1/2-y,-z
1/2+x,1/2-y,1/2+z
loop_
_atom_site_type_symbol
_atom_site_label
_atom_site_fract_x
_atom_site_fract_y
_atom_site_fract_z
Si Si1 0.706753 0.105941 0.158732
Si Si2 0.515248 0.539175 0.578181
Si Si3 0.711773 0.297607 0.365423
Si Si4 0.939817 0.653368 0.697735
Si Si5 0.260420 0.555536 0.908579
Si Si6 0.111378 0.479549 0.601293
Si Si7 0.099383 0.595256 0.409492
Si Si8 0.226587 0.799085 0.173485
O O1 0.500000 0.096481 0.250000
O O2 0.684561 0.098444 0.110593
O O3 0.803391 0.201969 0.134553
O O4 0.845236 0.031470 0.133966
O O5 0.455135 0.629407 0.569928
O O6 0.550983 0.562688 0.621440
O O7 0.704297 0.495232 0.491838
O O8 0.800366 0.334520 0.287743
O O9 0.627621 0.199130 0.391109
O O10 0.869674 0.288959 0.354171
O O11 0.827659 0.680014 0.688690
O O12 0.030361 0.555953 0.661755
O O13 0.267500 0.457724 0.881318
O O14 0.223464 0.628297 0.881327
O O15 0.089380 0.572869 0.000052
O O16 0.929619 0.446847 0.631841
O O17 0.000000 0.797075 0.250000
#
# Coordination Sequence:
#
# PCOD8149303 Si02
#       8
#     8   8   8   8   8   8   8   8
#     4  11  25  41  65  97 133 173 225 278 333 405
#     4  11  24  41  69  99 133 179 222 277 344 401
#     4  11  25  43  67  98 135 178 226 276 336 406
#     4  11  24  46  63  96 138 174 222 284 331 400
#     4  10  23  45  65  99 134 175 223 279 334 399
#     4  11  23  43  68  95 133 176 224 278 338 398
#     4  10  24  43  69  96 135 177 225 275 336 405
#     4  11  25  43  66  95 131 176 223 277 337 402
#
# _framework density 21.278029
#
# number of rings (size 3 to 8) (size 9 to 14) (size 15 to 20)
#    0.000    1.250    2.500    1.875    8.750    1.000 
#    2.250    1.250    0.000    0.000    0.000    0.000 
#    0.000    0.000    0.000    0.000    0.000    0.000 
#
# Total GULP energy -396522.565260 kJ/mol
# GULP energy per Si atom -12391.330164 kJ/mol
# Density = 2.122960 g / cm^3
# Si number density = 21.278029 Si / 1000 Ang^3
#
#
#
# Elastic Constant Matrix: (Units=GPa)
#
#
# Indices 1 2 3 4 5 6 
#
# 1 163.2003 34.5987 24.8095 0.0003 12.8653 -0.0002
# 2 34.5987 127.4288 25.2338 -0.0006 0.3308 -0.0023
# 3 24.8095 25.2338 36.1803 -0.0007 9.9954 -0.0004
# 4 0.0003 -0.0006 -0.0007 13.4654 -0.0018 23.3898
# 5 12.8653 0.3308 9.9954 -0.0018 30.2053 0.0010
# 6 -0.0002 -0.0023 -0.0004 23.3898 0.0010 13.1014
#
#
#
# Elastic Compliance Matrix: (Units=1/GPa)
#
#
# Indices 1 2 3 4 5 6 
#
# 1 0.007061 -0.001223 -0.003480 0.000000 -0.001843 -0.000001
# 2 -0.001223 0.009452 -0.006459 0.000001 0.002555 0.000000
# 3 -0.003480 -0.006459 0.037533 0.000001 -0.010867 0.000000
# 4 0.000000 0.000001 0.000001 -0.035345 -0.000004 0.063102
# 5 -0.001843 0.002555 -0.010867 -0.000004 0.037460 0.000005
# 6 -0.000001 0.000000 0.000000 0.063102 0.000005 -0.036327
#
#
# Mechanical properties :
#
#
# Convention : Reuss Voigt Hill
#
# Bulk Modulus (GPa) = 31.52458 55.12149 43.32303
# Shear Modulus (GPa) = 94.82033 27.49890 61.15961
#
# Velocity S-wave (km/s) = 6.68276 3.59884 5.36707
# Velocity P-wave (km/s) = 8.62516 6.57499 7.66890
#
# Compressibility (1/GPa) = 0.03172128
#
# Stress axis : x y z
#
# Youngs Moduli (GPa) = 141.62272 105.79611 26.64340
#
# Poissons Ratio (x) = 0.12942 0.09271
# Poissons Ratio (y) = 0.17325 0.17210
# Poissons Ratio (z) = 0.49279 0.68338
#
# Static dielectric constant tensor:
#      x y z
#    x 12.532560 -0.000500 2.210640 
#    y -0.000500 4.153170 -0.000120 
#    z 2.210640 -0.000120 4.323810 
# 
# 
# High freq. dielectric constant tensor:
#      x y z
#    x 1.859220 0.000000 0.004020 
#    y 0.000000 1.833980 0.000000 
#    z 0.004020 0.000000 1.823980 
# 
# From -- ./inp_files/293035.got.cif
#   From: 2010.06.25/outbox.cif.g09.slc.cpg/sg15_147_cif.got.tgz:293035.got - 2010.06.28 07:06:18.
