data_PCOD8149733
_publ_section_title
;
Structure prediction by ZEFSAII (Michael W. Deem and Ramdas Pophale) SiO2 
 PCOD8149733
Probable space group: C 2/C
;
_chemical_formula_sum "Si O2"
_cell_formula_units_Z 48
_cell_length_a 31.872075
_cell_length_b 8.943157
_cell_length_c 17.474844
_cell_angle_alpha 90.000000
_cell_angle_beta 151.605163
_cell_angle_gamma 90.000000
_cell_volume 2368.678221
_symmetry_space_group_name_H-M "C 2/C"
_symmetry_group_IT_number 15
_symmetry_cell_setting 'monoclinic'
loop_
_space_group_symop_operation_xyz
x,y,z
-x,y,1/2-z
-x,-y,-z
x,-y,1/2+z
1/2+x,1/2+y,z
1/2-x,1/2+y,1/2-z
1/2-x,1/2-y,-z
1/2+x,1/2-y,1/2+z
loop_
_atom_site_type_symbol
_atom_site_label
_atom_site_fract_x
_atom_site_fract_y
_atom_site_fract_z
Si Si1 0.017606 0.645729 0.631679
Si Si2 0.327547 0.672225 0.078583
Si Si3 0.663017 0.733544 0.676888
Si Si4 0.267324 0.933018 0.223136
Si Si5 0.073416 0.919859 0.168708
Si Si6 0.458271 0.168335 0.010728
O O1 0.930267 0.737911 0.514699
O O2 0.005092 0.470993 0.626804
O O3 0.096834 0.703239 0.811635
O O4 0.038102 0.667027 0.575180
O O5 0.368879 0.533114 0.190020
O O6 0.250000 0.750000 0.000000
O O7 0.294891 0.620416 0.944566
O O8 0.716264 0.602097 0.719868
O O9 0.643513 0.677159 0.731634
O O10 0.715172 0.891179 0.760563
O O11 0.355522 0.831856 0.367817
O O12 0.014853 0.811426 0.130014
O O13 0.000000 0.000000 0.000000
#
# Coordination Sequence:
#
# PCOD8149733 Si02
#       6
#     8   8   8   8   8   8
#     4   9  18  38  59  87 119 165 202 244 310 373
#     4  12  23  37  65  98 122 160 214 271 296 362
#     4  10  24  41  64  91 127 171 201 254 324 384
#     4  11  24  40  64  97 128 159 211 265 314 365
#     4  11  21  40  66  89 121 172 214 250 311 383
#     4   9  18  38  62  81 120 167 206 240 307 381
#
# _framework density 20.264465000000001
#
# number of rings (size 3 to 8) (size 9 to 14) (size 15 to 20)
#    0.000    1.667    5.000    1.000    4.667    1.333 
#    0.000    0.000    0.000    0.000    0.000    0.000 
#    0.000    0.000    0.000    0.000    0.000    0.000 
#
# Total GULP energy -297466.487527 kJ/mol
# GULP energy per Si atom -12394.436980 kJ/mol
# Density = 2.021834 g / cm^3
# Si number density = 20.264465 Si / 1000 Ang^3
#
#
#
# Elastic Constant Matrix: (Units=GPa)
#
#
# Indices 1 2 3 4 5 6 
#
# 1 59.2600 26.8750 27.6994 0.0000 16.4342 0.0000
# 2 26.8750 116.0610 63.8380 0.0000 13.0647 0.0000
# 3 27.6994 63.8380 123.7528 0.0000 11.3781 0.0000
# 4 0.0000 0.0000 0.0000 46.8476 0.0000 11.4307
# 5 16.4342 13.0647 11.3781 0.0000 27.8660 0.0000
# 6 0.0000 0.0000 0.0000 11.4307 0.0000 33.9379
#
#
#
# Elastic Compliance Matrix: (Units=1/GPa)
#
#
# Indices 1 2 3 4 5 6 
#
# 1 0.022271 -0.002430 -0.002731 0.000000 -0.010880 0.000000
# 2 -0.002430 0.012580 -0.005751 0.000000 -0.002117 0.000000
# 3 -0.002731 -0.005751 0.011702 0.000000 -0.000471 0.000000
# 4 0.000000 0.000000 0.000000 0.023257 0.000000 -0.007833
# 5 -0.010880 -0.002117 -0.000471 0.000000 0.043487 0.000000
# 6 0.000000 0.000000 0.000000 -0.007833 0.000000 0.032104
#
#
# Mechanical properties :
#
#
# Convention : Reuss Voigt Hill
#
# Bulk Modulus (GPa) = 40.43880 59.54429 49.99155
# Shear Modulus (GPa) = 28.49514 33.77440 31.13477
#
# Velocity S-wave (km/s) = 3.75395 4.08693 3.92397
# Velocity P-wave (km/s) = 6.22803 7.19153 6.72705
#
# Compressibility (1/GPa) = 0.02472873
#
# Stress axis : x y z
#
# Youngs Moduli (GPa) = 44.90224 79.48819 85.45619
#
# Poissons Ratio (x) = 0.19317 0.23337
# Poissons Ratio (y) = 0.10912 0.49147
# Poissons Ratio (z) = 0.12262 0.45714
#
# Static dielectric constant tensor:
#      x y z
#    x 3.465270 0.000000 0.266250 
#    y 0.000000 4.175100 0.000000 
#    z 0.266250 0.000000 3.742160 
# 
# 
# High freq. dielectric constant tensor:
#      x y z
#    x 1.762210 0.000000 0.032640 
#    y 0.000000 1.809130 0.000000 
#    z 0.032640 0.000000 1.789340 
# 
# From -- ./inp_files/224684.got.cif
#   From: 2010.06.25/outbox.cif.g09.slc.cpg/sg15_113_cif.got.tgz:224684.got - 2010.06.28 07:06:18.
