data_PCOD8149251
_publ_section_title
;
Structure prediction by ZEFSAII (Michael W. Deem and Ramdas Pophale) SiO2 
 PCOD8149251
Probable space group: C 2/C
;
_chemical_formula_sum "Si O2"
_cell_formula_units_Z 56
_cell_length_a 20.507018
_cell_length_b 8.721680
_cell_length_c 14.077682
_cell_angle_alpha 90.000000
_cell_angle_beta 91.937112
_cell_angle_gamma 90.000000
_cell_volume 2516.434060
_symmetry_space_group_name_H-M "C 2/C"
_symmetry_group_IT_number 15
_symmetry_cell_setting 'monoclinic'
loop_
_space_group_symop_operation_xyz
x,y,z
-x,y,1/2-z
-x,-y,-z
x,-y,1/2+z
1/2+x,1/2+y,z
1/2-x,1/2+y,1/2-z
1/2-x,1/2-y,-z
1/2+x,1/2-y,1/2+z
loop_
_atom_site_type_symbol
_atom_site_label
_atom_site_fract_x
_atom_site_fract_y
_atom_site_fract_z
Si Si1 0.681743 0.187188 0.460984
Si Si2 0.450359 0.741160 0.334447
Si Si3 0.970680 0.795109 0.468151
Si Si4 0.379929 0.029617 0.396968
Si Si5 0.208929 0.714846 0.246000
Si Si6 0.160210 0.951258 0.748553
Si Si7 0.093113 0.951874 0.435515
O O1 0.750000 0.250000 0.500000
O O2 0.680443 0.168021 0.347478
O O3 0.631229 0.316945 0.490641
O O4 0.657386 0.031552 0.510407
O O5 0.500000 0.744146 0.250000
O O6 0.491271 0.731407 0.432067
O O7 0.399838 0.598919 0.321121
O O8 0.408965 0.897211 0.332670
O O9 0.940636 0.639961 0.425810
O O10 0.022801 0.877999 0.399551
O O11 0.913184 0.914676 0.486659
O O12 0.324982 0.113101 0.334634
O O13 0.286309 0.684616 0.247272
O O14 0.194778 0.891280 0.217218
O O15 0.132655 0.977277 0.851635
#
# Coordination Sequence:
#
# PCOD8149251 Si02
#       7
#     8   8   8   8   8   8   8
#     4  11  24  47  72  98 143 190 234 299 357 414
#     4  12  25  43  73 100 145 188 230 294 357 426
#     4  11  25  44  70 104 139 186 237 289 357 426
#     4  12  27  44  70 106 145 185 240 289 360 425
#     4  11  27  44  73 103 139 183 241 294 352 425
#     4  11  24  47  70 102 137 182 238 292 357 418
#     4  10  23  44  72  95 138 180 238 285 357 415
#
# _framework density 22.253712
#
# number of rings (size 3 to 8) (size 9 to 14) (size 15 to 20)
#    0.000    0.857    2.857    3.857    6.000    2.286 
#    0.000    2.143    0.000    0.000    0.000    0.000 
#    0.000    0.000    0.000    0.000    0.000    0.000 
#
# Total GULP energy -347174.224991 kJ/mol
# GULP energy per Si atom -12399.079464 kJ/mol
# Density = 2.220306 g / cm^3
# Si number density = 22.253712 Si / 1000 Ang^3
#
#
#
# Elastic Constant Matrix: (Units=GPa)
#
#
# Indices 1 2 3 4 5 6 
#
# 1 110.1138 47.1069 33.9209 0.0000 -10.2498 0.0000
# 2 47.1069 121.4946 32.0498 0.0000 -8.3561 0.0000
# 3 33.9209 32.0498 71.0449 0.0000 2.1230 0.0000
# 4 0.0000 0.0000 0.0000 33.3408 0.0000 3.4280
# 5 -10.2498 -8.3561 2.1230 0.0000 40.4717 0.0000
# 6 0.0000 0.0000 0.0000 3.4280 0.0000 59.8455
#
#
#
# Elastic Compliance Matrix: (Units=1/GPa)
#
#
# Indices 1 2 3 4 5 6 
#
# 1 0.012100 -0.003369 -0.004335 0.000000 0.002596 0.000000
# 2 -0.003369 0.010472 -0.003159 0.000000 0.001475 0.000000
# 3 -0.004335 -0.003159 0.017651 0.000000 -0.002676 0.000000
# 4 0.000000 0.000000 0.000000 0.030171 0.000000 -0.001728
# 5 0.002596 0.001475 -0.002676 0.000000 0.025811 0.000000
# 6 0.000000 0.000000 0.000000 -0.001728 0.000000 0.016809
#
#
# Mechanical properties :
#
#
# Convention : Reuss Voigt Hill
#
# Bulk Modulus (GPa) = 54.06800 58.75652 56.41226
# Shear Modulus (GPa) = 35.48471 39.36997 37.42734
#
# Velocity S-wave (km/s) = 3.99752 4.21068 4.10548
# Velocity P-wave (km/s) = 6.75691 7.07814 6.91939
#
# Compressibility (1/GPa) = 0.01849523
#
# Stress axis : x y z
#
# Youngs Moduli (GPa) = 82.64481 95.49160 56.65549
#
# Poissons Ratio (x) = 0.32175 0.24559
# Poissons Ratio (y) = 0.27847 0.17900
# Poissons Ratio (z) = 0.35825 0.30170
#
# Static dielectric constant tensor:
#      x y z
#    x 4.481690 0.000000 -0.356440 
#    y 0.000000 4.380250 0.000000 
#    z -0.356440 0.000000 4.213120 
# 
# 
# High freq. dielectric constant tensor:
#      x y z
#    x 1.895770 0.000000 -0.005990 
#    y 0.000000 1.885570 0.000000 
#    z -0.005990 0.000000 1.871390 
# 
# From -- ./inp_files/166679.got.cif
#   From: 2010.06.25/outbox.cif.g09.slc.cpg/sg15_84_cif.got.tgz:166679.got - 2010.06.28 07:06:18.
