data_PCOD8149863
_publ_section_title
;
Structure prediction by ZEFSAII (Michael W. Deem and Ramdas Pophale) SiO2 
 PCOD8149863
Probable space group: C 2/C
;
_chemical_formula_sum "Si O2"
_cell_formula_units_Z 64
_cell_length_a 12.229115
_cell_length_b 8.368623
_cell_length_c 28.890019
_cell_angle_alpha 90.000000
_cell_angle_beta 93.147540
_cell_angle_gamma 90.000000
_cell_volume 2952.168984
_symmetry_space_group_name_H-M "C 2/C"
_symmetry_group_IT_number 15
_symmetry_cell_setting 'monoclinic'
loop_
_space_group_symop_operation_xyz
x,y,z
-x,y,1/2-z
-x,-y,-z
x,-y,1/2+z
1/2+x,1/2+y,z
1/2-x,1/2+y,1/2-z
1/2-x,1/2-y,-z
1/2+x,1/2-y,1/2+z
loop_
_atom_site_type_symbol
_atom_site_label
_atom_site_fract_x
_atom_site_fract_y
_atom_site_fract_z
Si Si1 0.105568 0.283565 0.540780
Si Si2 0.742934 0.009684 0.980699
Si Si3 0.933075 0.563949 0.200217
Si Si4 0.631753 0.701123 0.946275
Si Si5 0.336931 0.629410 0.655695
Si Si6 0.617840 0.570896 0.261635
Si Si7 0.238176 0.825158 0.205669
Si Si8 0.133536 0.573282 0.139511
O O1 0.141235 0.385020 0.496682
O O2 0.113950 0.397416 0.585248
O O3 0.981225 0.230284 0.529605
O O4 0.179219 0.123982 0.547854
O O5 0.702931 0.864208 0.947594
O O6 0.806440 0.942166 0.026847
O O7 0.858092 0.717122 0.187948
O O8 0.848877 0.418249 0.196023
O O9 0.000000 0.581721 0.250000
O O10 0.019638 0.534935 0.161534
O O11 0.607413 0.648900 0.893092
O O12 0.389698 0.482035 0.684788
O O13 0.208165 0.585535 0.647350
O O14 0.500000 0.650673 0.250000
O O15 0.718935 0.691963 0.256683
O O16 0.641553 0.424722 0.227390
O O17 0.186724 0.736643 0.160453
#
# Coordination Sequence:
#
# PCOD8149863 Si02
#       8
#     8   8   8   8   8   8   8   8
#     4  11  22  42  67  93 128 167 209 258 318 380
#     4  10  24  42  67  93 127 166 211 259 319 376
#     4  12  24  42  66  90 126 173 211 257 318 369
#     4  11  22  42  65  96 125 166 209 260 315 375
#     4  11  22  39  63  92 128 161 210 259 306 374
#     4  11  23  41  64  91 125 167 207 258 311 368
#     4  11  25  41  63  93 126 165 215 256 312 374
#     4  11  24  41  63  96 129 167 209 263 312 370
#
# _framework density 21.678975999999999
#
# number of rings (size 3 to 8) (size 9 to 14) (size 15 to 20)
#    0.000    1.000    2.500    5.250    1.750    1.000 
#    0.000    2.500    0.000    0.000    0.000    0.000 
#    0.000    0.000    0.000    0.000    0.000    0.000 
#
# Total GULP energy -396773.864147 kJ/mol
# GULP energy per Si atom -12399.183255 kJ/mol
# Density = 2.162963 g / cm^3
# Si number density = 21.678976 Si / 1000 Ang^3
#
#
#
# Elastic Constant Matrix: (Units=GPa)
#
#
# Indices 1 2 3 4 5 6 
#
# 1 92.6344 24.4862 18.6896 0.0000 -8.4418 0.0000
# 2 24.4862 61.7226 6.1896 0.0000 -10.6776 0.0000
# 3 18.6896 6.1896 62.6006 0.0000 -8.3527 0.0000
# 4 0.0000 0.0000 0.0000 21.4641 0.0000 -3.9223
# 5 -8.4418 -10.6776 -8.3527 0.0000 22.1089 0.0000
# 6 0.0000 0.0000 0.0000 -3.9223 0.0000 38.7834
#
#
#
# Elastic Compliance Matrix: (Units=1/GPa)
#
#
# Indices 1 2 3 4 5 6 
#
# 1 0.012756 -0.004482 -0.003164 0.000000 0.001511 0.000000
# 2 -0.004482 0.019278 0.000470 0.000000 0.007776 0.000000
# 3 -0.003164 0.000470 0.017630 0.000000 0.005679 0.000000
# 4 0.000000 0.000000 0.000000 0.047467 0.000000 0.004800
# 5 0.001511 0.007776 0.005679 0.000000 0.051709 0.000000
# 6 0.000000 0.000000 0.000000 0.004800 0.000000 0.026270
#
#
# Mechanical properties :
#
#
# Convention : Reuss Voigt Hill
#
# Bulk Modulus (GPa) = 28.31888 35.07646 31.69767
# Shear Modulus (GPa) = 24.84707 27.64411 26.24559
#
# Velocity S-wave (km/s) = 3.38914 3.57481 3.48321
# Velocity P-wave (km/s) = 5.32975 5.76663 5.55249
#
# Compressibility (1/GPa) = 0.03531213
#
# Stress axis : x y z
#
# Youngs Moduli (GPa) = 78.39601 51.87347 56.72100
#
# Poissons Ratio (x) = 0.23248 0.17944
# Poissons Ratio (y) = 0.35135 -0.02664
# Poissons Ratio (z) = 0.24801 -0.02436
#
# Static dielectric constant tensor:
#      x y z
#    x 3.981420 0.000000 0.007960 
#    y 0.000000 4.110260 0.000000 
#    z 0.007960 0.000000 3.729530 
# 
# 
# High freq. dielectric constant tensor:
#      x y z
#    x 1.861740 0.000000 -0.001920 
#    y 0.000000 1.856630 0.000000 
#    z -0.001920 0.000000 1.840530 
# 
# From -- ./inp_files/310307.got.cif
#   From: 2010.06.25/outbox.cif.g09.slc.cpg/sg15_156_cif.got.tgz:310307.got - 2010.06.28 07:06:18.
