data_PCOD8149450
_publ_section_title
;
Structure prediction by ZEFSAII (Michael W. Deem and Ramdas Pophale) SiO2 
 PCOD8149450
Probable space group: C 2/C
;
_chemical_formula_sum "Si O2"
_cell_formula_units_Z 48
_cell_length_a 11.544997
_cell_length_b 20.959617
_cell_length_c 12.922654
_cell_angle_alpha 90.000000
_cell_angle_beta 136.206365
_cell_angle_gamma 90.000000
_cell_volume 2164.085960
_symmetry_space_group_name_H-M "C 2/C"
_symmetry_group_IT_number 15
_symmetry_cell_setting 'monoclinic'
loop_
_space_group_symop_operation_xyz
x,y,z
-x,y,1/2-z
-x,-y,-z
x,-y,1/2+z
1/2+x,1/2+y,z
1/2-x,1/2+y,1/2-z
1/2-x,1/2-y,-z
1/2+x,1/2-y,1/2+z
loop_
_atom_site_type_symbol
_atom_site_label
_atom_site_fract_x
_atom_site_fract_y
_atom_site_fract_z
Si Si1 0.128096 0.928893 0.424496
Si Si2 0.645897 0.047669 0.920512
Si Si3 0.564754 0.726337 0.397160
Si Si4 0.882791 0.117044 0.919110
Si Si5 0.636549 0.188130 0.424850
Si Si6 0.434794 0.850738 0.399313
O O1 0.244154 0.869816 0.523391
O O2 0.000000 0.916406 0.250000
O O3 0.021985 0.932383 0.464174
O O4 0.248047 0.987713 0.470162
O O5 0.500000 0.023190 0.750000
O O6 0.780637 0.089621 0.948589
O O7 0.563131 0.090510 0.957959
O O8 0.500000 0.691584 0.250000
O O9 0.750000 0.750000 0.500000
O O10 0.537810 0.681674 0.480986
O O11 0.458601 0.791023 0.339341
O O12 0.757743 0.129001 0.741956
O O13 0.500000 0.198419 0.250000
O O14 0.750000 0.250000 0.500000
O O15 0.536756 0.172720 0.465974
#
# Coordination Sequence:
#
# PCOD8149450 Si02
#       6
#     8   8   8   8   8   8
#     4  12  25  47  70 102 139 184 236 289 353 419
#     4  10  23  46  71 101 137 183 237 291 353 410
#     4  12  22  39  69 105 139 176 228 286 351 418
#     4  11  23  45  69 101 145 181 232 291 352 420
#     4  12  28  48  72 103 142 186 234 284 352 429
#     4  11  23  44  72 100 141 187 230 291 352 419
#
# _framework density 22.180266
#
# number of rings (size 3 to 8) (size 9 to 14) (size 15 to 20)
#    0.000    0.667    5.000    3.000    2.333    2.667 
#    6.000    0.000    0.000    0.000    0.000    0.000 
#    0.000    0.000    0.000    0.000    0.000    0.000 
#
# Total GULP energy -297488.710018 kJ/mol
# GULP energy per Si atom -12395.362917 kJ/mol
# Density = 2.212978 g / cm^3
# Si number density = 22.180266 Si / 1000 Ang^3
#
#
#
# Elastic Constant Matrix: (Units=GPa)
#
#
# Indices 1 2 3 4 5 6 
#
# 1 130.9198 51.8659 52.9225 0.0000 -6.6558 0.0000
# 2 51.8659 121.7351 51.4556 0.0000 11.5402 0.0000
# 3 52.9225 51.4556 140.0972 0.0000 0.1828 0.0000
# 4 0.0000 0.0000 0.0000 33.1622 0.0000 6.0061
# 5 -6.6558 11.5402 0.1828 0.0000 33.1430 0.0000
# 6 0.0000 0.0000 0.0000 6.0061 0.0000 35.2688
#
#
#
# Elastic Compliance Matrix: (Units=1/GPa)
#
#
# Indices 1 2 3 4 5 6 
#
# 1 0.010273 -0.003611 -0.002559 0.000000 0.003335 0.000000
# 2 -0.003611 0.011384 -0.002811 0.000000 -0.004674 0.000000
# 3 -0.002559 -0.002811 0.009136 0.000000 0.000415 0.000000
# 4 0.000000 0.000000 0.000000 0.031114 0.000000 -0.005299
# 5 0.003335 -0.004674 0.000415 0.000000 0.032467 0.000000
# 6 0.000000 0.000000 0.000000 -0.005299 0.000000 0.029256
#
#
# Mechanical properties :
#
#
# Convention : Reuss Voigt Hill
#
# Bulk Modulus (GPa) = 77.93257 78.36002 78.14629
# Shear Modulus (GPa) = 34.27708 36.08201 35.17954
#
# Velocity S-wave (km/s) = 3.93541 4.03769 3.98688
# Velocity P-wave (km/s) = 7.47410 7.55928 7.51681
#
# Compressibility (1/GPa) = 0.01283161
#
# Stress axis : x y z
#
# Youngs Moduli (GPa) = 97.34480 87.83908 109.45360
#
# Poissons Ratio (x) = 0.31722 0.28004
# Poissons Ratio (y) = 0.35155 0.30767
# Poissons Ratio (z) = 0.24906 0.24692
#
# Static dielectric constant tensor:
#      x y z
#    x 4.263210 0.000000 0.238490 
#    y 0.000000 3.618750 0.000000 
#    z 0.238490 0.000000 3.786870 
# 
# 
# High freq. dielectric constant tensor:
#      x y z
#    x 1.889760 0.000000 0.005700 
#    y 0.000000 1.870860 0.000000 
#    z 0.005700 0.000000 1.868970 
# 
# From -- ./inp_files/89778.got.cif
#   From: 2010.06.25/outbox.cif.g09.slc.cpg/sg15_45_cif.got.tgz:89778.got - 2010.06.28 07:06:18.
