data_PCOD8149145
_publ_section_title
;
Structure prediction by ZEFSAII (Michael W. Deem and Ramdas Pophale) SiO2 
 PCOD8149145
Probable space group: C 2/C
;
_chemical_formula_sum "Si O2"
_cell_formula_units_Z 40
_cell_length_a 9.419006
_cell_length_b 22.915637
_cell_length_c 8.759339
_cell_angle_alpha 90.000000
_cell_angle_beta 108.703334
_cell_angle_gamma 90.000000
_cell_volume 1790.796303
_symmetry_space_group_name_H-M "C 2/C"
_symmetry_group_IT_number 15
_symmetry_cell_setting 'monoclinic'
loop_
_space_group_symop_operation_xyz
x,y,z
-x,y,1/2-z
-x,-y,-z
x,-y,1/2+z
1/2+x,1/2+y,z
1/2-x,1/2+y,1/2-z
1/2-x,1/2-y,-z
1/2+x,1/2-y,1/2+z
loop_
_atom_site_type_symbol
_atom_site_label
_atom_site_fract_x
_atom_site_fract_y
_atom_site_fract_z
Si Si1 0.249359 0.422590 0.934930
Si Si2 0.500000 0.157105 0.250000
Si Si3 0.500000 0.879538 0.250000
Si Si4 0.745272 0.534482 0.739408
Si Si5 0.949454 0.904757 0.577035
Si Si6 0.802202 0.311207 0.952737
O O1 0.102578 0.382187 0.898779
O O2 0.210766 0.468082 0.784001
O O3 0.393642 0.382379 0.942559
O O4 0.299903 0.460634 0.099313
O O5 0.616390 0.194696 0.185661
O O6 0.617531 0.921441 0.212144
O O7 0.572326 0.837281 0.396981
O O8 0.622855 0.553634 0.573273
O O9 0.844597 0.852116 0.597782
O O10 0.000000 0.939985 0.750000
O O11 0.750000 0.250000 0.000000
#
# Coordination Sequence:
#
# PCOD8149145 Si02
#       6
#     8   4   4   8   8   8
#     4  12  24  41  69 103 145 184 233 274 352 421
#     4  12  25  46  74 102 132 184 233 288 352 426
#     4  10  23  44  68 102 142 176 233 292 346 422
#     4  11  24  40  67 103 146 189 226 283 347 418
#     4  11  23  44  68  99 143 182 233 291 337 413
#     4  11  26  49  74 100 136 181 235 305 354 404
#
# _framework density 22.336433
#
# number of rings (size 3 to 8) (size 9 to 14) (size 15 to 20)
#    0.000    0.800    4.000    3.000    4.200    1.600 
#    7.200    2.000    0.000    0.000    0.000    0.000 
#    0.000    0.000    0.000    0.000    0.000    0.000 
#
# Total GULP energy -247789.650946 kJ/mol
# GULP energy per Si atom -12389.482547 kJ/mol
# Density = 2.228559 g / cm^3
# Si number density = 22.336433 Si / 1000 Ang^3
#
#
#
# Elastic Constant Matrix: (Units=GPa)
#
#
# Indices 1 2 3 4 5 6 
#
# 1 128.8681 48.3630 59.4895 0.0000 -3.2274 0.0000
# 2 48.3630 87.2137 38.9097 0.0000 -5.4215 0.0000
# 3 59.4895 38.9097 132.9642 0.0000 -6.1997 0.0000
# 4 0.0000 0.0000 0.0000 22.9249 0.0000 -13.2602
# 5 -3.2274 -5.4215 -6.1997 0.0000 43.7171 0.0000
# 6 0.0000 0.0000 0.0000 -13.2602 0.0000 27.0278
#
#
#
# Elastic Compliance Matrix: (Units=1/GPa)
#
#
# Indices 1 2 3 4 5 6 
#
# 1 0.011162 -0.004569 -0.003669 0.000000 -0.000263 0.000000
# 2 -0.004569 0.015110 -0.002321 0.000000 0.001207 0.000000
# 3 -0.003669 -0.002321 0.009881 0.000000 0.000843 0.000000
# 4 0.000000 0.000000 0.000000 0.060904 0.000000 0.029880
# 5 -0.000263 0.001207 0.000843 0.000000 0.023124 0.000000
# 6 0.000000 0.000000 0.000000 0.029880 0.000000 0.051659
#
#
# Mechanical properties :
#
#
# Convention : Reuss Voigt Hill
#
# Bulk Modulus (GPa) = 66.51413 71.39670 68.95541
# Shear Modulus (GPa) = 25.25631 32.21955 28.73793
#
# Velocity S-wave (km/s) = 3.36627 3.80210 3.59080
# Velocity P-wave (km/s) = 6.70462 7.16298 6.93759
#
# Compressibility (1/GPa) = 0.01503440
#
# Stress axis : x y z
#
# Youngs Moduli (GPa) = 89.59162 66.17946 101.20450
#
# Poissons Ratio (x) = 0.30237 0.37133
# Poissons Ratio (y) = 0.40934 0.23493
# Poissons Ratio (z) = 0.32872 0.15362
#
# Static dielectric constant tensor:
#      x y z
#    x 4.411000 0.000000 0.040870 
#    y 0.000000 3.605560 0.000000 
#    z 0.040870 0.000000 4.191210 
# 
# 
# High freq. dielectric constant tensor:
#      x y z
#    x 1.905890 0.000000 0.000410 
#    y 0.000000 1.837320 0.000000 
#    z 0.000410 0.000000 1.899210 
# 
# From -- ./inp_files/23565.got.cif
#   From: 2010.06.25/outbox.cif.g09.slc.cpg/sg15_12_cif.got.tgz:23565.got - 2010.06.28 07:06:18.
