data_PCOD8149071
_publ_section_title
;
Structure prediction by ZEFSAII (Michael W. Deem and Ramdas Pophale) SiO2 
 PCOD8149071
Probable space group: C 2/C
;
_chemical_formula_sum "Si O2"
_cell_formula_units_Z 48
_cell_length_a 24.949695
_cell_length_b 13.315388
_cell_length_c 19.996696
_cell_angle_alpha 90.000000
_cell_angle_beta 161.847335
_cell_angle_gamma 90.000000
_cell_volume 2069.688823
_symmetry_space_group_name_H-M "C 2/C"
_symmetry_group_IT_number 15
_symmetry_cell_setting 'monoclinic'
loop_
_space_group_symop_operation_xyz
x,y,z
-x,y,1/2-z
-x,-y,-z
x,-y,1/2+z
1/2+x,1/2+y,z
1/2-x,1/2+y,1/2-z
1/2-x,1/2-y,-z
1/2+x,1/2-y,1/2+z
loop_
_atom_site_type_symbol
_atom_site_label
_atom_site_fract_x
_atom_site_fract_y
_atom_site_fract_z
Si Si1 0.201256 0.095454 0.489346
Si Si2 0.198205 0.220927 0.614661
Si Si3 0.657937 0.618199 0.291709
Si Si4 0.374904 0.095458 0.162990
Si Si5 0.390485 0.381821 0.256714
Si Si6 0.365264 0.779095 0.448817
O O1 0.252331 0.168748 0.609388
O O2 0.241334 0.140170 0.463240
O O3 0.000000 0.064270 0.250000
O O4 0.321989 0.000017 0.643919
O O5 0.210445 0.340439 0.609378
O O6 0.012948 0.185536 0.419470
O O7 0.334248 0.196062 0.834256
O O8 0.615964 0.500013 0.231997
O O9 0.500000 0.064339 0.250000
O O10 0.461724 0.168780 0.318769
O O11 0.202369 0.140123 0.924277
O O12 0.587507 0.340429 0.486449
O O13 0.300087 0.314533 0.206590
#
# Coordination Sequence:
#
# PCOD8149071 Si02
#       6
#     8   8   8   8   8   8
#     4   9  20  39  62  88 120 162 207 251 301 360
#     4  11  23  38  61  92 124 159 199 252 313 362
#     4  10  23  44  65  87 123 166 207 250 299 363
#     4   9  20  39  62  88 120 162 207 251 301 360
#     4  10  23  44  65  87 123 166 207 250 299 363
#     4  11  23  38  61  92 124 159 199 252 313 362
#
# _framework density 23.191890999999998
#
# number of rings (size 3 to 8) (size 9 to 14) (size 15 to 20)
#    0.000    2.000    0.000    2.000    0.000   11.333 
#    0.000    8.333    0.000    0.000    0.000    0.000 
#    0.000    0.000    0.000    0.000    0.000    0.000 
#
# Total GULP energy -297375.508644 kJ/mol
# GULP energy per Si atom -12390.646194 kJ/mol
# Density = 2.313911 g / cm^3
# Si number density = 23.191891 Si / 1000 Ang^3
#
#
#
# Elastic Constant Matrix: (Units=GPa)
#
#
# Indices 1 2 3 4 5 6 
#
# 1 78.3651 44.0559 34.6916 -0.0347 -20.7973 -0.0312
# 2 44.0559 119.5508 44.1855 -0.0395 -0.9540 -0.0368
# 3 34.6916 44.1855 84.6967 -0.0289 -23.2828 -0.0381
# 4 -0.0347 -0.0395 -0.0289 30.0838 -0.0139 17.7693
# 5 -20.7973 -0.9540 -23.2828 -0.0139 40.5407 -0.0199
# 6 -0.0312 -0.0368 -0.0381 17.7693 -0.0199 32.6791
#
#
#
# Elastic Compliance Matrix: (Units=1/GPa)
#
#
# Indices 1 2 3 4 5 6 
#
# 1 0.019619 -0.006266 -0.002423 0.000011 0.008525 0.000008
# 2 -0.006266 0.012774 -0.005817 0.000003 -0.006254 -0.000004
# 3 -0.002423 -0.005817 0.018352 0.000001 0.009160 0.000018
# 4 0.000011 0.000003 0.000001 0.048968 0.000010 -0.026626
# 5 0.008525 -0.006254 0.009160 0.000010 0.034153 0.000027
# 6 0.000008 -0.000004 0.000018 -0.026626 0.000027 0.045079
#
#
# Mechanical properties :
#
#
# Convention : Reuss Voigt Hill
#
# Bulk Modulus (GPa) = 46.01460 58.71984 52.36722
# Shear Modulus (GPa) = 23.23421 31.30603 27.27012
#
# Velocity S-wave (km/s) = 3.16860 3.67804 3.43278
# Velocity P-wave (km/s) = 5.76806 6.58873 6.19201
#
# Compressibility (1/GPa) = 0.02173223
#
# Stress axis : x y z
#
# Youngs Moduli (GPa) = 50.97161 78.28607 54.49043
#
# Poissons Ratio (x) = 0.49055 0.13205
# Poissons Ratio (y) = 0.31939 0.31695
# Poissons Ratio (z) = 0.12352 0.45536
#
# Static dielectric constant tensor:
#      x y z
#    x 4.170140 -0.000010 -0.048590 
#    y -0.000010 4.211850 -0.000010 
#    z -0.048590 -0.000010 4.177070 
# 
# 
# High freq. dielectric constant tensor:
#      x y z
#    x 1.911630 0.000000 -0.006670 
#    y 0.000000 1.913630 0.000000 
#    z -0.006670 0.000000 1.912540 
# 
# From -- ./inp_files/257578.got.cif
#   From: 2010.06.25/outbox.cif.g09.slc.cpg/sg15_129_cif.got.tgz:257578.got - 2010.06.28 07:06:18.
