data_PCOD8149038
_publ_section_title
;
Structure prediction by ZEFSAII (Michael W. Deem and Ramdas Pophale) SiO2 
 PCOD8149038
Probable space group: C 2/C
;
_chemical_formula_sum "Si O2"
_cell_formula_units_Z 60
_cell_length_a 16.954923
_cell_length_b 13.075585
_cell_length_c 20.193726
_cell_angle_alpha 90.000000
_cell_angle_beta 142.751916
_cell_angle_gamma 90.000000
_cell_volume 2709.696624
_symmetry_space_group_name_H-M "C 2/C"
_symmetry_group_IT_number 15
_symmetry_cell_setting 'monoclinic'
loop_
_space_group_symop_operation_xyz
x,y,z
-x,y,1/2-z
-x,-y,-z
x,-y,1/2+z
1/2+x,1/2+y,z
1/2-x,1/2+y,1/2-z
1/2-x,1/2-y,-z
1/2+x,1/2-y,1/2+z
loop_
_atom_site_type_symbol
_atom_site_label
_atom_site_fract_x
_atom_site_fract_y
_atom_site_fract_z
Si Si1 0.995144 0.097298 0.367038
Si Si2 0.274290 0.859552 0.047461
Si Si3 0.936225 0.336757 0.776746
Si Si4 0.000000 0.747339 0.750000
Si Si5 0.632753 0.337716 0.586475
Si Si6 0.852708 0.389068 0.372396
Si Si7 0.438467 0.620503 0.840474
Si Si8 0.076093 0.504254 0.953987
O O1 0.143038 0.099717 0.493933
O O2 0.981550 0.181613 0.301208
O O3 0.894483 0.118638 0.358731
O O4 0.966951 0.984143 0.319051
O O5 0.382694 0.834677 0.174170
O O6 0.319141 0.943658 0.023819
O O7 0.250000 0.750000 0.000000
O O8 0.782927 0.363522 0.669825
O O9 0.965781 0.218220 0.812866
O O10 0.000000 0.364556 0.750000
O O11 0.008613 0.403592 0.879866
O O12 0.609589 0.217164 0.568419
O O13 0.530979 0.385128 0.466550
O O14 0.714470 0.380034 0.242237
O O15 0.849821 0.474785 0.428410
O O16 0.962678 0.413601 0.391925
#
# Coordination Sequence:
#
# PCOD8149038 Si02
#       8
#     8   8   8   4   8   8   8   8
#     4  11  25  42  70 101 139 182 224 288 346 416
#     4  10  24  41  64 100 135 175 225 283 336 410
#     4  11  27  45  70 101 137 185 231 288 345 419
#     4  10  24  44  64 104 138 182 228 276 356 414
#     4  11  24  47  67 102 140 179 235 287 351 408
#     4  10  23  43  73  99 133 187 232 287 347 420
#     4  11  25  44  68 101 136 182 236 286 347 416
#     4  11  23  45  69 101 137 182 235 283 352 417
#
# _framework density 22.142699
#
# number of rings (size 3 to 8) (size 9 to 14) (size 15 to 20)
#    0.000    1.333    1.333    2.800    7.467    4.800 
#    0.000    0.000    0.000    0.000    0.000    0.000 
#    0.000    0.000    0.000    0.000    0.000    0.000 
#
# Total GULP energy -371943.217373 kJ/mol
# GULP energy per Si atom -12398.107246 kJ/mol
# Density = 2.209230 g / cm^3
# Si number density = 22.142699 Si / 1000 Ang^3
#
#
#
# Elastic Constant Matrix: (Units=GPa)
#
#
# Indices 1 2 3 4 5 6 
#
# 1 128.2078 25.4565 44.1263 0.0001 17.7272 0.0001
# 2 25.4565 82.9741 20.9240 0.0002 17.9198 0.0001
# 3 44.1263 20.9240 107.8286 0.0004 10.8219 0.0002
# 4 0.0001 0.0002 0.0004 28.6583 0.0002 2.2291
# 5 17.7272 17.9198 10.8219 0.0002 33.5100 0.0001
# 6 0.0001 0.0001 0.0002 2.2291 0.0001 30.3972
#
#
#
# Elastic Compliance Matrix: (Units=1/GPa)
#
#
# Indices 1 2 3 4 5 6 
#
# 1 0.009692 -0.001417 -0.003362 0.000000 -0.003284 0.000000
# 2 -0.001417 0.014253 -0.001546 0.000000 -0.006373 0.000000
# 3 -0.003362 -0.001546 0.011046 0.000000 -0.000962 0.000000
# 4 0.000000 0.000000 0.000000 0.035094 0.000000 -0.002573
# 5 -0.003284 -0.006373 -0.000962 0.000000 0.035298 0.000000
# 6 0.000000 0.000000 0.000000 -0.002573 0.000000 0.033086
#
#
# Mechanical properties :
#
#
# Convention : Reuss Voigt Hill
#
# Bulk Modulus (GPa) = 44.75908 55.55824 50.15866
# Shear Modulus (GPa) = 31.53242 33.74668 32.63955
#
# Velocity S-wave (km/s) = 3.77776 3.90815 3.84351
# Velocity P-wave (km/s) = 6.26789 6.74613 6.51140
#
# Compressibility (1/GPa) = 0.02234183
#
# Stress axis : x y z
#
# Youngs Moduli (GPa) = 103.17497 70.16114 90.52755
#
# Poissons Ratio (x) = 0.09939 0.30434
# Poissons Ratio (y) = 0.14615 0.14000
# Poissons Ratio (z) = 0.34686 0.10850
#
# Static dielectric constant tensor:
#      x y z
#    x 3.811350 0.000000 0.351670 
#    y 0.000000 4.364690 0.000000 
#    z 0.351670 0.000000 4.078820 
# 
# 
# High freq. dielectric constant tensor:
#      x y z
#    x 1.858130 0.000000 0.016850 
#    y 0.000000 1.891750 0.000000 
#    z 0.016850 0.000000 1.878660 
# 
# From -- ./inp_files/248780.got.cif
#   From: 2010.06.25/outbox.cif.g09.slc.cpg/sg15_125_cif.got.tgz:248780.got - 2010.06.28 07:06:18.
