data_PCOD8149947
_publ_section_title
;
Structure prediction by ZEFSAII (Michael W. Deem and Ramdas Pophale) SiO2 
 PCOD8149947
Probable space group: C 2/C
;
_chemical_formula_sum "Si O2"
_cell_formula_units_Z 36
_cell_length_a 6.954607
_cell_length_b 21.062843
_cell_length_c 12.044973
_cell_angle_alpha 90.000000
_cell_angle_beta 77.479913
_cell_angle_gamma 90.000000
_cell_volume 1722.436204
_symmetry_space_group_name_H-M "C 2/C"
_symmetry_group_IT_number 15
_symmetry_cell_setting 'monoclinic'
loop_
_space_group_symop_operation_xyz
x,y,z
-x,y,1/2-z
-x,-y,-z
x,-y,1/2+z
1/2+x,1/2+y,z
1/2-x,1/2+y,1/2-z
1/2-x,1/2-y,-z
1/2+x,1/2-y,1/2+z
loop_
_atom_site_type_symbol
_atom_site_label
_atom_site_fract_x
_atom_site_fract_y
_atom_site_fract_z
Si Si1 0.549216 0.652038 0.436235
Si Si2 0.348196 0.659519 0.675921
Si Si3 0.269536 0.062539 0.974218
Si Si4 0.093774 0.430533 0.617546
Si Si5 0.000000 0.752819 0.750000
O O1 0.494823 0.684909 0.560585
O O2 0.431865 0.584543 0.439583
O O3 0.777894 0.633858 0.393056
O O4 0.475482 0.702757 0.358179
O O5 0.500000 0.634542 0.750000
O O6 0.211786 0.602779 0.643274
O O7 0.200106 0.712759 0.739463
O O8 0.271020 0.989250 0.939489
O O9 0.437695 0.080933 0.040374
O O10 0.000000 0.444190 0.750000
#
# Coordination Sequence:
#
# PCOD8149947 Si02
#       5
#     8   8   8   8   4
#     4  10  24  43  64  96 132 169 220 274 324 388
#     4  10  26  42  65  96 130 183 216 277 318 392
#     4   9  24  42  64 100 133 170 220 270 329 396
#     4  11  22  41  71  99 133 175 213 276 336 395
#     4  12  24  44  68  96 132 180 228 266 326 392
#
# _framework density 20.900628999999999
#
# number of rings (size 3 to 8) (size 9 to 14) (size 15 to 20)
#    1.333    0.444    0.000    2.667    4.667    5.333 
#    2.000    0.000    0.000    0.000    0.000    0.000 
#    0.000    0.000    0.000    0.000    0.000    0.000 
#
# Total GULP energy -222989.550026 kJ/mol
# GULP energy per Si atom -12388.308335 kJ/mol
# Density = 2.085306 g / cm^3
# Si number density = 20.900629 Si / 1000 Ang^3
#
#
#
# Elastic Constant Matrix: (Units=GPa)
#
#
# Indices 1 2 3 4 5 6 
#
# 1 103.8711 43.9300 49.0516 0.0000 17.5724 0.0000
# 2 43.9300 54.9749 31.9729 0.0000 10.2800 0.0000
# 3 49.0516 31.9729 113.2700 0.0000 22.4559 0.0000
# 4 0.0000 0.0000 0.0000 46.1631 0.0000 -5.0052
# 5 17.5724 10.2800 22.4559 0.0000 42.1019 0.0000
# 6 0.0000 0.0000 0.0000 -5.0052 0.0000 23.0652
#
#
#
# Elastic Compliance Matrix: (Units=1/GPa)
#
#
# Indices 1 2 3 4 5 6 
#
# 1 0.016080 -0.010333 -0.003597 0.000000 -0.002270 0.000000
# 2 -0.010333 0.028600 -0.003432 0.000000 -0.000840 0.000000
# 3 -0.003597 -0.003432 0.012179 0.000000 -0.004157 0.000000
# 4 0.000000 0.000000 0.000000 0.022184 0.000000 0.004814
# 5 -0.002270 -0.000840 -0.004157 0.000000 0.027122 0.000000
# 6 0.000000 0.000000 0.000000 0.004814 0.000000 0.044400
#
#
# Mechanical properties :
#
#
# Convention : Reuss Voigt Hill
#
# Bulk Modulus (GPa) = 45.17538 58.00277 51.58908
# Shear Modulus (GPa) = 25.95162 32.07681 29.01422
#
# Velocity S-wave (km/s) = 3.52755 3.92181 3.72990
# Velocity P-wave (km/s) = 6.18488 6.95122 6.57922
#
# Compressibility (1/GPa) = 0.02213595
#
# Stress axis : x y z
#
# Youngs Moduli (GPa) = 62.18921 34.96485 82.11036
#
# Poissons Ratio (x) = 0.36129 0.29532
# Poissons Ratio (y) = 0.64261 0.28178
# Poissons Ratio (z) = 0.22367 0.11999
#
# Static dielectric constant tensor:
#      x y z
#    x 3.697750 0.000000 0.069690 
#    y 0.000000 3.514310 0.000000 
#    z 0.069690 0.000000 3.915570 
# 
# 
# High freq. dielectric constant tensor:
#      x y z
#    x 1.823730 0.000000 0.006450 
#    y 0.000000 1.802850 0.000000 
#    z 0.006450 0.000000 1.823720 
# 
# From -- ./inp_files/76368.got.cif
#   From: 2010.06.25/outbox.cif.g09.slc.cpg/sg15_39_cif.got.tgz:76368.got - 2010.06.28 07:06:18.
