data_PCOD8149440
_publ_section_title
;
Structure prediction by ZEFSAII (Michael W. Deem and Ramdas Pophale) SiO2 
 PCOD8149440
Probable space group: C 2/C
;
_chemical_formula_sum "Si O2"
_cell_formula_units_Z 32
_cell_length_a 18.114601
_cell_length_b 9.880095
_cell_length_c 13.492589
_cell_angle_alpha 90.000000
_cell_angle_beta 30.399854
_cell_angle_gamma 90.000000
_cell_volume 1221.976330
_symmetry_space_group_name_H-M "C 2/C"
_symmetry_group_IT_number 15
_symmetry_cell_setting 'monoclinic'
loop_
_space_group_symop_operation_xyz
x,y,z
-x,y,1/2-z
-x,-y,-z
x,-y,1/2+z
1/2+x,1/2+y,z
1/2-x,1/2+y,1/2-z
1/2-x,1/2-y,-z
1/2+x,1/2-y,1/2+z
loop_
_atom_site_type_symbol
_atom_site_label
_atom_site_fract_x
_atom_site_fract_y
_atom_site_fract_z
Si Si1 0.678131 0.826857 0.243188
Si Si2 0.641133 0.178529 0.317873
Si Si3 0.837677 0.449680 0.897412
Si Si4 0.338342 0.472640 0.724408
O O1 0.525305 0.856766 0.472400
O O2 0.804164 0.817677 0.188601
O O3 0.711456 0.921376 0.111818
O O4 0.670779 0.673784 0.210818
O O5 0.729692 0.043645 0.254415
O O6 0.666747 0.182652 0.169390
O O7 0.000000 0.476107 0.750000
O O8 0.722700 0.426157 0.119986
O O9 0.500000 0.500000 0.500000
#
# Coordination Sequence:
#
# PCOD8149440 Si02
#       4
#     8   8   8   8
#     4  10  23  46  70 106 137 192 231 293 341 428
#     4  10  25  42  74 101 148 175 240 295 347 411
#     4  12  23  45  76 104 136 193 236 287 356 416
#     4  10  25  43  71 106 144 176 240 296 346 410
#
# _framework density 26.187086999999998
#
# number of rings (size 3 to 8) (size 9 to 14) (size 15 to 20)
#    1.500    0.000    2.500    1.500    3.500    1.000 
#    0.000    5.000    0.000    0.000    0.000    0.000 
#    0.000    0.000    0.000    0.000    0.000    0.000 
#
# Total GULP energy -198263.992860 kJ/mol
# GULP energy per Si atom -12391.499554 kJ/mol
# Density = 2.612748 g / cm^3
# Si number density = 26.187087 Si / 1000 Ang^3
#
#
#
# Elastic Constant Matrix: (Units=GPa)
#
#
# Indices 1 2 3 4 5 6 
#
# 1 165.2339 49.6298 72.6092 0.0000 5.8381 0.0000
# 2 49.6298 62.7499 2.7001 0.0000 0.3054 0.0000
# 3 72.6092 2.7001 190.5503 0.0000 2.6753 0.0000
# 4 0.0000 0.0000 0.0000 33.3630 0.0000 0.1416
# 5 5.8381 0.3054 2.6753 0.0000 47.2917 0.0000
# 6 0.0000 0.0000 0.0000 0.1416 0.0000 43.8484
#
#
#
# Elastic Compliance Matrix: (Units=1/GPa)
#
#
# Indices 1 2 3 4 5 6 
#
# 1 0.010055 -0.007789 -0.003707 0.000000 -0.000981 0.000000
# 2 -0.007789 0.021979 0.002647 0.000000 0.000670 0.000000
# 3 -0.003707 0.002647 0.006622 0.000000 0.000066 0.000000
# 4 0.000000 0.000000 0.000000 0.029974 0.000000 -0.000097
# 5 -0.000981 0.000670 0.000066 0.000000 0.021258 0.000000
# 6 0.000000 0.000000 0.000000 -0.000097 0.000000 0.022806
#
#
# Mechanical properties :
#
#
# Convention : Reuss Voigt Hill
#
# Bulk Modulus (GPa) = 47.71281 74.26801 60.99041
# Shear Modulus (GPa) = 36.39564 44.47362 40.43463
#
# Velocity S-wave (km/s) = 3.73209 4.12552 3.93373
# Velocity P-wave (km/s) = 6.06884 7.14950 6.63122
#
# Compressibility (1/GPa) = 0.02095873
#
# Stress axis : x y z
#
# Youngs Moduli (GPa) = 99.45092 45.49759 151.00656
#
# Poissons Ratio (x) = 0.35436 0.55984
# Poissons Ratio (y) = 0.77457 -0.39971
# Poissons Ratio (z) = 0.36870 -0.12043
#
# Static dielectric constant tensor:
#      x y z
#    x 5.080960 0.000000 -0.038310 
#    y 0.000000 5.548370 0.000000 
#    z -0.038310 0.000000 4.287840 
# 
# 
# High freq. dielectric constant tensor:
#      x y z
#    x 2.061110 0.000000 0.002330 
#    y 0.000000 2.102850 0.000000 
#    z 0.002330 0.000000 2.032410 
# 
# From -- ./inp_files/104678.got.cif
#   From: 2010.06.25/outbox.cif.g09.slc.cpg/sg15_53_cif.got.tgz:104678.got - 2010.06.28 07:06:18.
