data_PCOD8149567
_publ_section_title
;
Structure prediction by ZEFSAII (Michael W. Deem and Ramdas Pophale) SiO2 
 PCOD8149567
Probable space group: C 2/C
;
_chemical_formula_sum "Si O2"
_cell_formula_units_Z 52
_cell_length_a 20.192002
_cell_length_b 16.876870
_cell_length_c 10.672575
_cell_angle_alpha 90.000000
_cell_angle_beta 45.400934
_cell_angle_gamma 90.000000
_cell_volume 2589.663662
_symmetry_space_group_name_H-M "C 2/C"
_symmetry_group_IT_number 15
_symmetry_cell_setting 'monoclinic'
loop_
_space_group_symop_operation_xyz
x,y,z
-x,y,1/2-z
-x,-y,-z
x,-y,1/2+z
1/2+x,1/2+y,z
1/2-x,1/2+y,1/2-z
1/2-x,1/2-y,-z
1/2+x,1/2-y,1/2+z
loop_
_atom_site_type_symbol
_atom_site_label
_atom_site_fract_x
_atom_site_fract_y
_atom_site_fract_z
Si Si1 0.490379 0.268565 0.618974
Si Si2 0.307921 0.547077 0.416379
Si Si3 0.696515 0.367824 0.022362
Si Si4 0.000000 0.976512 0.750000
Si Si5 0.798039 0.691023 0.842019
Si Si6 0.076383 0.908445 0.959445
Si Si7 0.682502 0.742516 0.762245
O O1 0.500000 0.292621 0.750000
O O2 0.408831 0.205569 0.698052
O O3 0.478471 0.350595 0.560189
O O4 0.588053 0.228974 0.453324
O O5 0.274951 0.458308 0.488634
O O6 0.402880 0.570582 0.366979
O O7 0.225851 0.603120 0.576744
O O8 0.332408 0.557820 0.236241
O O9 0.658629 0.328112 0.198657
O O10 0.614437 0.362079 0.029866
O O11 0.785240 0.320381 0.854417
O O12 0.005018 0.026170 0.611589
O O13 0.760327 0.709056 0.753702
O O14 0.750000 0.750000 0.000000
#
# Coordination Sequence:
#
# PCOD8149567 Si02
#       7
#     8   8   8   4   8   8   8
#     4  12  23  38  69  93 125 173 212 261 312 379
#     4  11  23  37  65  88 132 163 212 259 324 378
#     4  10  24  43  63  95 127 175 201 273 319 379
#     4  10  24  36  60  98 122 168 196 268 338 378
#     4  12  23  42  62  98 126 171 211 262 310 384
#     4  11  21  40  58  93 135 151 214 258 324 395
#     4  11  23  43  66  91 132 164 220 253 327 371
#
# _framework density 20.079827999999999
#
# number of rings (size 3 to 8) (size 9 to 14) (size 15 to 20)
#    0.000    0.923    4.615    2.308    7.538    0.000 
#    0.000    0.769    0.000    0.000    0.000    0.000 
#    0.000    0.000    0.000    0.000    0.000    0.000 
#
# Total GULP energy -322346.576750 kJ/mol
# GULP energy per Si atom -12397.945260 kJ/mol
# Density = 2.003412 g / cm^3
# Si number density = 20.079828 Si / 1000 Ang^3
#
#
#
# Elastic Constant Matrix: (Units=GPa)
#
#
# Indices 1 2 3 4 5 6 
#
# 1 100.1920 15.0818 35.1232 0.0000 12.4104 0.0000
# 2 15.0818 87.5546 28.3465 0.0000 -4.1897 0.0000
# 3 35.1232 28.3465 102.6980 0.0000 5.5742 0.0000
# 4 0.0000 0.0000 0.0000 34.2265 0.0000 -3.9374
# 5 12.4104 -4.1897 5.5742 0.0000 45.5777 0.0000
# 6 0.0000 0.0000 0.0000 -3.9374 0.0000 12.6854
#
#
#
# Elastic Compliance Matrix: (Units=1/GPa)
#
#
# Indices 1 2 3 4 5 6 
#
# 1 0.011741 -0.000998 -0.003585 0.000000 -0.002850 0.000000
# 2 -0.000998 0.012742 -0.003276 0.000000 0.001844 0.000000
# 3 -0.003585 -0.003276 0.011910 0.000000 -0.000781 0.000000
# 4 0.000000 0.000000 0.000000 0.030299 0.000000 0.009404
# 5 -0.002850 0.001844 -0.000781 0.000000 0.022982 0.000000
# 6 0.000000 0.000000 0.000000 0.009404 0.000000 0.081750
#
#
# Mechanical properties :
#
#
# Convention : Reuss Voigt Hill
#
# Bulk Modulus (GPa) = 48.36782 49.72751 49.04767
# Shear Modulus (GPa) = 25.76873 32.62412 29.19643
#
# Velocity S-wave (km/s) = 3.58622 4.03516 3.81730
# Velocity P-wave (km/s) = 6.42558 6.82119 6.62634
#
# Compressibility (1/GPa) = 0.02067490
#
# Stress axis : x y z
#
# Youngs Moduli (GPa) = 85.17174 78.47967 83.96257
#
# Poissons Ratio (x) = 0.07833 0.30103
# Poissons Ratio (y) = 0.08501 0.27504
# Poissons Ratio (z) = 0.30536 0.25708
#
# Static dielectric constant tensor:
#      x y z
#    x 4.045270 0.000000 -0.335320 
#    y 0.000000 3.837560 0.000000 
#    z -0.335320 0.000000 5.004190 
# 
# 
# High freq. dielectric constant tensor:
#      x y z
#    x 1.777870 0.000000 0.022810 
#    y 0.000000 1.768900 0.000000 
#    z 0.022810 0.000000 1.800900 
# 
# From -- ./inp_files/56938.got.cif
#   From: 2010.06.25/outbox.cif.g09.slc.cpg/sg15_29_cif.got.tgz:56938.got - 2010.06.28 07:06:18.
