data_PCOD8149022
_publ_section_title
;
Structure prediction by ZEFSAII (Michael W. Deem and Ramdas Pophale) SiO2 
 PCOD8149022
Probable space group: C 2/C
;
_chemical_formula_sum "Si O2"
_cell_formula_units_Z 48
_cell_length_a 8.574753
_cell_length_b 11.429133
_cell_length_c 23.870754
_cell_angle_alpha 90.000000
_cell_angle_beta 116.547698
_cell_angle_gamma 90.000000
_cell_volume 2092.723150
_symmetry_space_group_name_H-M "C 2/C"
_symmetry_group_IT_number 15
_symmetry_cell_setting 'monoclinic'
loop_
_space_group_symop_operation_xyz
x,y,z
-x,y,1/2-z
-x,-y,-z
x,-y,1/2+z
1/2+x,1/2+y,z
1/2-x,1/2+y,1/2-z
1/2-x,1/2-y,-z
1/2+x,1/2-y,1/2+z
loop_
_atom_site_type_symbol
_atom_site_label
_atom_site_fract_x
_atom_site_fract_y
_atom_site_fract_z
Si Si1 0.033757 0.298613 0.124857
Si Si2 0.654286 0.844502 0.023132
Si Si3 0.257920 0.401740 0.818223
Si Si4 0.162773 0.705926 0.091664
Si Si5 0.909599 0.448513 0.818782
Si Si6 0.490829 0.543109 0.562317
O O1 0.118523 0.289990 0.077569
O O2 0.166081 0.226003 0.185847
O O3 0.023002 0.430124 0.144830
O O4 0.846677 0.234508 0.092566
O O5 0.785054 0.956197 0.046992
O O6 0.750000 0.750000 0.000000
O O7 0.465109 0.876808 0.966344
O O8 0.219066 0.472053 0.754547
O O9 0.408352 0.459609 0.879411
O O10 0.082903 0.383312 0.825861
O O11 0.190323 0.635588 0.153949
O O12 0.068017 0.829008 0.084830
O O13 0.500000 0.500000 0.500000
#
# Coordination Sequence:
#
# PCOD8149022 Si02
#       6
#     8   8   8   8   8   8
#     4  12  26  47  73 108 143 193 246 303 372 437
#     4  10  23  43  72 105 145 186 240 297 371 435
#     4  11  25  47  73 104 149 193 245 302 368 440
#     4  11  24  46  73 106 150 183 248 303 366 438
#     4  11  27  48  72 107 144 199 247 302 367 441
#     4  11  22  44  78 106 149 193 239 305 377 431
#
# _framework density 22.936620000000001
#
# number of rings (size 3 to 8) (size 9 to 14) (size 15 to 20)
#    0.000    1.000    1.667    5.500    4.667    1.333 
#    0.000    0.000    0.000    0.000    0.000    0.000 
#    0.000    0.000    0.000    0.000    0.000    0.000 
#
# Total GULP energy -297525.190961 kJ/mol
# GULP energy per Si atom -12396.882957 kJ/mol
# Density = 2.288442 g / cm^3
# Si number density = 22.936620 Si / 1000 Ang^3
#
#
#
# Elastic Constant Matrix: (Units=GPa)
#
#
# Indices 1 2 3 4 5 6 
#
# 1 158.2728 46.8463 65.6749 0.0000 7.0648 0.0000
# 2 46.8463 66.4846 49.2182 0.0000 13.5725 0.0000
# 3 65.6749 49.2182 151.0196 0.0000 1.9963 0.0000
# 4 0.0000 0.0000 0.0000 35.2738 0.0000 6.1894
# 5 7.0648 13.5725 1.9963 0.0000 28.4654 0.0000
# 6 0.0000 0.0000 0.0000 6.1894 0.0000 41.3616
#
#
#
# Elastic Compliance Matrix: (Units=1/GPa)
#
#
# Indices 1 2 3 4 5 6 
#
# 1 0.008556 -0.004343 -0.002307 0.000000 0.000109 0.000000
# 2 -0.004343 0.024640 -0.006006 0.000000 -0.010249 0.000000
# 3 -0.002307 -0.006006 0.009546 0.000000 0.002767 0.000000
# 4 0.000000 0.000000 0.000000 0.029114 0.000000 -0.004357
# 5 0.000109 -0.010249 0.002767 0.000000 0.039796 0.000000
# 6 0.000000 0.000000 0.000000 -0.004357 0.000000 0.024829
#
#
# Mechanical properties :
#
#
# Convention : Reuss Voigt Hill
#
# Bulk Modulus (GPa) = 57.37404 77.69509 67.53457
# Shear Modulus (GPa) = 29.83234 35.28934 32.56084
#
# Velocity S-wave (km/s) = 3.61035 3.92670 3.77185
# Velocity P-wave (km/s) = 6.51521 7.38282 6.96254
#
# Compressibility (1/GPa) = 0.01742949
#
# Stress axis : x y z
#
# Youngs Moduli (GPa) = 116.87589 40.58416 104.75983
#
# Poissons Ratio (x) = 0.17627 0.24165
# Poissons Ratio (y) = 0.50764 0.62919
# Poissons Ratio (z) = 0.26960 0.24375
#
# Static dielectric constant tensor:
#      x y z
#    x 4.626870 0.000000 0.334710 
#    y 0.000000 4.506250 0.000000 
#    z 0.334710 0.000000 4.384180 
# 
# 
# High freq. dielectric constant tensor:
#      x y z
#    x 1.919980 0.000000 0.010920 
#    y 0.000000 1.906830 0.000000 
#    z 0.010920 0.000000 1.907390 
# 
# From -- ./inp_files/287778.got.cif
#   From: 2010.06.25/outbox.cif.g09.slc.cpg/sg15_144_cif.got.tgz:287778.got - 2010.06.28 07:06:18.
