data_PCOD8149002
_publ_section_title
;
Structure prediction by ZEFSAII (Michael W. Deem and Ramdas Pophale) SiO2 
 PCOD8149002
Probable space group: C 2/C
;
_chemical_formula_sum "Si O2"
_cell_formula_units_Z 36
_cell_length_a 19.248964
_cell_length_b 8.401996
_cell_length_c 10.369298
_cell_angle_alpha 90.000000
_cell_angle_beta 78.369045
_cell_angle_gamma 90.000000
_cell_volume 1642.588433
_symmetry_space_group_name_H-M "C 2/C"
_symmetry_group_IT_number 15
_symmetry_cell_setting 'monoclinic'
loop_
_space_group_symop_operation_xyz
x,y,z
-x,y,1/2-z
-x,-y,-z
x,-y,1/2+z
1/2+x,1/2+y,z
1/2-x,1/2+y,1/2-z
1/2-x,1/2-y,-z
1/2+x,1/2-y,1/2+z
loop_
_atom_site_type_symbol
_atom_site_label
_atom_site_fract_x
_atom_site_fract_y
_atom_site_fract_z
Si Si1 0.569839 0.944779 0.046243
Si Si2 0.560832 0.624402 0.951665
Si Si3 0.706685 0.442280 0.892376
Si Si4 0.789115 0.428966 0.120811
Si Si5 0.500000 0.162450 0.250000
O O1 0.565195 0.047790 0.178761
O O2 0.568464 0.752244 0.066640
O O3 0.500000 0.000000 0.000000
O O4 0.638335 0.982725 0.936718
O O5 0.633314 0.532985 0.899857
O O6 0.539337 0.725803 0.835813
O O7 0.500000 0.500000 0.000000
O O8 0.762258 0.509039 0.768331
O O9 0.694947 0.256899 0.872609
O O10 0.733614 0.470038 0.027963
#
# Coordination Sequence:
#
# PCOD8149002 Si02
#       5
#     8   8   8   8   4
#     4  10  23  43  70  99 133 181 228 287 345 415
#     4  11  25  45  70 105 137 182 238 289 350 418
#     4  11  26  45  73 103 142 184 233 295 352 425
#     4  11  26  46  70 104 144 183 236 290 357 418
#     4  10  24  44  72  96 144 178 238 290 356 412
#
# _framework density 21.916626999999998
#
# number of rings (size 3 to 8) (size 9 to 14) (size 15 to 20)
#    0.000    1.333    0.000    4.000   15.556    4.444 
#    0.000    0.000    0.000    0.000    0.000    0.000 
#    0.000    0.000    0.000    0.000    0.000    0.000 
#
# Total GULP energy -223141.580779 kJ/mol
# GULP energy per Si atom -12396.754488 kJ/mol
# Density = 2.186674 g / cm^3
# Si number density = 21.916627 Si / 1000 Ang^3
#
#
#
# Elastic Constant Matrix: (Units=GPa)
#
#
# Indices 1 2 3 4 5 6 
#
# 1 98.0098 72.4125 37.2689 0.0000 -29.8216 0.0000
# 2 72.4125 191.7597 73.5785 0.0000 -13.8776 0.0000
# 3 37.2689 73.5785 108.4776 0.0000 -15.0698 0.0000
# 4 0.0000 0.0000 0.0000 39.1532 0.0000 2.5043
# 5 -29.8216 -13.8776 -15.0698 0.0000 46.7649 0.0000
# 6 0.0000 0.0000 0.0000 2.5043 0.0000 38.7583
#
#
#
# Elastic Compliance Matrix: (Units=1/GPa)
#
#
# Indices 1 2 3 4 5 6 
#
# 1 0.017473 -0.005569 -0.000950 0.000000 0.009184 0.000000
# 2 -0.005569 0.008840 -0.004409 0.000000 -0.002349 0.000000
# 3 -0.000950 -0.004409 0.012844 0.000000 0.002225 0.000000
# 4 0.000000 0.000000 0.000000 0.025647 0.000000 -0.001657
# 5 0.009184 -0.002349 0.002225 0.000000 0.027260 0.000000
# 6 0.000000 0.000000 0.000000 -0.001657 0.000000 0.025908
#
#
# Mechanical properties :
#
#
# Convention : Reuss Voigt Hill
#
# Bulk Modulus (GPa) = 57.79799 84.97410 71.38604
# Shear Modulus (GPa) = 34.34200 39.26775 36.80487
#
# Velocity S-wave (km/s) = 3.96275 4.23743 4.10239
# Velocity P-wave (km/s) = 6.88236 7.92444 7.42171
#
# Compressibility (1/GPa) = 0.01730164
#
# Stress axis : x y z
#
# Youngs Moduli (GPa) = 57.23015 113.12843 77.85594
#
# Poissons Ratio (x) = 0.63003 0.07395
# Poissons Ratio (y) = 0.31873 0.34324
# Poissons Ratio (z) = 0.05436 0.49874
#
# Static dielectric constant tensor:
#      x y z
#    x 3.799760 0.000000 0.141180 
#    y 0.000000 4.832760 0.000000 
#    z 0.141180 0.000000 4.922960 
# 
# 
# High freq. dielectric constant tensor:
#      x y z
#    x 1.870720 0.000000 -0.007750 
#    y 0.000000 1.887980 0.000000 
#    z -0.007750 0.000000 1.862900 
# 
# From -- ./inp_files/102635.got.cif
#   From: 2010.06.25/outbox.cif.g09.slc.cpg/sg15_52_cif.got.tgz:102635.got - 2010.06.28 07:06:18.
