data_PCOD8149513
_publ_section_title
;
Structure prediction by ZEFSAII (Michael W. Deem and Ramdas Pophale) SiO2 
 PCOD8149513
Probable space group: C 2/C
;
_chemical_formula_sum "Si O2"
_cell_formula_units_Z 52
_cell_length_a 14.486541
_cell_length_b 31.340971
_cell_length_c 5.037228
_cell_angle_alpha 90.000000
_cell_angle_beta 65.304336
_cell_angle_gamma 90.000000
_cell_volume 2077.842918
_symmetry_space_group_name_H-M "C 2/C"
_symmetry_group_IT_number 15
_symmetry_cell_setting 'monoclinic'
loop_
_space_group_symop_operation_xyz
x,y,z
-x,y,1/2-z
-x,-y,-z
x,-y,1/2+z
1/2+x,1/2+y,z
1/2-x,1/2+y,1/2-z
1/2-x,1/2-y,-z
1/2+x,1/2-y,1/2+z
loop_
_atom_site_type_symbol
_atom_site_label
_atom_site_fract_x
_atom_site_fract_y
_atom_site_fract_z
Si Si1 0.345234 0.721040 0.164045
Si Si2 0.881217 0.473484 0.402452
Si Si3 0.000000 0.030001 0.750000
Si Si4 0.131972 0.893596 0.211618
Si Si5 0.500000 0.768930 0.750000
Si Si6 0.500000 0.659992 0.250000
Si Si7 0.267235 0.887948 0.558731
Si Si8 0.367011 0.197096 0.989499
O O1 0.401065 0.688000 0.294321
O O2 0.354801 0.769553 0.268377
O O3 0.233649 0.707058 0.209258
O O4 0.410286 0.733062 0.828323
O O5 0.850447 0.510324 0.647990
O O6 0.823358 0.431273 0.568557
O O7 0.000000 0.462981 0.250000
O O8 0.900590 0.059508 0.846077
O O9 0.000000 0.000000 0.500000
O O10 0.033103 0.868353 0.451449
O O11 0.212314 0.896539 0.349282
O O12 0.186625 0.872891 0.886268
O O13 0.525821 0.799113 0.974073
O O14 0.352733 0.851488 0.410449
#
# Coordination Sequence:
#
# PCOD8149513 Si02
#       8
#     8   8   4   8   4   4   8   8
#     4  11  25  45  70 100 146 204 257 323 381 468
#     4  10  23  47  75 107 143 191 243 299 382 466
#     4  12  27  49  78 112 154 188 240 314 378 460
#     4  12  28  47  74 114 146 203 249 306 388 464
#     4  12  24  41  72 102 141 201 256 330 397 448
#     4  12  23  48  72 100 155 207 268 312 385 466
#     4  12  27  46  76 110 154 192 253 322 374 466
#     4  11  26  45  66 109 149 193 265 317 396 456
#
# _framework density 25.025952
#
# number of rings (size 3 to 8) (size 9 to 14) (size 15 to 20)
#    0.000    0.615    3.077    3.692    4.308    4.923 
#    4.154    0.000    0.000    0.000    0.000    0.000 
#    0.000    0.000    0.000    0.000    0.000    0.000 
#
# Total GULP energy -322137.696175 kJ/mol
# GULP energy per Si atom -12389.911391 kJ/mol
# Density = 2.496899 g / cm^3
# Si number density = 25.025952 Si / 1000 Ang^3
#
#
#
# Elastic Constant Matrix: (Units=GPa)
#
#
# Indices 1 2 3 4 5 6 
#
# 1 86.0969 31.8722 5.6127 0.0000 9.1143 0.0000
# 2 31.8722 141.5705 27.6608 0.0000 0.8706 0.0000
# 3 5.6127 27.6608 88.3879 0.0000 17.5437 0.0000
# 4 0.0000 0.0000 0.0000 1.3712 0.0000 6.3600
# 5 9.1143 0.8706 17.5437 0.0000 44.3139 0.0000
# 6 0.0000 0.0000 0.0000 6.3600 0.0000 34.0104
#
#
#
# Elastic Compliance Matrix: (Units=1/GPa)
#
#
# Indices 1 2 3 4 5 6 
#
# 1 0.013003 -0.003047 0.000702 0.000000 -0.002892 0.000000
# 2 -0.003047 0.008267 -0.002698 0.000000 0.001532 0.000000
# 3 0.000702 -0.002698 0.013166 0.000000 -0.005304 0.000000
# 4 0.000000 0.000000 0.000000 5.498562 0.000000 -1.028244
# 5 -0.002892 0.001532 -0.005304 0.000000 0.025231 0.000000
# 6 0.000000 0.000000 0.000000 -1.028244 0.000000 0.221687
#
#
# Mechanical properties :
#
#
# Convention : Reuss Voigt Hill
#
# Bulk Modulus (GPa) = 41.06597 49.59406 45.33002
# Shear Modulus (GPa) = 0.86235 32.66641 16.76438
#
# Velocity S-wave (km/s) = 0.58765 3.61681 2.59101
# Velocity P-wave (km/s) = 4.11162 6.10753 5.20612
#
# Compressibility (1/GPa) = 0.02435106
#
# Stress axis : x y z
#
# Youngs Moduli (GPa) = 76.90439 120.95911 75.95193
#
# Poissons Ratio (x) = 0.36854 -0.05331
# Poissons Ratio (y) = 0.23431 0.20491
# Poissons Ratio (z) = -0.05398 0.32633
#
# Static dielectric constant tensor:
#      x y z
#    x 5.417520 0.000000 -0.736850 
#    y 0.000000 4.703540 0.000000 
#    z -0.736850 0.000000 4.959950 
# 
# 
# High freq. dielectric constant tensor:
#      x y z
#    x 2.009440 0.000000 -0.008220 
#    y 0.000000 2.003090 0.000000 
#    z -0.008220 0.000000 2.002200 
# 
# From -- ./inp_files/9044.got.cif
#   From: 2010.06.25/outbox.cif.g09.slc.cpg/sg15_5_cif.got.tgz:9044.got - 2010.06.28 07:06:18.
