data_PCOD8149338
_publ_section_title
;
Structure prediction by ZEFSAII (Michael W. Deem and Ramdas Pophale) SiO2 
 PCOD8149338
Probable space group: C 2/C
;
_chemical_formula_sum "Si O2"
_cell_formula_units_Z 44
_cell_length_a 8.711136
_cell_length_b 28.433198
_cell_length_c 9.492689
_cell_angle_alpha 90.000000
_cell_angle_beta 55.791486
_cell_angle_gamma 90.000000
_cell_volume 1944.436263
_symmetry_space_group_name_H-M "C 2/C"
_symmetry_group_IT_number 15
_symmetry_cell_setting 'monoclinic'
loop_
_space_group_symop_operation_xyz
x,y,z
-x,y,1/2-z
-x,-y,-z
x,-y,1/2+z
1/2+x,1/2+y,z
1/2-x,1/2+y,1/2-z
1/2-x,1/2-y,-z
1/2+x,1/2-y,1/2+z
loop_
_atom_site_type_symbol
_atom_site_label
_atom_site_fract_x
_atom_site_fract_y
_atom_site_fract_z
Si Si1 0.029591 0.824847 0.003920
Si Si2 0.500000 0.608796 0.250000
Si Si3 0.764794 0.533252 0.014377
Si Si4 0.195277 0.548164 0.815741
Si Si5 0.289416 0.843520 0.117239
Si Si6 0.046678 0.269808 0.076038
O O1 0.205300 0.840195 0.004821
O O2 0.845752 0.820534 0.195598
O O3 0.004142 0.859967 0.887494
O O4 0.076480 0.773414 0.916990
O O5 0.681155 0.575678 0.150292
O O6 0.704965 0.483270 0.114994
O O7 0.697130 0.538008 0.887207
O O8 0.984281 0.534147 0.906121
O O9 0.197643 0.602175 0.854859
O O10 0.490265 0.815944 0.011007
O O11 0.000000 0.290340 0.250000
O O12 0.250000 0.250000 0.000000
#
# Coordination Sequence:
#
# PCOD8149338 Si02
#       6
#     8   4   8   8   8   8
#     4  11  25  44  67 107 142 179 238 289 358 420
#     4  12  24  42  70 108 134 184 244 302 336 422
#     4  10  24  41  67  97 142 178 242 281 349 413
#     4  10  23  45  68  97 137 193 226 287 354 420
#     4  11  25  45  71  98 145 189 229 288 361 424
#     4  12  25  43  73 102 136 183 234 287 353 424
#
# _framework density 22.628665000000002
#
# number of rings (size 3 to 8) (size 9 to 14) (size 15 to 20)
#    0.000    1.091    4.545    0.545    7.636    2.182 
#    0.000    1.818    0.000    0.000    0.000    0.000 
#    0.000    0.000    0.000    0.000    0.000    0.000 
#
# Total GULP energy -272555.039407 kJ/mol
# GULP energy per Si atom -12388.865428 kJ/mol
# Density = 2.257716 g / cm^3
# Si number density = 22.628665 Si / 1000 Ang^3
#
#
#
# Elastic Constant Matrix: (Units=GPa)
#
#
# Indices 1 2 3 4 5 6 
#
# 1 108.0983 57.9528 36.9434 0.0000 25.8646 0.0000
# 2 57.9528 192.0797 33.8991 0.0000 32.4047 0.0000
# 3 36.9434 33.8991 68.2206 0.0000 23.0121 0.0000
# 4 0.0000 0.0000 0.0000 37.8909 0.0000 12.2974
# 5 25.8646 32.4047 23.0121 0.0000 30.8971 0.0000
# 6 0.0000 0.0000 0.0000 12.2974 0.0000 68.0925
#
#
#
# Elastic Compliance Matrix: (Units=1/GPa)
#
#
# Indices 1 2 3 4 5 6 
#
# 1 0.013244 -0.002327 -0.004139 0.000000 -0.005564 0.000000
# 2 -0.002327 0.006810 -0.000496 0.000000 -0.004824 0.000000
# 3 -0.004139 -0.000496 0.021104 0.000000 -0.011733 0.000000
# 4 0.000000 0.000000 0.000000 0.028035 0.000000 -0.005063
# 5 -0.005564 -0.004824 -0.011733 0.000000 0.050822 0.000000
# 6 0.000000 0.000000 0.000000 -0.005063 0.000000 0.015600
#
#
# Mechanical properties :
#
#
# Convention : Reuss Voigt Hill
#
# Bulk Modulus (GPa) = 36.71957 69.55436 53.13697
# Shear Modulus (GPa) = 31.52254 43.34966 37.43610
#
# Velocity S-wave (km/s) = 3.73639 4.38162 4.07180
# Velocity P-wave (km/s) = 5.90562 7.51013 6.75568
#
# Compressibility (1/GPa) = 0.02723343
#
# Stress axis : x y z
#
# Youngs Moduli (GPa) = 75.50556 146.84940 47.38418
#
# Poissons Ratio (x) = 0.34168 0.19613
# Poissons Ratio (y) = 0.17568 0.02352
# Poissons Ratio (z) = 0.31252 0.07289
#
# Static dielectric constant tensor:
#      x y z
#    x 4.068830 0.000000 0.362170 
#    y 0.000000 4.263230 0.000000 
#    z 0.362170 0.000000 4.383760 
# 
# 
# High freq. dielectric constant tensor:
#      x y z
#    x 1.890590 0.000000 0.015060 
#    y 0.000000 1.905330 0.000000 
#    z 0.015060 0.000000 1.890070 
# 
# From -- ./inp_files/26009.got.cif
#   From: 2010.06.25/outbox.cif.g09.slc.cpg/sg15_14_cif.got.tgz:26009.got - 2010.06.28 07:06:18.
