data_PCOD8149563
_publ_section_title
;
Structure prediction by ZEFSAII (Michael W. Deem and Ramdas Pophale) SiO2 
 PCOD8149563
Probable space group: C 2/C
;
_chemical_formula_sum "Si O2"
_cell_formula_units_Z 44
_cell_length_a 15.308849
_cell_length_b 14.619707
_cell_length_c 8.683465
_cell_angle_alpha 90.000000
_cell_angle_beta 70.800266
_cell_angle_gamma 90.000000
_cell_volume 1835.355004
_symmetry_space_group_name_H-M "C 2/C"
_symmetry_group_IT_number 15
_symmetry_cell_setting 'monoclinic'
loop_
_space_group_symop_operation_xyz
x,y,z
-x,y,1/2-z
-x,-y,-z
x,-y,1/2+z
1/2+x,1/2+y,z
1/2-x,1/2+y,1/2-z
1/2-x,1/2-y,-z
1/2+x,1/2-y,1/2+z
loop_
_atom_site_type_symbol
_atom_site_label
_atom_site_fract_x
_atom_site_fract_y
_atom_site_fract_z
Si Si1 0.500000 0.451947 0.750000
Si Si2 0.402285 0.412601 0.527077
Si Si3 0.697190 0.934459 0.678391
Si Si4 0.798109 0.749131 0.137840
Si Si5 0.349318 0.118104 0.628483
Si Si6 0.994873 0.735002 0.423216
O O1 0.425133 0.393819 0.696526
O O2 0.540488 0.510982 0.590576
O O3 0.301305 0.453745 0.569664
O O4 0.420702 0.316208 0.434209
O O5 0.696972 0.854682 0.805117
O O6 0.646990 0.905681 0.553168
O O7 0.650630 0.026749 0.770175
O O8 0.738498 0.816560 0.281449
O O9 0.907360 0.776990 0.070219
O O10 0.750000 0.750000 0.000000
O O11 0.449087 0.169673 0.581724
O O12 0.000000 0.687638 0.250000
#
# Coordination Sequence:
#
# PCOD8149563 Si02
#       6
#     4   8   8   8   8   8
#     4  10  24  36  60 106 142 182 236 306 370 442
#     4  11  23  40  67 103 142 188 239 304 375 432
#     4  12  25  47  76 107 152 200 248 310 380 445
#     4  12  28  48  75 113 150 197 254 310 377 450
#     4  12  27  50  77 110 152 197 254 312 376 453
#     4  12  25  48  76 107 149 200 249 308 381 446
#
# _framework density 23.973564
#
# number of rings (size 3 to 8) (size 9 to 14) (size 15 to 20)
#    0.000    0.364    4.545    3.818    7.636    1.455 
#    0.000    0.000    0.000    0.000    0.000    0.000 
#    0.000    0.000    0.000    0.000    0.000    0.000 
#
# Total GULP energy -272577.784454 kJ/mol
# GULP energy per Si atom -12389.899293 kJ/mol
# Density = 2.391900 g / cm^3
# Si number density = 23.973564 Si / 1000 Ang^3
#
#
#
# Elastic Constant Matrix: (Units=GPa)
#
#
# Indices 1 2 3 4 5 6 
#
# 1 91.7843 17.9495 51.8140 0.0000 -5.8870 0.0000
# 2 17.9495 113.7868 45.5684 0.0000 -22.2596 0.0000
# 3 51.8140 45.5684 112.8917 0.0000 -9.2235 0.0000
# 4 0.0000 0.0000 0.0000 55.6330 0.0000 -7.2213
# 5 -5.8870 -22.2596 -9.2235 0.0000 34.6586 0.0000
# 6 0.0000 0.0000 0.0000 -7.2213 0.0000 26.6762
#
#
#
# Elastic Compliance Matrix: (Units=1/GPa)
#
#
# Indices 1 2 3 4 5 6 
#
# 1 0.014761 0.000670 -0.006956 0.000000 0.001086 0.000000
# 2 0.000670 0.011759 -0.004526 0.000000 0.006462 0.000000
# 3 -0.006956 -0.004526 0.013845 0.000000 -0.000404 0.000000
# 4 0.000000 0.000000 0.000000 0.018630 0.000000 0.005043
# 5 0.001086 0.006462 -0.000404 0.000000 0.033080 0.000000
# 6 0.000000 0.000000 0.000000 0.005043 0.000000 0.038852
#
#
# Mechanical properties :
#
#
# Convention : Reuss Voigt Hill
#
# Bulk Modulus (GPa) = 53.36302 61.01406 57.18854
# Shear Modulus (GPa) = 31.48653 36.93561 34.21107
#
# Velocity S-wave (km/s) = 3.62800 3.92941 3.78171
# Velocity P-wave (km/s) = 6.31326 6.78917 6.55553
#
# Compressibility (1/GPa) = 0.01873957
#
# Stress axis : x y z
#
# Youngs Moduli (GPa) = 67.74696 85.03852 72.22932
#
# Poissons Ratio (x) = -0.05696 0.50246
# Poissons Ratio (y) = -0.04538 0.32692
# Poissons Ratio (z) = 0.47128 0.38490
#
# Static dielectric constant tensor:
#      x y z
#    x 4.717660 0.000000 -0.085870 
#    y 0.000000 4.274680 0.000000 
#    z -0.085870 0.000000 4.575120 
# 
# 
# High freq. dielectric constant tensor:
#      x y z
#    x 1.950390 0.000000 -0.009010 
#    y 0.000000 1.946730 0.000000 
#    z -0.009010 0.000000 1.964880 
# 
# From -- ./inp_files/46997.got.cif
#   From: 2010.06.25/outbox.cif.g09.slc.cpg/sg15_24_cif.got.tgz:46997.got - 2010.06.28 07:06:18.
