data_PCOD8149583
_publ_section_title
;
Structure prediction by ZEFSAII (Michael W. Deem and Ramdas Pophale) SiO2 
 PCOD8149583
Probable space group: C 2/C
;
_chemical_formula_sum "Si O2"
_cell_formula_units_Z 48
_cell_length_a 8.661323
_cell_length_b 26.397488
_cell_length_c 13.900214
_cell_angle_alpha 90.000000
_cell_angle_beta 132.974914
_cell_angle_gamma 90.000000
_cell_volume 2325.268053
_symmetry_space_group_name_H-M "C 2/C"
_symmetry_group_IT_number 15
_symmetry_cell_setting 'monoclinic'
loop_
_space_group_symop_operation_xyz
x,y,z
-x,y,1/2-z
-x,-y,-z
x,-y,1/2+z
1/2+x,1/2+y,z
1/2-x,1/2+y,1/2-z
1/2-x,1/2-y,-z
1/2+x,1/2-y,1/2+z
loop_
_atom_site_type_symbol
_atom_site_label
_atom_site_fract_x
_atom_site_fract_y
_atom_site_fract_z
Si Si1 0.419214 0.735987 0.491789
Si Si2 0.882860 0.505115 0.853037
Si Si3 0.790153 0.398676 0.716631
Si Si4 0.299863 0.705535 0.231112
Si Si5 0.500000 0.077581 0.750000
Si Si6 0.540627 0.622199 0.575657
Si Si7 0.000000 0.928102 0.250000
O O1 0.250000 0.750000 0.500000
O O2 0.321178 0.736196 0.341860
O O3 0.604787 0.776393 0.583256
O O4 0.516549 0.681436 0.552278
O O5 0.832934 0.450615 0.788767
O O6 0.036669 0.539311 0.853826
O O7 0.671585 0.535367 0.779035
O O8 0.000000 0.500000 0.000000
O O9 0.730511 0.354366 0.765344
O O10 0.594380 0.407927 0.561368
O O11 0.000000 0.380642 0.750000
O O12 0.500000 0.715273 0.250000
O O13 0.290575 0.111297 0.673121
O O14 0.436290 0.607783 0.634054
#
# Coordination Sequence:
#
# PCOD8149583 Si02
#       7
#     8   8   8   8   4   8   4
#     4  11  24  45  72  99 138 182 229 279 352 419
#     4  11  24  39  65  96 132 175 226 272 339 397
#     4  11  23  44  68  93 135 183 227 279 341 411
#     4  11  25  43  68 104 132 179 226 290 348 406
#     4  10  24  44  62  96 134 176 216 282 336 400
#     4  10  24  43  68  96 137 176 226 279 345 403
#     4  10  24  38  62 100 126 180 220 276 330 398
#
# _framework density 20.642780999999999
#
# number of rings (size 3 to 8) (size 9 to 14) (size 15 to 20)
#    0.000    1.333    0.833    4.000    7.000    2.667 
#    3.000    0.000    0.000    0.000    0.000    0.000 
#    0.000    0.000    0.000    0.000    0.000    0.000 
#
# Total GULP energy -297562.634859 kJ/mol
# GULP energy per Si atom -12398.443119 kJ/mol
# Density = 2.059580 g / cm^3
# Si number density = 20.642781 Si / 1000 Ang^3
#
#
#
# Elastic Constant Matrix: (Units=GPa)
#
#
# Indices 1 2 3 4 5 6 
#
# 1 115.4151 22.0127 19.9541 0.0000 2.3420 0.0000
# 2 22.0127 77.9509 41.7626 0.0000 -10.0627 0.0000
# 3 19.9541 41.7626 97.5984 0.0000 -2.1116 0.0000
# 4 0.0000 0.0000 0.0000 -63.4043 0.0000 -101.4783
# 5 2.3420 -10.0627 -2.1116 0.0000 37.5445 0.0000
# 6 0.0000 0.0000 0.0000 -101.4783 0.0000 -67.5439
#
#
#
# Elastic Compliance Matrix: (Units=1/GPa)
#
#
# Indices 1 2 3 4 5 6 
#
# 1 0.009288 -0.002272 -0.000953 0.000000 -0.001242 0.000000
# 2 -0.002272 0.017844 -0.007073 0.000000 0.004527 0.000000
# 3 -0.000953 -0.007073 0.013444 0.000000 -0.001080 0.000000
# 4 0.000000 0.000000 0.000000 0.011229 0.000000 -0.016870
# 5 -0.001242 0.004527 -0.001080 0.000000 0.027865 0.000000
# 6 0.000000 0.000000 0.000000 -0.016870 0.000000 0.010541
#
#
# Mechanical properties :
#
#
# Convention : Reuss Voigt Hill
#
# Bulk Modulus (GPa) = 50.05383 50.93592 50.49487
# Shear Modulus (GPa) = 42.56504 -4.86508 18.84998
#
# Velocity S-wave (km/s) = 4.54583 -1.53685 3.02512
# Velocity P-wave (km/s) = 7.20091 4.64535 6.05939
#
# Compressibility (1/GPa) = 0.01997849
#
# Stress axis : x y z
#
# Youngs Moduli (GPa) = 107.66799 56.04125 74.38163
#
# Poissons Ratio (x) = 0.12734 0.07092
# Poissons Ratio (y) = 0.24466 0.52610
# Poissons Ratio (z) = 0.10265 0.39638
#
# Static dielectric constant tensor:
#      x y z
#    x 4.370070 0.000000 0.221440 
#    y 0.000000 3.694790 0.000000 
#    z 0.221440 0.000000 2.317860 
# 
# 
# High freq. dielectric constant tensor:
#      x y z
#    x 1.821350 0.000000 -0.002930 
#    y 0.000000 1.816560 0.000000 
#    z -0.002930 0.000000 1.815880 
# 
# From -- ./inp_files/80553.got.cif
#   From: 2010.06.25/outbox.cif.g09.slc.cpg/sg15_41_cif.got.tgz:80553.got - 2010.06.28 07:06:18.
