data_PCOD8149959
_publ_section_title
;
Structure prediction by ZEFSAII (Michael W. Deem and Ramdas Pophale) SiO2 
 PCOD8149959
Probable space group: C 2/C
;
_chemical_formula_sum "Si O2"
_cell_formula_units_Z 52
_cell_length_a 27.601924
_cell_length_b 6.651270
_cell_length_c 13.312593
_cell_angle_alpha 90.000000
_cell_angle_beta 102.940499
_cell_angle_gamma 90.000000
_cell_volume 2381.959639
_symmetry_space_group_name_H-M "C 2/C"
_symmetry_group_IT_number 15
_symmetry_cell_setting 'monoclinic'
loop_
_space_group_symop_operation_xyz
x,y,z
-x,y,1/2-z
-x,-y,-z
x,-y,1/2+z
1/2+x,1/2+y,z
1/2-x,1/2+y,1/2-z
1/2-x,1/2-y,-z
1/2+x,1/2-y,1/2+z
loop_
_atom_site_type_symbol
_atom_site_label
_atom_site_fract_x
_atom_site_fract_y
_atom_site_fract_z
Si Si1 0.356619 0.771401 0.315727
Si Si2 0.183999 0.324146 0.659572
Si Si3 0.347382 0.515578 0.498137
Si Si4 0.032619 0.219796 0.121857
Si Si5 0.000000 0.560969 0.250000
Si Si6 0.211711 0.997734 0.835451
Si Si7 0.955885 0.125138 0.598922
O O1 0.338618 0.694317 0.415817
O O2 0.410796 0.678173 0.317268
O O3 0.319433 0.697481 0.212531
O O4 0.356158 0.014134 0.318297
O O5 0.230436 0.446231 0.636821
O O6 0.158161 0.199020 0.559094
O O7 0.201399 0.185467 0.758860
O O8 0.304625 0.550442 0.559786
O O9 0.402028 0.522024 0.572701
O O10 0.018193 0.430996 0.164470
O O11 0.030362 0.231773 0.000213
O O12 0.996820 0.043986 0.144809
O O13 0.043485 0.704788 0.314289
#
# Coordination Sequence:
#
# PCOD8149959 Si02
#       7
#     8   8   8   8   4   8   8
#     4  10  24  43  65  98 129 172 217 271 327 385
#     4  11  23  44  66  97 132 168 220 268 331 385
#     4  10  25  42  68  94 131 175 214 267 335 385
#     4  10  24  44  65  94 136 172 218 271 324 387
#     4  12  24  36  70 100 126 178 220 258 332 390
#     4  11  23  42  67  95 132 171 216 276 321 389
#     4  10  24  45  64  96 138 170 217 278 320 383
#
# _framework density 21.830763000000001
#
# number of rings (size 3 to 8) (size 9 to 14) (size 15 to 20)
#    0.000    1.538    1.538    1.385    6.462    8.000 
#    0.000    0.000    0.000    0.000    0.000    0.000 
#    0.000    0.000    0.000    0.000    0.000    0.000 
#
# Total GULP energy -322469.136708 kJ/mol
# GULP energy per Si atom -12402.659104 kJ/mol
# Density = 2.178107 g / cm^3
# Si number density = 21.830763 Si / 1000 Ang^3
#
#
#
# Elastic Constant Matrix: (Units=GPa)
#
#
# Indices 1 2 3 4 5 6 
#
# 1 62.9275 36.6590 16.8640 0.0000 12.5515 0.0000
# 2 36.6590 125.7929 41.9227 0.0000 8.6768 0.0000
# 3 16.8640 41.9227 62.6809 0.0000 9.8376 0.0000
# 4 0.0000 0.0000 0.0000 36.8071 0.0000 2.8232
# 5 12.5515 8.6768 9.8376 0.0000 32.3743 0.0000
# 6 0.0000 0.0000 0.0000 2.8232 0.0000 31.4119
#
#
#
# Elastic Compliance Matrix: (Units=1/GPa)
#
#
# Indices 1 2 3 4 5 6 
#
# 1 0.020427 -0.005170 -0.001063 0.000000 -0.006211 0.000000
# 2 -0.005170 0.011553 -0.006474 0.000000 0.000875 0.000000
# 3 -0.001063 -0.006474 0.021246 0.000000 -0.004309 0.000000
# 4 0.000000 0.000000 0.000000 0.027357 0.000000 -0.002459
# 5 -0.006211 0.000875 -0.004309 0.000000 0.034371 0.000000
# 6 0.000000 0.000000 0.000000 -0.002459 0.000000 0.032056
#
#
# Mechanical properties :
#
#
# Convention : Reuss Voigt Hill
#
# Bulk Modulus (GPa) = 35.95503 49.14363 42.54933
# Shear Modulus (GPa) = 27.51864 30.51571 29.01717
#
# Velocity S-wave (km/s) = 3.55427 3.74281 3.64976
# Velocity P-wave (km/s) = 5.77489 6.42170 6.10687
#
# Compressibility (1/GPa) = 0.02781252
#
# Stress axis : x y z
#
# Youngs Moduli (GPa) = 48.95492 86.55501 47.06828
#
# Poissons Ratio (x) = 0.44751 0.05003
# Poissons Ratio (y) = 0.25311 0.30470
# Poissons Ratio (z) = 0.05204 0.56031
#
# Static dielectric constant tensor:
#      x y z
#    x 3.891850 0.000000 0.027740 
#    y 0.000000 3.932170 0.000000 
#    z 0.027740 0.000000 3.939260 
# 
# 
# High freq. dielectric constant tensor:
#      x y z
#    x 1.856210 0.000000 0.002260 
#    y 0.000000 1.859580 0.000000 
#    z 0.002260 0.000000 1.864010 
# 
# From -- ./inp_files/180067.got.cif
#   From: 2010.06.25/outbox.cif.g09.slc.cpg/sg15_91_cif.got.tgz:180067.got - 2010.06.28 07:06:18.
