data_PCOD8149806
_publ_section_title
;
Structure prediction by ZEFSAII (Michael W. Deem and Ramdas Pophale) SiO2 
 PCOD8149806
Probable space group: C 2/C
;
_chemical_formula_sum "Si O2"
_cell_formula_units_Z 60
_cell_length_a 14.677905
_cell_length_b 14.207552
_cell_length_c 31.314906
_cell_angle_alpha 90.000000
_cell_angle_beta 152.567893
_cell_angle_gamma 90.000000
_cell_volume 3008.500104
_symmetry_space_group_name_H-M "C 2/C"
_symmetry_group_IT_number 15
_symmetry_cell_setting 'monoclinic'
loop_
_space_group_symop_operation_xyz
x,y,z
-x,y,1/2-z
-x,-y,-z
x,-y,1/2+z
1/2+x,1/2+y,z
1/2-x,1/2+y,1/2-z
1/2-x,1/2-y,-z
1/2+x,1/2-y,1/2+z
loop_
_atom_site_type_symbol
_atom_site_label
_atom_site_fract_x
_atom_site_fract_y
_atom_site_fract_z
Si Si1 0.263852 0.158361 0.116210
Si Si2 0.596256 0.417243 0.704744
Si Si3 0.824665 0.707332 0.238085
Si Si4 0.843007 0.407950 0.309560
Si Si5 0.207408 0.344298 0.509149
Si Si6 0.653536 0.281319 0.064277
Si Si7 0.000000 0.809357 0.750000
Si Si8 0.085811 0.448784 0.331623
O O1 0.235048 0.175007 0.155077
O O2 0.440519 0.220728 0.170170
O O3 0.314857 0.050763 0.127407
O O4 0.063957 0.190557 0.009181
O O5 0.777851 0.369585 0.754881
O O6 0.665602 0.521239 0.748086
O O7 0.402839 0.409928 0.593894
O O8 0.533668 0.368677 0.722100
O O9 0.733791 0.802613 0.218056
O O10 0.038771 0.413509 0.420522
O O11 0.899491 0.437472 0.285218
O O12 0.250000 0.250000 0.500000
O O13 0.134390 0.306626 0.524465
O O14 0.800780 0.252948 0.163753
O O15 0.749140 0.374984 0.082951
O O16 0.000000 0.423605 0.250000
#
# Coordination Sequence:
#
# PCOD8149806 Si02
#       8
#     8   8   8   8   8   8   4   8
#     4  11  22  41  63  96 134 169 214 276 327 399
#     4  11  23  44  64  95 130 166 228 276 323 401
#     4  11  22  41  67  93 134 172 214 269 332 394
#     4  12  23  42  69  95 132 178 219 273 331 396
#     4  11  20  40  70  93 121 176 228 264 323 405
#     4  11  21  39  64  93 124 170 220 271 334 394
#     4  10  24  42  64  88 128 170 218 278 328 384
#     4  12  22  38  64 100 130 167 216 280 339 379
#
# _framework density 19.943493
#
# number of rings (size 3 to 8) (size 9 to 14) (size 15 to 20)
#    0.000    0.800    7.333    1.200    0.000    1.067 
#    4.800    2.000    0.000    0.000    0.000    0.000 
#    0.000    0.000    0.000    0.000    0.000    0.000 
#
# Total GULP energy -371851.222624 kJ/mol
# GULP energy per Si atom -12395.040754 kJ/mol
# Density = 1.989810 g / cm^3
# Si number density = 19.943493 Si / 1000 Ang^3
#
#
#
# Elastic Constant Matrix: (Units=GPa)
#
#
# Indices 1 2 3 4 5 6 
#
# 1 85.9878 29.6066 32.8013 -0.0002 2.5387 -0.0002
# 2 29.6066 104.9156 44.7883 -0.0002 2.8371 -0.0002
# 3 32.8013 44.7883 129.4844 -0.0005 13.4879 -0.0001
# 4 -0.0002 -0.0002 -0.0005 35.1879 0.0000 6.8874
# 5 2.5387 2.8371 13.4879 0.0000 28.8527 0.0002
# 6 -0.0002 -0.0002 -0.0001 6.8874 0.0002 25.2598
#
#
#
# Elastic Compliance Matrix: (Units=1/GPa)
#
#
# Indices 1 2 3 4 5 6 
#
# 1 0.013524 -0.002757 -0.002498 0.000000 0.000249 0.000000
# 2 -0.002757 0.011760 -0.003442 0.000000 0.000695 0.000000
# 3 -0.002498 -0.003442 0.009974 0.000000 -0.004104 0.000000
# 4 0.000000 0.000000 0.000000 0.030021 0.000000 -0.008186
# 5 0.000249 0.000695 -0.004104 0.000000 0.036487 0.000000
# 6 0.000000 0.000000 0.000000 -0.008186 0.000000 0.041821
#
#
# Mechanical properties :
#
#
# Convention : Reuss Voigt Hill
#
# Bulk Modulus (GPa) = 55.97737 59.42002 57.69869
# Shear Modulus (GPa) = 29.95166 32.07284 31.01225
#
# Velocity S-wave (km/s) = 3.87954 4.01457 3.94763
# Velocity P-wave (km/s) = 6.94239 7.16574 7.05495
#
# Compressibility (1/GPa) = 0.01786436
#
# Stress axis : x y z
#
# Youngs Moduli (GPa) = 73.94025 85.03487 100.26174
#
# Poissons Ratio (x) = 0.23441 0.25050
# Poissons Ratio (y) = 0.20383 0.34508
# Poissons Ratio (z) = 0.18474 0.29267
#
# Static dielectric constant tensor:
#      x y z
#    x 3.550580 0.000000 0.097310 
#    y 0.000000 3.610260 0.000000 
#    z 0.097310 0.000000 4.133870 
# 
# 
# High freq. dielectric constant tensor:
#      x y z
#    x 1.773160 0.000000 0.009920 
#    y 0.000000 1.770910 0.000000 
#    z 0.009920 0.000000 1.781250 
# 
# From -- ./inp_files/313989.got.cif
#   From: 2010.06.25/outbox.cif.g09.slc.cpg/sg15_157_cif.got.tgz:313989.got - 2010.06.28 07:06:18.
