data_PCOD8149244
_publ_section_title
;
Structure prediction by ZEFSAII (Michael W. Deem and Ramdas Pophale) SiO2 
 PCOD8149244
Probable space group: C 2/C
;
_chemical_formula_sum "Si O2"
_cell_formula_units_Z 40
_cell_length_a 11.224010
_cell_length_b 17.836591
_cell_length_c 8.873120
_cell_angle_alpha 90.000000
_cell_angle_beta 92.259112
_cell_angle_gamma 90.000000
_cell_volume 1775.000911
_symmetry_space_group_name_H-M "C 2/C"
_symmetry_group_IT_number 15
_symmetry_cell_setting 'monoclinic'
loop_
_space_group_symop_operation_xyz
x,y,z
-x,y,1/2-z
-x,-y,-z
x,-y,1/2+z
1/2+x,1/2+y,z
1/2-x,1/2+y,1/2-z
1/2-x,1/2-y,-z
1/2+x,1/2-y,1/2+z
loop_
_atom_site_type_symbol
_atom_site_label
_atom_site_fract_x
_atom_site_fract_y
_atom_site_fract_z
Si Si1 0.756202 0.416024 0.053757
Si Si2 0.286995 0.321230 0.903919
Si Si3 0.518908 0.343868 0.076078
Si Si4 0.109470 0.730045 0.851849
Si Si5 0.358683 0.946745 0.733363
O O1 0.612002 0.411922 0.052586
O O2 0.797511 0.334131 0.107730
O O3 0.805791 0.475612 0.173312
O O4 0.803039 0.435379 0.892894
O O5 0.326780 0.295767 0.739709
O O6 0.177526 0.378989 0.880703
O O7 0.250000 0.250000 0.000000
O O8 0.393666 0.366209 0.992042
O O9 0.500000 0.327577 0.250000
O O10 0.563040 0.265826 0.004761
O O11 0.000000 0.696121 0.750000
O O12 0.500000 0.951136 0.750000
#
# Coordination Sequence:
#
# PCOD8149244 Si02
#       5
#     8   8   8   8   8
#     4  12  27  48  72 106 151 193 248 295 373 439
#     4  11  26  45  75 109 146 187 249 301 369 434
#     4  11  25  45  77 108 145 192 242 303 368 427
#     4  10  23  44  72 106 144 185 241 304 355 439
#     4  12  30  48  73 106 148 198 244 305 369 439
#
# _framework density 22.535198999999999
#
# number of rings (size 3 to 8) (size 9 to 14) (size 15 to 20)
#    0.000    0.800    2.000    3.000   14.000    0.800 
#    0.000    0.000    0.000    0.000    0.000    0.000 
#    0.000    0.000    0.000    0.000    0.000    0.000 
#
# Total GULP energy -248111.049376 kJ/mol
# GULP energy per Si atom -12405.552469 kJ/mol
# Density = 2.248391 g / cm^3
# Si number density = 22.535199 Si / 1000 Ang^3
#
#
#
# Elastic Constant Matrix: (Units=GPa)
#
#
# Indices 1 2 3 4 5 6 
#
# 1 176.1010 60.6499 62.2537 0.0000 19.4661 0.0000
# 2 60.6499 85.7347 48.6609 0.0000 17.4474 0.0000
# 3 62.2537 48.6609 158.6225 0.0000 -6.6674 0.0000
# 4 0.0000 0.0000 0.0000-3081.3900 0.0000 1143.3259
# 5 19.4661 17.4474 -6.6674 0.0000 42.2972 0.0000
# 6 0.0000 0.0000 0.0000 1143.3259 0.0000 -372.9532
#
#
#
# Elastic Compliance Matrix: (Units=1/GPa)
#
#
# Indices 1 2 3 4 5 6 
#
# 1 0.008052 -0.004081 -0.002006 0.000000 -0.002338 0.000000
# 2 -0.004081 0.018260 -0.004266 0.000000 -0.006326 0.000000
# 3 -0.002006 -0.004266 0.008570 0.000000 0.004034 0.000000
# 4 0.000000 0.000000 0.000000 0.002361 0.000000 0.007237
# 5 -0.002338 -0.006326 0.004034 0.000000 0.027964 0.000000
# 6 0.000000 0.000000 0.000000 0.007237 0.000000 0.019505
#
#
# Mechanical properties :
#
#
# Convention : Reuss Voigt Hill
#
# Bulk Modulus (GPa) = 70.54879 84.84302 77.69591
# Shear Modulus (GPa) = 45.39575 -665.81630 -310.21027
#
# Velocity S-wave (km/s) = 4.49312 -17.20749 -11.74541
# Velocity P-wave (km/s) = 7.63489 18.89619 12.22241
#
# Compressibility (1/GPa) = 0.01417459
#
# Stress axis : x y z
#
# Youngs Moduli (GPa) = 124.19313 54.76575 116.68876
#
# Poissons Ratio (x) = 0.22352 0.23412
# Poissons Ratio (y) = 0.50689 0.49775
# Poissons Ratio (z) = 0.24917 0.23361
#
# Static dielectric constant tensor:
#      x y z
#    x 4.827680 0.000000 0.344290 
#    y 0.000000 3.941700 0.000000 
#    z 0.344290 0.000000 4.361250 
# 
# 
# High freq. dielectric constant tensor:
#      x y z
#    x 1.907470 0.000000 0.007930 
#    y 0.000000 1.872570 0.000000 
#    z 0.007930 0.000000 1.908150 
# 
# From -- ./inp_files/29250.got.cif
#   From: 2010.06.25/outbox.cif.g09.slc.cpg/sg15_15_cif.got.tgz:29250.got - 2010.06.28 07:06:18.
