data_PCOD8149886
_publ_section_title
;
Structure prediction by ZEFSAII (Michael W. Deem and Ramdas Pophale) SiO2 
 PCOD8149886
Probable space group: C 2/C
;
_chemical_formula_sum "Si O2"
_cell_formula_units_Z 60
_cell_length_a 26.643034
_cell_length_b 19.894459
_cell_length_c 15.450328
_cell_angle_alpha 90.000000
_cell_angle_beta 19.495808
_cell_angle_gamma 90.000000
_cell_volume 2733.122095
_symmetry_space_group_name_H-M "C 2/C"
_symmetry_group_IT_number 15
_symmetry_cell_setting 'monoclinic'
loop_
_space_group_symop_operation_xyz
x,y,z
-x,y,1/2-z
-x,-y,-z
x,-y,1/2+z
1/2+x,1/2+y,z
1/2-x,1/2+y,1/2-z
1/2-x,1/2-y,-z
1/2+x,1/2-y,1/2+z
loop_
_atom_site_type_symbol
_atom_site_label
_atom_site_fract_x
_atom_site_fract_y
_atom_site_fract_z
Si Si1 0.451543 0.201501 0.174987
Si Si2 0.930127 0.445399 0.224974
Si Si3 0.417840 0.359625 0.971119
Si Si4 0.500000 0.842075 0.250000
Si Si5 0.257594 0.758528 0.841503
Si Si6 0.123813 0.426688 0.386192
Si Si7 0.176113 0.184757 0.306988
Si Si8 0.602630 0.563132 0.312781
O O1 0.349160 0.193538 0.257103
O O2 0.364824 0.221081 0.402308
O O3 0.524019 0.132621 0.086830
O O4 0.573960 0.254333 0.941053
O O5 0.009975 0.385208 0.146064
O O6 0.888679 0.422815 0.196486
O O7 0.770626 0.465473 0.526620
O O8 0.052455 0.504180 0.035011
O O9 0.351016 0.295924 0.132495
O O10 0.292172 0.415087 0.148158
O O11 0.500000 0.333626 0.750000
O O12 0.540623 0.397257 0.830436
O O13 0.345262 0.800166 0.496547
O O14 0.176292 0.811909 0.911014
O O15 0.107227 0.114343 0.386762
O O16 0.500000 0.500000 0.500000
#
# Coordination Sequence:
#
# PCOD8149886 Si02
#       8
#     8   8   8   4   8   8   8   8
#     4  11  24  44  70 102 142 182 230 291 358 429
#     4  10  24  46  66 100 135 183 241 278 351 421
#     4  12  25  45  69 104 139 183 234 292 358 424
#     4  10  24  42  68  96 136 186 234 288 344 422
#     4  11  25  43  68 102 140 181 231 288 357 421
#     4  11  24  42  70  97 138 180 229 293 342 423
#     4  11  23  44  66 102 137 177 236 289 349 430
#     4  11  26  47  71 100 139 188 237 295 355 425
#
# _framework density 21.952915999999998
#
# number of rings (size 3 to 8) (size 9 to 14) (size 15 to 20)
#    0.000    1.067    4.000    1.200    6.533    0.000 
#    0.000    7.333    0.000    0.000    0.000    0.000 
#    0.000    0.000    0.000    0.000    0.000    0.000 
#
# Total GULP energy -371853.284592 kJ/mol
# GULP energy per Si atom -12395.109486 kJ/mol
# Density = 2.190295 g / cm^3
# Si number density = 21.952916 Si / 1000 Ang^3
#
#
#
# Elastic Constant Matrix: (Units=GPa)
#
#
# Indices 1 2 3 4 5 6 
#
# 1 123.7489 26.8579 34.7448 -0.0039 6.2581 -0.0009
# 2 26.8579 49.1516 27.9670 0.0021 13.4548 -0.0011
# 3 34.7448 27.9670 93.8051 0.0009 5.0294 -0.0031
# 4 -0.0039 0.0021 0.0009 15.6335 0.0025 -30.2459
# 5 6.2581 13.4548 5.0294 0.0025 35.4819 0.0001
# 6 -0.0009 -0.0011 -0.0031 -30.2459 0.0001 -4.8905
#
#
#
# Elastic Compliance Matrix: (Units=1/GPa)
#
#
# Indices 1 2 3 4 5 6 
#
# 1 0.009597 -0.003918 -0.002393 0.000000 0.000132 -0.000001
# 2 -0.003918 0.028807 -0.006639 0.000000 -0.009292 0.000001
# 3 -0.002393 -0.006639 0.013471 -0.000001 0.001030 0.000000
# 4 0.000000 0.000000 -0.000001 0.004934 0.000000 -0.030512
# 5 0.000132 -0.009292 0.001030 0.000000 0.031537 0.000002
# 6 -0.000001 0.000001 0.000000 -0.030512 0.000002 -0.015771
#
#
# Mechanical properties :
#
#
# Convention : Reuss Voigt Hill
#
# Bulk Modulus (GPa) = 38.50095 49.53836 44.01966
# Shear Modulus (GPa) = 46.67033 21.05405 33.86219
#
# Velocity S-wave (km/s) = 4.61578 3.10022 3.93172
# Velocity P-wave (km/s) = 6.78110 5.95230 6.38017
#
# Compressibility (1/GPa) = 0.02597338
#
# Stress axis : x y z
#
# Youngs Moduli (GPa) = 104.20370 34.71319 74.23318
#
# Poissons Ratio (x) = 0.13602 0.17767
# Poissons Ratio (y) = 0.40830 0.49285
# Poissons Ratio (z) = 0.24940 0.23047
#
# Static dielectric constant tensor:
#      x y z
#    x 4.306190 0.000000 -0.165060 
#    y 0.000000 3.812570 0.000010 
#    z -0.165060 0.000010 4.133850 
# 
# 
# High freq. dielectric constant tensor:
#      x y z
#    x 1.887450 0.000000 -0.009330 
#    y 0.000000 1.846900 0.000000 
#    z -0.009330 0.000000 1.872730 
# 
# From -- ./inp_files/179088.got.cif
#   From: 2010.06.25/outbox.cif.g09.slc.cpg/sg15_90_cif.got.tgz:179088.got - 2010.06.28 07:06:18.
