data_PCOD8149804
_publ_section_title
;
Structure prediction by ZEFSAII (Michael W. Deem and Ramdas Pophale) SiO2 
 PCOD8149804
Probable space group: C 2/C
;
_chemical_formula_sum "Si O2"
_cell_formula_units_Z 36
_cell_length_a 10.938815
_cell_length_b 16.793015
_cell_length_c 8.756618
_cell_angle_alpha 90.000000
_cell_angle_beta 64.517784
_cell_angle_gamma 90.000000
_cell_volume 1452.071084
_symmetry_space_group_name_H-M "C 2/C"
_symmetry_group_IT_number 15
_symmetry_cell_setting 'monoclinic'
loop_
_space_group_symop_operation_xyz
x,y,z
-x,y,1/2-z
-x,-y,-z
x,-y,1/2+z
1/2+x,1/2+y,z
1/2-x,1/2+y,1/2-z
1/2-x,1/2-y,-z
1/2+x,1/2-y,1/2+z
loop_
_atom_site_type_symbol
_atom_site_label
_atom_site_fract_x
_atom_site_fract_y
_atom_site_fract_z
Si Si1 0.221021 0.168574 0.931183
Si Si2 0.263728 0.868148 0.070954
Si Si3 0.443997 0.411785 0.555038
Si Si4 0.500000 0.879583 0.750000
Si Si5 0.808777 0.449702 0.610045
O O1 0.251981 0.179729 0.734598
O O2 0.250000 0.250000 0.000000
O O3 0.320690 0.100414 0.945881
O O4 0.064627 0.145875 0.040023
O O5 0.310141 0.958228 0.072888
O O6 0.119987 0.872803 0.063179
O O7 0.381966 0.828019 0.899742
O O8 0.500000 0.500000 0.500000
O O9 0.332608 0.418024 0.745808
O O10 0.431154 0.934802 0.659390
#
# Coordination Sequence:
#
# PCOD8149804 Si02
#       5
#     8   8   8   4   8
#     4  12  26  43  68 117 153 190 247 337 400 442
#     4  11  22  43  77 106 144 199 254 318 377 470
#     4  11  21  43  78 110 142 191 265 320 379 467
#     4  10  24  42  64 106 148 190 244 302 384 454
#     4  11  22  43  72 106 147 198 255 312 376 473
#
# _framework density 24.792175
#
# number of rings (size 3 to 8) (size 9 to 14) (size 15 to 20)
#    0.000    0.889    4.444    3.333    0.000    0.889 
#   12.000    2.222    0.000    0.000    0.000    0.000 
#    0.000    0.000    0.000    0.000    0.000    0.000 
#
# Total GULP energy -223165.007998 kJ/mol
# GULP energy per Si atom -12398.056000 kJ/mol
# Density = 2.473575 g / cm^3
# Si number density = 24.792175 Si / 1000 Ang^3
#
#
#
# Elastic Constant Matrix: (Units=GPa)
#
#
# Indices 1 2 3 4 5 6 
#
# 1 176.7987 40.8428 53.6950 0.0000 14.2821 0.0000
# 2 40.8428 85.3378 33.8273 0.0000 7.6210 0.0000
# 3 53.6950 33.8273 127.7761 0.0000 15.0791 0.0000
# 4 0.0000 0.0000 0.0000 32.8959 0.0000 13.9475
# 5 14.2821 7.6210 15.0791 0.0000 49.5443 0.0000
# 6 0.0000 0.0000 0.0000 13.9475 0.0000 35.0109
#
#
#
# Elastic Compliance Matrix: (Units=1/GPa)
#
#
# Indices 1 2 3 4 5 6 
#
# 1 0.006944 -0.002374 -0.002174 0.000000 -0.000975 0.000000
# 2 -0.002374 0.013951 -0.002617 0.000000 -0.000665 0.000000
# 3 -0.002174 -0.002617 0.009658 0.000000 -0.001910 0.000000
# 4 0.000000 0.000000 0.000000 0.036577 0.000000 -0.014571
# 5 -0.000975 -0.000665 -0.001910 0.000000 0.021149 0.000000
# 6 0.000000 0.000000 0.000000 -0.014571 0.000000 0.034368
#
#
# Mechanical properties :
#
#
# Convention : Reuss Voigt Hill
#
# Bulk Modulus (GPa) = 61.64669 71.84918 66.74794
# Shear Modulus (GPa) = 35.11595 40.92673 38.02134
#
# Velocity S-wave (km/s) = 3.76761 4.06740 3.92037
# Velocity P-wave (km/s) = 6.62162 7.14856 6.89013
#
# Compressibility (1/GPa) = 0.01622147
#
# Stress axis : x y z
#
# Youngs Moduli (GPa) = 144.01428 71.67778 103.53888
#
# Poissons Ratio (x) = 0.17019 0.22513
# Poissons Ratio (y) = 0.34194 0.27098
# Poissons Ratio (z) = 0.31314 0.18760
#
# Static dielectric constant tensor:
#      x y z
#    x 5.577780 0.000000 -0.683830 
#    y 0.000000 3.957310 0.000000 
#    z -0.683830 0.000000 6.029790 
# 
# 
# High freq. dielectric constant tensor:
#      x y z
#    x 2.012290 0.000000 0.011520 
#    y 0.000000 1.949190 0.000000 
#    z 0.011520 0.000000 2.003410 
# 
# From -- ./inp_files/28948.got.cif
#   From: 2010.06.25/outbox.cif.g09.slc.cpg/sg15_15_cif.got.tgz:28948.got - 2010.06.28 07:06:18.
