data_PCOD8149288
_publ_section_title
;
Structure prediction by ZEFSAII (Michael W. Deem and Ramdas Pophale) SiO2 
 PCOD8149288
Probable space group: C 2/C
;
_chemical_formula_sum "Si O2"
_cell_formula_units_Z 40
_cell_length_a 6.781300
_cell_length_b 23.639264
_cell_length_c 11.576716
_cell_angle_alpha 90.000000
_cell_angle_beta 82.729914
_cell_angle_gamma 90.000000
_cell_volume 1840.885306
_symmetry_space_group_name_H-M "C 2/C"
_symmetry_group_IT_number 15
_symmetry_cell_setting 'monoclinic'
loop_
_space_group_symop_operation_xyz
x,y,z
-x,y,1/2-z
-x,-y,-z
x,-y,1/2+z
1/2+x,1/2+y,z
1/2-x,1/2+y,1/2-z
1/2-x,1/2-y,-z
1/2+x,1/2-y,1/2+z
loop_
_atom_site_type_symbol
_atom_site_label
_atom_site_fract_x
_atom_site_fract_y
_atom_site_fract_z
Si Si1 0.373368 0.829506 0.430607
Si Si2 0.471675 0.296899 0.879142
Si Si3 0.398246 0.012443 0.381040
Si Si4 0.598817 0.580756 0.863313
Si Si5 0.761082 0.624464 0.469821
O O1 0.446784 0.770340 0.374481
O O2 0.254404 0.866248 0.344205
O O3 0.569481 0.863241 0.450030
O O4 0.228714 0.822364 0.551514
O O5 0.500000 0.321788 0.750000
O O6 0.677009 0.316035 0.926194
O O7 0.500000 0.994991 0.250000
O O8 0.350707 0.079434 0.371983
O O9 0.500000 0.000000 0.500000
O O10 0.200162 0.975655 0.401833
O O11 0.500000 0.569178 0.750000
O O12 0.424298 0.592660 0.963778
#
# Coordination Sequence:
#
# PCOD8149288 Si02
#       5
#     8   8   8   8   8
#     4  10  23  45  64  99 137 176 231 281 350 414
#     4  10  24  40  66  99 136 177 228 285 344 421
#     4  12  26  45  73 103 143 189 231 294 356 421
#     4  11  25  43  71 102 134 180 237 288 348 425
#     4  11  24  43  70  95 140 179 231 283 351 418
#
# _framework density 21.728673000000001
#
# number of rings (size 3 to 8) (size 9 to 14) (size 15 to 20)
#    0.000    1.200    2.000    2.400    5.600    0.800 
#    0.000    0.000    0.000    0.000    0.000    0.000 
#    0.000    0.000    0.000    0.000    0.000    0.000 
#
# Total GULP energy -247804.039551 kJ/mol
# GULP energy per Si atom -12390.201978 kJ/mol
# Density = 2.167922 g / cm^3
# Si number density = 21.728673 Si / 1000 Ang^3
#
#
#
# Elastic Constant Matrix: (Units=GPa)
#
#
# Indices 1 2 3 4 5 6 
#
# 1 139.4901 51.1360 39.5642 0.0000 22.5915 0.0000
# 2 51.1360 77.8343 3.4664 0.0000 10.4749 0.0000
# 3 39.5642 3.4664 105.8808 0.0000 16.6104 0.0000
# 4 0.0000 0.0000 0.0000 24.7283 0.0000 -4.0934
# 5 22.5915 10.4749 16.6104 0.0000 32.1691 0.0000
# 6 0.0000 0.0000 0.0000 -4.0934 0.0000 55.4038
#
#
#
# Elastic Compliance Matrix: (Units=1/GPa)
#
#
# Indices 1 2 3 4 5 6 
#
# 1 0.011211 -0.006682 -0.003348 0.000000 -0.003969 0.000000
# 2 -0.006682 0.017427 0.002264 0.000000 -0.002151 0.000000
# 3 -0.003348 0.002264 0.011282 0.000000 -0.004212 0.000000
# 4 0.000000 0.000000 0.000000 0.040940 0.000000 0.003025
# 5 -0.003969 -0.002151 -0.004212 0.000000 0.036748 0.000000
# 6 0.000000 0.000000 0.000000 0.003025 0.000000 0.018273
#
#
# Mechanical properties :
#
#
# Convention : Reuss Voigt Hill
#
# Bulk Modulus (GPa) = 41.00524 56.83762 48.92143
# Shear Modulus (GPa) = 31.33977 37.72949 34.53463
#
# Velocity S-wave (km/s) = 3.80191 4.17152 3.99100
# Velocity P-wave (km/s) = 6.17942 7.02971 6.61823
#
# Compressibility (1/GPa) = 0.02438713
#
# Stress axis : x y z
#
# Youngs Moduli (GPa) = 89.19879 57.38380 88.63573
#
# Poissons Ratio (x) = 0.38345 0.29673
# Poissons Ratio (y) = 0.59605 -0.20065
# Poissons Ratio (z) = 0.29862 -0.12990
#
# Static dielectric constant tensor:
#      x y z
#    x 3.783940 0.000000 -0.820010 
#    y 0.000000 4.109640 0.000000 
#    z -0.820010 0.000000 2.308480 
# 
# 
# High freq. dielectric constant tensor:
#      x y z
#    x 1.867170 0.000000 -0.005510 
#    y 0.000000 1.865540 0.000000 
#    z -0.005510 0.000000 1.844810 
# 
# From -- ./inp_files/73055.got.cif
#   From: 2010.06.25/outbox.cif.g09.slc.cpg/sg15_37_cif.got.tgz:73055.got - 2010.06.28 07:06:18.
