data_PCOD8149510
_publ_section_title
;
Structure prediction by ZEFSAII (Michael W. Deem and Ramdas Pophale) SiO2 
 PCOD8149510
Probable space group: C 2/C
;
_chemical_formula_sum "Si O2"
_cell_formula_units_Z 52
_cell_length_a 24.971246
_cell_length_b 9.279536
_cell_length_c 11.257216
_cell_angle_alpha 90.000000
_cell_angle_beta 65.432525
_cell_angle_gamma 90.000000
_cell_volume 2372.394651
_symmetry_space_group_name_H-M "C 2/C"
_symmetry_group_IT_number 15
_symmetry_cell_setting 'monoclinic'
loop_
_space_group_symop_operation_xyz
x,y,z
-x,y,1/2-z
-x,-y,-z
x,-y,1/2+z
1/2+x,1/2+y,z
1/2-x,1/2+y,1/2-z
1/2-x,1/2-y,-z
1/2+x,1/2-y,1/2+z
loop_
_atom_site_type_symbol
_atom_site_label
_atom_site_fract_x
_atom_site_fract_y
_atom_site_fract_z
Si Si1 0.170254 0.605770 0.601081
Si Si2 0.235725 0.644852 0.121892
Si Si3 0.559633 0.437246 0.389551
Si Si4 0.000000 0.236269 0.750000
Si Si5 0.408101 0.911211 0.959736
Si Si6 0.633220 0.182347 0.393324
Si Si7 0.652815 0.684969 0.333568
O O1 0.229545 0.516628 0.574989
O O2 0.118078 0.484802 0.635867
O O3 0.175915 0.688755 0.470118
O O4 0.157095 0.717110 0.714988
O O5 0.174371 0.694200 0.239804
O O6 0.284269 0.627768 0.180433
O O7 0.250000 0.750000 0.000000
O O8 0.500000 0.500000 0.500000
O O9 0.546927 0.367821 0.271812
O O10 0.586518 0.311620 0.446490
O O11 0.608494 0.560024 0.335261
O O12 0.028378 0.343347 0.626242
O O13 0.368999 0.775792 0.034215
O O14 0.405215 0.032578 0.067284
#
# Coordination Sequence:
#
# PCOD8149510 Si02
#       7
#     8   8   8   4   8   8   8
#     4  10  23  48  72 107 145 191 252 305 375 455
#     4  12  24  46  78 109 148 196 246 314 380 453
#     4  12  29  47  71 109 154 195 255 311 392 443
#     4  12  26  46  78 104 146 210 248 324 380 444
#     4  10  23  47  74 103 144 194 259 307 370 452
#     4  10  26  48  74 111 145 196 257 309 379 456
#     4  12  26  45  74 110 157 198 246 318 381 455
#
# _framework density 21.918782
#
# number of rings (size 3 to 8) (size 9 to 14) (size 15 to 20)
#    0.923    0.000    4.615    0.923    4.308    2.462 
#    0.000    0.000    0.000    0.000    0.000    0.000 
#    0.000    0.000    0.000    0.000    0.000    0.000 
#
# Total GULP energy -322164.131775 kJ/mol
# GULP energy per Si atom -12390.928145 kJ/mol
# Density = 2.186889 g / cm^3
# Si number density = 21.918782 Si / 1000 Ang^3
#
#
#
# Elastic Constant Matrix: (Units=GPa)
#
#
# Indices 1 2 3 4 5 6 
#
# 1 119.8538 85.2424 56.2587 0.0000 10.2466 0.0000
# 2 85.2424 157.2525 60.2328 0.0000 -2.9797 0.0000
# 3 56.2587 60.2328 120.0879 0.0000 -0.7825 0.0000
# 4 0.0000 0.0000 0.0000 42.1929 0.0000 -0.2389
# 5 10.2466 -2.9797 -0.7825 0.0000 36.5423 0.0000
# 6 0.0000 0.0000 0.0000 -0.2389 0.0000 52.0769
#
#
#
# Elastic Compliance Matrix: (Units=1/GPa)
#
#
# Indices 1 2 3 4 5 6 
#
# 1 0.015600 -0.007105 -0.003778 0.000000 -0.005035 0.000000
# 2 -0.007105 0.011119 -0.002230 0.000000 0.002851 0.000000
# 3 -0.003778 -0.002230 0.011223 0.000000 0.001118 0.000000
# 4 0.000000 0.000000 0.000000 0.023701 0.000000 0.000109
# 5 -0.005035 0.002851 0.001118 0.000000 0.029034 0.000000
# 6 0.000000 0.000000 0.000000 0.000109 0.000000 0.019203
#
#
# Mechanical properties :
#
#
# Convention : Reuss Voigt Hill
#
# Bulk Modulus (GPa) = 85.34554 88.96243 87.15399
# Shear Modulus (GPa) = 35.71184 39.19311 37.45248
#
# Velocity S-wave (km/s) = 4.04081 4.23319 4.13812
# Velocity P-wave (km/s) = 7.79696 8.03546 7.91711
#
# Compressibility (1/GPa) = 0.01171707
#
# Stress axis : x y z
#
# Youngs Moduli (GPa) = 64.10140 89.93866 89.10598
#
# Poissons Ratio (x) = 0.63901 0.33660
# Poissons Ratio (y) = 0.45544 0.19868
# Poissons Ratio (z) = 0.24215 0.20054
#
# Static dielectric constant tensor:
#      x y z
#    x 4.011090 0.000000 -0.069970 
#    y 0.000000 4.156700 0.000000 
#    z -0.069970 0.000000 4.088130 
# 
# 
# High freq. dielectric constant tensor:
#      x y z
#    x 1.860640 0.000000 0.010770 
#    y 0.000000 1.871940 0.000000 
#    z 0.010770 0.000000 1.855840 
# 
# From -- ./inp_files/121799.got.cif
#   From: 2010.06.25/outbox.cif.g09.slc.cpg/sg15_61_cif.got.tgz:121799.got - 2010.06.28 07:06:18.
