data_PCOD8149706
_publ_section_title
;
Structure prediction by ZEFSAII (Michael W. Deem and Ramdas Pophale) SiO2 
 PCOD8149706
Probable space group: C 2/C
;
_chemical_formula_sum "Si O2"
_cell_formula_units_Z 56
_cell_length_a 18.208142
_cell_length_b 15.253918
_cell_length_c 8.994271
_cell_angle_alpha 90.000000
_cell_angle_beta 100.836892
_cell_angle_gamma 90.000000
_cell_volume 2453.567885
_symmetry_space_group_name_H-M "C 2/C"
_symmetry_group_IT_number 15
_symmetry_cell_setting 'monoclinic'
loop_
_space_group_symop_operation_xyz
x,y,z
-x,y,1/2-z
-x,-y,-z
x,-y,1/2+z
1/2+x,1/2+y,z
1/2-x,1/2+y,1/2-z
1/2-x,1/2-y,-z
1/2+x,1/2-y,1/2+z
loop_
_atom_site_type_symbol
_atom_site_label
_atom_site_fract_x
_atom_site_fract_y
_atom_site_fract_z
Si Si1 0.500000 0.829997 0.250000
Si Si2 0.106045 0.472428 0.409529
Si Si3 0.080512 0.896425 0.088151
Si Si4 0.127303 0.267089 0.767432
Si Si5 0.500000 0.110360 0.250000
Si Si6 0.300091 0.066774 0.277070
Si Si7 0.867643 0.938761 0.721579
Si Si8 0.064800 0.800948 0.541946
O O1 0.572665 0.887122 0.317207
O O2 0.480216 0.771682 0.384564
O O3 0.181308 0.504283 0.354558
O O4 0.131121 0.451054 0.584817
O O5 0.044080 0.550590 0.387341
O O6 0.134371 0.818894 0.168400
O O7 0.086730 0.979038 0.198695
O O8 0.105463 0.921740 0.933640
O O9 0.994262 0.866400 0.059079
O O10 0.056544 0.325311 0.685170
O O11 0.199396 0.330044 0.771588
O O12 0.117355 0.242238 0.936898
O O13 0.220445 0.040753 0.313053
O O14 0.881939 0.853906 0.826932
#
# Coordination Sequence:
#
# PCOD8149706 Si02
#       8
#     4   8   8   8   4   8   8   8
#     4  11  24  42  73 108 134 168 233 280 342 393
#     4  10  24  40  71  98 140 178 221 273 341 405
#     4  12  24  46  70 101 131 181 231 290 333 394
#     4  11  24  42  73 100 140 172 225 285 344 394
#     4   9  20  40  67 100 132 168 217 286 332 385
#     4  11  26  47  64 104 140 188 219 270 342 418
#     4  12  27  46  69  96 144 181 229 272 342 408
#     4  12  24  45  71 107 131 175 229 293 330 395
#
# _framework density 22.823905
#
# number of rings (size 3 to 8) (size 9 to 14) (size 15 to 20)
#    0.000    0.857    2.857    3.000    6.000    5.143 
#    2.571    0.000    0.000    0.000    0.000    0.000 
#    0.000    0.000    0.000    0.000    0.000    0.000 
#
# Total GULP energy -347291.210612 kJ/mol
# GULP energy per Si atom -12403.257522 kJ/mol
# Density = 2.277196 g / cm^3
# Si number density = 22.823905 Si / 1000 Ang^3
#
#
#
# Elastic Constant Matrix: (Units=GPa)
#
#
# Indices 1 2 3 4 5 6 
#
# 1 44.9590 19.9082 7.0368 0.0000 4.4483 0.0000
# 2 19.9082 132.0662 63.2039 0.0000 -2.0877 0.0000
# 3 7.0368 63.2039 128.4253 0.0000 -8.9840 0.0000
# 4 0.0000 0.0000 0.0000 42.4764 0.0000 -8.9259
# 5 4.4483 -2.0877 -8.9840 0.0000 14.9405 0.0000
# 6 0.0000 0.0000 0.0000 -8.9259 0.0000 21.6229
#
#
#
# Elastic Compliance Matrix: (Units=1/GPa)
#
#
# Indices 1 2 3 4 5 6 
#
# 1 0.024730 -0.003845 -0.000016 0.000000 -0.007910 0.000000
# 2 -0.003845 0.010540 -0.005004 0.000000 -0.000391 0.000000
# 3 -0.000016 -0.005004 0.010650 0.000000 0.005709 0.000000
# 4 0.000000 0.000000 0.000000 0.025779 0.000000 0.010641
# 5 -0.007910 -0.000391 0.005709 0.000000 0.072666 0.000000
# 6 0.000000 0.000000 0.000000 0.010641 0.000000 0.050640
#
#
# Mechanical properties :
#
#
# Convention : Reuss Voigt Hill
#
# Bulk Modulus (GPa) = 35.47405 53.97202 44.72304
# Shear Modulus (GPa) = 22.50919 30.16140 26.33530
#
# Velocity S-wave (km/s) = 3.14381 3.63916 3.40052
# Velocity P-wave (km/s) = 5.36230 6.43090 5.92076
#
# Compressibility (1/GPa) = 0.02818962
#
# Stress axis : x y z
#
# Youngs Moduli (GPa) = 40.43614 94.87437 93.90034
#
# Poissons Ratio (x) = 0.36483 0.00149
# Poissons Ratio (y) = 0.15549 0.46988
# Poissons Ratio (z) = 0.00064 0.47475
#
# Static dielectric constant tensor:
#      x y z
#    x 3.833050 0.000000 0.010480 
#    y 0.000000 4.531400 0.000000 
#    z 0.010480 0.000000 4.041200 
# 
# 
# High freq. dielectric constant tensor:
#      x y z
#    x 1.878800 0.000000 -0.005000 
#    y 0.000000 1.920320 0.000000 
#    z -0.005000 0.000000 1.909180 
# 
# From -- ./inp_files/55666.got.cif
#   From: 2010.06.25/outbox.cif.g09.slc.cpg/sg15_28_cif.got.tgz:55666.got - 2010.06.28 07:06:18.
