data_PCOD8149539
_publ_section_title
;
Structure prediction by ZEFSAII (Michael W. Deem and Ramdas Pophale) SiO2 
 PCOD8149539
Probable space group: C 2/C
;
_chemical_formula_sum "Si O2"
_cell_formula_units_Z 32
_cell_length_a 7.452130
_cell_length_b 13.267872
_cell_length_c 12.231046
_cell_angle_alpha 90.000000
_cell_angle_beta 89.583067
_cell_angle_gamma 90.000000
_cell_volume 1209.299286
_symmetry_space_group_name_H-M "C 2/C"
_symmetry_group_IT_number 15
_symmetry_cell_setting 'monoclinic'
loop_
_space_group_symop_operation_xyz
x,y,z
-x,y,1/2-z
-x,-y,-z
x,-y,1/2+z
1/2+x,1/2+y,z
1/2-x,1/2+y,1/2-z
1/2-x,1/2-y,-z
1/2+x,1/2-y,1/2+z
loop_
_atom_site_type_symbol
_atom_site_label
_atom_site_fract_x
_atom_site_fract_y
_atom_site_fract_z
Si Si1 0.617121 0.826511 0.367403
Si Si2 0.222499 0.773330 0.375351
Si Si3 0.810240 0.026837 0.720496
Si Si4 0.110477 0.343498 0.627114
O O1 0.418527 0.795410 0.320397
O O2 0.755828 0.741096 0.324657
O O3 0.605807 0.831111 0.497118
O O4 0.693347 0.933865 0.324453
O O5 0.250000 0.750000 0.500000
O O6 0.095871 0.680512 0.328916
O O7 0.122868 0.880722 0.358592
O O8 0.678285 0.954265 0.654314
O O9 0.000000 0.972295 0.750000
#
# Coordination Sequence:
#
# PCOD8149539 Si02
#       4
#     8   8   8   8
#     4  10  23  50  75 105 157 201 261 323 384 462
#     4  10  23  49  74 103 149 199 262 323 380 456
#     4  12  25  47  75 119 157 206 263 316 398 470
#     4  10  24  50  76 108 153 206 258 327 383 458
#
# _framework density 26.461607000000001
#
# number of rings (size 3 to 8) (size 9 to 14) (size 15 to 20)
#    0.000    1.500    2.500    0.750    0.000    7.000 
#   22.500    0.000    0.000    0.000    0.000    0.000 
#    0.000    0.000    0.000    0.000    0.000    0.000 
#
# Total GULP energy -198374.864747 kJ/mol
# GULP energy per Si atom -12398.429047 kJ/mol
# Density = 2.640138 g / cm^3
# Si number density = 26.461607 Si / 1000 Ang^3
#
#
#
# Elastic Constant Matrix: (Units=GPa)
#
#
# Indices 1 2 3 4 5 6 
#
# 1 228.3779 56.6215 76.5410 0.0000 5.2223 0.0000
# 2 56.6215 126.8598 30.4921 0.0000 12.0417 0.0000
# 3 76.5410 30.4921 67.5380 0.0000 2.3495 0.0000
# 4 0.0000 0.0000 0.0000 43.1673 0.0000 13.2452
# 5 5.2223 12.0417 2.3495 0.0000 51.9039 0.0000
# 6 0.0000 0.0000 0.0000 13.2452 0.0000 56.2731
#
#
#
# Elastic Compliance Matrix: (Units=1/GPa)
#
#
# Indices 1 2 3 4 5 6 
#
# 1 0.007282 -0.001415 -0.007612 0.000000 -0.000060 0.000000
# 2 -0.001415 0.009303 -0.002530 0.000000 -0.001901 0.000000
# 3 -0.007612 -0.002530 0.024567 0.000000 0.000241 0.000000
# 4 0.000000 0.000000 0.000000 0.024969 0.000000 -0.005877
# 5 -0.000060 -0.001901 0.000241 0.000000 0.019703 0.000000
# 6 0.000000 0.000000 0.000000 -0.005877 0.000000 0.019154
#
#
# Mechanical properties :
#
#
# Convention : Reuss Voigt Hill
#
# Bulk Modulus (GPa) = 55.43958 83.34278 69.39118
# Shear Modulus (GPa) = 37.28445 47.54359 42.41402
#
# Velocity S-wave (km/s) = 3.75774 4.24335 4.00791
# Velocity P-wave (km/s) = 6.31062 7.45467 6.90637
#
# Compressibility (1/GPa) = 0.01803766
#
# Stress axis : x y z
#
# Youngs Moduli (GPa) = 137.32533 107.49292 40.70496
#
# Poissons Ratio (x) = 0.15209 0.30984
# Poissons Ratio (y) = 0.19430 0.10300
# Poissons Ratio (z) = 1.04529 0.27200
#
# Static dielectric constant tensor:
#      x y z
#    x 5.781040 0.000000 0.130620 
#    y 0.000000 4.572480 0.000000 
#    z 0.130620 0.000000 5.134910 
# 
# 
# High freq. dielectric constant tensor:
#      x y z
#    x 2.096880 0.000000 0.010760 
#    y 0.000000 2.036490 0.000000 
#    z 0.010760 0.000000 2.122450 
# 
# From -- ./inp_files/132006.got.cif
#   From: 2010.06.25/outbox.cif.g09.slc.cpg/sg15_67_cif.got.tgz:132006.got - 2010.06.28 07:06:18.
