data_PCOD8149967
_publ_section_title
;
Structure prediction by ZEFSAII (Michael W. Deem and Ramdas Pophale) SiO2 
 PCOD8149967
Probable space group: C 2/C
;
_chemical_formula_sum "Si O2"
_cell_formula_units_Z 64
_cell_length_a 17.053176
_cell_length_b 32.336091
_cell_length_c 11.518552
_cell_angle_alpha 90.000000
_cell_angle_beta 29.430656
_cell_angle_gamma 90.000000
_cell_volume 3121.038763
_symmetry_space_group_name_H-M "C 2/C"
_symmetry_group_IT_number 15
_symmetry_cell_setting 'monoclinic'
loop_
_space_group_symop_operation_xyz
x,y,z
-x,y,1/2-z
-x,-y,-z
x,-y,1/2+z
1/2+x,1/2+y,z
1/2-x,1/2+y,1/2-z
1/2-x,1/2-y,-z
1/2+x,1/2-y,1/2+z
loop_
_atom_site_type_symbol
_atom_site_label
_atom_site_fract_x
_atom_site_fract_y
_atom_site_fract_z
Si Si1 0.809111 0.409129 0.797533
Si Si2 0.339248 0.554066 0.779129
Si Si3 0.172344 0.589948 0.567991
Si Si4 0.190186 0.844703 0.768515
Si Si5 0.194800 0.967501 0.767121
Si Si6 0.833194 0.389760 0.169272
Si Si7 0.094650 0.823887 0.509845
Si Si8 0.161059 0.735482 0.498403
O O1 0.712721 0.370776 0.859699
O O2 0.826133 0.446531 0.682841
O O3 0.983446 0.392146 0.611979
O O4 0.717167 0.429857 0.023127
O O5 0.252385 0.513867 0.834915
O O6 0.523314 0.539962 0.548937
O O7 0.296175 0.591287 0.750368
O O8 0.208003 0.634900 0.467170
O O9 0.307293 0.558189 0.349642
O O10 0.180557 0.586133 0.693796
O O11 0.000000 0.574654 0.750000
O O12 0.248506 0.797148 0.700492
O O13 0.004599 0.841519 0.972284
O O14 0.772684 0.343135 0.271861
O O15 0.118370 0.774765 0.472970
O O16 0.000000 0.836442 0.750000
O O17 0.250000 0.750000 0.500000
O O18 0.000000 0.713711 0.750000
#
# Coordination Sequence:
#
# PCOD8149967 Si02
#       8
#     8   8   8   8   8   8   8   8
#     4  11  25  43  63  90 127 176 215 261 330 402
#     4  11  26  44  63  92 122 165 225 266 325 393
#     4  11  20  37  61  95 124 161 211 256 334 391
#     4  11  21  38  61  89 136 179 208 265 331 388
#     4  10  24  43  66  88 122 166 207 276 326 391
#     4  12  23  38  64  91 129 168 210 277 324 391
#     4  11  22  35  57  98 134 166 215 265 324 389
#     4  11  20  33  58  98 140 174 211 277 330 389
#
# _framework density 20.505993
#
# number of rings (size 3 to 8) (size 9 to 14) (size 15 to 20)
#    0.000    1.000    6.250    2.625    3.500    1.500 
#    0.000    0.000    0.000    0.750    0.000    3.500 
#    0.000    0.000    0.000    0.000    0.000    0.000 
#
# Total GULP energy -396443.665654 kJ/mol
# GULP energy per Si atom -12388.864552 kJ/mol
# Density = 2.045932 g / cm^3
# Si number density = 20.505993 Si / 1000 Ang^3
#
#
#
# Elastic Constant Matrix: (Units=GPa)
#
#
# Indices 1 2 3 4 5 6 
#
# 1 79.8461 36.2726 30.8973 0.0002 5.3937 0.0001
# 2 36.2726 118.5250 44.9532 -0.0001 4.2320 0.0000
# 3 30.8973 44.9532 99.1437 0.0004 1.9331 0.0000
# 4 0.0002 -0.0001 0.0004 35.6045 -0.0003 -5.6704
# 5 5.3937 4.2320 1.9331 -0.0003 33.7571 -0.0001
# 6 0.0001 0.0000 0.0000 -5.6704 -0.0001 25.3068
#
#
#
# Elastic Compliance Matrix: (Units=1/GPa)
#
#
# Indices 1 2 3 4 5 6 
#
# 1 0.015460 -0.003444 -0.003220 0.000000 -0.001854 0.000000
# 2 -0.003444 0.010991 -0.003899 0.000000 -0.000604 0.000000
# 3 -0.003220 -0.003899 0.012852 0.000000 0.000267 0.000000
# 4 0.000000 0.000000 0.000000 0.029126 0.000000 0.006526
# 5 -0.001854 -0.000604 0.000267 0.000000 0.029980 0.000000
# 6 0.000000 0.000000 0.000000 0.006526 0.000000 0.040977
#
#
# Mechanical properties :
#
#
# Convention : Reuss Voigt Hill
#
# Bulk Modulus (GPa) = 55.01085 57.97344 56.49215
# Shear Modulus (GPa) = 30.01721 31.29314 30.65518
#
# Velocity S-wave (km/s) = 3.83015 3.91071 3.87064
# Velocity P-wave (km/s) = 6.81506 6.98028 6.89816
#
# Compressibility (1/GPa) = 0.01817823
#
# Stress axis : x y z
#
# Youngs Moduli (GPa) = 64.68357 90.98276 77.80633
#
# Poissons Ratio (x) = 0.31331 0.25057
# Poissons Ratio (y) = 0.22275 0.30333
# Poissons Ratio (z) = 0.20831 0.35470
#
# Static dielectric constant tensor:
#      x y z
#    x 4.017700 0.000000 -0.173410 
#    y 0.000000 3.827640 0.000000 
#    z -0.173410 0.000000 3.703740 
# 
# 
# High freq. dielectric constant tensor:
#      x y z
#    x 1.796410 0.000000 -0.018870 
#    y 0.000000 1.802020 0.000000 
#    z -0.018870 0.000000 1.786550 
# 
# From -- ./inp_files/108644.got.cif
#   From: 2010.06.25/outbox.cif.g09.slc.cpg/sg15_55_cif.got.tgz:108644.got - 2010.06.28 07:06:18.
