data_PCOD8149366
_publ_section_title
;
Structure prediction by ZEFSAII (Michael W. Deem and Ramdas Pophale) SiO2 
 PCOD8149366
Probable space group: C 2/C
;
_chemical_formula_sum "Si O2"
_cell_formula_units_Z 56
_cell_length_a 9.660691
_cell_length_b 14.660133
_cell_length_c 18.232979
_cell_angle_alpha 90.000000
_cell_angle_beta 92.440349
_cell_angle_gamma 90.000000
_cell_volume 2579.940498
_symmetry_space_group_name_H-M "C 2/C"
_symmetry_group_IT_number 15
_symmetry_cell_setting 'monoclinic'
loop_
_space_group_symop_operation_xyz
x,y,z
-x,y,1/2-z
-x,-y,-z
x,-y,1/2+z
1/2+x,1/2+y,z
1/2-x,1/2+y,1/2-z
1/2-x,1/2-y,-z
1/2+x,1/2-y,1/2+z
loop_
_atom_site_type_symbol
_atom_site_label
_atom_site_fract_x
_atom_site_fract_y
_atom_site_fract_z
Si Si1 0.374788 0.036159 0.690907
Si Si2 0.975145 0.744570 0.435716
Si Si3 0.901471 0.575833 0.529545
Si Si4 0.293706 0.173046 0.163670
Si Si5 0.016590 0.157867 0.329821
Si Si6 0.262319 0.716127 0.802659
Si Si7 0.590895 0.582019 0.479316
O O1 0.500000 0.033245 0.750000
O O2 0.431427 0.077417 0.616385
O O3 0.253204 0.107064 0.713658
O O4 0.317646 0.934046 0.679499
O O5 0.929921 0.672379 0.494800
O O6 0.855992 0.760484 0.373931
O O7 0.987832 0.835360 0.482810
O O8 0.117808 0.711509 0.402068
O O9 0.741410 0.555435 0.511499
O O10 0.000000 0.500000 0.500000
O O11 0.132292 0.187444 0.141055
O O12 0.333104 0.232789 0.235721
O O13 0.000000 0.106305 0.250000
O O14 0.108017 0.247093 0.315148
O O15 0.094209 0.094594 0.391005
O O16 0.500000 0.500000 0.500000
#
# Coordination Sequence:
#
# PCOD8149366 Si02
#       7
#     8   8   8   8   8   8   8
#     4  12  24  44  73 105 139 179 241 287 346 428
#     4  12  24  46  71 100 146 186 233 295 352 424
#     4  12  25  46  76 103 136 188 238 287 356 420
#     4  11  25  45  69 110 142 182 236 294 351 417
#     4  10  23  45  71  95 141 185 233 282 352 414
#     4  11  23  47  72  98 141 192 230 285 357 421
#     4  12  26  47  68 104 145 184 232 294 357 421
#
# _framework density 21.705928
#
# number of rings (size 3 to 8) (size 9 to 14) (size 15 to 20)
#    0.000    0.571    4.286    4.714    0.000    0.571 
#   10.286    0.000    0.000    0.000    0.000    0.000 
#    0.000    0.000    0.000    0.000    0.000    0.000 
#
# Total GULP energy -347148.990630 kJ/mol
# GULP energy per Si atom -12398.178237 kJ/mol
# Density = 2.165652 g / cm^3
# Si number density = 21.705928 Si / 1000 Ang^3
#
#
#
# Elastic Constant Matrix: (Units=GPa)
#
#
# Indices 1 2 3 4 5 6 
#
# 1 128.5850 38.5404 38.5210 0.0000 -9.2252 0.0000
# 2 38.5404 147.8352 31.9403 0.0000 -15.8599 0.0000
# 3 38.5210 31.9403 116.4124 0.0000 6.1403 0.0000
# 4 0.0000 0.0000 0.0000 26.3475 0.0000 -5.3424
# 5 -9.2252 -15.8599 6.1403 0.0000 33.1880 0.0000
# 6 0.0000 0.0000 0.0000 -5.3424 0.0000 22.3918
#
#
#
# Elastic Compliance Matrix: (Units=1/GPa)
#
#
# Indices 1 2 3 4 5 6 
#
# 1 0.009237 -0.001564 -0.002750 0.000000 0.002329 0.000000
# 2 -0.001564 0.007975 -0.001867 0.000000 0.003722 0.000000
# 3 -0.002750 -0.001867 0.010199 0.000000 -0.003544 0.000000
# 4 0.000000 0.000000 0.000000 0.039884 0.000000 0.009516
# 5 0.002329 0.003722 -0.003544 0.000000 0.033213 0.000000
# 6 0.000000 0.000000 0.000000 0.009516 0.000000 0.046930
#
#
# Mechanical properties :
#
#
# Convention : Reuss Voigt Hill
#
# Bulk Modulus (GPa) = 66.45073 67.87068 67.16071
# Shear Modulus (GPa) = 30.33708 35.30751 32.82230
#
# Velocity S-wave (km/s) = 3.74256 4.03753 3.89284
# Velocity P-wave (km/s) = 7.02540 7.28503 7.15639
#
# Compressibility (1/GPa) = 0.01504874
#
# Stress axis : x y z
#
# Youngs Moduli (GPa) = 108.26389 125.39831 98.04604
#
# Poissons Ratio (x) = 0.19612 0.26964
# Poissons Ratio (y) = 0.16932 0.18303
# Poissons Ratio (z) = 0.29774 0.23409
#
# Static dielectric constant tensor:
#      x y z
#    x 3.813350 0.000000 0.064460 
#    y 0.000000 -17.924870 0.000000 
#    z 0.064460 0.000000 6.074760 
# 
# 
# High freq. dielectric constant tensor:
#      x y z
#    x 1.855030 0.000000 0.005660 
#    y 0.000000 1.854980 0.000000 
#    z 0.005660 0.000000 1.871330 
# 
# From -- ./inp_files/231576.got.cif
#   From: 2010.06.25/outbox.cif.g09.slc.cpg/sg15_116_cif.got.tgz:231576.got - 2010.06.28 07:06:18.
