data_PCOD8149653
_publ_section_title
;
Structure prediction by ZEFSAII (Michael W. Deem and Ramdas Pophale) SiO2 
 PCOD8149653
Probable space group: C 2/C
;
_chemical_formula_sum "Si O2"
_cell_formula_units_Z 40
_cell_length_a 10.553864
_cell_length_b 8.827525
_cell_length_c 21.564319
_cell_angle_alpha 90.000000
_cell_angle_beta 76.271202
_cell_angle_gamma 90.000000
_cell_volume 1951.630919
_symmetry_space_group_name_H-M "C 2/C"
_symmetry_group_IT_number 15
_symmetry_cell_setting 'monoclinic'
loop_
_space_group_symop_operation_xyz
x,y,z
-x,y,1/2-z
-x,-y,-z
x,-y,1/2+z
1/2+x,1/2+y,z
1/2-x,1/2+y,1/2-z
1/2-x,1/2-y,-z
1/2+x,1/2-y,1/2+z
loop_
_atom_site_type_symbol
_atom_site_label
_atom_site_fract_x
_atom_site_fract_y
_atom_site_fract_z
Si Si1 0.491762 0.752425 0.496078
Si Si2 0.926355 0.016525 0.919162
Si Si3 0.106504 0.044495 0.787122
Si Si4 0.353339 0.999174 0.589561
Si Si5 0.121338 0.599354 0.277148
O O1 0.574764 0.669562 0.539985
O O2 0.415425 0.628071 0.465016
O O3 0.386820 0.865190 0.538062
O O4 0.588051 0.842868 0.440050
O O5 0.055577 0.010525 0.862255
O O6 0.802067 0.018793 0.888454
O O7 0.131140 0.221011 0.775080
O O8 0.000000 0.984162 0.750000
O O9 0.243122 0.959789 0.765660
O O10 0.407478 0.963047 0.651081
O O11 0.000000 0.541983 0.250000
#
# Coordination Sequence:
#
# PCOD8149653 Si02
#       5
#     8   8   8   8   8
#     4  10  24  40  63  98 125 167 207 258 319 375
#     4  11  22  42  67  94 125 166 213 259 314 380
#     4  11  24  44  66  91 129 169 213 264 320 373
#     4  11  22  44  65  92 132 163 209 264 314 374
#     4  11  26  43  65  95 127 169 214 262 319 380
#
# _framework density 20.495678000000002
#
# number of rings (size 3 to 8) (size 9 to 14) (size 15 to 20)
#    0.000    1.200    4.000    1.200    2.800    2.400 
#   14.400    0.000    0.000    0.000    0.000    0.000 
#    0.000    0.000    0.000    0.000    0.000    0.000 
#
# Total GULP energy -248108.913283 kJ/mol
# GULP energy per Si atom -12405.445664 kJ/mol
# Density = 2.044903 g / cm^3
# Si number density = 20.495678 Si / 1000 Ang^3
#
#
#
# Elastic Constant Matrix: (Units=GPa)
#
#
# Indices 1 2 3 4 5 6 
#
# 1 142.0527 32.1281 47.5204 0.0000 -0.5062 0.0000
# 2 32.1281 76.7116 18.7511 0.0000 -3.8270 0.0000
# 3 47.5204 18.7511 100.2085 0.0000 -5.3359 0.0000
# 4 0.0000 0.0000 0.0000 29.5888 0.0000 -5.0768
# 5 -0.5062 -3.8270 -5.3359 0.0000 40.0701 0.0000
# 6 0.0000 0.0000 0.0000 -5.0768 0.0000 22.4766
#
#
#
# Elastic Compliance Matrix: (Units=1/GPa)
#
#
# Indices 1 2 3 4 5 6 
#
# 1 0.008934 -0.002861 -0.003736 0.000000 -0.000658 0.000000
# 2 -0.002861 0.014615 -0.001315 0.000000 0.001185 0.000000
# 3 -0.003736 -0.001315 0.012073 0.000000 0.001435 0.000000
# 4 0.000000 0.000000 0.000000 0.035159 0.000000 0.007941
# 5 -0.000658 0.001185 0.001435 0.000000 0.025252 0.000000
# 6 0.000000 0.000000 0.000000 0.007941 0.000000 0.046284
#
#
# Mechanical properties :
#
#
# Convention : Reuss Voigt Hill
#
# Bulk Modulus (GPa) = 50.51144 57.30800 53.90972
# Shear Modulus (GPa) = 30.35041 33.13199 31.74120
#
# Velocity S-wave (km/s) = 3.85232 4.02498 3.93959
# Velocity P-wave (km/s) = 6.66975 7.04431 6.85959
#
# Compressibility (1/GPa) = 0.01979749
#
# Stress axis : x y z
#
# Youngs Moduli (GPa) = 111.92707 68.42424 82.82611
#
# Poissons Ratio (x) = 0.19579 0.30947
# Poissons Ratio (y) = 0.32027 0.10889
# Poissons Ratio (z) = 0.41821 0.08996
#
# Static dielectric constant tensor:
#      x y z
#    x 3.613590 0.000000 0.060570 
#    y 0.000000 3.752100 0.000000 
#    z 0.060570 0.000000 3.792820 
# 
# 
# High freq. dielectric constant tensor:
#      x y z
#    x 1.798370 0.000000 -0.001610 
#    y 0.000000 1.808020 0.000000 
#    z -0.001610 0.000000 1.816160 
# 
# From -- ./inp_files/195103.got.cif
#   From: 2010.06.25/outbox.cif.g09.slc.cpg/sg15_98_cif.got.tgz:195103.got - 2010.06.28 07:06:18.
