data_PCOD8149572
_publ_section_title
;
Structure prediction by ZEFSAII (Michael W. Deem and Ramdas Pophale) SiO2 
 PCOD8149572
Probable space group: C 2/C
;
_chemical_formula_sum "Si O2"
_cell_formula_units_Z 40
_cell_length_a 8.473209
_cell_length_b 17.044040
_cell_length_c 13.220528
_cell_angle_alpha 90.000000
_cell_angle_beta 66.435955
_cell_angle_gamma 90.000000
_cell_volume 1750.070912
_symmetry_space_group_name_H-M "C 2/C"
_symmetry_group_IT_number 15
_symmetry_cell_setting 'monoclinic'
loop_
_space_group_symop_operation_xyz
x,y,z
-x,y,1/2-z
-x,-y,-z
x,-y,1/2+z
1/2+x,1/2+y,z
1/2-x,1/2+y,1/2-z
1/2-x,1/2-y,-z
1/2+x,1/2-y,1/2+z
loop_
_atom_site_type_symbol
_atom_site_label
_atom_site_fract_x
_atom_site_fract_y
_atom_site_fract_z
Si Si1 0.868091 0.559644 0.857786
Si Si2 0.149368 0.842381 0.133725
Si Si3 0.265748 0.349811 0.924427
Si Si4 0.708544 0.999579 0.322150
Si Si5 0.531842 0.263074 0.967328
O O1 0.757670 0.613522 0.957533
O O2 0.744963 0.512077 0.809928
O O3 0.000000 0.609706 0.750000
O O4 0.998151 0.502849 0.889177
O O5 0.311434 0.787096 0.117321
O O6 0.000000 0.819277 0.250000
O O7 0.200952 0.933463 0.132273
O O8 0.093169 0.827928 0.032484
O O9 0.106036 0.293228 0.940714
O O10 0.281063 0.416121 0.835568
O O11 0.444670 0.303137 0.890902
#
# Coordination Sequence:
#
# PCOD8149572 Si02
#       5
#     8   8   8   8   8
#     4   8  18  32  62  93 119 170 201 246 319 372
#     4  11  22  43  59  87 127 174 210 261 306 387
#     4  11  19  41  63  94 128 158 209 273 303 383
#     4   9  20  36  66  88 121 165 216 243 312 372
#     4  10  24  37  65  95 126 168 205 254 339 363
#
# _framework density 22.856217999999998
#
# number of rings (size 3 to 8) (size 9 to 14) (size 15 to 20)
#    1.200    0.800    2.000    1.800    0.000    0.800 
#    3.600    2.000    0.000    0.000    0.000    0.000 
#    0.000    0.000    0.000    0.000    0.000    0.000 
#
# Total GULP energy -247778.790614 kJ/mol
# GULP energy per Si atom -12388.939531 kJ/mol
# Density = 2.280420 g / cm^3
# Si number density = 22.856218 Si / 1000 Ang^3
#
#
#
# Elastic Constant Matrix: (Units=GPa)
#
#
# Indices 1 2 3 4 5 6 
#
# 1 140.6901 65.8630 21.1948 0.0000 6.1633 0.0000
# 2 65.8630 111.5156 12.0766 0.0000 21.1840 0.0000
# 3 21.1948 12.0766 34.0593 0.0000 12.8792 0.0000
# 4 0.0000 0.0000 0.0000 16.9189 0.0000 7.6990
# 5 6.1633 21.1840 12.8792 0.0000 31.5715 0.0000
# 6 0.0000 0.0000 0.0000 7.6990 0.0000 27.6260
#
#
#
# Elastic Compliance Matrix: (Units=1/GPa)
#
#
# Indices 1 2 3 4 5 6 
#
# 1 0.011009 -0.006761 -0.006333 0.000000 0.004971 0.000000
# 2 -0.006761 0.014472 0.002659 0.000000 -0.009476 0.000000
# 3 -0.006333 0.002659 0.038506 0.000000 -0.016256 0.000000
# 4 0.000000 0.000000 0.000000 0.067690 0.000000 -0.018864
# 5 0.004971 -0.009476 -0.016256 0.000000 0.043693 0.000000
# 6 0.000000 0.000000 0.000000 -0.018864 0.000000 0.041455
#
#
# Mechanical properties :
#
#
# Convention : Reuss Voigt Hill
#
# Bulk Modulus (GPa) = 23.19285 53.83709 38.51497
# Shear Modulus (GPa) = 19.83592 27.69866 23.76729
#
# Velocity S-wave (km/s) = 2.94914 3.48496 3.22819
# Velocity P-wave (km/s) = 4.66539 6.30865 5.54820
#
# Compressibility (1/GPa) = 0.04311674
#
# Stress axis : x y z
#
# Youngs Moduli (GPa) = 90.83418 69.09727 25.97001
#
# Poissons Ratio (x) = 0.46713 0.16448
# Poissons Ratio (y) = 0.61409 -0.06904
# Poissons Ratio (z) = 0.57529 -0.18370
#
# Static dielectric constant tensor:
#      x y z
#    x 4.349490 0.000000 0.161460 
#    y 0.000000 3.831890 0.000000 
#    z 0.161460 0.000000 3.740740 
# 
# 
# High freq. dielectric constant tensor:
#      x y z
#    x 1.918180 0.000000 0.013330 
#    y 0.000000 1.880060 0.000000 
#    z 0.013330 0.000000 1.874740 
# 
# From -- ./inp_files/133101.got.cif
#   From: 2010.06.25/outbox.cif.g09.slc.cpg/sg15_67_cif.got.tgz:133101.got - 2010.06.28 07:06:18.
