data_PCOD8149037
_publ_section_title
;
Structure prediction by ZEFSAII (Michael W. Deem and Ramdas Pophale) SiO2 
 PCOD8149037
Probable space group: C 2/C
;
_chemical_formula_sum "Si O2"
_cell_formula_units_Z 64
_cell_length_a 28.485297
_cell_length_b 9.286266
_cell_length_c 14.091021
_cell_angle_alpha 90.000000
_cell_angle_beta 49.394958
_cell_angle_gamma 90.000000
_cell_volume 2829.883537
_symmetry_space_group_name_H-M "C 2/C"
_symmetry_group_IT_number 15
_symmetry_cell_setting 'monoclinic'
loop_
_space_group_symop_operation_xyz
x,y,z
-x,y,1/2-z
-x,-y,-z
x,-y,1/2+z
1/2+x,1/2+y,z
1/2-x,1/2+y,1/2-z
1/2-x,1/2-y,-z
1/2+x,1/2-y,1/2+z
loop_
_atom_site_type_symbol
_atom_site_label
_atom_site_fract_x
_atom_site_fract_y
_atom_site_fract_z
Si Si1 0.220231 0.095410 0.047754
Si Si2 0.006098 0.667053 0.509268
Si Si3 0.704116 0.935380 0.408923
Si Si4 0.167564 0.919759 0.341705
Si Si5 0.610430 0.177823 0.524854
Si Si6 0.920143 0.127991 0.716587
Si Si7 0.590715 0.317585 0.754377
Si Si8 0.156331 0.127434 0.503190
O O1 0.159472 0.127593 0.192505
O O2 0.272048 0.993090 0.022403
O O3 0.198384 0.007066 0.984354
O O4 0.250000 0.250000 0.000000
O O5 0.048946 0.694234 0.543738
O O6 0.029868 0.755366 0.385700
O O7 0.000000 0.500000 0.500000
O O8 0.937339 0.719855 0.625861
O O9 0.759811 0.962040 0.261396
O O10 0.695794 0.765523 0.425201
O O11 0.639147 0.017286 0.474659
O O12 0.163606 0.782321 0.416472
O O13 0.137319 0.876391 0.281110
O O14 0.130625 0.055431 0.439213
O O15 0.592208 0.225668 0.655201
O O16 0.895278 0.176466 0.852834
O O17 0.949302 0.967730 0.695089
#
# Coordination Sequence:
#
# PCOD8149037 Si02
#       8
#     8   8   8   8   8   8   8   8
#     4  11  21  40  68  98 136 185 223 271 353 424
#     4  11  27  46  71 102 134 177 243 298 357 410
#     4  12  23  39  66 105 144 175 228 285 353 422
#     4  11  21  42  65 100 140 178 229 270 351 432
#     4  11  24  45  68  98 139 188 225 287 356 424
#     4  10  23  43  73  99 132 181 235 287 349 422
#     4  11  21  46  71  91 137 182 234 281 347 423
#     4  11  23  40  66 100 146 179 225 287 345 420
#
# _framework density 22.615772
#
# number of rings (size 3 to 8) (size 9 to 14) (size 15 to 20)
#    0.000    1.000    6.250    1.875    1.750    1.000 
#    6.750    0.000    0.000    0.000    0.000    0.000 
#    0.000    0.000    0.000    0.000    0.000    0.000 
#
# Total GULP energy -396459.057388 kJ/mol
# GULP energy per Si atom -12389.345543 kJ/mol
# Density = 2.256430 g / cm^3
# Si number density = 22.615772 Si / 1000 Ang^3
#
#
#
# Elastic Constant Matrix: (Units=GPa)
#
#
# Indices 1 2 3 4 5 6 
#
# 1 18.9275 10.5016 2.9556 0.0000 -6.1554 0.0000
# 2 10.5016 159.3165 56.3001 0.0000 -8.8540 0.0000
# 3 2.9556 56.3001 137.6963 0.0000 3.4536 0.0000
# 4 0.0000 0.0000 0.0000 41.8305 0.0000 -8.5767
# 5 -6.1554 -8.8540 3.4536 0.0000 19.7432 0.0000
# 6 0.0000 0.0000 0.0000 -8.5767 0.0000 28.8276
#
#
#
# Elastic Compliance Matrix: (Units=1/GPa)
#
#
# Indices 1 2 3 4 5 6 
#
# 1 0.060200 -0.002777 -0.000599 0.000000 0.017628 0.000000
# 2 -0.002777 0.007765 -0.003195 0.000000 0.003176 0.000000
# 3 -0.000599 -0.003195 0.008660 0.000000 -0.003135 0.000000
# 4 0.000000 0.000000 0.000000 0.025459 0.000000 0.007574
# 5 0.017628 0.003176 -0.003135 0.000000 0.058119 0.000000
# 6 0.000000 0.000000 0.000000 0.007574 0.000000 0.036942
#
#
# Mechanical properties :
#
#
# Convention : Reuss Voigt Hill
#
# Bulk Modulus (GPa) = 15.75200 50.60610 33.17905
# Shear Modulus (GPa) = 21.60301 34.49247 28.04774
#
# Velocity S-wave (km/s) = 3.09401 3.90955 3.52545
# Velocity P-wave (km/s) = 4.44343 6.54252 5.59234
#
# Compressibility (1/GPa) = 0.06348399
#
# Stress axis : x y z
#
# Youngs Moduli (GPa) = 16.61125 128.77561 115.47051
#
# Poissons Ratio (x) = 0.35759 0.06916
# Poissons Ratio (y) = 0.04613 0.36894
# Poissons Ratio (z) = 0.00995 0.41145
#
# Static dielectric constant tensor:
#      x y z
#    x 3.894370 0.000000 0.075350 
#    y 0.000000 4.239910 0.000000 
#    z 0.075350 0.000000 4.278800 
# 
# 
# High freq. dielectric constant tensor:
#      x y z
#    x 1.862740 0.000000 0.007970 
#    y 0.000000 1.907600 0.000000 
#    z 0.007970 0.000000 1.898470 
# 
# From -- ./inp_files/181124.got.cif
#   From: 2010.06.25/outbox.cif.g09.slc.cpg/sg15_91_cif.got.tgz:181124.got - 2010.06.28 07:06:18.
