data_PCOD8149841
_publ_section_title
;
Structure prediction by ZEFSAII (Michael W. Deem and Ramdas Pophale) SiO2 
 PCOD8149841
Probable space group: C 2/C
;
_chemical_formula_sum "Si O2"
_cell_formula_units_Z 56
_cell_length_a 8.250347
_cell_length_b 25.390104
_cell_length_c 15.524583
_cell_angle_alpha 90.000000
_cell_angle_beta 58.475636
_cell_angle_gamma 90.000000
_cell_volume 2772.101969
_symmetry_space_group_name_H-M "C 2/C"
_symmetry_group_IT_number 15
_symmetry_cell_setting 'monoclinic'
loop_
_space_group_symop_operation_xyz
x,y,z
-x,y,1/2-z
-x,-y,-z
x,-y,1/2+z
1/2+x,1/2+y,z
1/2-x,1/2+y,1/2-z
1/2-x,1/2-y,-z
1/2+x,1/2-y,1/2+z
loop_
_atom_site_type_symbol
_atom_site_label
_atom_site_fract_x
_atom_site_fract_y
_atom_site_fract_z
Si Si1 0.826698 0.085274 0.084349
Si Si2 0.161672 0.997624 0.775823
Si Si3 0.440759 0.997221 0.919448
Si Si4 0.857363 0.699026 0.861101
Si Si5 0.284421 0.586595 0.608765
Si Si6 0.502370 0.231957 0.999891
Si Si7 0.145714 0.305204 0.635582
O O1 0.890895 0.049824 0.146621
O O2 0.707352 0.050108 0.050856
O O3 0.708487 0.136243 0.145403
O O4 0.019946 0.104957 0.988297
O O5 0.372484 0.984516 0.686466
O O6 0.000000 0.999661 0.750000
O O7 0.166287 0.054444 0.819113
O O8 0.345840 0.051919 0.918079
O O9 0.500000 0.000000 0.000000
O O10 0.824386 0.639737 0.837502
O O11 0.000000 0.724420 0.750000
O O12 0.938246 0.697342 0.936018
O O13 0.663642 0.731737 0.915918
O O14 0.676624 0.266137 0.916027
O O15 0.557485 0.193611 0.063681
O O16 0.000000 0.285351 0.750000
#
# Coordination Sequence:
#
# PCOD8149841 Si02
#       7
#     8   8   8   8   8   8   8
#     4  11  22  40  61  90 127 163 206 261 311 379
#     4  11  22  41  60  94 124 167 208 255 316 380
#     4  11  22  37  62  88 124 163 204 255 312 375
#     4  11  22  43  65  94 126 168 212 264 322 375
#     4  11  22  40  61  90 127 163 206 261 311 379
#     4  10  24  42  66  92 128 164 218 266 320 376
#     4  11  22  43  65  94 126 168 212 264 322 375
#
# _framework density 20.201279
#
# number of rings (size 3 to 8) (size 9 to 14) (size 15 to 20)
#    0.000    1.143    1.429    7.714    2.000    0.000 
#    5.143    1.429    0.000    0.000    0.000    0.000 
#    0.000    0.000    0.000    0.000    0.000    0.000 
#
# Total GULP energy -347249.059271 kJ/mol
# GULP energy per Si atom -12401.752117 kJ/mol
# Density = 2.015530 g / cm^3
# Si number density = 20.201279 Si / 1000 Ang^3
#
#
#
# Elastic Constant Matrix: (Units=GPa)
#
#
# Indices 1 2 3 4 5 6 
#
# 1 126.9100 32.6451 44.1588 0.0000 11.2161 0.0000
# 2 32.6451 91.9236 23.5396 0.0000 10.5884 0.0000
# 3 44.1588 23.5396 115.8863 0.0000 -9.7357 0.0000
# 4 0.0000 0.0000 0.0000 6.9424 0.0000 -14.7693
# 5 11.2161 10.5884 -9.7357 0.0000 50.5605 0.0000
# 6 0.0000 0.0000 0.0000 -14.7693 0.0000 -0.8830
#
#
#
# Elastic Compliance Matrix: (Units=1/GPa)
#
#
# Indices 1 2 3 4 5 6 
#
# 1 0.009912 -0.002350 -0.003500 0.000000 -0.002381 0.000000
# 2 -0.002350 0.012466 -0.001842 0.000000 -0.002444 0.000000
# 3 -0.003500 -0.001842 0.010606 0.000000 0.003204 0.000000
# 4 0.000000 0.000000 0.000000 0.003937 0.000000 -0.065857
# 5 -0.002381 -0.002444 0.003204 0.000000 0.021435 0.000000
# 6 0.000000 0.000000 0.000000 -0.065857 0.000000 -0.030957
#
#
# Mechanical properties :
#
#
# Convention : Reuss Voigt Hill
#
# Bulk Modulus (GPa) = 56.81408 59.48967 58.15187
# Shear Modulus (GPa) = 102.77283 26.94909 64.86096
#
# Velocity S-wave (km/s) = 7.14037 3.65640 5.67248
# Velocity P-wave (km/s) = 9.80637 6.88027 8.47062
#
# Compressibility (1/GPa) = 0.01760127
#
# Stress axis : x y z
#
# Youngs Moduli (GPa) = 100.88605 80.21591 94.28484
#
# Poissons Ratio (x) = 0.18848 0.32998
# Poissons Ratio (y) = 0.23705 0.17369
# Poissons Ratio (z) = 0.35308 0.14778
#
# Static dielectric constant tensor:
#      x y z
#    x 3.853630 0.000000 -0.147190 
#    y 0.000000 3.475220 0.000000 
#    z -0.147190 0.000000 3.744700 
# 
# 
# High freq. dielectric constant tensor:
#      x y z
#    x 1.805060 0.000000 -0.012810 
#    y 0.000000 1.779730 0.000000 
#    z -0.012810 0.000000 1.802130 
# 
# From -- ./inp_files/137726.got.cif
#   From: 2010.06.25/outbox.cif.g09.slc.cpg/sg15_69_cif.got.tgz:137726.got - 2010.06.28 07:06:18.
