data_PCOD8149489
_publ_section_title
;
Structure prediction by ZEFSAII (Michael W. Deem and Ramdas Pophale) SiO2 
 PCOD8149489
Probable space group: C 2/C
;
_chemical_formula_sum "Si O2"
_cell_formula_units_Z 64
_cell_length_a 14.965226
_cell_length_b 14.422416
_cell_length_c 19.100042
_cell_angle_alpha 90.000000
_cell_angle_beta 44.672316
_cell_angle_gamma 90.000000
_cell_volume 2898.294822
_symmetry_space_group_name_H-M "C 2/C"
_symmetry_group_IT_number 15
_symmetry_cell_setting 'monoclinic'
loop_
_space_group_symop_operation_xyz
x,y,z
-x,y,1/2-z
-x,-y,-z
x,-y,1/2+z
1/2+x,1/2+y,z
1/2-x,1/2+y,1/2-z
1/2-x,1/2-y,-z
1/2+x,1/2-y,1/2+z
loop_
_atom_site_type_symbol
_atom_site_label
_atom_site_fract_x
_atom_site_fract_y
_atom_site_fract_z
Si Si1 0.439415 0.959138 0.431383
Si Si2 0.857258 0.211899 0.837960
Si Si3 0.974926 0.935048 0.448808
Si Si4 0.541127 0.783671 0.306612
Si Si5 0.338738 0.075230 0.139814
Si Si6 0.955220 0.078015 0.196301
Si Si7 0.320119 0.719911 0.697541
Si Si8 0.279877 0.883372 0.961486
O O1 0.452694 0.855618 0.395788
O O2 0.369759 0.947949 0.543132
O O3 0.576936 0.007976 0.359083
O O4 0.354215 0.019982 0.426109
O O5 0.797513 0.222537 0.793998
O O6 0.871271 0.307158 0.874683
O O7 0.000000 0.170874 0.750000
O O8 0.767151 0.144860 0.934115
O O9 0.836187 0.889076 0.529187
O O10 0.078463 0.855553 0.383102
O O11 0.000000 0.000000 0.500000
O O12 0.964404 0.000968 0.387426
O O13 0.500000 0.787244 0.250000
O O14 0.517644 0.680338 0.350358
O O15 0.689347 0.807786 0.232640
O O16 0.191829 0.051910 0.233298
O O17 0.370553 0.181093 0.142009
O O18 0.000000 0.075325 0.250000
#
# Coordination Sequence:
#
# PCOD8149489 Si02
#       8
#     8   8   8   8   8   8   8   8
#     4  11  24  41  69  98 139 169 223 281 333 409
#     4  11  24  47  72 101 143 177 222 286 352 418
#     4  12  28  42  69 102 136 177 231 289 340 409
#     4  10  25  45  67  95 131 184 226 273 335 401
#     4  10  24  41  68 102 128 180 222 272 342 406
#     4  10  23  47  68  93 133 181 231 276 340 407
#     4  11  25  44  72  95 138 183 222 285 349 406
#     4  11  27  43  69 107 134 180 230 280 349 413
#
# _framework density 22.081951
#
# number of rings (size 3 to 8) (size 9 to 14) (size 15 to 20)
#    0.000    1.250    1.250    2.250   15.750    1.500 
#    0.000    2.500    0.000    0.000    0.000    0.000 
#    0.000    0.000    0.000    0.000    0.000    0.000 
#
# Total GULP energy -396865.626288 kJ/mol
# GULP energy per Si atom -12402.050822 kJ/mol
# Density = 2.203169 g / cm^3
# Si number density = 22.081951 Si / 1000 Ang^3
#
#
#
# Elastic Constant Matrix: (Units=GPa)
#
#
# Indices 1 2 3 4 5 6 
#
# 1 108.3499 10.9565 15.7794 0.0000 4.4411 0.0000
# 2 10.9565 81.3229 18.9242 0.0000 -0.7268 0.0000
# 3 15.7794 18.9242 53.5041 0.0000 -0.1640 0.0000
# 4 0.0000 0.0000 0.0000 38.9516 0.0000 1.3624
# 5 4.4411 -0.7268 -0.1640 0.0000 23.4445 0.0000
# 6 0.0000 0.0000 0.0000 1.3624 0.0000 14.0118
#
#
#
# Elastic Compliance Matrix: (Units=1/GPa)
#
#
# Indices 1 2 3 4 5 6 
#
# 1 0.009763 -0.000720 -0.002630 0.000000 -0.001890 0.000000
# 2 -0.000720 0.013456 -0.004545 0.000000 0.000522 0.000000
# 3 -0.002630 -0.004545 0.021075 0.000000 0.000505 0.000000
# 4 0.000000 0.000000 0.000000 0.025760 0.000000 -0.002505
# 5 -0.001890 0.000522 0.000505 0.000000 0.043032 0.000000
# 6 0.000000 0.000000 0.000000 -0.002505 0.000000 0.071612
#
#
# Mechanical properties :
#
#
# Convention : Reuss Voigt Hill
#
# Bulk Modulus (GPa) = 35.08493 37.16636 36.12565
# Shear Modulus (GPa) = 23.81060 28.44937 26.12999
#
# Velocity S-wave (km/s) = 3.28729 3.59326 3.44367
# Velocity P-wave (km/s) = 5.50739 5.83806 5.67514
#
# Compressibility (1/GPa) = 0.02850227
#
# Stress axis : x y z
#
# Youngs Moduli (GPa) = 102.43062 74.31588 47.44932
#
# Poissons Ratio (x) = 0.05352 0.12481
# Poissons Ratio (y) = 0.07376 0.21568
# Poissons Ratio (z) = 0.26942 0.33779
#
# Static dielectric constant tensor:
#      x y z
#    x 4.159670 0.000000 0.007800 
#    y 0.000000 4.364450 0.000000 
#    z 0.007800 0.000000 3.657540 
# 
# 
# High freq. dielectric constant tensor:
#      x y z
#    x 1.881790 0.000000 -0.001790 
#    y 0.000000 1.886500 0.000000 
#    z -0.001790 0.000000 1.856500 
# 
# From -- ./inp_files/205684.got.cif
#   From: 2010.06.25/outbox.cif.g09.slc.cpg/sg15_103_cif.got.tgz:205684.got - 2010.06.28 07:06:18.
