data_PCOD8149762
_publ_section_title
;
Structure prediction by ZEFSAII (Michael W. Deem and Ramdas Pophale) SiO2 
 PCOD8149762
Probable space group: C 2/C
;
_chemical_formula_sum "Si O2"
_cell_formula_units_Z 52
_cell_length_a 5.205137
_cell_length_b 17.384161
_cell_length_c 25.508928
_cell_angle_alpha 90.000000
_cell_angle_beta 76.823125
_cell_angle_gamma 90.000000
_cell_volume 2247.451548
_symmetry_space_group_name_H-M "C 2/C"
_symmetry_group_IT_number 15
_symmetry_cell_setting 'monoclinic'
loop_
_space_group_symop_operation_xyz
x,y,z
-x,y,1/2-z
-x,-y,-z
x,-y,1/2+z
1/2+x,1/2+y,z
1/2-x,1/2+y,1/2-z
1/2-x,1/2-y,-z
1/2+x,1/2-y,1/2+z
loop_
_atom_site_type_symbol
_atom_site_label
_atom_site_fract_x
_atom_site_fract_y
_atom_site_fract_z
Si Si1 0.423283 0.250168 0.664325
Si Si2 0.500000 0.639115 0.250000
Si Si3 0.506817 0.368596 0.072718
Si Si4 0.000000 0.809921 0.250000
Si Si5 0.301846 0.101284 0.818524
Si Si6 0.069869 0.413809 0.010410
Si Si7 0.239056 0.718262 0.441780
Si Si8 0.000000 0.535080 0.250000
O O1 0.576858 0.305831 0.697651
O O2 0.510488 0.161170 0.660551
O O3 0.479858 0.282607 0.602909
O O4 0.119430 0.245750 0.698637
O O5 0.749136 0.586443 0.249645
O O6 0.448932 0.409599 0.131148
O O7 0.324990 0.408162 0.036337
O O8 0.454257 0.276371 0.080419
O O9 0.816249 0.375723 0.048836
O O10 0.221680 0.864705 0.265203
O O11 0.437895 0.018796 0.803272
O O12 0.130382 0.368699 0.952798
O O13 0.000000 0.500000 0.000000
O O14 0.250000 0.750000 0.500000
#
# Coordination Sequence:
#
# PCOD8149762 Si02
#       8
#     8   4   8   4   8   8   8   4
#     4  11  23  44  67 100 134 184 228 290 340 419
#     4  12  26  44  63 101 142 180 220 280 356 420
#     4  10  24  41  69  96 130 175 233 284 337 403
#     4  12  20  40  76  94 138 168 248 276 356 396
#     4  11  24  41  69  96 132 181 234 290 341 410
#     4  11  23  44  66  97 139 179 225 278 347 416
#     4   9  22  43  68  99 131 172 231 282 336 398
#     4  12  26  42  63  99 142 174 228 278 344 422
#
# _framework density 23.137315999999998
#
# number of rings (size 3 to 8) (size 9 to 14) (size 15 to 20)
#    0.000    1.231    3.077    1.846    6.462    2.462 
#    2.769    0.000    0.000    0.000    0.000    0.000 
#    0.000    0.000    0.000    0.000    0.000    0.000 
#
# Total GULP energy -322214.164284 kJ/mol
# GULP energy per Si atom -12392.852472 kJ/mol
# Density = 2.308465 g / cm^3
# Si number density = 23.137316 Si / 1000 Ang^3
#
#
#
# Elastic Constant Matrix: (Units=GPa)
#
#
# Indices 1 2 3 4 5 6 
#
# 1 87.4547 26.3446 21.7405 0.0000 -15.4241 0.0000
# 2 26.3446 133.1201 27.7304 0.0000 -3.4211 0.0000
# 3 21.7405 27.7304 147.3350 0.0000 -27.7751 0.0000
# 4 0.0000 0.0000 0.0000 19.4975 0.0000 -4.1709
# 5 -15.4241 -3.4211 -27.7751 0.0000 37.0204 0.0000
# 6 0.0000 0.0000 0.0000 -4.1709 0.0000 34.2157
#
#
#
# Elastic Compliance Matrix: (Units=1/GPa)
#
#
# Indices 1 2 3 4 5 6 
#
# 1 0.013139 -0.002354 -0.000588 0.000000 0.004816 0.000000
# 2 -0.002354 0.008247 -0.001451 0.000000 -0.001308 0.000000
# 3 -0.000588 -0.001451 0.008241 0.000000 0.005804 0.000000
# 4 0.000000 0.000000 0.000000 0.052662 0.000000 0.006420
# 5 0.004816 -0.001308 0.005804 0.000000 0.033252 0.000000
# 6 0.000000 0.000000 0.000000 0.006420 0.000000 0.030009
#
#
# Mechanical properties :
#
#
# Convention : Reuss Voigt Hill
#
# Bulk Modulus (GPa) = 47.98317 57.72674 52.85495
# Shear Modulus (GPa) = 31.00137 37.61968 34.31053
#
# Velocity S-wave (km/s) = 3.66442 4.03666 3.85503
# Velocity P-wave (km/s) = 6.21992 6.83593 6.53519
#
# Compressibility (1/GPa) = 0.02084064
#
# Stress axis : x y z
#
# Youngs Moduli (GPa) = 76.10894 121.26234 121.33980
#
# Poissons Ratio (x) = 0.28545 0.07134
# Poissons Ratio (y) = 0.17916 0.17609
# Poissons Ratio (z) = 0.04474 0.17598
#
# Static dielectric constant tensor:
#      x y z
#    x 3.855250 0.000000 -0.421310 
#    y 0.000000 4.487900 0.000000 
#    z -0.421310 0.000000 4.717100 
# 
# 
# High freq. dielectric constant tensor:
#      x y z
#    x 1.901610 0.000000 -0.023380 
#    y 0.000000 1.906650 0.000000 
#    z -0.023380 0.000000 1.925760 
# 
# From -- ./inp_files/285816.got.cif
#   From: 2010.06.25/outbox.cif.g09.slc.cpg/sg15_143_cif.got.tgz:285816.got - 2010.06.28 07:06:18.
