data_PCOD8149190
_publ_section_title
;
Structure prediction by ZEFSAII (Michael W. Deem and Ramdas Pophale) SiO2 
 PCOD8149190
Probable space group: C 2/C
;
_chemical_formula_sum "Si O2"
_cell_formula_units_Z 40
_cell_length_a 16.347355
_cell_length_b 5.472248
_cell_length_c 21.609667
_cell_angle_alpha 90.000000
_cell_angle_beta 63.160520
_cell_angle_gamma 90.000000
_cell_volume 1724.884537
_symmetry_space_group_name_H-M "C 2/C"
_symmetry_group_IT_number 15
_symmetry_cell_setting 'monoclinic'
loop_
_space_group_symop_operation_xyz
x,y,z
-x,y,1/2-z
-x,-y,-z
x,-y,1/2+z
1/2+x,1/2+y,z
1/2-x,1/2+y,1/2-z
1/2-x,1/2-y,-z
1/2+x,1/2-y,1/2+z
loop_
_atom_site_type_symbol
_atom_site_label
_atom_site_fract_x
_atom_site_fract_y
_atom_site_fract_z
Si Si1 0.638608 0.340101 0.604017
Si Si2 0.315868 0.952913 0.002816
Si Si3 0.151297 0.188882 0.238297
Si Si4 0.976374 0.835708 0.450932
Si Si5 0.863971 0.689683 0.185579
O O1 0.749641 0.386041 0.568084
O O2 0.605698 0.315569 0.685762
O O3 0.575741 0.533435 0.588753
O O4 0.632359 0.083529 0.571879
O O5 0.403054 0.845072 0.009228
O O6 0.250000 0.750000 0.000000
O O7 0.116660 0.437253 0.283687
O O8 0.260976 0.191109 0.195595
O O9 0.118185 0.938948 0.281946
O O10 0.066588 0.697513 0.395871
O O11 0.000000 0.000000 0.500000
#
# Coordination Sequence:
#
# PCOD8149190 Si02
#       5
#     8   8   8   8   8
#     4  10  23  44  69  99 132 189 228 290 354 418
#     4   9  22  41  66 102 130 177 228 277 354 413
#     4  10  24  47  72  96 140 186 237 278 353 431
#     4  11  26  43  67 106 142 179 235 301 356 414
#     4  10  25  45  70 104 135 187 231 292 348 417
#
# _framework density 23.189958000000001
#
# number of rings (size 3 to 8) (size 9 to 14) (size 15 to 20)
#    0.000    2.000    0.000    0.000   16.800    4.800 
#    0.000    0.000    0.000    0.000    0.000    0.000 
#    0.000    0.000    0.000    0.000    0.000    0.000 
#
# Total GULP energy -247767.164131 kJ/mol
# GULP energy per Si atom -12388.358207 kJ/mol
# Density = 2.313718 g / cm^3
# Si number density = 23.189958 Si / 1000 Ang^3
#
#
#
# Elastic Constant Matrix: (Units=GPa)
#
#
# Indices 1 2 3 4 5 6 
#
# 1 84.1218 24.7248 45.2706 -0.0203 -8.3986 0.0464
# 2 24.7248 127.4534 24.7208 -0.0038 4.7738 0.0524
# 3 45.2706 24.7208 95.0193 -0.0214 5.9253 0.0038
# 4 -0.0203 -0.0038 -0.0214 30.3595 0.0161 -0.6223
# 5 -8.3986 4.7738 5.9253 0.0161 42.4876 0.0005
# 6 0.0464 0.0524 0.0038 -0.6223 0.0005 34.4769
#
#
#
# Elastic Compliance Matrix: (Units=1/GPa)
#
#
# Indices 1 2 3 4 5 6 
#
# 1 0.017246 -0.001972 -0.008000 0.000003 0.004746 -0.000019
# 2 -0.001972 0.008505 -0.001200 -0.000001 -0.001178 -0.000010
# 3 -0.008000 -0.001200 0.014867 0.000007 -0.003520 0.000011
# 4 0.000003 -0.000001 0.000007 0.032951 -0.000013 0.000595
# 5 0.004746 -0.001178 -0.003520 -0.000013 0.025098 -0.000005
# 6 -0.000019 -0.000010 0.000011 0.000595 -0.000005 0.029016
#
#
# Mechanical properties :
#
#
# Convention : Reuss Voigt Hill
#
# Bulk Modulus (GPa) = 54.71671 55.11411 54.91541
# Shear Modulus (GPa) = 32.02723 35.59003 33.80863
#
# Velocity S-wave (km/s) = 3.72032 3.92180 3.82239
# Velocity P-wave (km/s) = 6.48850 6.65772 6.57366
#
# Compressibility (1/GPa) = 0.01827595
#
# Stress axis : x y z
#
# Youngs Moduli (GPa) = 57.98465 117.57280 67.26238
#
# Poissons Ratio (x) = 0.23182 0.53807
# Poissons Ratio (y) = 0.11433 0.08071
# Poissons Ratio (z) = 0.46385 0.14108
#
# Static dielectric constant tensor:
#      x y z
#    x 4.527250 -0.000020 -0.493550 
#    y -0.000020 4.547770 -0.000060 
#    z -0.493550 -0.000060 4.156140 
# 
# 
# High freq. dielectric constant tensor:
#      x y z
#    x 1.925030 0.000000 -0.015630 
#    y 0.000000 1.928750 0.000000 
#    z -0.015630 0.000000 1.906910 
# 
# From -- ./inp_files/271824.got.cif
#   From: 2010.06.25/outbox.cif.g09.slc.cpg/sg15_136_cif.got.tgz:271824.got - 2010.06.28 07:06:18.
