data_PCOD8149123
_publ_section_title
;
Structure prediction by ZEFSAII (Michael W. Deem and Ramdas Pophale) SiO2 
 PCOD8149123
Probable space group: C 2/C
;
_chemical_formula_sum "Si O2"
_cell_formula_units_Z 40
_cell_length_a 24.071315
_cell_length_b 8.399792
_cell_length_c 9.860840
_cell_angle_alpha 90.000000
_cell_angle_beta 79.874934
_cell_angle_gamma 90.000000
_cell_volume 1962.752309
_symmetry_space_group_name_H-M "C 2/C"
_symmetry_group_IT_number 15
_symmetry_cell_setting 'monoclinic'
loop_
_space_group_symop_operation_xyz
x,y,z
-x,y,1/2-z
-x,-y,-z
x,-y,1/2+z
1/2+x,1/2+y,z
1/2-x,1/2+y,1/2-z
1/2-x,1/2-y,-z
1/2+x,1/2-y,1/2+z
loop_
_atom_site_type_symbol
_atom_site_label
_atom_site_fract_x
_atom_site_fract_y
_atom_site_fract_z
Si Si1 0.400158 0.649115 0.962064
Si Si2 0.884325 0.150006 0.659517
Si Si3 0.007815 0.648394 0.400791
Si Si4 0.269163 0.815584 0.635089
Si Si5 0.708291 0.813928 0.404792
O O1 0.391976 0.498760 0.059678
O O2 0.355785 0.786993 0.020227
O O3 0.391292 0.593534 0.811279
O O4 0.462746 0.715737 0.956933
O O5 0.930024 0.283202 0.601739
O O6 0.822932 0.221921 0.666220
O O7 0.000000 0.590164 0.250000
O O8 0.000000 0.500000 0.500000
O O9 0.250000 0.750000 0.500000
O O10 0.218444 0.784325 0.762123
O O11 0.282231 0.000784 0.622778
O O12 0.750000 0.750000 0.500000
#
# Coordination Sequence:
#
# PCOD8149123 Si02
#       5
#     8   8   8   8   8
#     4  11  24  42  67  95 132 169 216 272 323 389
#     4  11  24  43  66  96 130 170 218 268 327 386
#     4  10  23  44  67  95 131 169 217 270 324 386
#     4  12  26  42  68  95 131 176 216 270 329 383
#     4  12  24  44  64  95 134 168 221 270 323 391
#
# _framework density 20.379543999999999
#
# number of rings (size 3 to 8) (size 9 to 14) (size 15 to 20)
#    0.000    0.800    2.000    5.400    2.800    1.600 
#    0.000    0.000    0.000    0.000    0.000    0.000 
#    0.000    0.000    0.000    0.000    0.000    0.000 
#
# Total GULP energy -248145.882920 kJ/mol
# GULP energy per Si atom -12407.294146 kJ/mol
# Density = 2.033316 g / cm^3
# Si number density = 20.379544 Si / 1000 Ang^3
#
#
#
# Elastic Constant Matrix: (Units=GPa)
#
#
# Indices 1 2 3 4 5 6 
#
# 1 78.7110 1.9474 26.7281 0.0000 -2.5209 0.0000
# 2 1.9474 123.0679 66.1628 0.0000 5.2306 0.0000
# 3 26.7281 66.1628 128.2464 0.0000 -7.3530 0.0000
# 4 0.0000 0.0000 0.0000 44.4453 0.0000 -8.2787
# 5 -2.5209 5.2306 -7.3530 0.0000 32.7320 0.0000
# 6 0.0000 0.0000 0.0000 -8.2787 0.0000 20.4772
#
#
#
# Elastic Compliance Matrix: (Units=1/GPa)
#
#
# Indices 1 2 3 4 5 6 
#
# 1 0.013974 0.001870 -0.003883 0.000000 -0.000095 0.000000
# 2 0.001870 0.011823 -0.006675 0.000000 -0.003245 0.000000
# 3 -0.003883 -0.006675 0.012252 0.000000 0.003520 0.000000
# 4 0.000000 0.000000 0.000000 0.024332 0.000000 0.009837
# 5 -0.000095 -0.003245 0.003520 0.000000 0.031853 0.000000
# 6 0.000000 0.000000 0.000000 0.009837 0.000000 0.052812
#
#
# Mechanical properties :
#
#
# Convention : Reuss Voigt Hill
#
# Bulk Modulus (GPa) = 48.37083 57.74466 53.05774
# Shear Modulus (GPa) = 29.18661 35.21004 32.19833
#
# Velocity S-wave (km/s) = 3.78848 4.16109 3.97915
# Velocity P-wave (km/s) = 6.55159 7.17512 6.87043
#
# Compressibility (1/GPa) = 0.02067362
#
# Stress axis : x y z
#
# Youngs Moduli (GPa) = 71.56232 84.58437 81.61798
#
# Poissons Ratio (x) = -0.15819 0.31689
# Poissons Ratio (y) = -0.13384 0.54481
# Poissons Ratio (z) = 0.27785 0.56461
#
# Static dielectric constant tensor:
#      x y z
#    x 4.127360 0.000000 -0.161740 
#    y 0.000000 -25.555500 0.000000 
#    z -0.161740 0.000000 4.047160 
# 
# 
# High freq. dielectric constant tensor:
#      x y z
#    x 1.811400 0.000000 -0.007560 
#    y 0.000000 1.800450 0.000000 
#    z -0.007560 0.000000 1.817180 
# 
# From -- ./inp_files/59921.got.cif
#   From: 2010.06.25/outbox.cif.g09.slc.cpg/sg15_30_cif.got.tgz:59921.got - 2010.06.28 07:06:18.
