data_PCOD8149193
_publ_section_title
;
Structure prediction by ZEFSAII (Michael W. Deem and Ramdas Pophale) SiO2 
 PCOD8149193
Probable space group: C 2/C
;
_chemical_formula_sum "Si O2"
_cell_formula_units_Z 40
_cell_length_a 15.542580
_cell_length_b 21.305593
_cell_length_c 5.250575
_cell_angle_alpha 90.000000
_cell_angle_beta 98.806108
_cell_angle_gamma 90.000000
_cell_volume 1718.200167
_symmetry_space_group_name_H-M "C 2/C"
_symmetry_group_IT_number 15
_symmetry_cell_setting 'monoclinic'
loop_
_space_group_symop_operation_xyz
x,y,z
-x,y,1/2-z
-x,-y,-z
x,-y,1/2+z
1/2+x,1/2+y,z
1/2-x,1/2+y,1/2-z
1/2-x,1/2-y,-z
1/2+x,1/2-y,1/2+z
loop_
_atom_site_type_symbol
_atom_site_label
_atom_site_fract_x
_atom_site_fract_y
_atom_site_fract_z
Si Si1 0.715662 0.853428 0.502111
Si Si2 0.000000 0.906822 0.750000
Si Si3 0.602218 0.038245 0.798807
Si Si4 0.000000 0.173700 0.750000
Si Si5 0.816435 0.037791 0.231046
Si Si6 0.174639 0.234890 0.770535
O O1 0.649822 0.894614 0.301328
O O2 0.763983 0.896794 0.735210
O O3 0.794624 0.824727 0.377029
O O4 0.659157 0.797492 0.597867
O O5 0.080425 0.951220 0.714278
O O6 0.977280 0.866126 0.490357
O O7 0.500000 0.051329 0.750000
O O8 0.630683 0.995194 0.575112
O O9 0.083026 0.217060 0.857869
O O10 0.788642 0.992486 0.447936
O O11 0.250000 0.250000 0.000000
#
# Coordination Sequence:
#
# PCOD8149193 Si02
#       6
#     8   4   8   4   8   8
#     4  11  25  45  68 104 136 183 235 291 347 425
#     4  12  24  47  70 102 146 181 236 282 348 426
#     4  10  23  44  70 102 139 178 228 288 352 418
#     4  12  26  49  74 102 146 189 232 308 348 418
#     4  12  25  42  71 103 139 184 230 283 350 418
#     4  11  27  46  73 102 140 188 244 290 357 421
#
# _framework density 23.280175
#
# number of rings (size 3 to 8) (size 9 to 14) (size 15 to 20)
#    0.000    0.800    2.000    4.200    8.400    1.600 
#    1.800    0.000    0.000    0.000    0.000    0.000 
#    0.000    0.000    0.000    0.000    0.000    0.000 
#
# Total GULP energy -248100.365820 kJ/mol
# GULP energy per Si atom -12405.018291 kJ/mol
# Density = 2.322719 g / cm^3
# Si number density = 23.280175 Si / 1000 Ang^3
#
#
#
# Elastic Constant Matrix: (Units=GPa)
#
#
# Indices 1 2 3 4 5 6 
#
# 1 77.1118 53.6552 27.4205 0.0000 -7.8352 0.0000
# 2 53.6552 141.6138 43.5467 0.0000 -0.3914 0.0000
# 3 27.4205 43.5467 122.0980 0.0000 7.2104 0.0000
# 4 0.0000 0.0000 0.0000 27.3515 0.0000 17.5474
# 5 -7.8352 -0.3914 7.2104 0.0000 35.4361 0.0000
# 6 0.0000 0.0000 0.0000 17.5474 0.0000 18.2915
#
#
#
# Elastic Compliance Matrix: (Units=1/GPa)
#
#
# Indices 1 2 3 4 5 6 
#
# 1 0.018638 -0.006380 -0.002175 0.000000 0.004493 0.000000
# 2 -0.006380 0.010131 -0.002129 0.000000 -0.000866 0.000000
# 3 -0.002175 -0.002129 0.009583 0.000000 -0.002454 0.000000
# 4 0.000000 0.000000 0.000000 0.095076 0.000000 -0.091209
# 5 0.004493 -0.000866 -0.002454 0.000000 0.029703 0.000000
# 6 0.000000 0.000000 0.000000 -0.091209 0.000000 0.142169
#
#
# Mechanical properties :
#
#
# Convention : Reuss Voigt Hill
#
# Bulk Modulus (GPa) = 58.88575 65.56315 62.22445
# Shear Modulus (GPa) = 15.04527 30.62923 22.83725
#
# Velocity S-wave (km/s) = 2.54494 3.63116 3.13545
# Velocity P-wave (km/s) = 5.82966 6.76788 6.31622
#
# Compressibility (1/GPa) = 0.01698204
#
# Stress axis : x y z
#
# Youngs Moduli (GPa) = 53.65474 98.70509 104.35044
#
# Poissons Ratio (x) = 0.62975 0.22701
# Poissons Ratio (y) = 0.34232 0.22220
# Poissons Ratio (z) = 0.11672 0.21018
#
# Static dielectric constant tensor:
#      x y z
#    x 4.366740 0.000000 0.326690 
#    y 0.000000 4.397700 0.000000 
#    z 0.326690 0.000000 5.949900 
# 
# 
# High freq. dielectric constant tensor:
#      x y z
#    x 1.944330 0.000000 0.004770 
#    y 0.000000 1.927200 0.000000 
#    z 0.004770 0.000000 1.914310 
# 
# From -- ./inp_files/9878.got.cif
#   From: 2010.06.25/outbox.cif.g09.slc.cpg/sg15_5_cif.got.tgz:9878.got - 2010.06.28 07:06:18.
