data_PCOD8149756
_publ_section_title
;
Structure prediction by ZEFSAII (Michael W. Deem and Ramdas Pophale) SiO2 
 PCOD8149756
Probable space group: C 2/C
;
_chemical_formula_sum "Si O2"
_cell_formula_units_Z 52
_cell_length_a 11.821776
_cell_length_b 8.311735
_cell_length_c 28.694672
_cell_angle_alpha 90.000000
_cell_angle_beta 58.853017
_cell_angle_gamma 90.000000
_cell_volume 2413.069895
_symmetry_space_group_name_H-M "C 2/C"
_symmetry_group_IT_number 15
_symmetry_cell_setting 'monoclinic'
loop_
_space_group_symop_operation_xyz
x,y,z
-x,y,1/2-z
-x,-y,-z
x,-y,1/2+z
1/2+x,1/2+y,z
1/2-x,1/2+y,1/2-z
1/2-x,1/2-y,-z
1/2+x,1/2-y,1/2+z
loop_
_atom_site_type_symbol
_atom_site_label
_atom_site_fract_x
_atom_site_fract_y
_atom_site_fract_z
Si Si1 0.000000 0.677158 0.250000
Si Si2 0.942539 0.786797 0.934818
Si Si3 0.675349 0.442411 0.168226
Si Si4 0.734685 0.994118 0.522316
Si Si5 0.929140 0.873312 0.687269
Si Si6 0.670026 0.805510 0.448892
Si Si7 0.182441 0.462737 0.271124
O O1 0.116254 0.779891 0.202285
O O2 0.064739 0.573598 0.277479
O O3 0.842721 0.646081 0.939365
O O4 0.041107 0.835633 0.872721
O O5 0.024510 0.713836 0.959797
O O6 0.867379 0.944406 0.968714
O O7 0.561302 0.575775 0.186582
O O8 0.737658 0.409388 0.104791
O O9 0.787210 0.503819 0.180741
O O10 0.650483 0.898083 0.501648
O O11 0.767783 0.872085 0.556986
O O12 0.865179 0.719532 0.725962
O O13 0.819867 0.015324 0.713132
#
# Coordination Sequence:
#
# PCOD8149756 Si02
#       7
#     4   8   8   8   8   8   8
#     4  12  26  42  68  96 130 170 232 272 336 412
#     4  11  22  44  65  99 134 172 224 275 329 399
#     4  12  24  44  66  95 140 176 222 282 335 403
#     4  10  24  41  68  97 135 179 225 274 332 393
#     4  12  24  45  68  97 139 175 226 276 343 403
#     4  11  22  42  66  97 134 178 219 277 333 390
#     4  12  25  45  67  99 131 180 216 282 335 408
#
# _framework density 21.549312
#
# number of rings (size 3 to 8) (size 9 to 14) (size 15 to 20)
#    0.000    0.615    6.154    0.923    4.308    0.000 
#    0.000    0.000    0.000    0.000    0.000    0.000 
#    0.000    0.000    0.000    0.000    0.000    0.000 
#
# Total GULP energy -322514.753327 kJ/mol
# GULP energy per Si atom -12404.413590 kJ/mol
# Density = 2.150027 g / cm^3
# Si number density = 21.549312 Si / 1000 Ang^3
#
#
#
# Elastic Constant Matrix: (Units=GPa)
#
#
# Indices 1 2 3 4 5 6 
#
# 1 102.2267 37.0744 12.3539 0.0000 7.9145 0.0000
# 2 37.0744 89.8999 33.6424 0.0000 1.5342 0.0000
# 3 12.3539 33.6424 86.6488 0.0000 -0.7925 0.0000
# 4 0.0000 0.0000 0.0000 30.4646 0.0000 1.9332
# 5 7.9145 1.5342 -0.7925 0.0000 16.9336 0.0000
# 6 0.0000 0.0000 0.0000 1.9332 0.0000 34.3186
#
#
#
# Elastic Compliance Matrix: (Units=1/GPa)
#
#
# Indices 1 2 3 4 5 6 
#
# 1 0.011935 -0.004891 0.000150 0.000000 -0.005128 0.000000
# 2 -0.004891 0.015053 -0.005141 0.000000 0.000681 0.000000
# 3 0.000150 -0.005141 0.013525 0.000000 0.001028 0.000000
# 4 0.000000 0.000000 0.000000 0.032943 0.000000 -0.001856
# 5 -0.005128 0.000681 0.001028 0.000000 0.061437 0.000000
# 6 0.000000 0.000000 0.000000 -0.001856 0.000000 0.029243
#
#
# Mechanical properties :
#
#
# Convention : Reuss Voigt Hill
#
# Bulk Modulus (GPa) = 48.19300 49.43520 48.81410
# Shear Modulus (GPa) = 26.20352 29.39035 27.79693
#
# Velocity S-wave (km/s) = 3.49087 3.69706 3.59544
# Velocity P-wave (km/s) = 6.21779 6.41986 6.31963
#
# Compressibility (1/GPa) = 0.02074990
#
# Stress axis : x y z
#
# Youngs Moduli (GPa) = 83.78940 66.43412 73.93837
#
# Poissons Ratio (x) = 0.32490 -0.01112
# Poissons Ratio (y) = 0.40978 0.38010
# Poissons Ratio (z) = -0.01260 0.34152
#
# Static dielectric constant tensor:
#      x y z
#    x 4.049850 0.000000 0.041070 
#    y 0.000000 3.984980 0.000000 
#    z 0.041070 0.000000 3.700670 
# 
# 
# High freq. dielectric constant tensor:
#      x y z
#    x 1.859580 0.000000 0.001490 
#    y 0.000000 1.850390 0.000000 
#    z 0.001490 0.000000 1.833860 
# 
# From -- ./inp_files/291200.got.cif
#   From: 2010.06.25/outbox.cif.g09.slc.cpg/sg15_146_cif.got.tgz:291200.got - 2010.06.28 07:06:18.
