data_PCOD8149997
_publ_section_title
;
Structure prediction by ZEFSAII (Michael W. Deem and Ramdas Pophale) SiO2 
 PCOD8149997
Probable space group: C 2/C
;
_chemical_formula_sum "Si O2"
_cell_formula_units_Z 32
_cell_length_a 23.569077
_cell_length_b 4.801702
_cell_length_c 20.178084
_cell_angle_alpha 90.000000
_cell_angle_beta 145.386378
_cell_angle_gamma 90.000000
_cell_volume 1297.167881
_symmetry_space_group_name_H-M "C 2/C"
_symmetry_group_IT_number 15
_symmetry_cell_setting 'monoclinic'
loop_
_space_group_symop_operation_xyz
x,y,z
-x,y,1/2-z
-x,-y,-z
x,-y,1/2+z
1/2+x,1/2+y,z
1/2-x,1/2+y,1/2-z
1/2-x,1/2-y,-z
1/2+x,1/2-y,1/2+z
loop_
_atom_site_type_symbol
_atom_site_label
_atom_site_fract_x
_atom_site_fract_y
_atom_site_fract_z
Si Si1 0.934913 0.036568 0.787125
Si Si2 0.847455 0.179652 0.507263
Si Si3 0.148257 0.540755 0.864594
Si Si4 0.266546 0.548809 0.722463
O O1 0.896330 0.850065 0.687789
O O2 0.909636 0.353212 0.744540
O O3 0.873344 0.959697 0.794083
O O4 0.052744 0.005200 0.913171
O O5 0.872271 0.430987 0.581549
O O6 0.807335 0.319217 0.402229
O O7 0.767225 0.964377 0.462533
O O8 0.215863 0.269023 0.701611
#
# Coordination Sequence:
#
# PCOD8149997 Si02
#       4
#     8   8   8   8
#     4  11  24  43  70 101 134 176 223 275 342 407
#     4  10  24  44  71  98 139 180 215 283 346 389
#     4  10  24  43  68 105 135 166 223 280 341 414
#     4  11  25  44  65  97 138 182 236 275 315 397
#
# _framework density 24.669127
#
# number of rings (size 3 to 8) (size 9 to 14) (size 15 to 20)
#    0.000    1.500    0.000    3.750    0.000   23.000 
#    0.000    2.500    0.000    0.000    0.000    0.000 
#    0.000    0.000    0.000    0.000    0.000    0.000 
#
# Total GULP energy -198507.316078 kJ/mol
# GULP energy per Si atom -12406.707255 kJ/mol
# Density = 2.461298 g / cm^3
# Si number density = 24.669127 Si / 1000 Ang^3
#
#
#
# Elastic Constant Matrix: (Units=GPa)
#
#
# Indices 1 2 3 4 5 6 
#
# 1 140.7524 33.5548 77.2476 -0.0030 24.0034 -0.0086
# 2 33.5548 82.0051 26.6174 -0.0028 20.6351 -0.0111
# 3 77.2476 26.6174 86.9723 -0.0006 38.5655 0.0039
# 4 -0.0030 -0.0028 -0.0006 33.8986 -0.0006 -11.1287
# 5 24.0034 20.6351 38.5655 -0.0006 46.4369 -0.0031
# 6 -0.0086 -0.0111 0.0039 -11.1287 -0.0031 30.2297
#
#
#
# Elastic Compliance Matrix: (Units=1/GPa)
#
#
# Indices 1 2 3 4 5 6 
#
# 1 0.015109 -0.002759 -0.015284 0.000003 0.006109 0.000007
# 2 -0.002759 0.014549 0.000367 0.000002 -0.005344 0.000005
# 3 -0.015284 0.000367 0.034080 -0.000005 -0.020566 -0.000013
# 4 0.000003 0.000002 -0.000005 0.033555 0.000003 0.012353
# 5 0.006109 -0.005344 -0.020566 0.000003 0.037831 0.000007
# 6 0.000007 0.000005 -0.000013 0.012353 0.000007 0.037628
#
#
# Mechanical properties :
#
#
# Convention : Reuss Voigt Hill
#
# Bulk Modulus (GPa) = 35.22798 64.95217 50.09008
# Shear Modulus (GPa) = 22.98171 33.60036 28.29104
#
# Velocity S-wave (km/s) = 3.05552 3.69459 3.39015
# Velocity P-wave (km/s) = 5.17296 6.67731 5.97268
#
# Compressibility (1/GPa) = 0.02838652
#
# Stress axis : x y z
#
# Youngs Moduli (GPa) = 66.18746 68.73501 29.34268
#
# Poissons Ratio (x) = 0.18961 0.44848
# Poissons Ratio (y) = 0.18258 -0.01077
# Poissons Ratio (z) = 1.01161 -0.02524
#
# Static dielectric constant tensor:
#      x y z
#    x 4.640840 0.000000 0.146100 
#    y 0.000000 4.298690 0.000000 
#    z 0.146100 0.000000 4.315230 
# 
# 
# High freq. dielectric constant tensor:
#      x y z
#    x 1.984110 0.000000 0.005820 
#    y 0.000000 1.985030 0.000000 
#    z 0.005820 0.000000 1.974440 
# 
# From -- ./inp_files/175083.got.cif
#   From: 2010.06.25/outbox.cif.g09.slc.cpg/sg15_88_cif.got.tgz:175083.got - 2010.06.28 07:06:18.
