data_PCOD8149365
_publ_section_title
;
Structure prediction by ZEFSAII (Michael W. Deem and Ramdas Pophale) SiO2 
 PCOD8149365
Probable space group: C 2/C
;
_chemical_formula_sum "Si O2"
_cell_formula_units_Z 40
_cell_length_a 30.759304
_cell_length_b 8.699319
_cell_length_c 21.744571
_cell_angle_alpha 90.000000
_cell_angle_beta 162.530093
_cell_angle_gamma 90.000000
_cell_volume 1746.748189
_symmetry_space_group_name_H-M "C 2/C"
_symmetry_group_IT_number 15
_symmetry_cell_setting 'monoclinic'
loop_
_space_group_symop_operation_xyz
x,y,z
-x,y,1/2-z
-x,-y,-z
x,-y,1/2+z
1/2+x,1/2+y,z
1/2-x,1/2+y,1/2-z
1/2-x,1/2-y,-z
1/2+x,1/2-y,1/2+z
loop_
_atom_site_type_symbol
_atom_site_label
_atom_site_fract_x
_atom_site_fract_y
_atom_site_fract_z
Si Si1 0.751430 0.305147 0.279437
Si Si2 0.668031 0.234922 0.479710
Si Si3 0.430747 0.745342 0.300378
Si Si4 0.755287 0.995554 0.505572
Si Si5 0.361243 0.393279 0.828382
O O1 0.772418 0.222187 0.372824
O O2 0.759806 0.488788 0.306669
O O3 0.876821 0.240449 0.402354
O O4 0.599497 0.258260 0.043427
O O5 0.500000 0.207644 0.250000
O O6 0.710234 0.377911 0.496822
O O7 0.734740 0.075518 0.544447
O O8 0.391644 0.618969 0.195639
O O9 0.329826 0.703157 0.223878
O O10 0.387546 0.909035 0.212960
O O11 0.500000 0.500000 0.000000
#
# Coordination Sequence:
#
# PCOD8149365 Si02
#       5
#     8   8   8   8   8
#     4  11  25  43  71  97 134 184 232 280 346 412
#     4  11  26  41  66 100 138 177 223 281 348 410
#     4  10  23  45  71  95 133 178 233 284 342 411
#     4  10  24  45  66  99 137 176 222 292 343 405
#     4  10  24  44  68 102 135 176 233 287 332 412
#
# _framework density 22.899695000000001
#
# number of rings (size 3 to 8) (size 9 to 14) (size 15 to 20)
#    0.000    1.600    2.000    0.000   11.200    2.400 
#    0.000    4.000    0.000    0.000    0.000    0.000 
#    0.000    0.000    0.000    0.000    0.000    0.000 
#
# Total GULP energy -247770.612605 kJ/mol
# GULP energy per Si atom -12388.530630 kJ/mol
# Density = 2.284757 g / cm^3
# Si number density = 22.899695 Si / 1000 Ang^3
#
#
#
# Elastic Constant Matrix: (Units=GPa)
#
#
# Indices 1 2 3 4 5 6 
#
# 1 114.2930 41.3081 7.2803 0.0000 -17.5931 0.0000
# 2 41.3081 108.8649 18.6393 0.0000 1.2896 0.0000
# 3 7.2803 18.6393 112.2623 0.0000 -22.3852 0.0000
# 4 0.0000 0.0000 0.0000 30.6410 0.0000 3.4809
# 5 -17.5931 1.2896 -22.3852 0.0000 33.0958 0.0000
# 6 0.0000 0.0000 0.0000 3.4809 0.0000 34.1332
#
#
#
# Elastic Compliance Matrix: (Units=1/GPa)
#
#
# Indices 1 2 3 4 5 6 
#
# 1 0.011473 -0.004695 0.001489 0.000000 0.007289 0.000000
# 2 -0.004695 0.011454 -0.002524 0.000000 -0.004649 0.000000
# 3 0.001489 -0.002524 0.010874 0.000000 0.008245 0.000000
# 4 0.000000 0.000000 0.000000 0.033019 0.000000 -0.003367
# 5 0.007289 -0.004649 0.008245 0.000000 0.039848 0.000000
# 6 0.000000 0.000000 0.000000 -0.003367 0.000000 0.029640
#
#
# Mechanical properties :
#
#
# Convention : Reuss Voigt Hill
#
# Bulk Modulus (GPa) = 44.75990 52.20839 48.48414
# Shear Modulus (GPa) = 32.21300 37.45352 34.83326
#
# Velocity S-wave (km/s) = 3.75467 4.04858 3.90439
# Velocity P-wave (km/s) = 6.19558 6.68602 6.44547
#
# Compressibility (1/GPa) = 0.02234143
#
# Stress axis : x y z
#
# Youngs Moduli (GPa) = 87.15815 87.30269 91.95949
#
# Poissons Ratio (x) = 0.40987 -0.13692
# Poissons Ratio (y) = 0.40919 0.23215
# Poissons Ratio (z) = -0.12977 0.22039
#
# Static dielectric constant tensor:
#      x y z
#    x 5.067820 0.000000 -0.045790 
#    y 0.000000 4.583520 0.000000 
#    z -0.045790 0.000000 3.880460 
# 
# 
# High freq. dielectric constant tensor:
#      x y z
#    x 1.908480 0.000000 -0.023190 
#    y 0.000000 1.919190 0.000000 
#    z -0.023190 0.000000 1.886090 
# 
# From -- ./inp_files/102787.got.cif
#   From: 2010.06.25/outbox.cif.g09.slc.cpg/sg15_52_cif.got.tgz:102787.got - 2010.06.28 07:06:18.
