data_PCOD8149494
_publ_section_title
;
Structure prediction by ZEFSAII (Michael W. Deem and Ramdas Pophale) SiO2 
 PCOD8149494
Probable space group: C 2/C
;
_chemical_formula_sum "Si O2"
_cell_formula_units_Z 36
_cell_length_a 19.913226
_cell_length_b 7.987328
_cell_length_c 9.580124
_cell_angle_alpha 90.000000
_cell_angle_beta 84.268579
_cell_angle_gamma 90.000000
_cell_volume 1516.134635
_symmetry_space_group_name_H-M "C 2/C"
_symmetry_group_IT_number 15
_symmetry_cell_setting 'monoclinic'
loop_
_space_group_symop_operation_xyz
x,y,z
-x,y,1/2-z
-x,-y,-z
x,-y,1/2+z
1/2+x,1/2+y,z
1/2-x,1/2+y,1/2-z
1/2-x,1/2-y,-z
1/2+x,1/2-y,1/2+z
loop_
_atom_site_type_symbol
_atom_site_label
_atom_site_fract_x
_atom_site_fract_y
_atom_site_fract_z
Si Si1 0.358352 0.974833 0.288098
Si Si2 0.500000 0.115349 0.250000
Si Si3 0.360971 0.598704 0.318947
Si Si4 0.223025 0.421341 0.940580
Si Si5 0.057981 0.891476 0.422413
O O1 0.349452 0.778931 0.247385
O O2 0.310792 0.027653 0.428232
O O3 0.436723 0.002688 0.310254
O O4 0.334673 0.094761 0.166342
O O5 0.523147 0.222234 0.378376
O O6 0.290057 0.497664 0.355080
O O7 0.409942 0.483722 0.218485
O O8 0.387843 0.643372 0.468504
O O9 0.250000 0.250000 0.000000
O O10 0.000000 0.000000 0.500000
#
# Coordination Sequence:
#
# PCOD8149494 Si02
#       5
#     8   4   8   8   8
#     4  11  26  44  75 105 139 185 233 295 344 416
#     4  12  26  42  72 104 144 178 244 284 352 418
#     4  11  25  47  72 100 141 185 236 287 352 417
#     4  10  23  47  69 103 140 175 232 289 349 407
#     4  12  25  46  68 103 143 187 229 288 354 415
#
# _framework density 23.744592999999998
#
# number of rings (size 3 to 8) (size 9 to 14) (size 15 to 20)
#    0.000    0.889    2.222    4.000    6.222    3.556 
#    0.000    6.667    0.000    0.000    0.000    0.000 
#    0.000    0.000    0.000    0.000    0.000    0.000 
#
# Total GULP energy -223159.108467 kJ/mol
# GULP energy per Si atom -12397.728248 kJ/mol
# Density = 2.369055 g / cm^3
# Si number density = 23.744593 Si / 1000 Ang^3
#
#
#
# Elastic Constant Matrix: (Units=GPa)
#
#
# Indices 1 2 3 4 5 6 
#
# 1 172.7693 32.9164 64.7731 0.0000 -13.7142 0.0000
# 2 32.9164 62.0959 30.6904 0.0000 -6.7894 0.0000
# 3 64.7731 30.6904 147.0245 0.0000 -1.9773 0.0000
# 4 0.0000 0.0000 0.0000 30.4253 0.0000 4.1481
# 5 -13.7142 -6.7894 -1.9773 0.0000 60.1791 0.0000
# 6 0.0000 0.0000 0.0000 4.1481 0.0000 31.4410
#
#
#
# Elastic Compliance Matrix: (Units=1/GPa)
#
#
# Indices 1 2 3 4 5 6 
#
# 1 0.007376 -0.002418 -0.002727 0.000000 0.001318 0.000000
# 2 -0.002418 0.018970 -0.002875 0.000000 0.001495 0.000000
# 3 -0.002727 -0.002875 0.008594 0.000000 -0.000663 0.000000
# 4 0.000000 0.000000 0.000000 0.033469 0.000000 -0.004416
# 5 0.001318 0.001495 -0.000663 0.000000 0.017064 0.000000
# 6 0.000000 0.000000 0.000000 -0.004416 0.000000 0.032388
#
#
# Mechanical properties :
#
#
# Convention : Reuss Voigt Hill
#
# Bulk Modulus (GPa) = 52.90724 70.96106 61.93415
# Shear Modulus (GPa) = 35.66309 41.30973 38.48641
#
# Velocity S-wave (km/s) = 3.87970 4.17556 4.03035
# Velocity P-wave (km/s) = 6.51150 7.29363 6.91363
#
# Compressibility (1/GPa) = 0.01890101
#
# Stress axis : x y z
#
# Youngs Moduli (GPa) = 135.57904 52.71498 116.35853
#
# Poissons Ratio (x) = 0.12746 0.31731
# Poissons Ratio (y) = 0.32781 0.33448
# Poissons Ratio (z) = 0.36973 0.15153
#
# Static dielectric constant tensor:
#      x y z
#    x 5.133490 0.000000 -0.206420 
#    y 0.000000 3.862640 0.000000 
#    z -0.206420 0.000000 4.578680 
# 
# 
# High freq. dielectric constant tensor:
#      x y z
#    x 1.975010 0.000000 -0.008180 
#    y 0.000000 1.911690 0.000000 
#    z -0.008180 0.000000 1.949920 
# 
# From -- ./inp_files/53614.got.cif
#   From: 2010.06.25/outbox.cif.g09.slc.cpg/sg15_27_cif.got.tgz:53614.got - 2010.06.28 07:06:18.
