data_PCOD8149255
_publ_section_title
;
Structure prediction by ZEFSAII (Michael W. Deem and Ramdas Pophale) SiO2 
 PCOD8149255
Probable space group: C 2/C
;
_chemical_formula_sum "Si O2"
_cell_formula_units_Z 56
_cell_length_a 11.988926
_cell_length_b 26.034570
_cell_length_c 8.800873
_cell_angle_alpha 90.000000
_cell_angle_beta 109.483042
_cell_angle_gamma 90.000000
_cell_volume 2589.694241
_symmetry_space_group_name_H-M "C 2/C"
_symmetry_group_IT_number 15
_symmetry_cell_setting 'monoclinic'
loop_
_space_group_symop_operation_xyz
x,y,z
-x,y,1/2-z
-x,-y,-z
x,-y,1/2+z
1/2+x,1/2+y,z
1/2-x,1/2+y,1/2-z
1/2-x,1/2-y,-z
1/2+x,1/2-y,1/2+z
loop_
_atom_site_type_symbol
_atom_site_label
_atom_site_fract_x
_atom_site_fract_y
_atom_site_fract_z
Si Si1 0.603806 0.060964 0.006341
Si Si2 0.429095 0.335181 0.585016
Si Si3 0.699063 0.830901 0.652884
Si Si4 0.992866 0.274584 0.421177
Si Si5 0.845959 0.540640 0.816701
Si Si6 0.272215 0.809270 0.491161
Si Si7 0.373990 0.612218 0.753362
O O1 0.460730 0.064435 0.954755
O O2 0.641624 0.044638 0.856469
O O3 0.658986 0.114982 0.070010
O O4 0.659909 0.019565 0.146654
O O5 0.500000 0.366172 0.750000
O O6 0.314902 0.311606 0.616877
O O7 0.514474 0.287797 0.568664
O O8 0.392035 0.374209 0.437768
O O9 0.606457 0.786919 0.573268
O O10 0.713035 0.836439 0.839921
O O11 0.000000 0.292469 0.250000
O O12 0.889015 0.310056 0.441024
O O13 0.726515 0.569182 0.816399
O O14 0.250000 0.750000 0.500000
O O15 0.164619 0.836711 0.354664
O O16 0.500000 0.591576 0.750000
#
# Coordination Sequence:
#
# PCOD8149255 Si02
#       7
#     8   8   8   8   8   8   8
#     4  10  23  44  73 100 135 166 225 283 353 406
#     4  11  23  43  63  92 133 181 224 275 335 400
#     4  12  23  40  67  98 128 176 228 280 338 410
#     4  11  23  39  63  96 133 175 224 280 334 399
#     4  10  23  45  69 102 133 174 217 289 349 409
#     4  12  25  41  62  96 137 180 227 278 335 399
#     4  12  24  43  68  96 137 183 228 280 342 408
#
# _framework density 21.624175000000001
#
# number of rings (size 3 to 8) (size 9 to 14) (size 15 to 20)
#    0.000    0.857    1.429    6.857    4.000    0.000 
#    2.571    1.429    0.000    0.000    0.000    0.000 
#    0.000    0.000    0.000    0.000    0.000    0.000 
#
# Total GULP energy -347190.367096 kJ/mol
# GULP energy per Si atom -12399.655968 kJ/mol
# Density = 2.157496 g / cm^3
# Si number density = 21.624175 Si / 1000 Ang^3
#
#
#
# Elastic Constant Matrix: (Units=GPa)
#
#
# Indices 1 2 3 4 5 6 
#
# 1 127.5317 17.9407 29.8218 0.0000 2.8762 0.0000
# 2 17.9407 82.7739 36.0833 0.0000 8.4328 0.0000
# 3 29.8218 36.0833 139.9539 0.0000 3.3716 0.0000
# 4 0.0000 0.0000 0.0000 39.1066 0.0000 3.3682
# 5 2.8762 8.4328 3.3716 0.0000 37.5781 0.0000
# 6 0.0000 0.0000 0.0000 3.3682 0.0000 34.9260
#
#
#
# Elastic Compliance Matrix: (Units=1/GPa)
#
#
# Indices 1 2 3 4 5 6 
#
# 1 0.008353 -0.001140 -0.001480 0.000000 -0.000251 0.000000
# 2 -0.001140 0.014055 -0.003314 0.000000 -0.002769 0.000000
# 3 -0.001480 -0.003314 0.008312 0.000000 0.000111 0.000000
# 4 0.000000 0.000000 0.000000 0.025785 0.000000 -0.002487
# 5 -0.000251 -0.002769 0.000111 0.000000 0.027242 0.000000
# 6 0.000000 0.000000 0.000000 -0.002487 0.000000 0.028872
#
#
# Mechanical properties :
#
#
# Convention : Reuss Voigt Hill
#
# Bulk Modulus (GPa) = 53.04260 57.55011 55.29636
# Shear Modulus (GPa) = 38.23455 40.08305 39.15880
#
# Velocity S-wave (km/s) = 4.20949 4.31004 4.26006
# Velocity P-wave (km/s) = 6.94327 7.17218 7.05865
#
# Compressibility (1/GPa) = 0.01885277
#
# Stress axis : x y z
#
# Youngs Moduli (GPa) = 119.71349 71.14913 120.30283
#
# Poissons Ratio (x) = 0.08109 0.17805
# Poissons Ratio (y) = 0.13645 0.39870
# Poissons Ratio (z) = 0.17718 0.23580
#
# Static dielectric constant tensor:
#      x y z
#    x 1.359800 0.000000 1.670850 
#    y 0.000000 3.481420 0.000000 
#    z 1.670850 0.000000 3.214310 
# 
# 
# High freq. dielectric constant tensor:
#      x y z
#    x 1.859640 0.000000 0.001770 
#    y 0.000000 1.826380 0.000000 
#    z 0.001770 0.000000 1.866880 
# 
# From -- ./inp_files/34338.got.cif
#   From: 2010.06.25/outbox.cif.g09.slc.cpg/sg15_18_cif.got.tgz:34338.got - 2010.06.28 07:06:18.
