data_PCOD8149368
_publ_section_title
;
Structure prediction by ZEFSAII (Michael W. Deem and Ramdas Pophale) SiO2 
 PCOD8149368
Probable space group: C 2/C
;
_chemical_formula_sum "Si O2"
_cell_formula_units_Z 56
_cell_length_a 11.809035
_cell_length_b 8.365438
_cell_length_c 27.310067
_cell_angle_alpha 90.000000
_cell_angle_beta 108.894991
_cell_angle_gamma 90.000000
_cell_volume 2552.520150
_symmetry_space_group_name_H-M "C 2/C"
_symmetry_group_IT_number 15
_symmetry_cell_setting 'monoclinic'
loop_
_space_group_symop_operation_xyz
x,y,z
-x,y,1/2-z
-x,-y,-z
x,-y,1/2+z
1/2+x,1/2+y,z
1/2-x,1/2+y,1/2-z
1/2-x,1/2-y,-z
1/2+x,1/2-y,1/2+z
loop_
_atom_site_type_symbol
_atom_site_label
_atom_site_fract_x
_atom_site_fract_y
_atom_site_fract_z
Si Si1 0.735540 0.196605 0.706683
Si Si2 0.453931 0.342527 0.393669
Si Si3 0.771823 0.443466 0.190609
Si Si4 0.469032 0.756466 0.163903
Si Si5 0.451807 0.403559 0.192134
Si Si6 0.373428 0.380703 0.554346
Si Si7 0.400424 0.868072 0.974280
O O1 0.787440 0.372862 0.705614
O O2 0.770382 0.150413 0.766950
O O3 0.598145 0.164151 0.674445
O O4 0.807751 0.087160 0.677760
O O5 0.327139 0.427700 0.365783
O O6 0.512180 0.293466 0.349305
O O7 0.543828 0.463436 0.433427
O O8 0.430554 0.187279 0.423270
O O9 0.896616 0.368668 0.190463
O O10 0.499371 0.583125 0.190958
O O11 0.399884 0.738333 0.103182
O O12 0.500000 0.330725 0.250000
O O13 0.406723 0.287256 0.509741
O O14 0.234469 0.436927 0.538606
O O15 0.500000 0.000000 0.000000
#
# Coordination Sequence:
#
# PCOD8149368 Si02
#       7
#     8   8   8   8   8   8   8
#     4  12  24  42  64  96 137 180 224 269 323 394
#     4  11  23  46  68  96 140 177 213 275 338 394
#     4  12  23  42  67  95 138 181 219 271 326 390
#     4  11  23  43  67  97 133 177 221 271 333 392
#     4  11  22  43  65  94 139 176 217 273 327 388
#     4  10  23  45  71  97 132 172 216 278 344 394
#     4  11  25  46  72 100 128 167 229 287 336 403
#
# _framework density 21.939102999999999
#
# number of rings (size 3 to 8) (size 9 to 14) (size 15 to 20)
#    0.000    0.857    5.714    2.571    0.000    5.143 
#    5.143    0.000    0.000    0.000    0.000    0.000 
#    0.000    0.000    0.000    0.000    0.000    0.000 
#
# Total GULP energy -347198.479148 kJ/mol
# GULP energy per Si atom -12399.945684 kJ/mol
# Density = 2.188917 g / cm^3
# Si number density = 21.939103 Si / 1000 Ang^3
#
#
#
# Elastic Constant Matrix: (Units=GPa)
#
#
# Indices 1 2 3 4 5 6 
#
# 1 150.4186 27.8971 38.1748 0.0000 -5.4282 0.0000
# 2 27.8971 36.4384 17.7780 0.0000 8.0564 0.0000
# 3 38.1748 17.7780 96.9102 0.0000 -0.0048 0.0000
# 4 0.0000 0.0000 0.0000 21.5544 0.0000 6.6243
# 5 -5.4282 8.0564 -0.0048 0.0000 42.0440 0.0000
# 6 0.0000 0.0000 0.0000 6.6243 0.0000 36.1707
#
#
#
# Elastic Compliance Matrix: (Units=1/GPa)
#
#
# Indices 1 2 3 4 5 6 
#
# 1 0.008370 -0.005804 -0.002232 0.000000 0.002192 0.000000
# 2 -0.005804 0.035637 -0.004252 0.000000 -0.007578 0.000000
# 3 -0.002232 -0.004252 0.011978 0.000000 0.000528 0.000000
# 4 0.000000 0.000000 0.000000 0.049161 0.000000 -0.009003
# 5 0.002192 -0.007578 0.000528 0.000000 0.025520 0.000000
# 6 0.000000 0.000000 0.000000 -0.009003 0.000000 0.029296
#
#
# Mechanical properties :
#
#
# Convention : Reuss Voigt Hill
#
# Bulk Modulus (GPa) = 31.83742 50.16300 41.00021
# Shear Modulus (GPa) = 25.64006 33.28164 29.46085
#
# Velocity S-wave (km/s) = 3.42232 3.89910 3.66846
# Velocity P-wave (km/s) = 5.49178 6.57152 6.05576
#
# Compressibility (1/GPa) = 0.03140958
#
# Stress axis : x y z
#
# Youngs Moduli (GPa) = 119.47189 28.06087 83.48503
#
# Poissons Ratio (x) = 0.16286 0.18637
# Poissons Ratio (y) = 0.69338 0.35495
# Poissons Ratio (z) = 0.26671 0.11931
#
# Static dielectric constant tensor:
#      x y z
#    x 4.281650 0.000000 -0.139410 
#    y 0.000000 3.586910 0.000000 
#    z -0.139410 0.000000 4.164150 
# 
# 
# High freq. dielectric constant tensor:
#      x y z
#    x 1.890570 0.000000 -0.000860 
#    y 0.000000 1.835880 0.000000 
#    z -0.000860 0.000000 1.865610 
# 
# From -- ./inp_files/291611.got.cif
#   From: 2010.06.25/outbox.cif.g09.slc.cpg/sg15_146_cif.got.tgz:291611.got - 2010.06.28 07:06:18.
