data_PCOD8149425
_publ_section_title
;
Structure prediction by ZEFSAII (Michael W. Deem and Ramdas Pophale) SiO2 
 PCOD8149425
Probable space group: C 2/C
;
_chemical_formula_sum "Si O2"
_cell_formula_units_Z 56
_cell_length_a 11.043418
_cell_length_b 8.813099
_cell_length_c 28.827089
_cell_angle_alpha 90.000000
_cell_angle_beta 112.951502
_cell_angle_gamma 90.000000
_cell_volume 2583.538204
_symmetry_space_group_name_H-M "C 2/C"
_symmetry_group_IT_number 15
_symmetry_cell_setting 'monoclinic'
loop_
_space_group_symop_operation_xyz
x,y,z
-x,y,1/2-z
-x,-y,-z
x,-y,1/2+z
1/2+x,1/2+y,z
1/2-x,1/2+y,1/2-z
1/2-x,1/2-y,-z
1/2+x,1/2-y,1/2+z
loop_
_atom_site_type_symbol
_atom_site_label
_atom_site_fract_x
_atom_site_fract_y
_atom_site_fract_z
Si Si1 0.574811 0.155948 0.523605
Si Si2 0.363010 0.702441 0.051341
Si Si3 0.462545 0.625656 0.565491
Si Si4 0.262199 0.906663 0.114234
Si Si5 0.848790 0.584613 0.729583
Si Si6 0.849645 0.769341 0.226405
Si Si7 0.812903 0.247706 0.615904
O O1 0.500296 0.237561 0.553970
O O2 0.590835 0.257198 0.480470
O O3 0.717410 0.145564 0.568808
O O4 0.500000 0.000000 0.500000
O O5 0.370965 0.522323 0.052324
O O6 0.338008 0.773558 0.098350
O O7 0.250000 0.750000 0.000000
O O8 0.611874 0.591030 0.576165
O O9 0.454625 0.699590 0.615968
O O10 0.279969 0.874076 0.171055
O O11 0.312034 0.072333 0.107980
O O12 0.854511 0.406412 0.740425
O O13 0.756618 0.653160 0.755916
O O14 0.000000 0.647552 0.750000
O O15 0.794500 0.796226 0.166491
O O16 0.000000 0.835226 0.250000
#
# Coordination Sequence:
#
# PCOD8149425 Si02
#       7
#     8   8   8   8   8   8   8
#     4  12  24  42  64  95 133 172 216 267 326 389
#     4  12  23  40  65  94 131 172 215 265 318 383
#     4  12  24  43  64  94 132 170 220 265 319 393
#     4  11  24  43  65  95 131 174 216 270 330 388
#     4  10  24  42  68  98 132 169 220 278 330 395
#     4  10  23  46  67  98 133 170 219 275 333 391
#     4  11  24  42  67  94 132 173 216 266 326 393
#
# _framework density 21.675699000000002
#
# number of rings (size 3 to 8) (size 9 to 14) (size 15 to 20)
#    0.000    0.857    2.857    4.286    2.000    1.714 
#    2.571    0.000    0.000    0.000    0.000    0.000 
#    0.000    0.000    0.000    0.000    0.000    0.000 
#
# Total GULP energy -347051.006488 kJ/mol
# GULP energy per Si atom -12394.678803 kJ/mol
# Density = 2.162636 g / cm^3
# Si number density = 21.675699 Si / 1000 Ang^3
#
#
#
# Elastic Constant Matrix: (Units=GPa)
#
#
# Indices 1 2 3 4 5 6 
#
# 1 126.6538 55.1736 45.5642 0.0000 -26.5444 0.0000
# 2 55.1736 123.6608 59.2099 0.0000 -20.4498 0.0000
# 3 45.5642 59.2099 112.4017 0.0000 -14.8892 0.0000
# 4 0.0000 0.0000 0.0000 31.4341 0.0000 -9.7366
# 5 -26.5444 -20.4498 -14.8892 0.0000 44.3858 0.0000
# 6 0.0000 0.0000 0.0000 -9.7366 0.0000 42.3951
#
#
#
# Elastic Compliance Matrix: (Units=1/GPa)
#
#
# Indices 1 2 3 4 5 6 
#
# 1 0.010967 -0.003100 -0.002233 0.000000 0.004382 0.000000
# 2 -0.003100 0.012147 -0.004862 0.000000 0.002112 0.000000
# 3 -0.002233 -0.004862 0.012442 0.000000 0.000598 0.000000
# 4 0.000000 0.000000 0.000000 0.034249 0.000000 0.007866
# 5 0.004382 0.002112 0.000598 0.000000 0.026324 0.000000
# 6 0.000000 0.000000 0.000000 0.007866 0.000000 0.025394
#
#
# Mechanical properties :
#
#
# Convention : Reuss Voigt Hill
#
# Bulk Modulus (GPa) = 65.93132 75.84575 70.88854
# Shear Modulus (GPa) = 34.02081 37.16089 35.59085
#
# Velocity S-wave (km/s) = 3.96604 4.14503 4.05652
# Velocity P-wave (km/s) = 7.17327 7.61416 7.39700
#
# Compressibility (1/GPa) = 0.01516730
#
# Stress axis : x y z
#
# Youngs Moduli (GPa) = 91.17934 82.32480 80.37078
#
# Poissons Ratio (x) = 0.25518 0.17943
# Poissons Ratio (y) = 0.28263 0.39080
# Poissons Ratio (z) = 0.20356 0.40030
#
# Static dielectric constant tensor:
#      x y z
#    x 2.458000 0.000000 0.289440 
#    y 0.000000 3.986890 0.000000 
#    z 0.289440 0.000000 3.895760 
# 
# 
# High freq. dielectric constant tensor:
#      x y z
#    x 1.875310 0.000000 -0.011030 
#    y 0.000000 1.849920 0.000000 
#    z -0.011030 0.000000 1.852310 
# 
# From -- ./inp_files/291632.got.cif
#   From: 2010.06.25/outbox.cif.g09.slc.cpg/sg15_146_cif.got.tgz:291632.got - 2010.06.28 07:06:18.
