data_PCOD8149731
_publ_section_title
;
Structure prediction by ZEFSAII (Michael W. Deem and Ramdas Pophale) SiO2 
 PCOD8149731
Probable space group: C 2/C
;
_chemical_formula_sum "Si O2"
_cell_formula_units_Z 48
_cell_length_a 11.796091
_cell_length_b 21.012200
_cell_length_c 12.997882
_cell_angle_alpha 90.000000
_cell_angle_beta 41.143978
_cell_angle_gamma 90.000000
_cell_volume 2119.714662
_symmetry_space_group_name_H-M "C 2/C"
_symmetry_group_IT_number 15
_symmetry_cell_setting 'monoclinic'
loop_
_space_group_symop_operation_xyz
x,y,z
-x,y,1/2-z
-x,-y,-z
x,-y,1/2+z
1/2+x,1/2+y,z
1/2-x,1/2+y,1/2-z
1/2-x,1/2-y,-z
1/2+x,1/2-y,1/2+z
loop_
_atom_site_type_symbol
_atom_site_label
_atom_site_fract_x
_atom_site_fract_y
_atom_site_fract_z
Si Si1 0.651995 0.575851 0.433523
Si Si2 0.697897 0.161398 0.462760
Si Si3 0.500000 0.130593 0.250000
Si Si4 0.500000 0.748887 0.250000
Si Si5 0.081583 0.946498 0.588964
Si Si6 0.952007 0.813268 0.169269
Si Si7 0.074987 0.689518 0.993620
O O1 0.655014 0.503634 0.471573
O O2 0.571485 0.584890 0.374331
O O3 0.538963 0.618760 0.587949
O O4 0.853677 0.591267 0.291230
O O5 0.572970 0.207902 0.610775
O O6 0.854021 0.201288 0.307089
O O7 0.766071 0.103519 0.487264
O O8 0.572475 0.142910 0.453847
O O9 0.603702 0.170530 0.093154
O O10 0.000000 0.972384 0.750000
O O11 0.745035 0.819080 0.308340
O O12 0.000000 0.788694 0.250000
O O13 0.014041 0.763449 0.039508
#
# Coordination Sequence:
#
# PCOD8149731 Si02
#       7
#     8   8   4   4   8   8   8
#     4  11  27  46  73  97 140 185 240 287 345 420
#     4  11  24  43  67 102 140 179 224 288 347 423
#     4  12  24  45  64 107 132 180 230 290 344 416
#     4  10  24  41  64 103 138 172 222 282 360 408
#     4  11  25  49  71  99 136 190 233 288 353 412
#     4  12  23  45  67 107 144 188 231 290 354 422
#     4  12  25  39  71 105 143 176 233 289 357 415
#
# _framework density 22.644556000000001
#
# number of rings (size 3 to 8) (size 9 to 14) (size 15 to 20)
#    0.000    0.667    3.333    4.000    7.000    0.667 
#    3.000    1.667    0.000    0.000    0.000    0.000 
#    0.000    0.000    0.000    0.000    0.000    0.000 
#
# Total GULP energy -297530.588193 kJ/mol
# GULP energy per Si atom -12397.107841 kJ/mol
# Density = 2.259302 g / cm^3
# Si number density = 22.644556 Si / 1000 Ang^3
#
#
#
# Elastic Constant Matrix: (Units=GPa)
#
#
# Indices 1 2 3 4 5 6 
#
# 1 143.5243 43.0583 31.5995 -0.0003 -18.3955 0.0001
# 2 43.0583 101.7056 28.3498 -0.0001 -12.3567 0.0000
# 3 31.5995 28.3498 106.3608 -0.0011 -20.4279 0.0003
# 4 -0.0003 -0.0001 -0.0011 14.2749 0.0008 6.2032
# 5 -18.3955 -12.3567 -20.4279 0.0008 41.9868 -0.0002
# 6 0.0001 0.0000 0.0003 6.2032 -0.0002 28.9590
#
#
#
# Elastic Compliance Matrix: (Units=1/GPa)
#
#
# Indices 1 2 3 4 5 6 
#
# 1 0.008414 -0.002935 -0.001297 0.000000 0.002192 0.000000
# 2 -0.002935 0.011788 -0.002042 0.000000 0.001190 0.000000
# 3 -0.001297 -0.002042 0.011149 0.000001 0.004255 0.000000
# 4 0.000000 0.000000 0.000001 0.077243 -0.000001 -0.016546
# 5 0.002192 0.001190 0.004255 -0.000001 0.027198 0.000000
# 6 0.000000 0.000000 0.000000 -0.016546 0.000000 0.038076
#
#
# Mechanical properties :
#
#
# Convention : Reuss Voigt Hill
#
# Bulk Modulus (GPa) = 53.17570 61.95620 57.56595
# Shear Modulus (GPa) = 25.94942 33.61635 29.78289
#
# Velocity S-wave (km/s) = 3.38885 3.85713 3.63055
# Velocity P-wave (km/s) = 6.23267 6.87432 6.56135
#
# Compressibility (1/GPa) = 0.01880558
#
# Stress axis : x y z
#
# Youngs Moduli (GPa) = 118.84562 84.82929 89.69684
#
# Poissons Ratio (x) = 0.24893 0.11631
# Poissons Ratio (y) = 0.34876 0.18313
# Poissons Ratio (z) = 0.15410 0.17319
#
# Static dielectric constant tensor:
#      x y z
#    x 4.306540 0.000000 -0.116020 
#    y 0.000000 3.848820 0.000000 
#    z -0.116020 0.000000 4.024840 
# 
# 
# High freq. dielectric constant tensor:
#      x y z
#    x 1.911550 0.000000 -0.004710 
#    y 0.000000 1.873720 0.000000 
#    z -0.004710 0.000000 1.898530 
# 
# From -- ./inp_files/147402.got.cif
#   From: 2010.06.25/outbox.cif.g09.slc.cpg/sg15_74_cif.got.tgz:147402.got - 2010.06.28 07:06:18.
