data_PCOD8149025
_publ_section_title
;
Structure prediction by ZEFSAII (Michael W. Deem and Ramdas Pophale) SiO2 
 PCOD8149025
Probable space group: C 2/C
;
_chemical_formula_sum "Si O2"
_cell_formula_units_Z 40
_cell_length_a 8.866550
_cell_length_b 23.885241
_cell_length_c 8.519173
_cell_angle_alpha 90.000000
_cell_angle_beta 81.772022
_cell_angle_gamma 90.000000
_cell_volume 1785.616294
_symmetry_space_group_name_H-M "C 2/C"
_symmetry_group_IT_number 15
_symmetry_cell_setting 'monoclinic'
loop_
_space_group_symop_operation_xyz
x,y,z
-x,y,1/2-z
-x,-y,-z
x,-y,1/2+z
1/2+x,1/2+y,z
1/2-x,1/2+y,1/2-z
1/2-x,1/2-y,-z
1/2+x,1/2-y,1/2+z
loop_
_atom_site_type_symbol
_atom_site_label
_atom_site_fract_x
_atom_site_fract_y
_atom_site_fract_z
Si Si1 0.351864 0.540614 0.877362
Si Si2 0.820384 0.669232 0.098598
Si Si3 0.657429 0.572731 0.273141
Si Si4 0.159467 0.204490 0.808808
Si Si5 0.103890 0.365168 0.376915
O O1 0.500000 0.557143 0.750000
O O2 0.292710 0.478217 0.847664
O O3 0.212839 0.582581 0.880650
O O4 0.383602 0.543597 0.056395
O O5 0.773153 0.624431 0.240223
O O6 0.834431 0.729503 0.173265
O O7 0.700582 0.672267 0.968181
O O8 0.991473 0.649690 0.034927
O O9 0.500000 0.601426 0.250000
O O10 0.294908 0.190018 0.668814
O O11 0.000000 0.185321 0.750000
O O12 0.000000 0.382999 0.250000
#
# Coordination Sequence:
#
# PCOD8149025 Si02
#       5
#     8   8   8   8   8
#     4  11  25  46  72 102 134 188 226 278 347 411
#     4  10  25  45  65 109 138 179 232 292 342 400
#     4  11  26  43  74 101 140 177 233 284 334 420
#     4  10  23  43  72  95 144 187 233 276 347 415
#     4  10  24  42  68  98 141 177 229 288 341 408
#
# _framework density 22.401230000000002
#
# number of rings (size 3 to 8) (size 9 to 14) (size 15 to 20)
#    0.000    1.600    0.000    3.000   16.800    5.600 
#    0.000    0.000    0.000    0.000    0.000    0.000 
#    0.000    0.000    0.000    0.000    0.000    0.000 
#
# Total GULP energy -247766.159347 kJ/mol
# GULP energy per Si atom -12388.307967 kJ/mol
# Density = 2.235024 g / cm^3
# Si number density = 22.401230 Si / 1000 Ang^3
#
#
#
# Elastic Constant Matrix: (Units=GPa)
#
#
# Indices 1 2 3 4 5 6 
#
# 1 86.0346 25.2838 23.2191 0.0000 -1.4708 0.0000
# 2 25.2838 111.9684 30.3004 0.0000 -23.5026 0.0000
# 3 23.2191 30.3004 94.3119 0.0000 -17.6415 0.0000
# 4 0.0000 0.0000 0.0000 35.1984 0.0000 -8.2234
# 5 -1.4708 -23.5026 -17.6415 0.0000 38.4421 0.0000
# 6 0.0000 0.0000 0.0000 -8.2234 0.0000 40.4756
#
#
#
# Elastic Compliance Matrix: (Units=1/GPa)
#
#
# Indices 1 2 3 4 5 6 
#
# 1 0.013142 -0.002719 -0.002821 0.000000 -0.002454 0.000000
# 2 -0.002719 0.011294 -0.001845 0.000000 0.005954 0.000000
# 3 -0.002821 -0.001845 0.012754 0.000000 0.004617 0.000000
# 4 0.000000 0.000000 0.000000 0.029826 0.000000 0.006060
# 5 -0.002454 0.005954 0.004617 0.000000 0.031678 0.000000
# 6 0.000000 0.000000 0.000000 0.006060 0.000000 0.025937
#
#
# Mechanical properties :
#
#
# Convention : Reuss Voigt Hill
#
# Bulk Modulus (GPa) = 44.60500 49.99128 47.29814
# Shear Modulus (GPa) = 34.04234 37.05734 35.54984
#
# Velocity S-wave (km/s) = 3.90252 4.07167 3.98799
# Velocity P-wave (km/s) = 6.34518 6.66854 6.50886
#
# Compressibility (1/GPa) = 0.02241901
#
# Stress axis : x y z
#
# Youngs Moduli (GPa) = 76.09347 88.53985 78.40635
#
# Poissons Ratio (x) = 0.24077 0.22117
# Poissons Ratio (y) = 0.20693 0.14469
# Poissons Ratio (z) = 0.21465 0.16339
#
# Static dielectric constant tensor:
#      x y z
#    x 5.451330 0.000000 1.110580 
#    y 0.000000 3.874260 0.000000 
#    z 1.110580 0.000000 5.298760 
# 
# 
# High freq. dielectric constant tensor:
#      x y z
#    x 1.892630 0.000000 0.004080 
#    y 0.000000 1.888390 0.000000 
#    z 0.004080 0.000000 1.882560 
# 
# From -- ./inp_files/23441.got.cif
#   From: 2010.06.25/outbox.cif.g09.slc.cpg/sg15_12_cif.got.tgz:23441.got - 2010.06.28 07:06:18.
