data_PCOD8149817
_publ_section_title
;
Structure prediction by ZEFSAII (Michael W. Deem and Ramdas Pophale) SiO2 
 PCOD8149817
Probable space group: C 2/C
;
_chemical_formula_sum "Si O2"
_cell_formula_units_Z 36
_cell_length_a 10.026342
_cell_length_b 34.092790
_cell_length_c 5.175926
_cell_angle_alpha 90.000000
_cell_angle_beta 110.881979
_cell_angle_gamma 90.000000
_cell_volume 1653.054591
_symmetry_space_group_name_H-M "C 2/C"
_symmetry_group_IT_number 15
_symmetry_cell_setting 'monoclinic'
loop_
_space_group_symop_operation_xyz
x,y,z
-x,y,1/2-z
-x,-y,-z
x,-y,1/2+z
1/2+x,1/2+y,z
1/2-x,1/2+y,1/2-z
1/2-x,1/2-y,-z
1/2+x,1/2-y,1/2+z
loop_
_atom_site_type_symbol
_atom_site_label
_atom_site_fract_x
_atom_site_fract_y
_atom_site_fract_z
Si Si1 0.000000 0.843820 0.250000
Si Si2 0.663856 0.975347 0.368065
Si Si3 0.151494 0.663749 0.952740
Si Si4 0.147339 0.901313 0.983634
Si Si5 0.745995 0.203714 0.495287
O O1 0.889268 0.872887 0.307836
O O2 0.899739 0.814767 0.010475
O O3 0.500000 0.960922 0.250000
O O4 0.769605 0.940022 0.371976
O O5 0.695464 0.991599 0.675703
O O6 0.216162 0.689835 0.766244
O O7 0.000000 0.647679 0.750000
O O8 0.245609 0.625952 0.109185
O O9 0.132831 0.690170 0.197747
O O10 0.000000 0.914166 0.750000
O O11 0.750000 0.250000 0.500000
#
# Coordination Sequence:
#
# PCOD8149817 Si02
#       5
#     4   8   8   8   8
#     4  10  24  42  64  96 134 174 224 266 336 386
#     4  10  24  44  68  99 131 169 216 267 321 381
#     4  11  24  42  65  94 122 169 222 263 325 394
#     4  11  23  43  66  93 137 170 217 267 326 392
#     4  11  24  42  64  91 128 168 217 277 328 383
#
# _framework density 21.777866
#
# number of rings (size 3 to 8) (size 9 to 14) (size 15 to 20)
#    0.000    1.333    2.222    2.000    6.222    0.889 
#    0.000    4.444    0.000    0.000    0.000    0.000 
#    0.000    0.000    0.000    0.000    0.000    0.000 
#
# Total GULP energy -223046.425987 kJ/mol
# GULP energy per Si atom -12391.468110 kJ/mol
# Density = 2.172830 g / cm^3
# Si number density = 21.777866 Si / 1000 Ang^3
#
#
#
# Elastic Constant Matrix: (Units=GPa)
#
#
# Indices 1 2 3 4 5 6 
#
# 1 94.4690 65.6613 28.1852 0.0000 19.5837 0.0000
# 2 65.6613 140.8329 41.0025 0.0000 21.7337 0.0000
# 3 28.1852 41.0025 106.1814 0.0000 6.4129 0.0000
# 4 0.0000 0.0000 0.0000 26.7660 0.0000 3.5973
# 5 19.5837 21.7337 6.4129 0.0000 38.6993 0.0000
# 6 0.0000 0.0000 0.0000 3.5973 0.0000 32.9943
#
#
#
# Elastic Compliance Matrix: (Units=1/GPa)
#
#
# Indices 1 2 3 4 5 6 
#
# 1 0.016540 -0.006567 -0.001588 0.000000 -0.004419 0.000000
# 2 -0.006567 0.011279 -0.002455 0.000000 -0.002604 0.000000
# 3 -0.001588 -0.002455 0.010763 0.000000 0.000398 0.000000
# 4 0.000000 0.000000 0.000000 0.037916 0.000000 -0.004134
# 5 -0.004419 -0.002604 0.000398 0.000000 0.029473 0.000000
# 6 0.000000 0.000000 0.000000 -0.004134 0.000000 0.030759
#
#
# Mechanical properties :
#
#
# Convention : Reuss Voigt Hill
#
# Bulk Modulus (GPa) = 57.59543 67.90905 62.75224
# Shear Modulus (GPa) = 30.53667 33.46753 32.00210
#
# Velocity S-wave (km/s) = 3.74864 3.92442 3.83754
# Velocity P-wave (km/s) = 6.72611 7.19618 6.96511
#
# Compressibility (1/GPa) = 0.01736249
#
# Stress axis : x y z
#
# Youngs Moduli (GPa) = 60.46017 88.65879 92.90946
#
# Poissons Ratio (x) = 0.58226 0.14749
# Poissons Ratio (y) = 0.39706 0.22809
# Poissons Ratio (z) = 0.09598 0.21765
#
# Static dielectric constant tensor:
#      x y z
#    x 15.216510 0.000000 -7.221150 
#    y 0.000000 3.755200 0.000000 
#    z -7.221150 0.000000 9.100890 
# 
# 
# High freq. dielectric constant tensor:
#      x y z
#    x 1.860310 0.000000 0.013910 
#    y 0.000000 1.853540 0.000000 
#    z 0.013910 0.000000 1.855090 
# 
# From -- ./inp_files/5642.got.cif
#   From: 2010.06.25/outbox.cif.g09.slc.cpg/sg15_3_cif.got.tgz:5642.got - 2010.06.28 07:06:18.
