data_PCOD8149474
_publ_section_title
;
Structure prediction by ZEFSAII (Michael W. Deem and Ramdas Pophale) SiO2 
 PCOD8149474
Probable space group: C 2/C
;
_chemical_formula_sum "Si O2"
_cell_formula_units_Z 44
_cell_length_a 12.230890
_cell_length_b 8.327760
_cell_length_c 20.721286
_cell_angle_alpha 90.000000
_cell_angle_beta 121.507431
_cell_angle_gamma 90.000000
_cell_volume 1799.426993
_symmetry_space_group_name_H-M "C 2/C"
_symmetry_group_IT_number 15
_symmetry_cell_setting 'monoclinic'
loop_
_space_group_symop_operation_xyz
x,y,z
-x,y,1/2-z
-x,-y,-z
x,-y,1/2+z
1/2+x,1/2+y,z
1/2-x,1/2+y,1/2-z
1/2-x,1/2-y,-z
1/2+x,1/2-y,1/2+z
loop_
_atom_site_type_symbol
_atom_site_label
_atom_site_fract_x
_atom_site_fract_y
_atom_site_fract_z
Si Si1 0.567296 0.220291 0.337482
Si Si2 0.000000 0.283183 0.250000
Si Si3 0.018137 0.639628 0.058312
Si Si4 0.341110 0.378943 0.936372
Si Si5 0.482067 0.576886 0.130220
Si Si6 0.728540 0.199465 0.901137
O O1 0.500000 0.171855 0.250000
O O2 0.518520 0.093454 0.378716
O O3 0.719863 0.219993 0.373749
O O4 0.534169 0.397598 0.350404
O O5 0.943943 0.169638 0.289753
O O6 0.874589 0.377382 0.183495
O O7 0.164221 0.696941 0.102509
O O8 0.917675 0.782541 0.013642
O O9 0.000000 0.500000 0.000000
O O10 0.435626 0.423506 0.908299
O O11 0.293472 0.545388 0.955468
O O12 0.348377 0.678389 0.075344
#
# Coordination Sequence:
#
# PCOD8149474 Si02
#       6
#     8   4   8   8   8   8
#     4  12  27  49  78 112 153 201 265 323 383 463
#     4   8  22  44  72 112 148 198 252 328 380 446
#     4  12  28  50  77 115 159 212 256 327 391 472
#     4  12  27  45  77 113 156 202 260 309 396 468
#     4  10  23  46  74 109 152 199 250 325 383 448
#     4  10  23  46  76 109 153 199 261 310 391 458
#
# _framework density 24.452227000000001
#
# number of rings (size 3 to 8) (size 9 to 14) (size 15 to 20)
#    1.091    0.000    2.727    2.182    6.364    0.727 
#    0.000    0.000    0.000    0.000    0.000    0.000 
#    0.000    0.000    0.000    0.000    0.000    0.000 
#
# Total GULP energy -272579.120379 kJ/mol
# GULP energy per Si atom -12389.960017 kJ/mol
# Density = 2.439657 g / cm^3
# Si number density = 24.452227 Si / 1000 Ang^3
#
#
#
# Elastic Constant Matrix: (Units=GPa)
#
#
# Indices 1 2 3 4 5 6 
#
# 1 156.2467 34.1895 63.8794 0.0000 16.3989 0.0000
# 2 34.1895 48.3404 51.5278 0.0000 -4.4674 0.0000
# 3 63.8794 51.5278 128.1388 0.0000 -10.4184 0.0000
# 4 0.0000 0.0000 0.0000 25.4859 0.0000 1.2580
# 5 16.3989 -4.4674 -10.4184 0.0000 38.6836 0.0000
# 6 0.0000 0.0000 0.0000 1.2580 0.0000 8.8834
#
#
#
# Elastic Compliance Matrix: (Units=1/GPa)
#
#
# Indices 1 2 3 4 5 6 
#
# 1 0.009144 -0.002867 -0.003831 0.000000 -0.005239 0.000000
# 2 -0.002867 0.037108 -0.013337 0.000000 0.001909 0.000000
# 3 -0.003831 -0.013337 0.015422 0.000000 0.004237 0.000000
# 4 0.000000 0.000000 0.000000 0.039514 0.000000 -0.005596
# 5 -0.005239 0.001909 0.004237 0.000000 0.029433 0.000000
# 6 0.000000 0.000000 0.000000 -0.005596 0.000000 0.113362
#
#
# Mechanical properties :
#
#
# Convention : Reuss Voigt Hill
#
# Bulk Modulus (GPa) = 46.29329 70.21325 58.25327
# Shear Modulus (GPa) = 17.16709 26.81920 21.99315
#
# Velocity S-wave (km/s) = 2.65253 3.31539 3.00231
# Velocity P-wave (km/s) = 5.32489 6.59034 5.99112
#
# Compressibility (1/GPa) = 0.02160140
#
# Stress axis : x y z
#
# Youngs Moduli (GPa) = 109.36326 26.94855 64.84334
#
# Poissons Ratio (x) = 0.07727 0.24843
# Poissons Ratio (y) = 0.31359 0.86483
# Poissons Ratio (z) = 0.41900 0.35942
#
# Static dielectric constant tensor:
#      x y z
#    x 4.539280 0.000000 0.104660 
#    y 0.000000 4.514700 0.000000 
#    z 0.104660 0.000000 4.585840 
# 
# 
# High freq. dielectric constant tensor:
#      x y z
#    x 1.978200 0.000000 0.005750 
#    y 0.000000 1.978550 0.000000 
#    z 0.005750 0.000000 1.976430 
# 
# From -- ./inp_files/236160.got.cif
#   From: 2010.06.25/outbox.cif.g09.slc.cpg/sg15_119_cif.got.tgz:236160.got - 2010.06.28 07:06:18.
