data_PCOD8149048
_publ_section_title
;
Structure prediction by ZEFSAII (Michael W. Deem and Ramdas Pophale) SiO2 
 PCOD8149048
Probable space group: C 2/C
;
_chemical_formula_sum "Si O2"
_cell_formula_units_Z 52
_cell_length_a 8.522369
_cell_length_b 13.069231
_cell_length_c 23.718813
_cell_angle_alpha 90.000000
_cell_angle_beta 111.467271
_cell_angle_gamma 90.000000
_cell_volume 2458.548962
_symmetry_space_group_name_H-M "C 2/C"
_symmetry_group_IT_number 15
_symmetry_cell_setting 'monoclinic'
loop_
_space_group_symop_operation_xyz
x,y,z
-x,y,1/2-z
-x,-y,-z
x,-y,1/2+z
1/2+x,1/2+y,z
1/2-x,1/2+y,1/2-z
1/2-x,1/2-y,-z
1/2+x,1/2-y,1/2+z
loop_
_atom_site_type_symbol
_atom_site_label
_atom_site_fract_x
_atom_site_fract_y
_atom_site_fract_z
Si Si1 0.064762 0.480088 0.428749
Si Si2 0.773653 0.394166 0.155328
Si Si3 0.416414 0.598515 0.340986
Si Si4 0.232084 0.036073 0.440963
Si Si5 0.000000 0.237286 0.250000
Si Si6 0.040781 0.844803 0.445364
Si Si7 0.745593 0.319176 0.573768
O O1 0.082418 0.437415 0.367710
O O2 0.167601 0.416940 0.491487
O O3 0.137475 0.595021 0.440036
O O4 0.867258 0.481408 0.417685
O O5 0.667056 0.483651 0.174551
O O6 0.854802 0.313023 0.208235
O O7 0.652818 0.331706 0.096935
O O8 0.612565 0.608464 0.387228
O O9 0.409399 0.661071 0.282064
O O10 0.298500 0.660005 0.368099
O O11 0.088577 0.963078 0.447732
O O12 0.152539 0.785572 0.414015
O O13 0.075565 0.806148 0.513615
#
# Coordination Sequence:
#
# PCOD8149048 Si02
#       7
#     8   8   8   8   4   8   8
#     4   9  18  34  62  95 125 155 192 254 330 386
#     4  10  23  44  62  86 124 166 208 267 307 364
#     4  10  23  44  62  86 124 166 208 267 307 364
#     4   9  18  34  62  95 125 155 192 254 330 386
#     4  12  28  44  64  90 120 176 238 254 296 366
#     4   9  18  35  61  94 123 152 193 248 325 392
#     4   9  18  35  61  94 123 152 193 248 325 392
#
# _framework density 21.150686
#
# number of rings (size 3 to 8) (size 9 to 14) (size 15 to 20)
#    0.000    2.462    0.000    0.923    4.308    4.923 
#    5.538    1.538    0.000    0.000    0.000    0.000 
#    0.000    0.000    0.000    0.000    0.000    0.000 
#
# Total GULP energy -322108.788358 kJ/mol
# GULP energy per Si atom -12388.799552 kJ/mol
# Density = 2.110255 g / cm^3
# Si number density = 21.150686 Si / 1000 Ang^3
#
#
#
# Elastic Constant Matrix: (Units=GPa)
#
#
# Indices 1 2 3 4 5 6 
#
# 1 72.3779 11.7722 39.6328 0.0000 -9.9650 0.0000
# 2 11.7722 54.7132 30.4866 0.0000 -10.9309 0.0000
# 3 39.6328 30.4866 74.4723 0.0000 -15.0713 0.0000
# 4 0.0000 0.0000 0.0000 30.8836 0.0000 0.4613
# 5 -9.9650 -10.9309 -15.0713 0.0000 31.7205 0.0000
# 6 0.0000 0.0000 0.0000 0.4613 0.0000 23.9339
#
#
#
# Elastic Compliance Matrix: (Units=1/GPa)
#
#
# Indices 1 2 3 4 5 6 
#
# 1 0.019761 0.002277 -0.011101 0.000000 0.001718 0.000000
# 2 0.002277 0.024392 -0.010346 0.000000 0.004205 0.000000
# 3 -0.011101 -0.010346 0.024499 0.000000 0.004588 0.000000
# 4 0.000000 0.000000 0.000000 0.032389 0.000000 -0.000624
# 5 0.001718 0.004205 0.004588 0.000000 0.035694 0.000000
# 6 0.000000 0.000000 0.000000 -0.000624 0.000000 0.041794
#
#
# Mechanical properties :
#
#
# Convention : Reuss Voigt Hill
#
# Bulk Modulus (GPa) = 32.98963 40.59407 36.79185
# Shear Modulus (GPa) = 22.02893 25.28572 23.65733
#
# Velocity S-wave (km/s) = 3.23077 3.46136 3.34805
# Velocity P-wave (km/s) = 5.43585 5.93373 5.69023
#
# Compressibility (1/GPa) = 0.03031256
#
# Stress axis : x y z
#
# Youngs Moduli (GPa) = 50.60399 40.99654 40.81741
#
# Poissons Ratio (x) = -0.09335 0.45311
# Poissons Ratio (y) = -0.11522 0.42230
# Poissons Ratio (z) = 0.56175 0.42416
#
# Static dielectric constant tensor:
#      x y z
#    x 3.763990 0.000000 0.091480 
#    y 0.000000 3.731900 0.000000 
#    z 0.091480 0.000000 3.731330 
# 
# 
# High freq. dielectric constant tensor:
#      x y z
#    x 1.831510 0.000000 0.001710 
#    y 0.000000 1.814190 0.000000 
#    z 0.001710 0.000000 1.810140 
# 
# From -- ./inp_files/264155.got.cif
#   From: 2010.06.25/outbox.cif.g09.slc.cpg/sg15_133_cif.got.tgz:264155.got - 2010.06.28 07:06:18.
