data_PCOD8149958
_publ_section_title
;
Structure prediction by ZEFSAII (Michael W. Deem and Ramdas Pophale) SiO2 
 PCOD8149958
Probable space group: C 2/C
;
_chemical_formula_sum "Si O2"
_cell_formula_units_Z 32
_cell_length_a 14.585103
_cell_length_b 10.262868
_cell_length_c 11.177022
_cell_angle_alpha 90.000000
_cell_angle_beta 62.683909
_cell_angle_gamma 90.000000
_cell_volume 1486.469856
_symmetry_space_group_name_H-M "C 2/C"
_symmetry_group_IT_number 15
_symmetry_cell_setting 'monoclinic'
loop_
_space_group_symop_operation_xyz
x,y,z
-x,y,1/2-z
-x,-y,-z
x,-y,1/2+z
1/2+x,1/2+y,z
1/2-x,1/2+y,1/2-z
1/2-x,1/2-y,-z
1/2+x,1/2-y,1/2+z
loop_
_atom_site_type_symbol
_atom_site_label
_atom_site_fract_x
_atom_site_fract_y
_atom_site_fract_z
Si Si1 0.923126 0.571696 0.697066
Si Si2 0.448729 0.537500 0.903127
Si Si3 0.289311 0.349427 0.073076
Si Si4 0.025643 0.701144 0.412667
O O1 0.804456 0.605991 0.788242
O O2 0.933832 0.414899 0.695117
O O3 0.000000 0.632090 0.750000
O O4 0.954838 0.635630 0.554679
O O5 0.500000 0.479049 0.750000
O O6 0.451159 0.695055 0.889555
O O7 0.500000 0.500000 0.000000
O O8 0.334062 0.477113 0.977827
O O9 0.375400 0.279652 0.100620
O O10 0.250000 0.250000 0.000000
#
# Coordination Sequence:
#
# PCOD8149958 Si02
#       4
#     8   8   8   8
#     4  11  23  43  64  94 135 175 225 281 342 405
#     4  10  24  44  69  99 136 176 226 283 337 403
#     4  11  24  39  71  96 131 183 227 275 346 409
#     4  10  24  43  65  96 134 175 226 285 336 408
#
# _framework density 21.527514
#
# number of rings (size 3 to 8) (size 9 to 14) (size 15 to 20)
#    0.000    1.500    2.500    0.750   10.500    2.000 
#    0.000    2.500    0.000    0.000    0.000    0.000 
#    0.000    0.000    0.000    0.000    0.000    0.000 
#
# Total GULP energy -198283.912478 kJ/mol
# GULP energy per Si atom -12392.744530 kJ/mol
# Density = 2.147852 g / cm^3
# Si number density = 21.527514 Si / 1000 Ang^3
#
#
#
# Elastic Constant Matrix: (Units=GPa)
#
#
# Indices 1 2 3 4 5 6 
#
# 1 72.2241 43.3159 43.1301 0.0000 -19.7003 0.0000
# 2 43.3159 136.2468 48.3549 0.0000 -26.0041 0.0000
# 3 43.1301 48.3549 134.6712 0.0000 -24.9851 0.0000
# 4 0.0000 0.0000 0.0000 26.6089 0.0000 -2.3764
# 5 -19.7003 -26.0041 -24.9851 0.0000 46.3380 0.0000
# 6 0.0000 0.0000 0.0000 -2.3764 0.0000 42.5942
#
#
#
# Elastic Compliance Matrix: (Units=1/GPa)
#
#
# Indices 1 2 3 4 5 6 
#
# 1 0.019848 -0.004088 -0.004166 0.000000 0.003898 0.000000
# 2 -0.004088 0.009776 -0.001673 0.000000 0.002846 0.000000
# 3 -0.004166 -0.001673 0.009842 0.000000 0.002597 0.000000
# 4 0.000000 0.000000 0.000000 0.037770 0.000000 0.002107
# 5 0.003898 0.002846 0.002597 0.000000 0.026235 0.000000
# 6 0.000000 0.000000 0.000000 0.002107 0.000000 0.023595
#
#
# Mechanical properties :
#
#
# Convention : Reuss Voigt Hill
#
# Bulk Modulus (GPa) = 50.98466 68.08265 59.53366
# Shear Modulus (GPa) = 32.58230 36.99764 34.78997
#
# Velocity S-wave (km/s) = 3.89462 4.15012 4.02440
# Velocity P-wave (km/s) = 6.63016 7.39319 7.02204
#
# Compressibility (1/GPa) = 0.01961374
#
# Stress axis : x y z
#
# Youngs Moduli (GPa) = 50.38192 102.28893 101.60424
#
# Poissons Ratio (x) = 0.41814 0.42325
# Poissons Ratio (y) = 0.20595 0.16999
# Poissons Ratio (z) = 0.20988 0.17113
#
# Static dielectric constant tensor:
#      x y z
#    x 3.435530 0.000000 0.261430 
#    y 0.000000 4.285970 0.000000 
#    z 0.261430 0.000000 3.829670 
# 
# 
# High freq. dielectric constant tensor:
#      x y z
#    x 1.828830 0.000000 0.003210 
#    y 0.000000 1.863500 0.000000 
#    z 0.003210 0.000000 1.855760 
# 
# From -- ./inp_files/94275.got.cif
#   From: 2010.06.25/outbox.cif.g09.slc.cpg/sg15_48_cif.got.tgz:94275.got - 2010.06.28 07:06:18.
