data_PCOD8149207
_publ_section_title
;
Structure prediction by ZEFSAII (Michael W. Deem and Ramdas Pophale) SiO2 
 PCOD8149207
Probable space group: C 2/C
;
_chemical_formula_sum "Si O2"
_cell_formula_units_Z 48
_cell_length_a 14.464818
_cell_length_b 20.618400
_cell_length_c 10.594542
_cell_angle_alpha 90.000000
_cell_angle_beta 43.300418
_cell_angle_gamma 90.000000
_cell_volume 2167.018338
_symmetry_space_group_name_H-M "C 2/C"
_symmetry_group_IT_number 15
_symmetry_cell_setting 'monoclinic'
loop_
_space_group_symop_operation_xyz
x,y,z
-x,y,1/2-z
-x,-y,-z
x,-y,1/2+z
1/2+x,1/2+y,z
1/2-x,1/2+y,1/2-z
1/2-x,1/2-y,-z
1/2+x,1/2-y,1/2+z
loop_
_atom_site_type_symbol
_atom_site_label
_atom_site_fract_x
_atom_site_fract_y
_atom_site_fract_z
Si Si1 0.500000 0.922132 0.750000
Si Si2 0.785829 0.128514 0.345038
Si Si3 0.244096 0.019625 0.635234
Si Si4 0.236681 0.624364 0.686778
Si Si5 0.490440 0.316700 0.038060
Si Si6 0.000000 0.090540 0.750000
Si Si7 0.536475 0.169983 0.442670
O O1 0.616849 0.968121 0.578635
O O2 0.440311 0.875739 0.700912
O O3 0.779401 0.126678 0.500907
O O4 0.925793 0.163195 0.169666
O O5 0.668253 0.171199 0.399043
O O6 0.775313 0.054811 0.308743
O O7 0.245971 0.052968 0.770844
O O8 0.121826 0.044732 0.671058
O O9 0.331875 0.671759 0.673194
O O10 0.082868 0.644860 0.850570
O O11 0.549768 0.362021 0.089378
O O12 0.503711 0.241835 0.063121
#
# Coordination Sequence:
#
# PCOD8149207 Si02
#       7
#     4   8   8   8   8   4   8
#     4  10  23  44  70  98 127 172 220 284 316 382
#     4  12  26  40  67  96 132 178 212 273 329 393
#     4  10  25  41  67  98 133 166 225 267 337 382
#     4  10  25  41  61  98 129 176 216 269 323 395
#     4  11  24  43  67  97 132 175 220 267 328 387
#     4  10  23  44  70  98 127 172 220 284 316 382
#     4  11  24  43  67  97 132 175 220 267 328 387
#
# _framework density 22.150248999999999
#
# number of rings (size 3 to 8) (size 9 to 14) (size 15 to 20)
#    0.000    1.333    0.000    3.500    9.333    6.667 
#    0.000    6.667    0.000    0.000    0.000    0.000 
#    0.000    0.000    0.000    0.000    0.000    0.000 
#
# Total GULP energy -297693.869685 kJ/mol
# GULP energy per Si atom -12403.911237 kJ/mol
# Density = 2.209983 g / cm^3
# Si number density = 22.150249 Si / 1000 Ang^3
#
#
#
# Elastic Constant Matrix: (Units=GPa)
#
#
# Indices 1 2 3 4 5 6 
#
# 1 74.7585 9.2508 32.1029 0.0009 -1.3612 -0.0007
# 2 9.2508 110.3750 5.7719 0.0001 -9.8469 -0.0001
# 3 32.1029 5.7719 66.6989 0.0014 2.0277 -0.0014
# 4 0.0009 0.0001 0.0014 18.7868 -0.0012 0.5189
# 5 -1.3612 -9.8469 2.0277 -0.0012 35.0010 0.0010
# 6 -0.0007 -0.0001 -0.0014 0.5189 0.0010 17.7600
#
#
#
# Elastic Compliance Matrix: (Units=1/GPa)
#
#
# Indices 1 2 3 4 5 6 
#
# 1 0.016996 -0.000922 -0.008127 0.000000 0.000873 0.000000
# 2 -0.000922 0.009396 -0.000450 0.000000 0.002634 0.000000
# 3 -0.008127 -0.000450 0.018990 -0.000001 -0.001543 0.000001
# 4 0.000000 0.000000 -0.000001 0.053272 0.000002 -0.001556
# 5 0.000873 0.002634 -0.001543 0.000002 0.029435 -0.000002
# 6 0.000000 0.000000 0.000001 -0.001556 -0.000002 0.056352
#
#
# Mechanical properties :
#
#
# Convention : Reuss Voigt Hill
#
# Bulk Modulus (GPa) = 37.89974 38.45374 38.17674
# Shear Modulus (GPa) = 23.55901 27.95668 25.75785
#
# Velocity S-wave (km/s) = 3.26483 3.55651 3.41379
# Velocity P-wave (km/s) = 5.59996 5.85347 5.72812
#
# Compressibility (1/GPa) = 0.02638541
#
# Stress axis : x y z
#
# Youngs Moduli (GPa) = 58.83606 106.43145 52.65840
#
# Poissons Ratio (x) = 0.09809 0.42797
# Poissons Ratio (y) = 0.05423 0.02367
# Poissons Ratio (z) = 0.47818 0.04784
#
# Static dielectric constant tensor:
#      x y z
#    x 3.966100 0.000000 -0.030110 
#    y 0.000000 4.017170 0.000000 
#    z -0.030110 0.000000 4.023970 
# 
# 
# High freq. dielectric constant tensor:
#      x y z
#    x 1.877640 0.000000 -0.002490 
#    y 0.000000 1.874860 0.000000 
#    z -0.002490 0.000000 1.880380 
# 
# From -- ./inp_files/100026.got.cif
#   From: 2010.06.25/outbox.cif.g09.slc.cpg/sg15_51_cif.got.tgz:100026.got - 2010.06.28 07:06:18.
