data_PCOD8149903
_publ_section_title
;
Structure prediction by ZEFSAII (Michael W. Deem and Ramdas Pophale) SiO2 
 PCOD8149903
Probable space group: C 2/C
;
_chemical_formula_sum "Si O2"
_cell_formula_units_Z 28
_cell_length_a 23.146874
_cell_length_b 7.178428
_cell_length_c 8.867149
_cell_angle_alpha 90.000000
_cell_angle_beta 115.793317
_cell_angle_gamma 90.000000
_cell_volume 1326.558761
_symmetry_space_group_name_H-M "C 2/C"
_symmetry_group_IT_number 15
_symmetry_cell_setting 'monoclinic'
loop_
_space_group_symop_operation_xyz
x,y,z
-x,y,1/2-z
-x,-y,-z
x,-y,1/2+z
1/2+x,1/2+y,z
1/2-x,1/2+y,1/2-z
1/2-x,1/2-y,-z
1/2+x,1/2-y,1/2+z
loop_
_atom_site_type_symbol
_atom_site_label
_atom_site_fract_x
_atom_site_fract_y
_atom_site_fract_z
Si Si1 0.825600 0.755451 0.763305
Si Si2 0.911475 0.107991 0.900338
Si Si3 0.684406 0.891056 0.580779
Si Si4 0.000000 0.975259 0.250000
O O1 0.758783 0.863268 0.704285
O O2 0.832938 0.604838 0.904822
O O3 0.830530 0.651541 0.609276
O O4 0.882457 0.901813 0.846490
O O5 0.856245 0.259492 0.854636
O O6 0.954153 0.154774 0.801124
O O7 0.957134 0.110542 0.097686
#
# Coordination Sequence:
#
# PCOD8149903 Si02
#       4
#     8   8   8   4
#     4  11  24  40  66 101 131 164 210 269 330 381
#     4  11  22  46  64  96 130 173 216 260 314 389
#     4  11  24  40  66 101 131 164 210 269 330 381
#     4  10  24  42  70  82 134 186 212 252 310 380
#
# _framework density 21.107244000000001
#
# number of rings (size 3 to 8) (size 9 to 14) (size 15 to 20)
#    0.000    1.143    5.714    0.000    4.000    1.143 
#    0.000    8.571    0.000    0.000    0.000    0.000 
#    0.000    0.000    0.000    0.000    0.000    0.000 
#
# Total GULP energy -173655.939207 kJ/mol
# GULP energy per Si atom -12403.995658 kJ/mol
# Density = 2.105920 g / cm^3
# Si number density = 21.107244 Si / 1000 Ang^3
#
#
#
# Elastic Constant Matrix: (Units=GPa)
#
#
# Indices 1 2 3 4 5 6 
#
# 1 129.7607 27.5631 46.0207 0.0000 -12.2597 0.0000
# 2 27.5631 83.0557 25.0824 0.0000 6.5065 0.0000
# 3 46.0207 25.0824 92.4856 0.0000 2.6060 0.0000
# 4 0.0000 0.0000 0.0000 24.7670 0.0000 -5.8270
# 5 -12.2597 6.5065 2.6060 0.0000 31.2038 0.0000
# 6 0.0000 0.0000 0.0000 -5.8270 0.0000 19.9744
#
#
#
# Elastic Compliance Matrix: (Units=1/GPa)
#
#
# Indices 1 2 3 4 5 6 
#
# 1 0.010327 -0.002419 -0.004622 0.000000 0.004948 0.000000
# 2 -0.002419 0.013869 -0.002455 0.000000 -0.003637 0.000000
# 3 -0.004622 -0.002455 0.013848 0.000000 -0.002461 0.000000
# 4 0.000000 0.000000 0.000000 0.043352 0.000000 0.012647
# 5 0.004948 -0.003637 -0.002461 0.000000 0.034955 0.000000
# 6 0.000000 0.000000 0.000000 0.012647 0.000000 0.053753
#
#
# Mechanical properties :
#
#
# Convention : Reuss Voigt Hill
#
# Bulk Modulus (GPa) = 52.48960 55.84829 54.16894
# Shear Modulus (GPa) = 25.58234 28.96476 27.27355
#
# Velocity S-wave (km/s) = 3.48518 3.70843 3.59854
# Velocity P-wave (km/s) = 6.41228 6.69726 6.55632
#
# Compressibility (1/GPa) = 0.01905139
#
# Stress axis : x y z
#
# Youngs Moduli (GPa) = 96.83313 72.10176 72.21436
#
# Poissons Ratio (x) = 0.17441 0.33378
# Poissons Ratio (y) = 0.23423 0.17731
# Poissons Ratio (z) = 0.44757 0.17703
#
# Static dielectric constant tensor:
#      x y z
#    x 4.153830 0.000000 -0.133660 
#    y 0.000000 3.452080 0.000000 
#    z -0.133660 0.000000 3.779450 
# 
# 
# High freq. dielectric constant tensor:
#      x y z
#    x 1.850280 0.000000 -0.005820 
#    y 0.000000 1.799190 0.000000 
#    z -0.005820 0.000000 1.834010 
# 
# From -- ./inp_files/45448.got.cif
#   From: 2010.06.25/outbox.cif.g09.slc.cpg/sg15_23_cif.got.tgz:45448.got - 2010.06.28 07:06:18.
