data_PCOD8149259
_publ_section_title
;
Structure prediction by ZEFSAII (Michael W. Deem and Ramdas Pophale) SiO2 
 PCOD8149259
Probable space group: C 2/C
;
_chemical_formula_sum "Si O2"
_cell_formula_units_Z 64
_cell_length_a 15.259802
_cell_length_b 27.367464
_cell_length_c 11.845714
_cell_angle_alpha 90.000000
_cell_angle_beta 35.945944
_cell_angle_gamma 90.000000
_cell_volume 2904.015080
_symmetry_space_group_name_H-M "C 2/C"
_symmetry_group_IT_number 15
_symmetry_cell_setting 'monoclinic'
loop_
_space_group_symop_operation_xyz
x,y,z
-x,y,1/2-z
-x,-y,-z
x,-y,1/2+z
1/2+x,1/2+y,z
1/2-x,1/2+y,1/2-z
1/2-x,1/2-y,-z
1/2+x,1/2-y,1/2+z
loop_
_atom_site_type_symbol
_atom_site_label
_atom_site_fract_x
_atom_site_fract_y
_atom_site_fract_z
Si Si1 0.347900 0.779061 0.808599
Si Si2 0.209428 0.369542 0.274749
Si Si3 0.131958 0.283178 0.189232
Si Si4 0.928306 0.610637 0.210065
Si Si5 0.589153 0.274795 0.936981
Si Si6 0.045861 0.140227 0.820241
Si Si7 0.944527 0.946047 0.929890
Si Si8 0.636642 0.447337 0.941109
O O1 0.362099 0.836857 0.817418
O O2 0.510067 0.755526 0.622014
O O3 0.265950 0.771356 0.773314
O O4 0.250000 0.750000 0.000000
O O5 0.205353 0.326146 0.187354
O O6 0.281920 0.353917 0.320958
O O7 0.044133 0.386474 0.483909
O O8 0.313807 0.411425 0.113788
O O9 0.046244 0.246000 0.361023
O O10 0.000000 0.305756 0.250000
O O11 0.250000 0.250000 0.000000
O O12 0.797447 0.575967 0.299683
O O13 0.000000 0.587569 0.250000
O O14 0.544777 0.331762 0.986776
O O15 0.000000 0.166290 0.750000
O O16 0.993694 0.084443 0.864852
O O17 0.000000 0.927880 0.750000
O O18 0.093047 0.948336 0.853545
O O19 0.868555 0.999142 0.999665
#
# Coordination Sequence:
#
# PCOD8149259 Si02
#       8
#     8   8   8   8   8   8   8   8
#     4  12  24  40  62  99 138 182 222 273 343 418
#     4  11  26  44  67 101 138 183 234 288 350 417
#     4  12  27  46  64  90 134 187 241 293 336 391
#     4  12  25  43  68 105 151 182 217 285 360 425
#     4  12  24  39  63  92 132 180 232 278 328 411
#     4  11  21  39  67 101 136 179 224 274 346 417
#     4  10  24  49  78 102 135 180 240 296 344 416
#     4  10  23  44  73 106 137 178 234 287 345 417
#
# _framework density 22.038454000000002
#
# number of rings (size 3 to 8) (size 9 to 14) (size 15 to 20)
#    0.000    0.750    2.500    5.250    1.750    6.000 
#    0.000    0.625    0.000    0.000    0.000    0.000 
#    0.000    0.000    0.000    0.000    0.000    0.000 
#
# Total GULP energy -396518.828747 kJ/mol
# GULP energy per Si atom -12391.213398 kJ/mol
# Density = 2.198829 g / cm^3
# Si number density = 22.038454 Si / 1000 Ang^3
#
#
#
# Elastic Constant Matrix: (Units=GPa)
#
#
# Indices 1 2 3 4 5 6 
#
# 1 150.3816 47.4752 50.3154 0.0000 -16.0708 0.0000
# 2 47.4752 124.4993 47.6400 0.0000 -2.8630 0.0000
# 3 50.3154 47.6400 115.6570 0.0000 -0.0909 -0.0001
# 4 0.0000 0.0000 0.0000 32.1268 0.0000 -5.4233
# 5 -16.0708 -2.8630 -0.0909 0.0000 39.9952 0.0000
# 6 0.0000 0.0000 -0.0001 -5.4233 0.0000 34.3679
#
#
#
# Elastic Compliance Matrix: (Units=1/GPa)
#
#
# Indices 1 2 3 4 5 6 
#
# 1 0.008636 -0.002113 -0.002884 0.000000 0.003312 0.000000
# 2 -0.002113 0.010070 -0.003229 0.000000 -0.000136 0.000000
# 3 -0.002884 -0.003229 0.011230 0.000000 -0.001364 0.000000
# 4 0.000000 0.000000 0.000000 0.031978 0.000000 0.005046
# 5 0.003312 -0.000136 -0.001364 0.000000 0.026321 0.000000
# 6 0.000000 0.000000 0.000000 0.005046 0.000000 0.029893
#
#
# Mechanical properties :
#
#
# Convention : Reuss Voigt Hill
#
# Bulk Modulus (GPa) = 74.16205 75.71102 74.93654
# Shear Modulus (GPa) = 35.95175 37.63849 36.79512
#
# Velocity S-wave (km/s) = 4.04334 4.13710 4.09049
# Velocity P-wave (km/s) = 7.45134 7.56634 7.50906
#
# Compressibility (1/GPa) = 0.01348399
#
# Stress axis : x y z
#
# Youngs Moduli (GPa) = 115.79726 99.30030 89.04960
#
# Poissons Ratio (x) = 0.20986 0.25680
# Poissons Ratio (y) = 0.24473 0.28752
# Poissons Ratio (z) = 0.33393 0.32062
#
# Static dielectric constant tensor:
#      x y z
#    x 4.441180 0.000000 -0.103290 
#    y 0.000000 4.069660 0.000000 
#    z -0.103290 0.000000 3.508460 
# 
# 
# High freq. dielectric constant tensor:
#      x y z
#    x 1.887830 0.000000 -0.006680 
#    y 0.000000 1.859720 0.000000 
#    z -0.006680 0.000000 1.861520 
# 
# From -- ./inp_files/101628.got.cif
#   From: 2010.06.25/outbox.cif.g09.slc.cpg/sg15_51_cif.got.tgz:101628.got - 2010.06.28 07:06:18.
