data_PCOD8149988
_publ_section_title
;
Structure prediction by ZEFSAII (Michael W. Deem and Ramdas Pophale) SiO2 
 PCOD8149988
Probable space group: C 2/C
;
_chemical_formula_sum "Si O2"
_cell_formula_units_Z 44
_cell_length_a 11.382899
_cell_length_b 13.595077
_cell_length_c 12.451007
_cell_angle_alpha 90.000000
_cell_angle_beta 81.027765
_cell_angle_gamma 90.000000
_cell_volume 1903.234226
_symmetry_space_group_name_H-M "C 2/C"
_symmetry_group_IT_number 15
_symmetry_cell_setting 'monoclinic'
loop_
_space_group_symop_operation_xyz
x,y,z
-x,y,1/2-z
-x,-y,-z
x,-y,1/2+z
1/2+x,1/2+y,z
1/2-x,1/2+y,1/2-z
1/2-x,1/2-y,-z
1/2+x,1/2-y,1/2+z
loop_
_atom_site_type_symbol
_atom_site_label
_atom_site_fract_x
_atom_site_fract_y
_atom_site_fract_z
Si Si1 0.172211 0.020156 0.508000
Si Si2 0.301305 0.315332 0.895615
Si Si3 0.000000 0.311223 0.250000
Si Si4 0.050728 0.073849 0.850999
Si Si5 0.561695 0.202809 0.346302
Si Si6 0.426848 0.096001 0.540302
O O1 0.145185 0.916093 0.568953
O O2 0.159308 0.993539 0.382295
O O3 0.290635 0.076337 0.526102
O O4 0.059955 0.087987 0.551777
O O5 0.397286 0.256140 0.813544
O O6 0.188921 0.349718 0.839824
O O7 0.250000 0.250000 0.000000
O O8 0.942031 0.379033 0.164316
O O9 0.096424 0.183496 0.822802
O O10 0.000000 0.024122 0.750000
O O11 0.500000 0.157341 0.250000
O O12 0.477742 0.185995 0.462224
O O13 0.500000 0.000000 0.500000
#
# Coordination Sequence:
#
# PCOD8149988 Si02
#       6
#     8   8   4   8   8   8
#     4  11  24  43  70 101 139 180 240 298 344 443
#     4  12  23  49  70 101 147 191 240 297 363 447
#     4  12  28  44  80 104 146 206 240 292 388 430
#     4  10  24  43  67  98 137 184 228 293 360 420
#     4  11  25  47  71 101 149 185 235 308 362 427
#     4  12  26  45  73 112 141 191 248 300 367 434
#
# _framework density 23.118541
#
# number of rings (size 3 to 8) (size 9 to 14) (size 15 to 20)
#    0.000    0.727    5.455    0.000    7.636    2.182 
#    3.273    0.000    0.000    0.000    0.000    0.000 
#    0.000    0.000    0.000    0.000    0.000    0.000 
#
# Total GULP energy -272685.201079 kJ/mol
# GULP energy per Si atom -12394.781867 kJ/mol
# Density = 2.306592 g / cm^3
# Si number density = 23.118541 Si / 1000 Ang^3
#
#
#
# Elastic Constant Matrix: (Units=GPa)
#
#
# Indices 1 2 3 4 5 6 
#
# 1 158.8466 22.2574 59.2065 0.0000 24.4757 0.0000
# 2 22.2574 52.0925 29.8912 0.0000 3.9288 0.0000
# 3 59.2065 29.8912 148.4658 0.0000 27.7706 0.0000
# 4 0.0000 0.0000 0.0000 17.5332 0.0000 -10.9201
# 5 24.4757 3.9288 27.7706 0.0000 56.8537 0.0000
# 6 0.0000 0.0000 0.0000 -10.9201 0.0000 29.3982
#
#
#
# Elastic Compliance Matrix: (Units=1/GPa)
#
#
# Indices 1 2 3 4 5 6 
#
# 1 0.007738 -0.001810 -0.002335 0.000000 -0.002065 0.000000
# 2 -0.001810 0.022153 -0.003959 0.000000 0.001183 0.000000
# 3 -0.002335 -0.003959 0.009052 0.000000 -0.003143 0.000000
# 4 0.000000 0.000000 0.000000 0.074201 0.000000 0.027562
# 5 -0.002065 0.001183 -0.003143 0.000000 0.019931 0.000000
# 6 0.000000 0.000000 0.000000 0.027562 0.000000 0.044254
#
#
# Mechanical properties :
#
#
# Convention : Reuss Voigt Hill
#
# Bulk Modulus (GPa) = 43.98916 64.67945 54.33430
# Shear Modulus (GPa) = 24.86138 37.29368 31.07753
#
# Velocity S-wave (km/s) = 3.28287 4.02076 3.67040
# Velocity P-wave (km/s) = 5.78261 7.04226 6.44329
#
# Compressibility (1/GPa) = 0.02273287
#
# Stress axis : x y z
#
# Youngs Moduli (GPa) = 129.23965 45.14078 110.47752
#
# Poissons Ratio (x) = 0.08173 0.25794
# Poissons Ratio (y) = 0.23399 0.43742
# Poissons Ratio (z) = 0.30175 0.17873
#
# Static dielectric constant tensor:
#      x y z
#    x 4.544510 0.000000 0.382760 
#    y 0.000000 3.998440 0.000000 
#    z 0.382760 0.000000 4.473240 
# 
# 
# High freq. dielectric constant tensor:
#      x y z
#    x 1.929570 0.000000 0.024180 
#    y 0.000000 1.905040 0.000000 
#    z 0.024180 0.000000 1.914650 
# 
# From -- ./inp_files/86076.got.cif
#   From: 2010.06.25/outbox.cif.g09.slc.cpg/sg15_44_cif.got.tgz:86076.got - 2010.06.28 07:06:18.
