data_PCOD8149581
_publ_section_title
;
Structure prediction by ZEFSAII (Michael W. Deem and Ramdas Pophale) SiO2 
 PCOD8149581
Probable space group: C 2/C
;
_chemical_formula_sum "Si O2"
_cell_formula_units_Z 60
_cell_length_a 17.530226
_cell_length_b 20.354614
_cell_length_c 9.104026
_cell_angle_alpha 90.000000
_cell_angle_beta 62.042797
_cell_angle_gamma 90.000000
_cell_volume 2869.400245
_symmetry_space_group_name_H-M "C 2/C"
_symmetry_group_IT_number 15
_symmetry_cell_setting 'monoclinic'
loop_
_space_group_symop_operation_xyz
x,y,z
-x,y,1/2-z
-x,-y,-z
x,-y,1/2+z
1/2+x,1/2+y,z
1/2-x,1/2+y,1/2-z
1/2-x,1/2-y,-z
1/2+x,1/2-y,1/2+z
loop_
_atom_site_type_symbol
_atom_site_label
_atom_site_fract_x
_atom_site_fract_y
_atom_site_fract_z
Si Si1 0.195724 0.184213 0.066086
Si Si2 0.000000 0.684173 0.750000
Si Si3 0.344651 0.087015 0.886876
Si Si4 0.794927 0.494640 0.171929
Si Si5 0.744591 0.591055 0.460947
Si Si6 0.442302 0.721600 0.535727
Si Si7 0.899273 0.690403 0.331241
Si Si8 0.882047 0.191394 0.043144
O O1 0.159821 0.181605 0.261400
O O2 0.250000 0.250000 0.000000
O O3 0.250524 0.119144 0.987040
O O4 0.118783 0.181239 0.017461
O O5 0.085566 0.642619 0.664468
O O6 0.995936 0.728528 0.609628
O O7 0.354288 0.051030 0.721797
O O8 0.358091 0.036086 0.008444
O O9 0.738022 0.541789 0.327859
O O10 0.734549 0.449382 0.121926
O O11 0.838027 0.627244 0.372555
O O12 0.665492 0.641980 0.526488
O O13 0.385173 0.762591 0.702544
O O14 0.514396 0.675234 0.549400
O O15 0.869961 0.733596 0.497830
O O16 0.000000 0.668192 0.250000
#
# Coordination Sequence:
#
# PCOD8149581 Si02
#       8
#     8   4   8   8   8   8   8   8
#     4  12  21  37  67  94 126 164 200 254 329 374
#     4  12  22  38  66  92 136 158 208 254 308 388
#     4  11  24  42  64  91 125 172 210 260 301 374
#     4  10  25  43  59  87 120 174 222 251 295 368
#     4  11  22  43  62  85 123 165 212 260 306 369
#     4  11  22  38  60 102 129 157 201 254 332 387
#     4  10  24  38  61  96 130 156 200 260 324 385
#     4  11  22  39  62  94 127 162 200 264 322 372
#
# _framework density 20.910294
#
# number of rings (size 3 to 8) (size 9 to 14) (size 15 to 20)
#    0.000    1.067    4.000    2.000    7.467    0.533 
#    4.800    0.000    0.000    4.800    0.000    0.000 
#    0.000    0.000    0.000    0.000    0.000    0.000 
#
# Total GULP energy -371992.893860 kJ/mol
# GULP energy per Si atom -12399.763129 kJ/mol
# Density = 2.086270 g / cm^3
# Si number density = 20.910294 Si / 1000 Ang^3
#
#
#
# Elastic Constant Matrix: (Units=GPa)
#
#
# Indices 1 2 3 4 5 6 
#
# 1 116.4262 57.1175 37.6995 0.0000 2.0880 0.0000
# 2 57.1175 87.1499 34.2779 0.0000 -2.8034 0.0000
# 3 37.6995 34.2779 92.9071 0.0000 18.7375 0.0000
# 4 0.0000 0.0000 0.0000 -12.1242 0.0000 71.2144
# 5 2.0880 -2.8034 18.7375 0.0000 31.4844 0.0000
# 6 0.0000 0.0000 0.0000 71.2144 0.0000 -73.8139
#
#
#
# Elastic Compliance Matrix: (Units=1/GPa)
#
#
# Indices 1 2 3 4 5 6 
#
# 1 0.013146 -0.007632 -0.002507 0.000000 -0.000060 0.000000
# 2 -0.007632 0.018496 -0.004729 0.000000 0.004968 0.000000
# 3 -0.002507 -0.004729 0.015429 0.000000 -0.009437 0.000000
# 4 0.000000 0.000000 0.000000 0.017673 0.000000 0.017051
# 5 -0.000060 0.004968 -0.009437 0.000000 0.037824 0.000000
# 6 0.000000 0.000000 0.000000 0.017051 0.000000 0.002903
#
#
# Mechanical properties :
#
#
# Convention : Reuss Voigt Hill
#
# Bulk Modulus (GPa) = 57.68451 61.63032 59.65742
# Shear Modulus (GPa) = 35.46480 0.26847 17.86664
#
# Velocity S-wave (km/s) = 4.12277 0.35871 2.92626
# Velocity P-wave (km/s) = 7.09292 5.45062 6.32530
#
# Compressibility (1/GPa) = 0.01733568
#
# Stress axis : x y z
#
# Youngs Moduli (GPa) = 76.06933 54.06524 64.81469
#
# Poissons Ratio (x) = 0.41261 0.16246
# Poissons Ratio (y) = 0.58054 0.30652
# Poissons Ratio (z) = 0.19067 0.25568
#
# Static dielectric constant tensor:
#      x y z
#    x 3.985550 0.000000 0.213290 
#    y 0.000000 3.825600 0.000000 
#    z 0.213290 0.000000 3.926140 
# 
# 
# High freq. dielectric constant tensor:
#      x y z
#    x 1.817270 0.000000 0.023590 
#    y 0.000000 1.806610 0.000000 
#    z 0.023590 0.000000 1.828720 
# 
# From -- ./inp_files/50656.got.cif
#   From: 2010.06.25/outbox.cif.g09.slc.cpg/sg15_26_cif.got.tgz:50656.got - 2010.06.28 07:06:18.
