data_PCOD8149245
_publ_section_title
;
Structure prediction by ZEFSAII (Michael W. Deem and Ramdas Pophale) SiO2 
 PCOD8149245
Probable space group: C 2/C
;
_chemical_formula_sum "Si O2"
_cell_formula_units_Z 44
_cell_length_a 23.947751
_cell_length_b 11.006786
_cell_length_c 8.078222
_cell_angle_alpha 90.000000
_cell_angle_beta 60.503740
_cell_angle_gamma 90.000000
_cell_volume 1853.334687
_symmetry_space_group_name_H-M "C 2/C"
_symmetry_group_IT_number 15
_symmetry_cell_setting 'monoclinic'
loop_
_space_group_symop_operation_xyz
x,y,z
-x,y,1/2-z
-x,-y,-z
x,-y,1/2+z
1/2+x,1/2+y,z
1/2-x,1/2+y,1/2-z
1/2-x,1/2-y,-z
1/2+x,1/2-y,1/2+z
loop_
_atom_site_type_symbol
_atom_site_label
_atom_site_fract_x
_atom_site_fract_y
_atom_site_fract_z
Si Si1 0.149218 0.507684 0.541821
Si Si2 0.000000 0.754314 0.250000
Si Si3 0.141341 0.131733 0.007538
Si Si4 0.378683 0.368453 0.594191
Si Si5 0.287506 0.842076 0.286850
Si Si6 0.415890 0.155945 0.113289
O O1 0.205784 0.460531 0.339832
O O2 0.174243 0.626333 0.600267
O O3 0.086049 0.554639 0.530268
O O4 0.132496 0.391848 0.676357
O O5 0.016437 0.673045 0.389737
O O6 0.939709 0.835983 0.391260
O O7 0.213359 0.182117 0.936447
O O8 0.105855 0.213973 0.924247
O O9 0.146900 0.998435 0.923690
O O10 0.102833 0.129423 0.237505
O O11 0.320962 0.273020 0.650541
#
# Coordination Sequence:
#
# PCOD8149245 Si02
#       6
#     8   4   8   8   8   8
#     4  10  23  44  72 107 147 181 240 290 383 422
#     4  12  28  52  72 100 152 190 264 288 358 436
#     4  12  27  45  77 109 148 188 248 296 378 423
#     4  12  27  48  72 111 143 202 240 301 361 432
#     4  11  23  46  73 112 147 182 236 310 366 448
#     4  11  25  46  70 108 138 203 232 306 355 428
#
# _framework density 23.740988999999999
#
# number of rings (size 3 to 8) (size 9 to 14) (size 15 to 20)
#    0.000    0.727    3.636    2.727    5.091    5.091 
#    0.000    0.000    0.000    0.000    0.000    0.000 
#    0.000    0.000    0.000    0.000    0.000    0.000 
#
# Total GULP energy -272724.429516 kJ/mol
# GULP energy per Si atom -12396.564978 kJ/mol
# Density = 2.368695 g / cm^3
# Si number density = 23.740989 Si / 1000 Ang^3
#
#
#
# Elastic Constant Matrix: (Units=GPa)
#
#
# Indices 1 2 3 4 5 6 
#
# 1 91.5432 12.3421 36.7179 0.0000 15.6498 0.0000
# 2 12.3421 104.4244 48.3225 0.0000 6.0861 0.0000
# 3 36.7179 48.3225 114.2721 0.0000 3.8608 0.0000
# 4 0.0000 0.0000 0.0000 36.0367 0.0000 10.6126
# 5 15.6498 6.0861 3.8608 0.0000 41.2618 0.0000
# 6 0.0000 0.0000 0.0000 10.6126 0.0000 31.3524
#
#
#
# Elastic Compliance Matrix: (Units=1/GPa)
#
#
# Indices 1 2 3 4 5 6 
#
# 1 0.013436 0.000763 -0.004478 0.000000 -0.004790 0.000000
# 2 0.000763 0.012018 -0.005275 0.000000 -0.001569 0.000000
# 3 -0.004478 -0.005275 0.012376 0.000000 0.001319 0.000000
# 4 0.000000 0.000000 0.000000 0.030822 0.000000 -0.010433
# 5 -0.004790 -0.001569 0.001319 0.000000 0.026160 0.000000
# 6 0.000000 0.000000 0.000000 -0.010433 0.000000 0.035427
#
#
# Mechanical properties :
#
#
# Convention : Reuss Voigt Hill
#
# Bulk Modulus (GPa) = 50.37411 56.11163 53.24287
# Shear Modulus (GPa) = 32.29246 35.92068 34.10657
#
# Velocity S-wave (km/s) = 3.69209 3.89398 3.79438
# Velocity P-wave (km/s) = 6.28010 6.62598 6.45536
#
# Compressibility (1/GPa) = 0.01985147
#
# Stress axis : x y z
#
# Youngs Moduli (GPa) = 74.42752 83.20659 80.80236
#
# Poissons Ratio (x) = -0.06352 0.36185
# Poissons Ratio (y) = -0.05682 0.42619
# Poissons Ratio (z) = 0.33330 0.43887
#
# Static dielectric constant tensor:
#      x y z
#    x 4.215850 0.000000 0.386810 
#    y 0.000000 4.301450 0.000000 
#    z 0.386810 0.000000 4.293230 
# 
# 
# High freq. dielectric constant tensor:
#      x y z
#    x 1.922010 0.000000 0.028550 
#    y 0.000000 1.962330 0.000000 
#    z 0.028550 0.000000 1.945460 
# 
# From -- ./inp_files/60814.got.cif
#   From: 2010.06.25/outbox.cif.g09.slc.cpg/sg15_31_cif.got.tgz:60814.got - 2010.06.28 07:06:18.
