data_PCOD8149262
_publ_section_title
;
Structure prediction by ZEFSAII (Michael W. Deem and Ramdas Pophale) SiO2 
 PCOD8149262
Probable space group: C 2/C
;
_chemical_formula_sum "Si O2"
_cell_formula_units_Z 32
_cell_length_a 5.283774
_cell_length_b 22.210705
_cell_length_c 11.175384
_cell_angle_alpha 90.000000
_cell_angle_beta 77.147428
_cell_angle_gamma 90.000000
_cell_volume 1278.643406
_symmetry_space_group_name_H-M "C 2/C"
_symmetry_group_IT_number 15
_symmetry_cell_setting 'monoclinic'
loop_
_space_group_symop_operation_xyz
x,y,z
-x,y,1/2-z
-x,-y,-z
x,-y,1/2+z
1/2+x,1/2+y,z
1/2-x,1/2+y,1/2-z
1/2-x,1/2-y,-z
1/2+x,1/2-y,1/2+z
loop_
_atom_site_type_symbol
_atom_site_label
_atom_site_fract_x
_atom_site_fract_y
_atom_site_fract_z
Si Si1 0.782005 0.408682 0.673500
Si Si2 0.783466 0.542253 0.670310
Si Si3 0.995972 0.230679 0.392263
Si Si4 0.850631 0.343417 0.009691
O O1 0.500000 0.393866 0.750000
O O2 0.793924 0.475118 0.611586
O O3 0.000000 0.410562 0.750000
O O4 0.856384 0.351914 0.579024
O O5 0.500000 0.553256 0.750000
O O6 0.802589 0.589876 0.562166
O O7 0.000000 0.553222 0.750000
O O8 0.750000 0.250000 0.500000
O O9 0.000000 0.221383 0.250000
O O10 0.171786 0.291372 0.389136
O O11 0.141713 0.171877 0.428856
#
# Coordination Sequence:
#
# PCOD8149262 Si02
#       4
#     8   8   8   8
#     4  10  24  43  72 112 152 197 251 311 386 462
#     4  10  23  44  73 113 154 196 251 313 387 464
#     4  11  29  49  74 112 152 203 267 319 383 454
#     4  11  26  43  76 104 156 200 256 317 388 453
#
# _framework density 25.026523999999998
#
# number of rings (size 3 to 8) (size 9 to 14) (size 15 to 20)
#    0.000    1.500    0.000    1.500   14.000    2.000 
#    0.000    7.500    0.000    0.000    0.000    0.000 
#    0.000    0.000    0.000    0.000    0.000    0.000 
#
# Total GULP energy -198220.819736 kJ/mol
# GULP energy per Si atom -12388.801234 kJ/mol
# Density = 2.496956 g / cm^3
# Si number density = 25.026524 Si / 1000 Ang^3
#
#
#
# Elastic Constant Matrix: (Units=GPa)
#
#
# Indices 1 2 3 4 5 6 
#
# 1 169.8309 55.7381 68.6142 0.0000 -11.6953 0.0000
# 2 55.7381 160.9375 91.3640 0.0000 6.7288 0.0000
# 3 68.6142 91.3640 141.2074 0.0000 7.8448 0.0000
# 4 0.0000 0.0000 0.0000 48.5700 0.0000 15.2666
# 5 -11.6953 6.7288 7.8448 0.0000 45.8466 0.0000
# 6 0.0000 0.0000 0.0000 15.2666 0.0000 27.0779
#
#
#
# Elastic Compliance Matrix: (Units=1/GPa)
#
#
# Indices 1 2 3 4 5 6 
#
# 1 0.007704 -0.000901 -0.003308 0.000000 0.002664 0.000000
# 2 -0.000901 0.009932 -0.005951 0.000000 -0.000669 0.000000
# 3 -0.003308 -0.005951 0.012658 0.000000 -0.002136 0.000000
# 4 0.000000 0.000000 0.000000 0.025023 0.000000 -0.014108
# 5 0.002664 -0.000669 -0.002136 0.000000 0.022955 0.000000
# 6 0.000000 0.000000 0.000000 -0.014108 0.000000 0.044885
#
#
# Mechanical properties :
#
#
# Convention : Reuss Voigt Hill
#
# Bulk Modulus (GPa) = 100.26915 100.37869 100.32392
# Shear Modulus (GPa) = 34.05901 41.38286 37.72093
#
# Velocity S-wave (km/s) = 3.69306 4.07081 3.88653
# Velocity P-wave (km/s) = 7.63787 7.89249 7.76622
#
# Compressibility (1/GPa) = 0.00997316
#
# Stress axis : x y z
#
# Youngs Moduli (GPa) = 129.80166 100.68222 78.99859
#
# Poissons Ratio (x) = 0.09076 0.26134
# Poissons Ratio (y) = 0.11702 0.47013
# Poissons Ratio (z) = 0.42941 0.59917
#
# Static dielectric constant tensor:
#      x y z
#    x 4.690080 0.000000 -0.233700 
#    y 0.000000 5.392470 0.000000 
#    z -0.233700 0.000000 4.173580 
# 
# 
# High freq. dielectric constant tensor:
#      x y z
#    x 2.012800 0.000000 -0.010600 
#    y 0.000000 2.042890 0.000000 
#    z -0.010600 0.000000 1.983390 
# 
# From -- ./inp_files/72183.got.cif
#   From: 2010.06.25/outbox.cif.g09.slc.cpg/sg15_37_cif.got.tgz:72183.got - 2010.06.28 07:06:18.
