data_PCOD8149436
_publ_section_title
;
Structure prediction by ZEFSAII (Michael W. Deem and Ramdas Pophale) SiO2 
 PCOD8149436
Probable space group: C 2/C
;
_chemical_formula_sum "Si O2"
_cell_formula_units_Z 48
_cell_length_a 25.869307
_cell_length_b 15.076685
_cell_length_c 8.636955
_cell_angle_alpha 90.000000
_cell_angle_beta 140.625061
_cell_angle_gamma 90.000000
_cell_volume 2137.023639
_symmetry_space_group_name_H-M "C 2/C"
_symmetry_group_IT_number 15
_symmetry_cell_setting 'monoclinic'
loop_
_space_group_symop_operation_xyz
x,y,z
-x,y,1/2-z
-x,-y,-z
x,-y,1/2+z
1/2+x,1/2+y,z
1/2-x,1/2+y,1/2-z
1/2-x,1/2-y,-z
1/2+x,1/2-y,1/2+z
loop_
_atom_site_type_symbol
_atom_site_label
_atom_site_fract_x
_atom_site_fract_y
_atom_site_fract_z
Si Si1 0.293819 0.591408 0.973914
Si Si2 0.782487 0.552954 0.387660
Si Si3 0.027127 0.909709 0.490889
Si Si4 0.756745 0.764278 0.832665
Si Si5 0.439332 0.750269 0.753214
Si Si6 0.055212 0.557114 0.232891
O O1 0.292331 0.506855 0.853532
O O2 0.278327 0.681042 0.842817
O O3 0.226197 0.573049 0.949950
O O4 0.377665 0.601918 0.259979
O O5 0.792407 0.646338 0.322478
O O6 0.861571 0.493175 0.536551
O O7 0.978794 0.825479 0.456613
O O8 0.000000 0.000000 0.500000
O O9 0.000000 0.910864 0.250000
O O10 0.750000 0.750000 0.000000
O O11 0.849489 0.780972 0.993282
O O12 0.500000 0.758031 0.750000
O O13 0.427589 0.846607 0.806629
O O14 0.000000 0.577721 0.250000
O O15 0.000000 0.500000 0.000000
#
# Coordination Sequence:
#
# PCOD8149436 Si02
#       6
#     8   8   8   8   8   8
#     4  12  25  46  73 105 142 194 243 303 375 438
#     4  12  25  44  73 102 142 190 245 301 371 441
#     4  11  24  44  71 102 139 186 242 299 366 433
#     4  12  27  46  71 108 147 189 247 307 366 444
#     4  10  23  46  69 101 145 186 237 300 361 433
#     4  11  25  42  69 101 143 188 239 292 359 440
#
# _framework density 22.461145999999999
#
# number of rings (size 3 to 8) (size 9 to 14) (size 15 to 20)
#    0.000    0.667    1.667    6.500    7.000    1.333 
#    0.000    0.833    0.000    0.000    0.000    0.000 
#    0.000    0.000    0.000    0.000    0.000    0.000 
#
# Total GULP energy -297435.053534 kJ/mol
# GULP energy per Si atom -12393.127231 kJ/mol
# Density = 2.241002 g / cm^3
# Si number density = 22.461146 Si / 1000 Ang^3
#
#
#
# Elastic Constant Matrix: (Units=GPa)
#
#
# Indices 1 2 3 4 5 6 
#
# 1 86.7962 49.2687 47.0392 0.0000 4.6867 0.0000
# 2 49.2687 246.2213 72.7856 0.0000 -10.5292 0.0000
# 3 47.0392 72.7856 133.2938 0.0000 0.2064 0.0000
# 4 0.0000 0.0000 0.0000 50.1477 0.0000 -0.7508
# 5 4.6867 -10.5292 0.2064 0.0000 39.1775 0.0000
# 6 0.0000 0.0000 0.0000 -0.7508 0.0000 29.1486
#
#
#
# Elastic Compliance Matrix: (Units=1/GPa)
#
#
# Indices 1 2 3 4 5 6 
#
# 1 0.015010 -0.001831 -0.004294 0.000000 -0.002265 0.000000
# 2 -0.001831 0.005135 -0.002160 0.000000 0.001611 0.000000
# 3 -0.004294 -0.002160 0.010197 0.000000 -0.000121 0.000000
# 4 0.000000 0.000000 0.000000 0.019949 0.000000 0.000514
# 5 -0.002265 0.001611 -0.000121 0.000000 0.026229 0.000000
# 6 0.000000 0.000000 0.000000 0.000514 0.000000 0.034320
#
#
# Mechanical properties :
#
#
# Convention : Reuss Voigt Hill
#
# Bulk Modulus (GPa) = 72.60984 89.38872 80.99928
# Shear Modulus (GPa) = 37.87828 43.50928 40.69378
#
# Velocity S-wave (km/s) = 4.11102 4.40601 4.26107
# Velocity P-wave (km/s) = 7.41155 8.10971 7.76848
#
# Compressibility (1/GPa) = 0.01377224
#
# Stress axis : x y z
#
# Youngs Moduli (GPa) = 66.62297 194.72996 98.06485
#
# Poissons Ratio (x) = 0.35657 0.42105
# Poissons Ratio (y) = 0.12199 0.21187
# Poissons Ratio (z) = 0.28605 0.42071
#
# Static dielectric constant tensor:
#      x y z
#    x 3.820820 0.000000 0.409140 
#    y 0.000000 4.125620 0.000000 
#    z 0.409140 0.000000 4.332990 
# 
# 
# High freq. dielectric constant tensor:
#      x y z
#    x 1.870520 0.000000 0.013280 
#    y 0.000000 1.924210 0.000000 
#    z 0.013280 0.000000 1.886010 
# 
# From -- ./inp_files/66509.got.cif
#   From: 2010.06.25/outbox.cif.g09.slc.cpg/sg15_34_cif.got.tgz:66509.got - 2010.06.28 07:06:18.
