data_PCOD8149616
_publ_section_title
;
Structure prediction by ZEFSAII (Michael W. Deem and Ramdas Pophale) SiO2 
 PCOD8149616
Probable space group: C 2/C
;
_chemical_formula_sum "Si O2"
_cell_formula_units_Z 64
_cell_length_a 19.801860
_cell_length_b 11.083168
_cell_length_c 28.471675
_cell_angle_alpha 90.000000
_cell_angle_beta 28.098070
_cell_angle_gamma 90.000000
_cell_volume 2942.980489
_symmetry_space_group_name_H-M "C 2/C"
_symmetry_group_IT_number 15
_symmetry_cell_setting 'monoclinic'
loop_
_space_group_symop_operation_xyz
x,y,z
-x,y,1/2-z
-x,-y,-z
x,-y,1/2+z
1/2+x,1/2+y,z
1/2-x,1/2+y,1/2-z
1/2-x,1/2-y,-z
1/2+x,1/2-y,1/2+z
loop_
_atom_site_type_symbol
_atom_site_label
_atom_site_fract_x
_atom_site_fract_y
_atom_site_fract_z
Si Si1 0.149451 0.838799 0.183802
Si Si2 0.357567 0.223062 0.475167
Si Si3 0.623188 0.641298 0.336095
Si Si4 0.708587 0.054945 0.351922
Si Si5 0.984513 0.381593 0.447741
Si Si6 0.698239 0.073841 0.188487
Si Si7 0.074547 0.508028 0.609163
Si Si8 0.145314 0.019367 0.500570
O O1 0.277997 0.836285 0.068047
O O2 0.141258 0.709705 0.214371
O O3 0.000000 0.866061 0.250000
O O4 0.182630 0.949112 0.198580
O O5 0.250000 0.250000 0.500000
O O6 0.430808 0.350774 0.442792
O O7 0.465509 0.121585 0.390781
O O8 0.706685 0.646115 0.234946
O O9 0.594310 0.769706 0.378505
O O10 0.714302 0.562624 0.316783
O O11 0.468680 0.583737 0.421546
O O12 0.644537 0.132854 0.435004
O O13 0.575229 0.999384 0.405483
O O14 0.916566 0.392385 0.437235
O O15 0.799874 0.022243 0.085984
O O16 0.563430 0.980027 0.272402
O O17 0.222692 0.507643 0.545832
#
# Coordination Sequence:
#
# PCOD8149616 Si02
#       8
#     8   8   8   8   8   8   8   8
#     4  11  21  37  66  99 132 167 230 290 341 398
#     4   9  19  35  60  99 129 167 213 288 339 387
#     4  12  26  43  68 102 138 185 230 273 348 425
#     4  11  25  44  67  96 136 185 227 286 339 411
#     4  11  25  47  65  96 139 182 230 276 339 414
#     4  11  22  42  63 101 138 177 222 288 350 406
#     4  11  21  41  67  93 133 183 228 278 345 402
#     4  10  24  39  64 101 135 173 227 289 340 398
#
# _framework density 21.746661
#
# number of rings (size 3 to 8) (size 9 to 14) (size 15 to 20)
#    0.000    1.250    3.750    3.000    5.250    1.500 
#    2.250    0.000    0.000    0.000    0.000    0.000 
#    0.000    0.000    0.000    0.000    0.000    0.000 
#
# Total GULP energy -396700.969921 kJ/mol
# GULP energy per Si atom -12396.905310 kJ/mol
# Density = 2.169716 g / cm^3
# Si number density = 21.746661 Si / 1000 Ang^3
#
#
#
# Elastic Constant Matrix: (Units=GPa)
#
#
# Indices 1 2 3 4 5 6 
#
# 1 97.5027 6.2030 35.0735 0.0009 2.3022 -0.0002
# 2 6.2030 37.8476 32.0264 0.0020 6.7971 -0.0008
# 3 35.0735 32.0264 112.9686 0.0108 11.5727 -0.0040
# 4 0.0009 0.0020 0.0108 31.4942 -0.0016 -1.2023
# 5 2.3022 6.7971 11.5727 -0.0016 36.9054 0.0001
# 6 -0.0002 -0.0008 -0.0040 -1.2023 0.0001 28.9884
#
#
#
# Elastic Compliance Matrix: (Units=1/GPa)
#
#
# Indices 1 2 3 4 5 6 
#
# 1 0.011613 0.001476 -0.004052 0.000001 0.000274 0.000000
# 2 0.001476 0.035372 -0.010135 0.000001 -0.003429 0.000000
# 3 -0.004052 -0.010135 0.013190 -0.000004 -0.002017 0.000001
# 4 0.000001 0.000001 -0.000004 0.031802 0.000002 0.001319
# 5 0.000274 -0.003429 -0.002017 0.000002 0.028343 0.000000
# 6 0.000000 0.000000 0.000001 0.001319 0.000000 0.034551
#
#
# Mechanical properties :
#
#
# Convention : Reuss Voigt Hill
#
# Bulk Modulus (GPa) = 28.77423 43.88054 36.32739
# Shear Modulus (GPa) = 26.05827 31.14533 28.60180
#
# Velocity S-wave (km/s) = 3.46535 3.78853 3.63054
# Velocity P-wave (km/s) = 5.41035 6.27369 5.85794
#
# Compressibility (1/GPa) = 0.03475331
#
# Stress axis : x y z
#
# Youngs Moduli (GPa) = 86.10741 28.27121 75.81525
#
# Poissons Ratio (x) = -0.04174 0.30722
# Poissons Ratio (y) = -0.12713 0.76838
# Poissons Ratio (z) = 0.34893 0.28653
#
# Static dielectric constant tensor:
#      x y z
#    x 3.913810 0.000000 0.238770 
#    y 0.000000 3.845020 0.000000 
#    z 0.238770 0.000000 4.043960 
# 
# 
# High freq. dielectric constant tensor:
#      x y z
#    x 1.861000 0.000000 0.012550 
#    y 0.000000 1.822070 0.000000 
#    z 0.012550 0.000000 1.866220 
# 
# From -- ./inp_files/300822.got.cif
#   From: 2010.06.25/outbox.cif.g09.slc.cpg/sg15_151_cif.got.tgz:300822.got - 2010.06.28 07:06:18.
