data_PCOD8149657
_publ_section_title
;
Structure prediction by ZEFSAII (Michael W. Deem and Ramdas Pophale) SiO2 
 PCOD8149657
Probable space group: C 2/C
;
_chemical_formula_sum "Si O2"
_cell_formula_units_Z 56
_cell_length_a 28.272968
_cell_length_b 10.195064
_cell_length_c 8.774353
_cell_angle_alpha 90.000000
_cell_angle_beta 109.168769
_cell_angle_gamma 90.000000
_cell_volume 2388.932820
_symmetry_space_group_name_H-M "C 2/C"
_symmetry_group_IT_number 15
_symmetry_cell_setting 'monoclinic'
loop_
_space_group_symop_operation_xyz
x,y,z
-x,y,1/2-z
-x,-y,-z
x,-y,1/2+z
1/2+x,1/2+y,z
1/2-x,1/2+y,1/2-z
1/2-x,1/2-y,-z
1/2+x,1/2-y,1/2+z
loop_
_atom_site_type_symbol
_atom_site_label
_atom_site_fract_x
_atom_site_fract_y
_atom_site_fract_z
Si Si1 0.350864 0.327483 0.443793
Si Si2 0.453837 0.152546 0.909250
Si Si3 0.500000 0.564815 0.750000
Si Si4 0.160364 0.336478 0.179684
Si Si5 0.196993 0.433716 0.534389
Si Si6 0.188253 0.066570 0.283220
Si Si7 0.038232 0.154242 0.492158
Si Si8 0.500000 0.942992 0.750000
O O1 0.319125 0.194566 0.385612
O O2 0.338370 0.435891 0.304393
O O3 0.340063 0.390955 0.594693
O O4 0.408737 0.281487 0.493657
O O5 0.396449 0.191525 0.828776
O O6 0.463075 0.021460 0.823095
O O7 0.491170 0.261828 0.879725
O O8 0.464716 0.141578 0.101781
O O9 0.535702 0.647742 0.674829
O O10 0.464390 0.485272 0.595586
O O11 0.190506 0.404740 0.349422
O O12 0.164520 0.437269 0.043419
O O13 0.183845 0.193173 0.165148
O O14 0.254389 0.467248 0.626001
#
# Coordination Sequence:
#
# PCOD8149657 Si02
#       8
#     8   8   4   8   8   8   8   4
#     4  11  25  42  71  99 133 179 225 273 347 402
#     4  11  24  41  64  95 134 176 218 272 325 404
#     4  10  24  40  64  88 136 170 222 262 330 380
#     4  11  25  42  71  99 133 179 225 273 347 402
#     4  11  24  46  69  99 135 173 228 287 339 398
#     4  11  24  46  69  99 135 173 228 287 339 398
#     4  11  24  41  64  95 134 176 218 272 325 404
#     4  10  24  40  64  88 136 170 222 262 330 380
#
# _framework density 23.441431000000001
#
# number of rings (size 3 to 8) (size 9 to 14) (size 15 to 20)
#    0.000    1.143    0.000    6.000   16.000    1.143 
#    5.143    2.857    0.000    0.000    0.000    0.000 
#    0.000    0.000    0.000    0.000    0.000    0.000 
#
# Total GULP energy -347211.283408 kJ/mol
# GULP energy per Si atom -12400.402979 kJ/mol
# Density = 2.338808 g / cm^3
# Si number density = 23.441431 Si / 1000 Ang^3
#
#
#
# Elastic Constant Matrix: (Units=GPa)
#
#
# Indices 1 2 3 4 5 6 
#
# 1 92.2684 13.4024 4.6064 0.0000 -1.2767 0.0000
# 2 13.4024 58.7748 2.0081 0.0000 0.6027 0.0000
# 3 4.6064 2.0081 46.7014 0.0000 -9.8572 0.0000
# 4 0.0000 0.0000 0.0000 38.6910 0.0000 -1.8763
# 5 -1.2767 0.6027 -9.8572 0.0000 36.3479 0.0000
# 6 0.0000 0.0000 0.0000 -1.8763 0.0000 37.0242
#
#
#
# Elastic Compliance Matrix: (Units=1/GPa)
#
#
# Indices 1 2 3 4 5 6 
#
# 1 0.011257 -0.002536 -0.000964 0.000000 0.000176 0.000000
# 2 -0.002536 0.017619 -0.000624 0.000000 -0.000550 0.000000
# 3 -0.000964 -0.000624 0.022837 0.000000 0.006170 0.000000
# 4 0.000000 0.000000 0.000000 0.025910 0.000000 0.001313
# 5 0.000176 -0.000550 0.006170 0.000000 0.029200 0.000000
# 6 0.000000 0.000000 0.000000 0.001313 0.000000 0.027076
#
#
# Mechanical properties :
#
#
# Convention : Reuss Voigt Hill
#
# Bulk Modulus (GPa) = 23.00659 26.41981 24.71320
# Shear Modulus (GPa) = 31.92147 34.26112 33.09129
#
# Velocity S-wave (km/s) = 3.69420 3.82719 3.76128
# Velocity P-wave (km/s) = 5.29452 5.55201 5.42479
#
# Compressibility (1/GPa) = 0.04346581
#
# Stress axis : x y z
#
# Youngs Moduli (GPa) = 88.83483 56.75601 43.78902
#
# Poissons Ratio (x) = 0.14392 0.04222
# Poissons Ratio (y) = 0.22526 0.02731
# Poissons Ratio (z) = 0.08565 0.03540
#
# Static dielectric constant tensor:
#      x y z
#    x 4.180660 0.000000 -0.075340 
#    y 0.000000 4.460940 0.000000 
#    z -0.075340 0.000000 4.213560 
# 
# 
# High freq. dielectric constant tensor:
#      x y z
#    x 1.927780 0.000000 -0.003670 
#    y 0.000000 1.931460 0.000000 
#    z -0.003670 0.000000 1.926650 
# 
# From -- ./inp_files/65582.got.cif
#   From: 2010.06.25/outbox.cif.g09.slc.cpg/sg15_33_cif.got.tgz:65582.got - 2010.06.28 07:06:18.
