data_PCOD8149386
_publ_section_title
;
Structure prediction by ZEFSAII (Michael W. Deem and Ramdas Pophale) SiO2 
 PCOD8149386
Probable space group: C 2/C
;
_chemical_formula_sum "Si O2"
_cell_formula_units_Z 64
_cell_length_a 11.600647
_cell_length_b 15.842742
_cell_length_c 19.872513
_cell_angle_alpha 90.000000
_cell_angle_beta 131.085164
_cell_angle_gamma 90.000000
_cell_volume 2752.854253
_symmetry_space_group_name_H-M "C 2/C"
_symmetry_group_IT_number 15
_symmetry_cell_setting 'monoclinic'
loop_
_space_group_symop_operation_xyz
x,y,z
-x,y,1/2-z
-x,-y,-z
x,-y,1/2+z
1/2+x,1/2+y,z
1/2-x,1/2+y,1/2-z
1/2-x,1/2-y,-z
1/2+x,1/2-y,1/2+z
loop_
_atom_site_type_symbol
_atom_site_label
_atom_site_fract_x
_atom_site_fract_y
_atom_site_fract_z
Si Si1 0.769378 0.838468 0.970036
Si Si2 0.531265 0.465007 0.086355
Si Si3 0.866183 0.452413 0.242497
Si Si4 0.784454 0.228140 0.333507
Si Si5 0.317463 0.086830 0.417069
Si Si6 0.005278 0.122264 0.332934
Si Si7 0.627372 0.907925 0.104186
Si Si8 0.070778 0.622170 0.181588
O O1 0.821753 0.826319 0.913677
O O2 0.604367 0.884287 0.909201
O O3 0.750000 0.750000 0.000000
O O4 0.898457 0.897407 0.054289
O O5 0.699386 0.420298 0.153695
O O6 0.546522 0.537265 0.148764
O O7 0.500000 0.500000 0.000000
O O8 0.911366 0.436660 0.336330
O O9 0.881354 0.553798 0.243442
O O10 0.000000 0.408325 0.250000
O O11 0.768900 0.325161 0.349785
O O12 0.617494 0.208875 0.237231
O O13 0.917197 0.203842 0.329741
O O14 0.188161 0.130463 0.413629
O O15 0.473083 0.119615 0.508607
O O16 0.313674 0.115360 0.337617
O O17 0.297702 0.984099 0.410169
O O18 0.000000 0.110872 0.250000
#
# Coordination Sequence:
#
# PCOD8149386 Si02
#       8
#     8   8   8   8   8   8   8   8
#     4  12  28  44  71 108 148 192 242 316 381 444
#     4  12  25  46  72 108 144 192 260 305 373 471
#     4  11  23  43  71 100 135 188 239 300 367 449
#     4  12  24  46  67 106 146 186 244 310 389 440
#     4  10  23  45  73  99 138 197 250 297 372 466
#     4  12  24  45  73 106 147 197 248 312 378 451
#     4  10  25  42  68 103 138 184 248 301 372 455
#     4  11  22  47  70  98 141 188 239 297 379 446
#
# _framework density 23.248598000000001
#
# number of rings (size 3 to 8) (size 9 to 14) (size 15 to 20)
#    0.000    0.750    3.750    3.375   10.500    1.000 
#    0.000    0.000    0.000    0.000    0.000    0.000 
#    0.000    0.000    0.000    0.000    0.000    0.000 
#
# Total GULP energy -396558.969638 kJ/mol
# GULP energy per Si atom -12392.467801 kJ/mol
# Density = 2.319568 g / cm^3
# Si number density = 23.248598 Si / 1000 Ang^3
#
#
#
# Elastic Constant Matrix: (Units=GPa)
#
#
# Indices 1 2 3 4 5 6 
#
# 1 116.2694 7.3733 26.6395 0.0000 5.6762 0.0000
# 2 7.3733 84.8128 25.9166 0.0000 13.6117 0.0000
# 3 26.6395 25.9166 95.7785 0.0000 4.7688 0.0000
# 4 0.0000 0.0000 0.0000 37.0906 0.0000 3.7709
# 5 5.6762 13.6117 4.7688 0.0000 47.4071 0.0000
# 6 0.0000 0.0000 0.0000 3.7709 0.0000 17.9518
#
#
#
# Elastic Compliance Matrix: (Units=1/GPa)
#
#
# Indices 1 2 3 4 5 6 
#
# 1 0.009221 0.000120 -0.002553 0.000000 -0.000882 0.000000
# 2 0.000120 0.013410 -0.003487 0.000000 -0.003514 0.000000
# 3 -0.002553 -0.003487 0.012090 0.000000 0.000091 0.000000
# 4 0.000000 0.000000 0.000000 0.027549 0.000000 -0.005787
# 5 -0.000882 -0.003514 0.000091 0.000000 0.022199 0.000000
# 6 0.000000 0.000000 0.000000 -0.005787 0.000000 0.056920
#
#
# Mechanical properties :
#
#
# Convention : Reuss Voigt Hill
#
# Bulk Modulus (GPa) = 43.70556 46.30219 45.00387
# Shear Modulus (GPa) = 31.08353 36.28532 33.68442
#
# Velocity S-wave (km/s) = 3.66048 3.95492 3.81054
# Velocity P-wave (km/s) = 6.05851 6.38863 6.22576
#
# Compressibility (1/GPa) = 0.02288038
#
# Stress axis : x y z
#
# Youngs Moduli (GPa) = 108.44622 74.57282 82.71338
#
# Poissons Ratio (x) = -0.00896 0.21119
# Poissons Ratio (y) = -0.01302 0.28842
# Poissons Ratio (z) = 0.27690 0.26003
#
# Static dielectric constant tensor:
#      x y z
#    x 4.464120 0.000000 0.014620 
#    y 0.000000 4.211280 0.000000 
#    z 0.014620 0.000000 4.275480 
# 
# 
# High freq. dielectric constant tensor:
#      x y z
#    x 1.930730 0.000000 -0.003980 
#    y 0.000000 1.889130 0.000000 
#    z -0.003980 0.000000 1.933780 
# 
# From -- ./inp_files/239822.got.cif
#   From: 2010.06.25/outbox.cif.g09.slc.cpg/sg15_120_cif.got.tgz:239822.got - 2010.06.28 07:06:18.
