data_PCOD8149172
_publ_section_title
;
Structure prediction by ZEFSAII (Michael W. Deem and Ramdas Pophale) SiO2 
 PCOD8149172
Probable space group: C 2/C
;
_chemical_formula_sum "Si O2"
_cell_formula_units_Z 56
_cell_length_a 16.235992
_cell_length_b 30.160784
_cell_length_c 4.932423
_cell_angle_alpha 90.000000
_cell_angle_beta 71.838972
_cell_angle_gamma 90.000000
_cell_volume 2295.036568
_symmetry_space_group_name_H-M "C 2/C"
_symmetry_group_IT_number 15
_symmetry_cell_setting 'monoclinic'
loop_
_space_group_symop_operation_xyz
x,y,z
-x,y,1/2-z
-x,-y,-z
x,-y,1/2+z
1/2+x,1/2+y,z
1/2-x,1/2+y,1/2-z
1/2-x,1/2-y,-z
1/2+x,1/2-y,1/2+z
loop_
_atom_site_type_symbol
_atom_site_label
_atom_site_fract_x
_atom_site_fract_y
_atom_site_fract_z
Si Si1 0.862562 0.181644 0.822016
Si Si2 0.422145 0.830086 0.154443
Si Si3 0.500000 0.247376 0.250000
Si Si4 0.944006 0.901585 0.538733
Si Si5 0.100490 0.470282 0.958257
Si Si6 0.298404 0.529157 0.204498
Si Si7 0.500000 0.899738 0.750000
Si Si8 0.245154 0.801880 0.560517
O O1 0.915016 0.142086 0.904653
O O2 0.782043 0.193488 0.099711
O O3 0.822254 0.171954 0.567139
O O4 0.926045 0.222502 0.692602
O O5 0.500000 0.849445 0.250000
O O6 0.336824 0.825697 0.422288
O O7 0.449692 0.781750 0.021120
O O8 0.418640 0.868188 0.926601
O O9 0.861614 0.930330 0.711423
O O10 0.000000 0.889685 0.750000
O O11 0.000000 0.927694 0.250000
O O12 0.081993 0.512730 0.781991
O O13 0.199882 0.454019 0.832806
O O14 0.038569 0.429528 0.952136
O O15 0.316555 0.487904 0.383795
O O16 0.250000 0.750000 0.500000
#
# Coordination Sequence:
#
# PCOD8149172 Si02
#       8
#     8   8   4   8   8   8   4   8
#     4  12  27  45  74 100 140 186 238 296 345 426
#     4  11  27  43  69 104 142 188 234 296 360 414
#     4  11  24  46  72  94 146 180 238 288 352 419
#     4  12  26  44  69 106 139 179 238 286 359 419
#     4  10  23  44  72 100 137 185 232 282 352 431
#     4  10  23  44  69 100 138 180 225 284 355 425
#     4  11  26  42  68 104 142 180 238 294 354 413
#     4  12  26  46  71 101 138 190 241 288 359 426
#
# _framework density 24.400480999999999
#
# number of rings (size 3 to 8) (size 9 to 14) (size 15 to 20)
#    0.000    0.857    2.143    3.429    8.000    1.714 
#    2.571    0.000    0.000    0.000    0.000    0.000 
#    0.000    0.000    0.000    0.000    0.000    0.000 
#
# Total GULP energy -347189.531307 kJ/mol
# GULP energy per Si atom -12399.626118 kJ/mol
# Density = 2.434494 g / cm^3
# Si number density = 24.400481 Si / 1000 Ang^3
#
#
#
# Elastic Constant Matrix: (Units=GPa)
#
#
# Indices 1 2 3 4 5 6 
#
# 1 125.5750 46.5127 17.8426 0.0000 2.3716 0.0000
# 2 46.5127 102.3829 7.9554 0.0000 -9.6431 0.0000
# 3 17.8426 7.9554 76.7566 0.0000 -3.2354 0.0000
# 4 0.0000 0.0000 0.0000 22.3890 0.0000 9.6681
# 5 2.3716 -9.6431 -3.2354 0.0000 46.9342 0.0000
# 6 0.0000 0.0000 0.0000 9.6681 0.0000 -21.5234
#
#
#
# Elastic Compliance Matrix: (Units=1/GPa)
#
#
# Indices 1 2 3 4 5 6 
#
# 1 0.009935 -0.004512 -0.001908 0.000000 -0.001561 0.000000
# 2 -0.004512 0.012079 -0.000089 0.000000 0.002704 0.000000
# 3 -0.001908 -0.000089 0.013523 0.000000 0.001010 0.000000
# 4 0.000000 0.000000 0.000000 0.037409 0.000000 0.016804
# 5 -0.001561 0.002704 0.001010 0.000000 0.022010 0.000000
# 6 0.000000 0.000000 0.000000 0.016804 0.000000 -0.038913
#
#
# Mechanical properties :
#
#
# Convention : Reuss Voigt Hill
#
# Bulk Modulus (GPa) = 44.40596 49.92621 47.16608
# Shear Modulus (GPa) = 65.30136 25.05353 45.17745
#
# Velocity S-wave (km/s) = 5.17884 3.20779 4.30757
# Velocity P-wave (km/s) = 7.34839 5.85025 6.64170
#
# Compressibility (1/GPa) = 0.02251950
#
# Stress axis : x y z
#
# Youngs Moduli (GPa) = 100.65166 82.78978 73.94568
#
# Poissons Ratio (x) = 0.37358 0.14106
# Poissons Ratio (y) = 0.45418 0.00658
# Poissons Ratio (z) = 0.19201 0.00737
#
# Static dielectric constant tensor:
#      x y z
#    x 4.606130 0.000000 -0.155360 
#    y 0.000000 4.154270 0.000000 
#    z -0.155360 0.000000 4.787390 
# 
# 
# High freq. dielectric constant tensor:
#      x y z
#    x 1.979160 0.000000 -0.006400 
#    y 0.000000 1.961010 0.000000 
#    z -0.006400 0.000000 1.984290 
# 
# From -- ./inp_files/11518.got.cif
#   From: 2010.06.25/outbox.cif.g09.slc.cpg/sg15_6_cif.got.tgz:11518.got - 2010.06.28 07:06:18.
