data_PCOD8149971
_publ_section_title
;
Structure prediction by ZEFSAII (Michael W. Deem and Ramdas Pophale) SiO2 
 PCOD8149971
Probable space group: C 2/C
;
_chemical_formula_sum "Si O2"
_cell_formula_units_Z 64
_cell_length_a 11.378534
_cell_length_b 14.627116
_cell_length_c 18.878589
_cell_angle_alpha 90.000000
_cell_angle_beta 94.868748
_cell_angle_gamma 90.000000
_cell_volume 3130.723166
_symmetry_space_group_name_H-M "C 2/C"
_symmetry_group_IT_number 15
_symmetry_cell_setting 'monoclinic'
loop_
_space_group_symop_operation_xyz
x,y,z
-x,y,1/2-z
-x,-y,-z
x,-y,1/2+z
1/2+x,1/2+y,z
1/2-x,1/2+y,1/2-z
1/2-x,1/2-y,-z
1/2+x,1/2-y,1/2+z
loop_
_atom_site_type_symbol
_atom_site_label
_atom_site_fract_x
_atom_site_fract_y
_atom_site_fract_z
Si Si1 0.600361 0.923881 0.575815
Si Si2 0.526035 0.234861 0.827610
Si Si3 0.903861 0.564328 0.585947
Si Si4 0.988303 0.903756 0.171182
Si Si5 0.348553 0.693076 0.418701
Si Si6 0.327720 0.578976 0.185433
Si Si7 0.802972 0.020444 0.343820
Si Si8 0.581230 0.240806 0.430923
O O1 0.645211 0.927054 0.496766
O O2 0.711190 0.914942 0.632500
O O3 0.514436 0.838074 0.584667
O O4 0.533822 0.018962 0.589972
O O5 0.500000 0.190401 0.750000
O O6 0.597941 0.164241 0.879335
O O7 0.397602 0.248157 0.855907
O O8 0.597390 0.329224 0.822200
O O9 0.824914 0.500270 0.631408
O O10 0.937411 0.825528 0.120586
O O11 0.000000 0.862731 0.250000
O O12 0.906096 0.993332 0.165233
O O13 0.119969 0.928716 0.152942
O O14 0.370291 0.587455 0.401566
O O15 0.425778 0.721811 0.489916
O O16 0.209995 0.703600 0.421454
O O17 0.291715 0.567422 0.265813
#
# Coordination Sequence:
#
# PCOD8149971 Si02
#       8
#     8   8   8   8   8   8   8   8
#     4  11  26  45  61  97 139 168 215 276 320 383
#     4  12  24  44  69  97 130 175 219 273 323 390
#     4  11  27  44  66  94 133 176 216 263 328 391
#     4  10  24  43  66  96 131 170 219 267 326 387
#     4  11  23  44  69  93 132 173 223 259 331 385
#     4  11  25  43  67  96 135 166 215 280 326 378
#     4  11  23  46  65  95 131 173 217 271 321 390
#     4  11  25  42  68  99 130 176 216 271 321 394
#
# _framework density 20.44256
#
# number of rings (size 3 to 8) (size 9 to 14) (size 15 to 20)
#    0.000    1.000    5.000    0.375    7.000    4.000 
#    0.000    0.000    0.000    0.000    0.000    0.000 
#    0.000    0.000    0.000    0.000    0.000    0.000 
#
# Total GULP energy -396791.548338 kJ/mol
# GULP energy per Si atom -12399.735886 kJ/mol
# Density = 2.039603 g / cm^3
# Si number density = 20.442560 Si / 1000 Ang^3
#
#
#
# Elastic Constant Matrix: (Units=GPa)
#
#
# Indices 1 2 3 4 5 6 
#
# 1 72.2429 11.2236 47.0038 0.0000 4.0029 0.0000
# 2 11.2236 97.4909 48.3499 0.0000 -1.7580 0.0000
# 3 47.0038 48.3499 101.0624 0.0000 -8.5660 0.0000
# 4 0.0000 0.0000 0.0000 31.8677 0.0000 5.6218
# 5 4.0029 -1.7580 -8.5660 0.0000 36.6962 0.0000
# 6 0.0000 0.0000 0.0000 5.6218 0.0000 27.6421
#
#
#
# Elastic Compliance Matrix: (Units=1/GPa)
#
#
# Indices 1 2 3 4 5 6 
#
# 1 0.021396 0.003398 -0.011998 0.000000 -0.004972 0.000000
# 2 0.003398 0.014015 -0.008427 0.000000 -0.001666 0.000000
# 3 -0.011998 -0.008427 0.019979 0.000000 0.005569 0.000000
# 4 0.000000 0.000000 0.000000 0.032548 0.000000 -0.006619
# 5 -0.004972 -0.001666 0.005569 0.000000 0.029013 0.000000
# 6 0.000000 0.000000 0.000000 -0.006619 0.000000 0.037523
#
#
# Mechanical properties :
#
#
# Convention : Reuss Voigt Hill
#
# Bulk Modulus (GPa) = 46.86972 53.77230 50.32101
# Shear Modulus (GPa) = 25.55711 30.18910 27.87310
#
# Velocity S-wave (km/s) = 3.53964 3.84705 3.69654
# Velocity P-wave (km/s) = 6.29942 6.78928 6.54893
#
# Compressibility (1/GPa) = 0.02133574
#
# Stress axis : x y z
#
# Youngs Moduli (GPa) = 46.73702 71.35081 50.05353
#
# Poissons Ratio (x) = -0.24242 0.60055
# Poissons Ratio (y) = -0.15879 0.42178
# Poissons Ratio (z) = 0.56076 0.60124
#
# Static dielectric constant tensor:
#      x y z
#    x 3.688340 0.000000 -0.187760 
#    y 0.000000 3.794370 0.000000 
#    z -0.187760 0.000000 4.027360 
# 
# 
# High freq. dielectric constant tensor:
#      x y z
#    x 1.797860 0.000000 -0.014170 
#    y 0.000000 1.805150 0.000000 
#    z -0.014170 0.000000 1.813820 
# 
# From -- ./inp_files/198352.got.cif
#   From: 2010.06.25/outbox.cif.g09.slc.cpg/sg15_100_cif.got.tgz:198352.got - 2010.06.28 07:06:18.
