data_PCOD8149203
_publ_section_title
;
Structure prediction by ZEFSAII (Michael W. Deem and Ramdas Pophale) SiO2 
 PCOD8149203
Probable space group: C 2/C
;
_chemical_formula_sum "Si O2"
_cell_formula_units_Z 60
_cell_length_a 14.574587
_cell_length_b 20.774526
_cell_length_c 9.233952
_cell_angle_alpha 90.000000
_cell_angle_beta 94.628119
_cell_angle_gamma 90.000000
_cell_volume 2786.741073
_symmetry_space_group_name_H-M "C 2/C"
_symmetry_group_IT_number 15
_symmetry_cell_setting 'monoclinic'
loop_
_space_group_symop_operation_xyz
x,y,z
-x,y,1/2-z
-x,-y,-z
x,-y,1/2+z
1/2+x,1/2+y,z
1/2-x,1/2+y,1/2-z
1/2-x,1/2-y,-z
1/2+x,1/2-y,1/2+z
loop_
_atom_site_type_symbol
_atom_site_label
_atom_site_fract_x
_atom_site_fract_y
_atom_site_fract_z
Si Si1 0.500000 0.653965 0.750000
Si Si2 0.872238 0.938767 0.080137
Si Si3 0.006347 0.368859 0.923744
Si Si4 0.101698 0.933090 0.739912
Si Si5 0.774201 0.164803 0.097687
Si Si6 0.388831 0.249587 0.410442
Si Si7 0.153039 0.564558 0.929820
Si Si8 0.828224 0.568089 0.905071
O O1 0.543765 0.609641 0.879071
O O2 0.582647 0.696657 0.699444
O O3 0.776002 0.904792 0.112101
O O4 0.884400 0.005806 0.159844
O O5 0.878871 0.958506 0.915871
O O6 0.977415 0.295230 0.957496
O O7 0.000000 0.381576 0.750000
O O8 0.941773 0.417625 0.003108
O O9 0.108367 0.381604 0.998780
O O10 0.175725 0.877531 0.776815
O O11 0.000000 0.904136 0.750000
O O12 0.691032 0.203413 0.165625
O O13 0.848244 0.215755 0.046646
O O14 0.730883 0.119125 0.966898
O O15 0.136762 0.557082 0.755199
O O16 0.181948 0.497690 0.005441
#
# Coordination Sequence:
#
# PCOD8149203 Si02
#       8
#     4   8   8   8   8   8   8   8
#     4  12  24  46  66  96 136 176 230 266 346 390
#     4  12  27  40  72 102 139 175 221 288 343 411
#     4  11  24  43  69  97 138 185 228 277 339 406
#     4  12  25  44  68 106 138 171 225 285 351 408
#     4  10  23  44  70  96 135 180 233 265 344 396
#     4  10  23  44  71  91 132 196 218 273 328 411
#     4  11  23  41  69 100 142 181 218 289 338 415
#     4  12  24  41  66 108 137 174 232 279 350 404
#
# _framework density 21.530525999999998
#
# number of rings (size 3 to 8) (size 9 to 14) (size 15 to 20)
#    0.000    0.800    2.667    4.400    5.600    0.000 
#    0.000   14.667    0.000    0.000    0.000    0.000 
#    0.000    0.000    0.000    0.000    0.000    0.000 
#
# Total GULP energy -372005.064559 kJ/mol
# GULP energy per Si atom -12400.168819 kJ/mol
# Density = 2.148152 g / cm^3
# Si number density = 21.530526 Si / 1000 Ang^3
#
#
#
# Elastic Constant Matrix: (Units=GPa)
#
#
# Indices 1 2 3 4 5 6 
#
# 1 105.6930 50.2826 37.1720 0.0000 6.7292 0.0000
# 2 50.2826 119.7130 47.6585 0.0000 10.3723 0.0000
# 3 37.1720 47.6585 143.4909 0.0000 -3.3710 0.0000
# 4 0.0000 0.0000 0.0000 17.4802 0.0000 -9.2990
# 5 6.7292 10.3723 -3.3710 0.0000 35.8713 0.0000
# 6 0.0000 0.0000 0.0000 -9.2990 0.0000 38.8793
#
#
#
# Elastic Compliance Matrix: (Units=1/GPa)
#
#
# Indices 1 2 3 4 5 6 
#
# 1 0.012214 -0.004327 -0.001755 0.000000 -0.001205 0.000000
# 2 -0.004327 0.011514 -0.002768 0.000000 -0.002778 0.000000
# 3 -0.001755 -0.002768 0.008388 0.000000 0.001918 0.000000
# 4 0.000000 0.000000 0.000000 0.065547 0.000000 0.015677
# 5 -0.001205 -0.002778 0.001918 0.000000 0.029087 0.000000
# 6 0.000000 0.000000 0.000000 0.015677 0.000000 0.029470
#
#
# Mechanical properties :
#
#
# Convention : Reuss Voigt Hill
#
# Bulk Modulus (GPa) = 69.37429 71.01367 70.19398
# Shear Modulus (GPa) = 27.97571 34.03176 31.00373
#
# Velocity S-wave (km/s) = 3.60856 3.98002 3.79884
# Velocity P-wave (km/s) = 7.04653 7.36038 7.20516
#
# Compressibility (1/GPa) = 0.01441456
#
# Stress axis : x y z
#
# Youngs Moduli (GPa) = 81.87371 86.85429 119.21332
#
# Poissons Ratio (x) = 0.37582 0.20925
# Poissons Ratio (y) = 0.35427 0.33003
# Poissons Ratio (z) = 0.14371 0.24045
#
# Static dielectric constant tensor:
#      x y z
#    x 3.958740 0.000000 -0.232540 
#    y 0.000000 3.973320 0.000000 
#    z -0.232540 0.000000 3.828180 
# 
# 
# High freq. dielectric constant tensor:
#      x y z
#    x 1.865680 0.000000 -0.008110 
#    y 0.000000 1.846650 0.000000 
#    z -0.008110 0.000000 1.832940 
# 
# From -- ./inp_files/42254.got.cif
#   From: 2010.06.25/outbox.cif.g09.slc.cpg/sg15_22_cif.got.tgz:42254.got - 2010.06.28 07:06:18.
