data_PCOD8149824
_publ_section_title
;
Structure prediction by ZEFSAII (Michael W. Deem and Ramdas Pophale) SiO2 
 PCOD8149824
Probable space group: C 2/C
;
_chemical_formula_sum "Si O2"
_cell_formula_units_Z 44
_cell_length_a 11.236521
_cell_length_b 13.354373
_cell_length_c 20.744885
_cell_angle_alpha 90.000000
_cell_angle_beta 137.441549
_cell_angle_gamma 90.000000
_cell_volume 2105.390981
_symmetry_space_group_name_H-M "C 2/C"
_symmetry_group_IT_number 15
_symmetry_cell_setting 'monoclinic'
loop_
_space_group_symop_operation_xyz
x,y,z
-x,y,1/2-z
-x,-y,-z
x,-y,1/2+z
1/2+x,1/2+y,z
1/2-x,1/2+y,1/2-z
1/2-x,1/2-y,-z
1/2+x,1/2-y,1/2+z
loop_
_atom_site_type_symbol
_atom_site_label
_atom_site_fract_x
_atom_site_fract_y
_atom_site_fract_z
Si Si1 0.697692 0.796170 0.710773
Si Si2 0.605335 0.429533 0.620750
Si Si3 0.883670 0.086464 0.767567
Si Si4 0.761296 0.433173 0.076605
Si Si5 0.500000 0.213760 0.750000
Si Si6 0.971259 0.486688 0.913302
O O1 0.768507 0.840640 0.806112
O O2 0.602135 0.691936 0.688912
O O3 0.568003 0.871581 0.621653
O O4 0.866351 0.785111 0.732959
O O5 0.546757 0.502376 0.655740
O O6 0.426161 0.384972 0.518725
O O7 0.725571 0.485619 0.617120
O O8 0.000000 0.088022 0.750000
O O9 0.682184 0.061882 0.670361
O O10 0.892707 0.350673 0.155766
O O11 0.848382 0.484896 0.049761
O O12 0.000000 0.500000 0.000000
#
# Coordination Sequence:
#
# PCOD8149824 Si02
#       6
#     8   8   8   8   4   8
#     4  11  25  40  68  92 127 166 211 260 320 367
#     4  10  24  42  65  94 125 174 203 264 312 376
#     4  11  23  43  62  94 131 165 213 259 315 378
#     4  11  22  45  65  87 131 163 216 254 316 374
#     4  12  22  42  66  96 122 164 216 268 304 382
#     4  11  25  43  64  94 128 172 207 264 319 377
#
# _framework density 20.898731000000002
#
# number of rings (size 3 to 8) (size 9 to 14) (size 15 to 20)
#    0.000    1.091    3.636    2.182   10.182    2.182 
#    0.000    1.818    0.000    0.000    0.000    0.000 
#    0.000    0.000    0.000    0.000    0.000    0.000 
#
# Total GULP energy -272857.387505 kJ/mol
# GULP energy per Si atom -12402.608523 kJ/mol
# Density = 2.085116 g / cm^3
# Si number density = 20.898731 Si / 1000 Ang^3
#
#
#
# Elastic Constant Matrix: (Units=GPa)
#
#
# Indices 1 2 3 4 5 6 
#
# 1 110.7162 -9.4513 -2.5847 0.0000 -8.9434 0.0000
# 2 -9.4513 65.8075 17.5565 0.0000 -5.2387 0.0000
# 3 -2.5847 17.5565 80.4066 0.0000 -15.0672 0.0000
# 4 0.0000 0.0000 0.0000 8.2403 0.0000 2.7916
# 5 -8.9434 -5.2387 -15.0672 0.0000 33.3346 0.0000
# 6 0.0000 0.0000 0.0000 2.7916 0.0000 24.6921
#
#
#
# Elastic Compliance Matrix: (Units=1/GPa)
#
#
# Indices 1 2 3 4 5 6 
#
# 1 0.009411 0.001444 0.000549 0.000000 0.003000 0.000000
# 2 0.001444 0.016390 -0.003252 0.000000 0.001493 0.000000
# 3 0.000549 -0.003252 0.014308 0.000000 0.006104 0.000000
# 4 0.000000 0.000000 0.000000 0.126188 0.000000 -0.014266
# 5 0.003000 0.001493 0.006104 0.000000 0.033797 0.000000
# 6 0.000000 0.000000 0.000000 -0.014266 0.000000 0.042112
#
#
# Mechanical properties :
#
#
# Convention : Reuss Voigt Hill
#
# Bulk Modulus (GPa) = 26.60277 29.77461 28.18869
# Shear Modulus (GPa) = 19.43605 30.01404 24.72505
#
# Velocity S-wave (km/s) = 3.05292 3.79379 3.44334
# Velocity P-wave (km/s) = 5.01837 5.78519 5.41537
#
# Compressibility (1/GPa) = 0.03759007
#
# Stress axis : x y z
#
# Youngs Moduli (GPa) = 106.26415 61.01376 69.88916
#
# Poissons Ratio (x) = -0.08809 -0.03840
# Poissons Ratio (y) = -0.15342 0.22731
# Poissons Ratio (z) = -0.05838 0.19845
#
# Static dielectric constant tensor:
#      x y z
#    x 3.939890 0.000000 -0.097910 
#    y 0.000000 3.759380 0.000000 
#    z -0.097910 0.000000 4.052250 
# 
# 
# High freq. dielectric constant tensor:
#      x y z
#    x 1.836160 0.000000 -0.005220 
#    y 0.000000 1.811000 0.000000 
#    z -0.005220 0.000000 1.823070 
# 
# From -- ./inp_files/142307.got.cif
#   From: 2010.06.25/outbox.cif.g09.slc.cpg/sg15_72_cif.got.tgz:142307.got - 2010.06.28 07:06:18.
