data_PCOD8149223
_publ_section_title
;
Structure prediction by ZEFSAII (Michael W. Deem and Ramdas Pophale) SiO2 
 PCOD8149223
Probable space group: C 2/C
;
_chemical_formula_sum "Si O2"
_cell_formula_units_Z 36
_cell_length_a 7.856419
_cell_length_b 17.964043
_cell_length_c 15.167094
_cell_angle_alpha 90.000000
_cell_angle_beta 44.580037
_cell_angle_gamma 90.000000
_cell_volume 1502.482395
_symmetry_space_group_name_H-M "C 2/C"
_symmetry_group_IT_number 15
_symmetry_cell_setting 'monoclinic'
loop_
_space_group_symop_operation_xyz
x,y,z
-x,y,1/2-z
-x,-y,-z
x,-y,1/2+z
1/2+x,1/2+y,z
1/2-x,1/2+y,1/2-z
1/2-x,1/2-y,-z
1/2+x,1/2-y,1/2+z
loop_
_atom_site_type_symbol
_atom_site_label
_atom_site_fract_x
_atom_site_fract_y
_atom_site_fract_z
Si Si1 0.500000 0.144274 0.750000
Si Si2 0.746677 0.055918 0.810214
Si Si3 0.207008 0.598763 0.241089
Si Si4 0.119574 0.655742 0.000394
Si Si5 0.495484 0.313415 0.003444
O O1 0.654556 0.092198 0.755669
O O2 0.702650 0.191408 0.621760
O O3 0.577313 0.081737 0.955490
O O4 0.000000 0.090243 0.750000
O O5 0.781377 0.968928 0.777418
O O6 0.000000 0.570776 0.250000
O O7 0.090454 0.660830 0.347971
O O8 0.436527 0.634365 0.105569
O O9 0.379094 0.652987 0.954879
O O10 0.097781 0.730169 0.948942
#
# Coordination Sequence:
#
# PCOD8149223 Si02
#       5
#     4   8   8   8   8
#     4  12  26  46  74 106 146 188 238 298 348 426
#     4  12  25  45  73 105 145 188 237 292 361 429
#     4  10  23  44  71 107 145 187 240 298 354 420
#     4  10  23  45  76 103 142 192 237 294 361 425
#     4  10  24  45  74 106 147 186 239 297 356 420
#
# _framework density 23.960346999999999
#
# number of rings (size 3 to 8) (size 9 to 14) (size 15 to 20)
#    0.000    1.333    3.333    0.667    3.111    6.222 
#    2.000    0.000    0.000    0.000    0.000    0.000 
#    0.000    0.000    0.000    0.000    0.000    0.000 
#
# Total GULP energy -223070.455048 kJ/mol
# GULP energy per Si atom -12392.803058 kJ/mol
# Density = 2.390581 g / cm^3
# Si number density = 23.960347 Si / 1000 Ang^3
#
#
#
# Elastic Constant Matrix: (Units=GPa)
#
#
# Indices 1 2 3 4 5 6 
#
# 1 105.5568 41.5219 48.1638 0.0000 -4.0058 0.0000
# 2 41.5219 128.6878 59.1041 0.0000 15.1311 0.0000
# 3 48.1638 59.1041 158.2165 0.0000 -11.7600 0.0000
# 4 0.0000 0.0000 0.0000 33.1506 0.0000 16.3165
# 5 -4.0058 15.1311 -11.7600 0.0000 38.3408 0.0000
# 6 0.0000 0.0000 0.0000 16.3165 0.0000 33.3422
#
#
#
# Elastic Compliance Matrix: (Units=1/GPa)
#
#
# Indices 1 2 3 4 5 6 
#
# 1 0.011759 -0.002896 -0.002376 0.000000 0.001643 0.000000
# 2 -0.002896 0.011083 -0.003690 0.000000 -0.005808 0.000000
# 3 -0.002376 -0.003690 0.008711 0.000000 0.003880 0.000000
# 4 0.000000 0.000000 0.000000 0.039736 0.000000 -0.019446
# 5 0.001643 -0.005808 0.003880 0.000000 0.029736 0.000000
# 6 0.000000 0.000000 0.000000 -0.019446 0.000000 0.039508
#
#
# Mechanical properties :
#
#
# Convention : Reuss Voigt Hill
#
# Bulk Modulus (GPa) = 73.37595 76.67118 75.02357
# Shear Modulus (GPa) = 30.67482 37.21148 33.94315
#
# Velocity S-wave (km/s) = 3.58192 3.94514 3.76791
# Velocity P-wave (km/s) = 6.91355 7.26780 7.09289
#
# Compressibility (1/GPa) = 0.01362844
#
# Stress axis : x y z
#
# Youngs Moduli (GPa) = 85.04017 90.22746 114.80267
#
# Poissons Ratio (x) = 0.26132 0.27273
# Poissons Ratio (y) = 0.24630 0.42366
# Poissons Ratio (z) = 0.20202 0.33297
#
# Static dielectric constant tensor:
#      x y z
#    x 4.350410 0.000000 0.016800 
#    y 0.000000 3.904310 0.000000 
#    z 0.016800 0.000000 4.306780 
# 
# 
# High freq. dielectric constant tensor:
#      x y z
#    x 1.951500 0.000000 0.008310 
#    y 0.000000 1.933610 0.000000 
#    z 0.008310 0.000000 1.950190 
# 
# From -- ./inp_files/76988.got.cif
#   From: 2010.06.25/outbox.cif.g09.slc.cpg/sg15_39_cif.got.tgz:76988.got - 2010.06.28 07:06:18.
