data_PCOD8149281
_publ_section_title
;
Structure prediction by ZEFSAII (Michael W. Deem and Ramdas Pophale) SiO2 
 PCOD8149281
Probable space group: C 2/C
;
_chemical_formula_sum "Si O2"
_cell_formula_units_Z 36
_cell_length_a 8.906688
_cell_length_b 11.361642
_cell_length_c 15.905900
_cell_angle_alpha 90.000000
_cell_angle_beta 85.432516
_cell_angle_gamma 90.000000
_cell_volume 1604.479507
_symmetry_space_group_name_H-M "C 2/C"
_symmetry_group_IT_number 15
_symmetry_cell_setting 'monoclinic'
loop_
_space_group_symop_operation_xyz
x,y,z
-x,y,1/2-z
-x,-y,-z
x,-y,1/2+z
1/2+x,1/2+y,z
1/2-x,1/2+y,1/2-z
1/2-x,1/2-y,-z
1/2+x,1/2-y,1/2+z
loop_
_atom_site_type_symbol
_atom_site_label
_atom_site_fract_x
_atom_site_fract_y
_atom_site_fract_z
Si Si1 0.295439 0.613322 0.626894
Si Si2 0.567923 0.675345 0.512012
Si Si3 0.000000 0.022134 0.750000
Si Si4 0.369928 0.073252 0.460151
Si Si5 0.442274 0.699807 0.340716
O O1 0.420775 0.604196 0.547771
O O2 0.373162 0.603457 0.714143
O O3 0.180324 0.504386 0.618225
O O4 0.212167 0.738202 0.625053
O O5 0.568727 0.796995 0.566687
O O6 0.719518 0.600186 0.523134
O O7 0.559542 0.709181 0.412917
O O8 0.081601 0.939443 0.676340
O O9 0.500000 0.000000 0.500000
O O10 0.500000 0.759682 0.250000
#
# Coordination Sequence:
#
# PCOD8149281 Si02
#       5
#     8   8   4   8   8
#     4  12  24  45  70  99 130 193 222 280 352 398
#     4  11  24  43  71 101 136 171 240 279 327 428
#     4  10  26  42  62  96 142 176 226 282 346 398
#     4  11  23  38  69 105 127 170 224 282 342 391
#     4  10  23  45  63  98 143 172 229 287 337 411
#
# _framework density 22.437183000000001
#
# number of rings (size 3 to 8) (size 9 to 14) (size 15 to 20)
#    0.667    0.444    4.444    1.333    0.000    5.333 
#    4.000    0.000    0.000    0.000    0.000    0.000 
#    0.000    0.000    0.000    0.000    0.000    0.000 
#
# Total GULP energy -223012.176840 kJ/mol
# GULP energy per Si atom -12389.565380 kJ/mol
# Density = 2.238611 g / cm^3
# Si number density = 22.437183 Si / 1000 Ang^3
#
#
#
# Elastic Constant Matrix: (Units=GPa)
#
#
# Indices 1 2 3 4 5 6 
#
# 1 109.6909 34.4111 49.4238 0.0000 21.5609 0.0000
# 2 34.4111 76.1061 28.7587 0.0000 24.1648 0.0000
# 3 49.4238 28.7587 122.1152 0.0000 27.8130 0.0000
# 4 0.0000 0.0000 0.0000 34.4330 0.0000 12.9009
# 5 21.5609 24.1648 27.8130 0.0000 41.0091 0.0000
# 6 0.0000 0.0000 0.0000 12.9009 0.0000 43.9294
#
#
#
# Elastic Compliance Matrix: (Units=1/GPa)
#
#
# Indices 1 2 3 4 5 6 
#
# 1 0.012265 -0.003562 -0.003707 0.000000 -0.001835 0.000000
# 2 -0.003562 0.017595 -0.000907 0.000000 -0.007880 0.000000
# 3 -0.003707 -0.000907 0.011043 0.000000 -0.005006 0.000000
# 4 0.000000 0.000000 0.000000 0.032632 0.000000 -0.009583
# 5 -0.001835 -0.007880 -0.005006 0.000000 0.033388 0.000000
# 6 0.000000 0.000000 0.000000 -0.009583 0.000000 0.025578
#
#
# Mechanical properties :
#
#
# Convention : Reuss Voigt Hill
#
# Bulk Modulus (GPa) = 40.73296 59.23328 49.98312
# Shear Modulus (GPa) = 31.83938 36.89555 34.36746
#
# Velocity S-wave (km/s) = 3.77111 4.05951 3.91796
# Velocity P-wave (km/s) = 6.09552 6.95915 6.54160
#
# Compressibility (1/GPa) = 0.02455014
#
# Stress axis : x y z
#
# Youngs Moduli (GPa) = 81.53242 56.83466 90.55314
#
# Poissons Ratio (x) = 0.20245 0.33570
# Poissons Ratio (y) = 0.29042 0.08216
# Poissons Ratio (z) = 0.30226 0.05157
#
# Static dielectric constant tensor:
#      x y z
#    x 3.853250 0.000000 0.273520 
#    y 0.000000 4.140860 0.000000 
#    z 0.273520 0.000000 3.918590 
# 
# 
# High freq. dielectric constant tensor:
#      x y z
#    x 1.867130 0.000000 0.030170 
#    y 0.000000 1.893830 0.000000 
#    z 0.030170 0.000000 1.870500 
# 
# From -- ./inp_files/235494.got.cif
#   From: 2010.06.25/outbox.cif.g09.slc.cpg/sg15_118_cif.got.tgz:235494.got - 2010.06.28 07:06:18.
