data_PCOD8149695
_publ_section_title
;
Structure prediction by ZEFSAII (Michael W. Deem and Ramdas Pophale) SiO2 
 PCOD8149695
Probable space group: C 2/C
;
_chemical_formula_sum "Si O2"
_cell_formula_units_Z 36
_cell_length_a 18.380422
_cell_length_b 8.988514
_cell_length_c 9.110278
_cell_angle_alpha 90.000000
_cell_angle_beta 91.728103
_cell_angle_gamma 90.000000
_cell_volume 1504.448897
_symmetry_space_group_name_H-M "C 2/C"
_symmetry_group_IT_number 15
_symmetry_cell_setting 'monoclinic'
loop_
_space_group_symop_operation_xyz
x,y,z
-x,y,1/2-z
-x,-y,-z
x,-y,1/2+z
1/2+x,1/2+y,z
1/2-x,1/2+y,1/2-z
1/2-x,1/2-y,-z
1/2+x,1/2-y,1/2+z
loop_
_atom_site_type_symbol
_atom_site_label
_atom_site_fract_x
_atom_site_fract_y
_atom_site_fract_z
Si Si1 0.724354 0.958633 0.107383
Si Si2 0.312911 0.634621 0.346056
Si Si3 0.908803 0.361867 0.982918
Si Si4 0.000000 0.463202 0.250000
Si Si5 0.052861 0.941743 0.125300
O O1 0.685226 0.812959 0.174177
O O2 0.753052 0.065392 0.235755
O O3 0.667568 0.052754 0.006323
O O4 0.791632 0.904900 0.011942
O O5 0.393234 0.572151 0.317129
O O6 0.896862 0.191077 0.934835
O O7 0.953775 0.434814 0.854650
O O8 0.948778 0.362582 0.143056
O O9 0.000000 0.883922 0.250000
O O10 0.000000 0.000000 0.000000
#
# Coordination Sequence:
#
# PCOD8149695 Si02
#       5
#     8   8   8   4   8
#     4  11  25  46  75 102 138 178 232 291 344 413
#     4  11  26  46  71 105 138 181 231 285 348 410
#     4  11  24  44  70 102 139 183 231 286 345 414
#     4  10  24  40  70 102 140 178 232 278 350 408
#     4  12  28  45  68 102 147 186 232 285 344 417
#
# _framework density 23.929027000000001
#
# number of rings (size 3 to 8) (size 9 to 14) (size 15 to 20)
#    0.000    0.889    1.111    4.000    7.778   10.667 
#    0.000    0.000    0.000    0.000    0.000    0.000 
#    0.000    0.000    0.000    0.000    0.000    0.000 
#
# Total GULP energy -223289.608247 kJ/mol
# GULP energy per Si atom -12404.978236 kJ/mol
# Density = 2.387456 g / cm^3
# Si number density = 23.929027 Si / 1000 Ang^3
#
#
#
# Elastic Constant Matrix: (Units=GPa)
#
#
# Indices 1 2 3 4 5 6 
#
# 1 112.6551 49.6244 23.0105 0.0000 22.8221 0.0000
# 2 49.6244 147.3982 36.4640 0.0000 19.7260 0.0000
# 3 23.0105 36.4640 110.8414 0.0000 20.7596 0.0000
# 4 0.0000 0.0000 0.0000 33.9067 0.0000 3.1645
# 5 22.8221 19.7260 20.7596 0.0000 39.7659 0.0000
# 6 0.0000 0.0000 0.0000 3.1645 0.0000 40.6602
#
#
#
# Elastic Compliance Matrix: (Units=1/GPa)
#
#
# Indices 1 2 3 4 5 6 
#
# 1 0.011269 -0.003051 -0.000452 0.000000 -0.004718 0.000000
# 2 -0.003051 0.008473 -0.001878 0.000000 -0.001472 0.000000
# 3 -0.000452 -0.001878 0.010541 0.000000 -0.004312 0.000000
# 4 0.000000 0.000000 0.000000 0.029709 0.000000 -0.002312
# 5 -0.004718 -0.001472 -0.004312 0.000000 0.030836 0.000000
# 6 0.000000 0.000000 0.000000 -0.002312 0.000000 0.024774
#
#
# Mechanical properties :
#
#
# Convention : Reuss Voigt Hill
#
# Bulk Modulus (GPa) = 51.22829 65.45470 58.34150
# Shear Modulus (GPa) = 37.63069 40.31960 38.97514
#
# Velocity S-wave (km/s) = 3.96990 4.10929 4.04019
# Velocity P-wave (km/s) = 6.51678 7.06598 6.79693
#
# Compressibility (1/GPa) = 0.01952046
#
# Stress axis : x y z
#
# Youngs Moduli (GPa) = 88.74286 118.02160 94.86507
#
# Poissons Ratio (x) = 0.36003 0.04290
# Poissons Ratio (y) = 0.27071 0.17820
# Poissons Ratio (z) = 0.04013 0.22170
#
# Static dielectric constant tensor:
#      x y z
#    x 4.146880 0.000000 0.111680 
#    y 0.000000 4.995120 0.000000 
#    z 0.111680 0.000000 4.317300 
# 
# 
# High freq. dielectric constant tensor:
#      x y z
#    x 1.948470 0.000000 -0.003210 
#    y 0.000000 1.956130 0.000000 
#    z -0.003210 0.000000 1.960740 
# 
# From -- ./inp_files/53600.got.cif
#   From: 2010.06.25/outbox.cif.g09.slc.cpg/sg15_27_cif.got.tgz:53600.got - 2010.06.28 07:06:18.
