data_PCOD8149348
_publ_section_title
;
Structure prediction by ZEFSAII (Michael W. Deem and Ramdas Pophale) SiO2 
 PCOD8149348
Probable space group: C 2/C
;
_chemical_formula_sum "Si O2"
_cell_formula_units_Z 52
_cell_length_a 24.664522
_cell_length_b 9.144814
_cell_length_c 25.341085
_cell_angle_alpha 90.000000
_cell_angle_beta 155.773463
_cell_angle_gamma 90.000000
_cell_volume 2345.429607
_symmetry_space_group_name_H-M "C 2/C"
_symmetry_group_IT_number 15
_symmetry_cell_setting 'monoclinic'
loop_
_space_group_symop_operation_xyz
x,y,z
-x,y,1/2-z
-x,-y,-z
x,-y,1/2+z
1/2+x,1/2+y,z
1/2-x,1/2+y,1/2-z
1/2-x,1/2-y,-z
1/2+x,1/2-y,1/2+z
loop_
_atom_site_type_symbol
_atom_site_label
_atom_site_fract_x
_atom_site_fract_y
_atom_site_fract_z
Si Si1 0.898168 0.356334 0.848067
Si Si2 0.927581 0.340507 0.596769
Si Si3 0.839542 0.624295 0.858201
Si Si4 0.500000 0.949884 0.250000
Si Si5 0.239679 0.978790 0.866207
Si Si6 0.460777 0.479412 0.155384
Si Si7 0.245662 0.698434 0.937236
O O1 0.862133 0.529345 0.824721
O O2 0.771572 0.250475 0.746067
O O3 0.943325 0.344604 0.826811
O O4 0.021539 0.310086 0.995979
O O5 0.920394 0.454062 0.638082
O O6 0.797594 0.380376 0.448339
O O7 0.911664 0.186040 0.611079
O O8 0.791411 0.490626 0.852885
O O9 0.404783 0.854957 0.203658
O O10 0.284659 0.823864 0.930419
O O11 0.083989 0.995502 0.727030
O O12 0.500000 0.528888 0.250000
O O13 0.349013 0.568058 0.025522
O O14 0.250000 0.750000 0.000000
#
# Coordination Sequence:
#
# PCOD8149348 Si02
#       7
#     8   8   8   4   8   8   8
#     4  10  23  45  69  98 135 170 222 276 337 389
#     4  11  24  40  65  94 131 171 218 269 322 389
#     4  10  23  46  71  99 131 173 219 282 331 401
#     4  12  24  38  64  92 132 180 216 266 320 390
#     4  11  24  44  63  93 135 169 219 271 322 395
#     4  12  23  38  66  92 127 173 216 261 322 392
#     4  12  24  39  59  90 130 172 213 261 323 381
#
# _framework density 22.170779
#
# number of rings (size 3 to 8) (size 9 to 14) (size 15 to 20)
#    0.000    0.923    5.385    0.923    2.154    3.077 
#    5.538    0.000    0.000    0.000    0.000    0.000 
#    0.000    0.000    0.000    0.000    0.000    0.000 
#
# Total GULP energy -322244.251943 kJ/mol
# GULP energy per Si atom -12394.009690 kJ/mol
# Density = 2.212032 g / cm^3
# Si number density = 22.170779 Si / 1000 Ang^3
#
#
#
# Elastic Constant Matrix: (Units=GPa)
#
#
# Indices 1 2 3 4 5 6 
#
# 1 48.1422 15.5174 16.5246 -0.0007 3.3349 0.0000
# 2 15.5174 103.2534 42.1630 -0.0004 4.4174 0.0000
# 3 16.5246 42.1630 107.8184 -0.0037 26.5832 -0.0006
# 4 -0.0007 -0.0004 -0.0037 34.9172 -0.0011 5.7122
# 5 3.3349 4.4174 26.5832 -0.0011 31.9051 0.0002
# 6 0.0000 0.0000 -0.0006 5.7122 0.0002 41.6477
#
#
#
# Elastic Compliance Matrix: (Units=1/GPa)
#
#
# Indices 1 2 3 4 5 6 
#
# 1 0.022389 -0.002330 -0.002546 0.000000 0.000104 0.000000
# 2 -0.002330 0.011958 -0.004998 0.000000 0.002752 0.000000
# 3 -0.002546 -0.004998 0.014326 0.000001 -0.010979 0.000000
# 4 0.000000 0.000000 0.000001 0.029296 0.000000 -0.004018
# 5 0.000104 0.002752 -0.010979 0.000000 0.040098 0.000000
# 6 0.000000 0.000000 0.000000 -0.004018 0.000000 0.024562
#
#
# Mechanical properties :
#
#
# Convention : Reuss Voigt Hill
#
# Bulk Modulus (GPa) = 34.56962 45.29151 39.93057
# Shear Modulus (GPa) = 29.06642 34.02795 31.54719
#
# Velocity S-wave (km/s) = 3.62473 3.92192 3.77625
# Velocity P-wave (km/s) = 5.75713 6.40167 6.08794
#
# Compressibility (1/GPa) = 0.02892713
#
# Stress axis : x y z
#
# Youngs Moduli (GPa) = 44.66396 83.62549 69.80171
#
# Poissons Ratio (x) = 0.19481 0.17772
# Poissons Ratio (y) = 0.10405 0.34885
# Poissons Ratio (z) = 0.11372 0.41794
#
# Static dielectric constant tensor:
#      x y z
#    x 4.104010 0.000000 0.019110 
#    y 0.000000 3.956520 0.000010 
#    z 0.019110 0.000010 2.423090 
# 
# 
# High freq. dielectric constant tensor:
#      x y z
#    x 1.866560 0.000000 0.016480 
#    y 0.000000 1.873340 0.000000 
#    z 0.016480 0.000000 1.874540 
# 
# From -- ./inp_files/320210.got.cif
#   From: 2010.06.25/outbox.cif.g09.slc.cpg/sg15_161_cif.got.tgz:320210.got - 2010.06.28 07:06:18.
