data_PCOD8149654
_publ_section_title
;
Structure prediction by ZEFSAII (Michael W. Deem and Ramdas Pophale) SiO2 
 PCOD8149654
Probable space group: C 2/C
;
_chemical_formula_sum "Si O2"
_cell_formula_units_Z 64
_cell_length_a 11.077587
_cell_length_b 15.019113
_cell_length_c 18.285645
_cell_angle_alpha 90.000000
_cell_angle_beta 95.084248
_cell_angle_gamma 90.000000
_cell_volume 3030.313929
_symmetry_space_group_name_H-M "C 2/C"
_symmetry_group_IT_number 15
_symmetry_cell_setting 'monoclinic'
loop_
_space_group_symop_operation_xyz
x,y,z
-x,y,1/2-z
-x,-y,-z
x,-y,1/2+z
1/2+x,1/2+y,z
1/2-x,1/2+y,1/2-z
1/2-x,1/2-y,-z
1/2+x,1/2-y,1/2+z
loop_
_atom_site_type_symbol
_atom_site_label
_atom_site_fract_x
_atom_site_fract_y
_atom_site_fract_z
Si Si1 0.306469 0.157207 0.482228
Si Si2 0.511288 0.053369 0.669382
Si Si3 0.260777 0.658136 0.427583
Si Si4 0.638316 0.770020 0.783742
Si Si5 0.082062 0.676932 0.544524
Si Si6 0.743146 0.534276 0.605469
Si Si7 0.139915 0.926158 0.249641
Si Si8 0.792075 0.413689 0.821359
O O1 0.250000 0.250000 0.500000
O O2 0.451672 0.164347 0.499233
O O3 0.237476 0.087621 0.530161
O O4 0.268808 0.127543 0.399444
O O5 0.500000 0.095892 0.750000
O O6 0.580394 0.123178 0.620808
O O7 0.382192 0.025582 0.633815
O O8 0.576343 0.958065 0.675803
O O9 0.159573 0.698755 0.367763
O O10 0.190316 0.639489 0.499830
O O11 0.380684 0.720117 0.439886
O O12 0.313387 0.563808 0.405171
O O13 0.500000 0.776094 0.750000
O O14 0.683499 0.667980 0.784808
O O15 0.720018 0.832409 0.736089
O O16 0.669852 0.582195 0.665462
O O17 0.000000 0.941832 0.250000
O O18 0.200008 0.007948 0.295287
#
# Coordination Sequence:
#
# PCOD8149654 Si02
#       8
#     8   8   8   8   8   8   8   8
#     4  11  25  44  65  93 131 182 226 275 337 406
#     4  11  20  38  68  98 125 167 229 282 331 383
#     4  11  21  40  64  97 133 171 214 278 344 391
#     4  11  22  38  66  96 131 173 222 275 324 405
#     4  10  24  40  63  98 134 167 221 281 333 399
#     4  11  22  41  64  93 131 166 224 275 330 398
#     4  11  25  42  62  97 133 174 219 275 340 407
#     4  12  22  42  69  96 131 175 226 273 341 402
#
# _framework density 21.119924999999999
#
# number of rings (size 3 to 8) (size 9 to 14) (size 15 to 20)
#    0.000    1.000    2.500    4.875    0.000    5.000 
#    0.000    1.875    0.000    0.000    0.000    0.000 
#    0.000    0.000    0.000    0.000    0.000    0.000 
#
# Total GULP energy -396760.296693 kJ/mol
# GULP energy per Si atom -12398.759272 kJ/mol
# Density = 2.107185 g / cm^3
# Si number density = 21.119925 Si / 1000 Ang^3
#
#
#
# Elastic Constant Matrix: (Units=GPa)
#
#
# Indices 1 2 3 4 5 6 
#
# 1 63.7896 35.0671 23.7125 0.0000 -12.6205 0.0000
# 2 35.0671 152.6265 56.4019 0.0000 -5.2643 0.0000
# 3 23.7125 56.4019 145.2614 0.0000 -19.3295 0.0000
# 4 0.0000 0.0000 0.0000 43.2425 0.0000 -6.3733
# 5 -12.6205 -5.2643 -19.3295 0.0000 28.1549 0.0000
# 6 0.0000 0.0000 0.0000 -6.3733 0.0000 30.7519
#
#
#
# Elastic Compliance Matrix: (Units=1/GPa)
#
#
# Indices 1 2 3 4 5 6 
#
# 1 0.019623 -0.004012 -0.000633 0.000000 0.007612 0.000000
# 2 -0.004012 0.008481 -0.002935 0.000000 -0.002227 0.000000
# 3 -0.000633 -0.002935 0.008822 0.000000 0.005224 0.000000
# 4 0.000000 0.000000 0.000000 0.023854 0.000000 0.004944
# 5 0.007612 -0.002227 0.005224 0.000000 0.042100 0.000000
# 6 0.000000 0.000000 0.000000 0.004944 0.000000 0.033543
#
#
# Mechanical properties :
#
#
# Convention : Reuss Voigt Hill
#
# Bulk Modulus (GPa) = 45.93925 65.78230 55.86077
# Shear Modulus (GPa) = 31.47847 36.86291 34.17069
#
# Velocity S-wave (km/s) = 3.86484 4.18234 4.02672
# Velocity P-wave (km/s) = 6.45870 7.38494 6.93729
#
# Compressibility (1/GPa) = 0.02176788
#
# Stress axis : x y z
#
# Youngs Moduli (GPa) = 50.95980 117.90461 113.35244
#
# Poissons Ratio (x) = 0.47307 0.07170
# Poissons Ratio (y) = 0.20447 0.33264
# Poissons Ratio (z) = 0.03223 0.34600
#
# Static dielectric constant tensor:
#      x y z
#    x 3.647980 0.000000 0.018360 
#    y 0.000000 3.995170 0.000000 
#    z 0.018360 0.000000 4.391530 
# 
# 
# High freq. dielectric constant tensor:
#      x y z
#    x 1.811650 0.000000 -0.004100 
#    y 0.000000 1.841170 0.000000 
#    z -0.004100 0.000000 1.843510 
# 
# From -- ./inp_files/198336.got.cif
#   From: 2010.06.25/outbox.cif.g09.slc.cpg/sg15_100_cif.got.tgz:198336.got - 2010.06.28 07:06:18.
