data_PCOD8149093
_publ_section_title
;
Structure prediction by ZEFSAII (Michael W. Deem and Ramdas Pophale) SiO2 
 PCOD8149093
Probable space group: C 2/C
;
_chemical_formula_sum "Si O2"
_cell_formula_units_Z 48
_cell_length_a 7.999853
_cell_length_b 17.378665
_cell_length_c 17.719855
_cell_angle_alpha 90.000000
_cell_angle_beta 115.540837
_cell_angle_gamma 90.000000
_cell_volume 2222.793165
_symmetry_space_group_name_H-M "C 2/C"
_symmetry_group_IT_number 15
_symmetry_cell_setting 'monoclinic'
loop_
_space_group_symop_operation_xyz
x,y,z
-x,y,1/2-z
-x,-y,-z
x,-y,1/2+z
1/2+x,1/2+y,z
1/2-x,1/2+y,1/2-z
1/2-x,1/2-y,-z
1/2+x,1/2-y,1/2+z
loop_
_atom_site_type_symbol
_atom_site_label
_atom_site_fract_x
_atom_site_fract_y
_atom_site_fract_z
Si Si1 0.639677 0.601135 0.565440
Si Si2 0.499069 0.609315 0.376404
Si Si3 0.607707 0.455168 0.344293
Si Si4 0.005755 0.512989 0.589746
Si Si5 0.141272 0.625643 0.217273
Si Si6 0.658632 0.247125 0.834968
O O1 0.502711 0.597981 0.467028
O O2 0.504583 0.576576 0.606326
O O3 0.722960 0.684908 0.597112
O O4 0.815535 0.546395 0.586057
O O5 0.635106 0.548116 0.361168
O O6 0.305684 0.588050 0.299052
O O7 0.556865 0.697045 0.374269
O O8 0.500000 0.429211 0.250000
O O9 0.819375 0.426842 0.370795
O O10 0.043020 0.436740 0.645223
O O11 0.000000 0.500000 0.500000
O O12 0.200431 0.700665 0.183665
O O13 0.000000 0.659402 0.250000
O O14 0.500000 0.209698 0.750000
#
# Coordination Sequence:
#
# PCOD8149093 Si02
#       6
#     8   8   8   8   8   8
#     4  12  27  42  70 103 139 167 225 291 339 380
#     4  11  21  46  68  92 131 186 220 264 333 411
#     4  12  24  42  67  98 136 173 224 274 335 398
#     4  12  25  41  70 105 132 174 229 279 334 400
#     4  11  23  42  72  94 133 183 230 265 331 416
#     4  10  23  44  66  93 134 183 219 271 343 398
#
# _framework density 21.594450999999999
#
# number of rings (size 3 to 8) (size 9 to 14) (size 15 to 20)
#    0.000    0.667    5.000    2.500    4.667    0.667 
#    3.000    0.833    0.000    0.000    0.000    0.000 
#    0.000    0.000    0.000    0.000    0.000    0.000 
#
# Total GULP energy -297400.132189 kJ/mol
# GULP energy per Si atom -12391.672175 kJ/mol
# Density = 2.154530 g / cm^3
# Si number density = 21.594451 Si / 1000 Ang^3
#
#
#
# Elastic Constant Matrix: (Units=GPa)
#
#
# Indices 1 2 3 4 5 6 
#
# 1 68.6550 3.8445 10.3056 0.0000 -10.0726 0.0000
# 2 3.8445 70.2729 26.2919 0.0000 5.5518 0.0000
# 3 10.3056 26.2919 149.2680 0.0000 -4.2453 0.0000
# 4 0.0000 0.0000 0.0000 28.0735 0.0000 2.4931
# 5 -10.0726 5.5518 -4.2453 0.0000 32.7465 0.0000
# 6 0.0000 0.0000 0.0000 2.4931 0.0000 16.4178
#
#
#
# Elastic Compliance Matrix: (Units=1/GPa)
#
#
# Indices 1 2 3 4 5 6 
#
# 1 0.015438 -0.000939 -0.000764 0.000000 0.004809 0.000000
# 2 -0.000939 0.015579 -0.002773 0.000000 -0.003289 0.000000
# 3 -0.000764 -0.002773 0.007274 0.000000 0.001178 0.000000
# 4 0.000000 0.000000 0.000000 0.036108 0.000000 -0.005483
# 5 0.004809 -0.003289 0.001178 0.000000 0.032727 0.000000
# 6 0.000000 0.000000 0.000000 -0.005483 0.000000 0.061742
#
#
# Mechanical properties :
#
#
# Convention : Reuss Voigt Hill
#
# Bulk Modulus (GPa) = 34.08249 41.00886 37.54567
# Shear Modulus (GPa) = 26.65259 31.96448 29.30853
#
# Velocity S-wave (km/s) = 3.51698 3.85153 3.68805
# Velocity P-wave (km/s) = 5.68414 6.22983 5.96323
#
# Compressibility (1/GPa) = 0.02934058
#
# Stress axis : x y z
#
# Youngs Moduli (GPa) = 64.77385 64.18944 137.47604
#
# Poissons Ratio (x) = 0.06026 0.10500
# Poissons Ratio (y) = 0.06081 0.38119
# Poissons Ratio (z) = 0.04947 0.17798
#
# Static dielectric constant tensor:
#      x y z
#    x 4.498850 0.000000 0.091600 
#    y 0.000000 3.680840 0.000000 
#    z 0.091600 0.000000 4.214450 
# 
# 
# High freq. dielectric constant tensor:
#      x y z
#    x 1.867070 0.000000 -0.000610 
#    y 0.000000 1.819540 0.000000 
#    z -0.000610 0.000000 1.870640 
# 
# From -- ./inp_files/190606.got.cif
#   From: 2010.06.25/outbox.cif.g09.slc.cpg/sg15_96_cif.got.tgz:190606.got - 2010.06.28 07:06:18.
