data_PCOD8149000
_publ_section_title
;
Structure prediction by ZEFSAII (Michael W. Deem and Ramdas Pophale) SiO2 
 PCOD8149000
Probable space group: C 2/C
;
_chemical_formula_sum "Si O2"
_cell_formula_units_Z 44
_cell_length_a 8.873136
_cell_length_b 17.936710
_cell_length_c 19.327437
_cell_angle_alpha 90.000000
_cell_angle_beta 140.254450
_cell_angle_gamma 90.000000
_cell_volume 1966.766279
_symmetry_space_group_name_H-M "C 2/C"
_symmetry_group_IT_number 15
_symmetry_cell_setting 'monoclinic'
loop_
_space_group_symop_operation_xyz
x,y,z
-x,y,1/2-z
-x,-y,-z
x,-y,1/2+z
1/2+x,1/2+y,z
1/2-x,1/2+y,1/2-z
1/2-x,1/2-y,-z
1/2+x,1/2-y,1/2+z
loop_
_atom_site_type_symbol
_atom_site_label
_atom_site_fract_x
_atom_site_fract_y
_atom_site_fract_z
Si Si1 0.084771 0.900960 0.000368
Si Si2 0.117070 0.953626 0.432692
Si Si3 0.000000 0.005918 0.250000
Si Si4 0.777636 0.319568 0.708880
Si Si5 0.627533 0.761125 0.364950
Si Si6 0.895102 0.623580 0.398213
O O1 0.247583 0.828678 0.052248
O O2 0.056063 0.917979 0.071505
O O3 0.827506 0.884762 0.876992
O O4 0.202026 0.967541 0.996676
O O5 0.338314 0.900854 0.491831
O O6 0.962505 0.958608 0.307209
O O7 0.777005 0.054866 0.148445
O O8 0.573254 0.260995 0.651589
O O9 0.876827 0.356884 0.812129
O O10 0.000000 0.280180 0.750000
O O11 0.500000 0.786941 0.250000
O O12 0.811490 0.693593 0.415388
#
# Coordination Sequence:
#
# PCOD8149000 Si02
#       6
#     8   8   4   8   8   8
#     4  11  23  43  69 103 134 177 235 287 339 410
#     4  11  25  40  69 103 137 182 229 281 348 414
#     4  12  22  42  66  96 140 182 222 278 344 402
#     4  11  20  41  71  98 132 179 227 277 348 407
#     4  10  23  43  70  98 139 181 228 285 345 405
#     4  11  21  43  69  94 137 184 225 280 342 415
#
# _framework density 22.371749000000001
#
# number of rings (size 3 to 8) (size 9 to 14) (size 15 to 20)
#    0.000    1.091    6.364    1.091    0.000    2.182 
#    0.000    3.636    2.000    0.000    0.000    0.000 
#    0.000    0.000    0.000    0.000    0.000    0.000 
#
# Total GULP energy -272745.598812 kJ/mol
# GULP energy per Si atom -12397.527219 kJ/mol
# Density = 2.232083 g / cm^3
# Si number density = 22.371749 Si / 1000 Ang^3
#
#
#
# Elastic Constant Matrix: (Units=GPa)
#
#
# Indices 1 2 3 4 5 6 
#
# 1 137.2203 48.7391 36.2346 -0.0004 -7.7340 -0.0008
# 2 48.7391 99.7465 37.9151 -0.0001 9.4731 -0.0002
# 3 36.2346 37.9151 78.1577 -0.0016 -15.8831 -0.0005
# 4 -0.0004 -0.0001 -0.0016 -0.3205 -0.0006 12.4366
# 5 -7.7340 9.4731 -15.8831 -0.0006 38.9490 -0.0003
# 6 -0.0008 -0.0002 -0.0005 12.4366 -0.0003 10.0415
#
#
#
# Elastic Compliance Matrix: (Units=1/GPa)
#
#
# Indices 1 2 3 4 5 6 
#
# 1 0.009347 -0.004008 -0.001978 0.000000 0.002024 0.000000
# 2 -0.004008 0.015400 -0.007126 0.000001 -0.007447 -0.000001
# 3 -0.001978 -0.007126 0.019017 -0.000002 0.009095 0.000003
# 4 0.000000 0.000001 -0.000002 -0.063599 -0.000001 0.078769
# 5 0.002024 -0.007447 0.009095 -0.000001 0.031597 0.000003
# 6 0.000000 -0.000001 0.000003 0.078769 0.000003 0.002030
#
#
# Mechanical properties :
#
#
# Convention : Reuss Voigt Hill
#
# Bulk Modulus (GPa) = 57.01056 62.32246 59.66651
# Shear Modulus (GPa) = 109.02315 22.54970 65.78643
#
# Velocity S-wave (km/s) = 6.98844 3.17827 5.42862
# Velocity P-wave (km/s) = 9.52136 6.43325 8.12536
#
# Compressibility (1/GPa) = 0.01754061
#
# Stress axis : x y z
#
# Youngs Moduli (GPa) = 106.98054 64.93626 52.58501
#
# Poissons Ratio (x) = 0.26026 0.10401
# Poissons Ratio (y) = 0.42876 0.37472
# Poissons Ratio (z) = 0.21160 0.46273
#
# Static dielectric constant tensor:
#      x y z
#    x 4.175290 0.000000 -0.217020 
#    y 0.000000 3.901210 0.000000 
#    z -0.217020 0.000000 4.132030 
# 
# 
# High freq. dielectric constant tensor:
#      x y z
#    x 1.888810 0.000000 -0.021230 
#    y 0.000000 1.862900 0.000000 
#    z -0.021230 0.000000 1.886550 
# 
# From -- ./inp_files/134494.got.cif
#   From: 2010.06.25/outbox.cif.g09.slc.cpg/sg15_68_cif.got.tgz:134494.got - 2010.06.28 07:06:18.
