data_PCOD8149138
_publ_section_title
;
Structure prediction by ZEFSAII (Michael W. Deem and Ramdas Pophale) SiO2 
 PCOD8149138
Probable space group: C 2/C
;
_chemical_formula_sum "Si O2"
_cell_formula_units_Z 64
_cell_length_a 10.920932
_cell_length_b 24.606704
_cell_length_c 11.677349
_cell_angle_alpha 90.000000
_cell_angle_beta 78.124232
_cell_angle_gamma 90.000000
_cell_volume 3070.866183
_symmetry_space_group_name_H-M "C 2/C"
_symmetry_group_IT_number 15
_symmetry_cell_setting 'monoclinic'
loop_
_space_group_symop_operation_xyz
x,y,z
-x,y,1/2-z
-x,-y,-z
x,-y,1/2+z
1/2+x,1/2+y,z
1/2-x,1/2+y,1/2-z
1/2-x,1/2-y,-z
1/2+x,1/2-y,1/2+z
loop_
_atom_site_type_symbol
_atom_site_label
_atom_site_fract_x
_atom_site_fract_y
_atom_site_fract_z
Si Si1 0.533960 0.670672 0.504987
Si Si2 0.886941 0.247374 0.194391
Si Si3 0.291721 0.157238 0.572947
Si Si4 0.561237 0.981314 0.864825
Si Si5 0.483132 0.553842 0.573970
Si Si6 0.011463 0.358423 0.876020
Si Si7 0.789683 0.055632 0.795287
Si Si8 0.665440 0.241799 0.406823
O O1 0.566635 0.691380 0.371731
O O2 0.654306 0.675018 0.562393
O O3 0.488156 0.608702 0.497542
O O4 0.428104 0.707231 0.586687
O O5 0.868384 0.290883 0.098856
O O6 0.755102 0.238929 0.280557
O O7 0.000000 0.269237 0.250000
O O8 0.371290 0.133469 0.451829
O O9 0.285877 0.112021 0.674274
O O10 0.500000 0.997552 0.750000
O O11 0.578363 0.916714 0.865962
O O12 0.700140 0.005138 0.836220
O O13 0.500000 0.000000 0.000000
O O14 0.500000 0.500000 0.500000
O O15 0.346089 0.552035 0.657518
O O16 0.595750 0.555423 0.640404
O O17 0.091836 0.315022 0.932688
O O18 0.000000 0.335727 0.750000
O O19 0.750000 0.250000 0.500000
#
# Coordination Sequence:
#
# PCOD8149138 Si02
#       8
#     8   8   8   8   8   8   8   8
#     4  11  24  43  67  95 130 177 223 275 335 412
#     4  12  24  42  64  95 135 171 217 279 341 404
#     4  11  22  43  68  94 132 175 229 269 340 410
#     4  11  25  45  71 104 142 185 230 288 355 422
#     4  10  24  44  69  96 131 174 229 287 337 406
#     4  11  24  42  69 100 133 178 227 285 345 417
#     4  10  23  44  67  99 130 178 231 275 342 418
#     4  12  25  43  62  97 137 171 224 278 347 411
#
# _framework density 20.841025999999999
#
# number of rings (size 3 to 8) (size 9 to 14) (size 15 to 20)
#    0.000    1.000    3.750    1.875    3.500    4.500 
#    4.500    0.000    0.000    0.000    0.000    0.000 
#    0.000    0.000    0.000    0.000    0.000    0.000 
#
# Total GULP energy -396729.977354 kJ/mol
# GULP energy per Si atom -12397.811792 kJ/mol
# Density = 2.079359 g / cm^3
# Si number density = 20.841026 Si / 1000 Ang^3
#
#
#
# Elastic Constant Matrix: (Units=GPa)
#
#
# Indices 1 2 3 4 5 6 
#
# 1 105.6569 55.0767 42.9156 0.0000 -21.6092 0.0000
# 2 55.0767 149.4022 56.2242 0.0000 -11.7231 0.0000
# 3 42.9156 56.2242 141.7087 0.0000 -27.5472 0.0000
# 4 0.0000 0.0000 0.0000 33.6957 0.0000 -3.4560
# 5 -21.6092 -11.7231 -27.5472 0.0000 44.7527 0.0000
# 6 0.0000 0.0000 0.0000 -3.4560 0.0000 38.8440
#
#
#
# Elastic Compliance Matrix: (Units=1/GPa)
#
#
# Indices 1 2 3 4 5 6 
#
# 1 0.012994 -0.003863 -0.001567 0.000000 0.004298 0.000000
# 2 -0.003863 0.009018 -0.002625 0.000000 -0.001119 0.000000
# 3 -0.001567 -0.002625 0.009419 0.000000 0.004354 0.000000
# 4 0.000000 0.000000 0.000000 0.029951 0.000000 0.002665
# 5 0.004298 -0.001119 0.004354 0.000000 0.026807 0.000000
# 6 0.000000 0.000000 0.000000 0.002665 0.000000 0.025981
#
#
# Mechanical properties :
#
#
# Convention : Reuss Voigt Hill
#
# Bulk Modulus (GPa) = 65.27594 78.35565 71.81580
# Shear Modulus (GPa) = 36.93110 39.62856 38.27983
#
# Velocity S-wave (km/s) = 4.21413 4.36531 4.29039
# Velocity P-wave (km/s) = 7.42074 7.94269 7.68615
#
# Compressibility (1/GPa) = 0.01531958
#
# Stress axis : x y z
#
# Youngs Moduli (GPa) = 76.95954 110.89260 106.16562
#
# Poissons Ratio (x) = 0.42841 0.16635
# Poissons Ratio (y) = 0.29731 0.27874
# Poissons Ratio (z) = 0.12059 0.29115
#
# Static dielectric constant tensor:
#      x y z
#    x 4.072930 0.000000 -0.410570 
#    y 0.000000 3.937260 0.000000 
#    z -0.410570 0.000000 4.517400 
# 
# 
# High freq. dielectric constant tensor:
#      x y z
#    x 1.818780 0.000000 -0.019010 
#    y 0.000000 1.821970 0.000000 
#    z -0.019010 0.000000 1.824540 
# 
# From -- ./inp_files/91246.got.cif
#   From: 2010.06.25/outbox.cif.g09.slc.cpg/sg15_46_cif.got.tgz:91246.got - 2010.06.28 07:06:18.
