data_PCOD8149156
_publ_section_title
;
Structure prediction by ZEFSAII (Michael W. Deem and Ramdas Pophale) SiO2 
 PCOD8149156
Probable space group: C 2/C
;
_chemical_formula_sum "Si O2"
_cell_formula_units_Z 64
_cell_length_a 11.752320
_cell_length_b 23.924785
_cell_length_c 11.855536
_cell_angle_alpha 90.000000
_cell_angle_beta 111.829403
_cell_angle_gamma 90.000000
_cell_volume 3094.417553
_symmetry_space_group_name_H-M "C 2/C"
_symmetry_group_IT_number 15
_symmetry_cell_setting 'monoclinic'
loop_
_space_group_symop_operation_xyz
x,y,z
-x,y,1/2-z
-x,-y,-z
x,-y,1/2+z
1/2+x,1/2+y,z
1/2-x,1/2+y,1/2-z
1/2-x,1/2-y,-z
1/2+x,1/2-y,1/2+z
loop_
_atom_site_type_symbol
_atom_site_label
_atom_site_fract_x
_atom_site_fract_y
_atom_site_fract_z
Si Si1 0.824677 0.788041 0.443651
Si Si2 0.403550 0.450996 0.952485
Si Si3 0.511465 0.112328 0.128744
Si Si4 0.232501 0.422621 0.086074
Si Si5 0.443709 0.235517 0.066981
Si Si6 0.423321 0.617631 0.118708
Si Si7 0.245349 0.458623 0.683208
Si Si8 0.722979 0.301918 0.329256
O O1 0.750000 0.750000 0.500000
O O2 0.825333 0.845249 0.515480
O O3 0.761141 0.787712 0.297082
O O4 0.965339 0.771260 0.476532
O O5 0.475623 0.397251 0.936448
O O6 0.291173 0.463115 0.827694
O O7 0.500000 0.500000 0.000000
O O8 0.346178 0.436550 0.049683
O O9 0.500000 0.088963 0.250000
O O10 0.516671 0.179877 0.133000
O O11 0.634786 0.085393 0.123609
O O12 0.393585 0.092649 0.018820
O O13 0.203077 0.478073 0.145602
O O14 0.282168 0.369347 0.173663
O O15 0.395960 0.271414 0.158179
O O16 0.335927 0.220124 0.942464
O O17 0.500000 0.646875 0.250000
O O18 0.354402 0.562444 0.141478
#
# Coordination Sequence:
#
# PCOD8149156 Si02
#       8
#     8   8   8   8   8   8   8   8
#     4  12  25  41  66  95 133 172 209 268 335 396
#     4  11  22  40  63  92 126 170 210 267 323 387
#     4  11  21  40  66  91 122 169 219 264 322 383
#     4  11  23  40  66  95 131 166 215 275 324 392
#     4  10  23  44  68  95 130 165 227 276 317 393
#     4  10  24  40  60  92 126 169 210 256 324 391
#     4  11  23  41  62  92 132 167 217 262 327 393
#     4  10  24  43  68 100 124 174 219 273 333 382
#
# _framework density 20.682407000000001
#
# number of rings (size 3 to 8) (size 9 to 14) (size 15 to 20)
#    0.000    1.250    2.500    3.000    3.500    0.000 
#    0.000    0.000    0.000    0.000    0.000    0.000 
#    0.000    0.000    0.000    0.000    0.000    0.000 
#
# Total GULP energy -396607.708160 kJ/mol
# GULP energy per Si atom -12393.990880 kJ/mol
# Density = 2.063533 g / cm^3
# Si number density = 20.682407 Si / 1000 Ang^3
#
#
#
# Elastic Constant Matrix: (Units=GPa)
#
#
# Indices 1 2 3 4 5 6 
#
# 1 91.4683 33.0994 27.6080 0.0000 -6.0490 0.0000
# 2 33.0994 128.4278 50.0101 0.0000 1.2499 0.0000
# 3 27.6080 50.0101 101.4353 0.0000 -11.0250 0.0000
# 4 0.0000 0.0000 0.0000 29.2750 0.0000 10.0252
# 5 -6.0490 1.2499 -11.0250 0.0000 31.4287 0.0000
# 6 0.0000 0.0000 0.0000 10.0252 0.0000 56.8582
#
#
#
# Elastic Compliance Matrix: (Units=1/GPa)
#
#
# Indices 1 2 3 4 5 6 
#
# 1 0.012551 -0.002474 -0.001999 0.000000 0.001813 0.000000
# 2 -0.002474 0.010263 -0.004661 0.000000 -0.002519 0.000000
# 3 -0.001999 -0.004661 0.013181 0.000000 0.004424 0.000000
# 4 0.000000 0.000000 0.000000 0.036354 0.000000 -0.006410
# 5 0.001813 -0.002519 0.004424 0.000000 0.033819 0.000000
# 6 0.000000 0.000000 0.000000 -0.006410 0.000000 0.018718
#
#
# Mechanical properties :
#
#
# Convention : Reuss Voigt Hill
#
# Bulk Modulus (GPa) = 56.40701 60.30738 58.35719
# Shear Modulus (GPa) = 33.54257 37.55332 35.54794
#
# Velocity S-wave (km/s) = 4.03152 4.26574 4.15028
# Velocity P-wave (km/s) = 7.00021 7.31329 7.15846
#
# Compressibility (1/GPa) = 0.01772829
#
# Stress axis : x y z
#
# Youngs Moduli (GPa) = 79.67283 97.43322 75.86455
#
# Poissons Ratio (x) = 0.24104 0.15169
# Poissons Ratio (y) = 0.19710 0.35358
# Poissons Ratio (z) = 0.15930 0.45410
#
# Static dielectric constant tensor:
#      x y z
#    x 3.685980 0.000000 0.049750 
#    y 0.000000 3.466340 0.000000 
#    z 0.049750 0.000000 3.713510 
# 
# 
# High freq. dielectric constant tensor:
#      x y z
#    x 1.812530 0.000000 0.004390 
#    y 0.000000 1.812960 0.000000 
#    z 0.004390 0.000000 1.815610 
# 
# From -- ./inp_files/91294.got.cif
#   From: 2010.06.25/outbox.cif.g09.slc.cpg/sg15_46_cif.got.tgz:91294.got - 2010.06.28 07:06:18.
