data_PCOD8149595
_publ_section_title
;
Structure prediction by ZEFSAII (Michael W. Deem and Ramdas Pophale) SiO2 
 PCOD8149595
Probable space group: C 2/C
;
_chemical_formula_sum "Si O2"
_cell_formula_units_Z 56
_cell_length_a 8.834509
_cell_length_b 14.887662
_cell_length_c 18.109844
_cell_angle_alpha 90.000000
_cell_angle_beta 106.821591
_cell_angle_gamma 90.000000
_cell_volume 2279.980259
_symmetry_space_group_name_H-M "C 2/C"
_symmetry_group_IT_number 15
_symmetry_cell_setting 'monoclinic'
loop_
_space_group_symop_operation_xyz
x,y,z
-x,y,1/2-z
-x,-y,-z
x,-y,1/2+z
1/2+x,1/2+y,z
1/2-x,1/2+y,1/2-z
1/2-x,1/2-y,-z
1/2+x,1/2-y,1/2+z
loop_
_atom_site_type_symbol
_atom_site_label
_atom_site_fract_x
_atom_site_fract_y
_atom_site_fract_z
Si Si1 0.400090 0.210309 0.666369
Si Si2 0.959292 0.893820 0.875914
Si Si3 0.935501 0.218789 0.818669
Si Si4 0.262240 0.996796 0.907495
Si Si5 0.407623 0.697036 0.516503
Si Si6 0.351354 0.919005 0.769349
Si Si7 0.482857 0.868556 0.030272
O O1 0.500000 0.185444 0.750000
O O2 0.436385 0.312026 0.643197
O O3 0.231534 0.187671 0.676340
O O4 0.431637 0.137387 0.607917
O O5 0.072949 0.982140 0.891747
O O6 0.906182 0.880570 0.954060
O O7 0.799953 0.903302 0.805321
O O8 0.926390 0.326991 0.812714
O O9 0.000000 0.179578 0.750000
O O10 0.052540 0.171137 0.893979
O O11 0.299137 0.984660 0.826783
O O12 0.333803 0.092783 0.945826
O O13 0.356302 0.926850 0.970382
O O14 0.250000 0.750000 0.500000
O O15 0.535714 0.770803 0.508179
O O16 0.500000 0.966500 0.750000
#
# Coordination Sequence:
#
# PCOD8149595 Si02
#       7
#     8   8   8   8   8   8   8
#     4  11  20  38  63  94 129 163 220 273 332 387
#     4  11  21  38  68  99 125 177 227 280 321 409
#     4  11  21  35  62 101 128 167 216 282 328 390
#     4  11  21  42  63  90 130 170 223 266 332 407
#     4  11  22  39  65  95 131 167 219 282 339 383
#     4  11  21  36  64  95 127 173 225 272 322 401
#     4  10  24  38  64  92 128 171 213 276 337 401
#
# _framework density 24.561616000000001
#
# number of rings (size 3 to 8) (size 9 to 14) (size 15 to 20)
#    0.000    1.143    4.286    3.000    2.000    2.857 
#    0.000    0.714    9.429    0.000    0.000    0.000 
#    0.000    0.000    0.000    0.000    0.000    0.000 
#
# Total GULP energy -346875.830050 kJ/mol
# GULP energy per Si atom -12388.422502 kJ/mol
# Density = 2.450571 g / cm^3
# Si number density = 24.561616 Si / 1000 Ang^3
#
#
#
# Elastic Constant Matrix: (Units=GPa)
#
#
# Indices 1 2 3 4 5 6 
#
# 1 135.9839 3.3251 43.1042 0.0000 1.0642 0.0000
# 2 3.3251 37.0970 15.9539 0.0000 -1.4099 0.0000
# 3 43.1042 15.9539 183.7967 0.0000 -7.5741 0.0000
# 4 0.0000 0.0000 0.0000 24.8653 0.0000 -2.4435
# 5 1.0642 -1.4099 -7.5741 0.0000 47.9440 0.0000
# 6 0.0000 0.0000 0.0000 -2.4435 0.0000 29.7725
#
#
#
# Elastic Compliance Matrix: (Units=1/GPa)
#
#
# Indices 1 2 3 4 5 6 
#
# 1 0.007955 0.000083 -0.001892 0.000000 -0.000473 0.000000
# 2 0.000083 0.028012 -0.002433 0.000000 0.000438 0.000000
# 3 -0.001892 -0.002433 0.006134 0.000000 0.000940 0.000000
# 4 0.000000 0.000000 0.000000 0.040544 0.000000 0.003328
# 5 -0.000473 0.000438 0.000940 0.000000 0.021029 0.000000
# 6 0.000000 0.000000 0.000000 0.003328 0.000000 0.033861
#
#
# Mechanical properties :
#
#
# Convention : Reuss Voigt Hill
#
# Bulk Modulus (GPa) = 29.74704 53.51599 41.63152
# Shear Modulus (GPa) = 31.80127 40.14933 35.97530
#
# Velocity S-wave (km/s) = 3.60217 4.04745 3.83129
# Velocity P-wave (km/s) = 5.42571 6.60895 6.04635
#
# Compressibility (1/GPa) = 0.03361679
#
# Stress axis : x y z
#
# Youngs Moduli (GPa) = 125.70175 35.69919 163.01270
#
# Poissons Ratio (x) = -0.00296 0.30848
# Poissons Ratio (y) = -0.01041 0.39659
# Poissons Ratio (z) = 0.23788 0.08685
#
# Static dielectric constant tensor:
#      x y z
#    x 4.850880 0.000000 -0.667070 
#    y 0.000000 5.449100 0.000000 
#    z -0.667070 0.000000 5.758910 
# 
# 
# High freq. dielectric constant tensor:
#      x y z
#    x 1.992290 0.000000 -0.004340 
#    y 0.000000 1.945080 0.000000 
#    z -0.004340 0.000000 1.998250 
# 
# From -- ./inp_files/191041.got.cif
#   From: 2010.06.25/outbox.cif.g09.slc.cpg/sg15_96_cif.got.tgz:191041.got - 2010.06.28 07:06:18.
