data_PCOD8149855
_publ_section_title
;
Structure prediction by ZEFSAII (Michael W. Deem and Ramdas Pophale) SiO2 
 PCOD8149855
Probable space group: C 2/C
;
_chemical_formula_sum "Si O2"
_cell_formula_units_Z 48
_cell_length_a 14.285784
_cell_length_b 8.828592
_cell_length_c 25.834496
_cell_angle_alpha 90.000000
_cell_angle_beta 41.816897
_cell_angle_gamma 90.000000
_cell_volume 2172.501248
_symmetry_space_group_name_H-M "C 2/C"
_symmetry_group_IT_number 15
_symmetry_cell_setting 'monoclinic'
loop_
_space_group_symop_operation_xyz
x,y,z
-x,y,1/2-z
-x,-y,-z
x,-y,1/2+z
1/2+x,1/2+y,z
1/2-x,1/2+y,1/2-z
1/2-x,1/2-y,-z
1/2+x,1/2-y,1/2+z
loop_
_atom_site_type_symbol
_atom_site_label
_atom_site_fract_x
_atom_site_fract_y
_atom_site_fract_z
Si Si1 0.851452 0.107867 0.508214
Si Si2 0.837851 0.038526 0.816266
Si Si3 0.389943 0.132179 0.252981
Si Si4 0.085395 0.367680 0.874387
Si Si5 0.628785 0.531328 0.887472
Si Si6 0.321242 0.957144 0.518062
O O1 0.834994 0.009842 0.566901
O O2 0.742132 0.036996 0.513135
O O3 0.827956 0.282609 0.532226
O O4 0.007751 0.086940 0.420981
O O5 0.830950 0.205360 0.794759
O O6 0.000000 0.980494 0.750000
O O7 0.742705 0.929827 0.819710
O O8 0.777208 0.042837 0.899820
O O9 0.500000 0.072307 0.250000
O O10 0.456982 0.135894 0.168464
O O11 0.266086 0.010092 0.298686
O O12 0.074017 0.198120 0.898960
O O13 0.975191 0.467861 0.952539
#
# Coordination Sequence:
#
# PCOD8149855 Si02
#       6
#     8   8   8   8   8   8
#     4  10  24  42  67 100 132 171 227 269 337 392
#     4  11  26  46  68  99 136 178 224 271 339 403
#     4  11  26  44  65  97 138 180 224 275 336 400
#     4  12  25  44  71  99 134 178 226 277 335 394
#     4  11  24  42  66 102 135 173 223 281 331 392
#     4  11  24  46  70  97 133 179 222 275 332 400
#
# _framework density 22.094349000000001
#
# number of rings (size 3 to 8) (size 9 to 14) (size 15 to 20)
#    0.000    1.000    1.667    3.500   11.667    1.333 
#    3.000    0.000    0.000    0.000    0.000    0.000 
#    0.000    0.000    0.000    0.000    0.000    0.000 
#
# Total GULP energy -297665.859152 kJ/mol
# GULP energy per Si atom -12402.744131 kJ/mol
# Density = 2.204406 g / cm^3
# Si number density = 22.094349 Si / 1000 Ang^3
#
#
#
# Elastic Constant Matrix: (Units=GPa)
#
#
# Indices 1 2 3 4 5 6 
#
# 1 94.1973 23.2447 43.6623 0.0000 -5.9126 0.0001
# 2 23.2447 52.0684 29.1228 0.0000 -0.3952 0.0001
# 3 43.6623 29.1228 123.6028 0.0000 -6.3298 0.0000
# 4 0.0000 0.0000 0.0000 32.4104 0.0000 -4.3193
# 5 -5.9126 -0.3952 -6.3298 0.0000 39.3642 0.0000
# 6 0.0001 0.0001 0.0000 -4.3193 0.0000 33.5336
#
#
#
# Elastic Compliance Matrix: (Units=1/GPa)
#
#
# Indices 1 2 3 4 5 6 
#
# 1 0.013396 -0.003873 -0.003749 0.000000 0.001370 0.000000
# 2 -0.003873 0.023255 -0.004163 0.000000 -0.001018 0.000000
# 3 -0.003749 -0.004163 0.010451 0.000000 0.001076 0.000000
# 4 0.000000 0.000000 0.000000 0.031393 0.000000 0.004044
# 5 0.001370 -0.001018 0.001076 0.000000 0.025772 0.000000
# 6 0.000000 0.000000 0.000000 0.004044 0.000000 0.030342
#
#
# Mechanical properties :
#
#
# Convention : Reuss Voigt Hill
#
# Bulk Modulus (GPa) = 42.49717 51.32533 46.91125
# Shear Modulus (GPa) = 30.11624 32.65090 31.38357
#
# Velocity S-wave (km/s) = 3.69599 3.84838 3.77295
# Velocity P-wave (km/s) = 6.12290 6.55951 6.34496
#
# Compressibility (1/GPa) = 0.02353098
#
# Stress axis : x y z
#
# Youngs Moduli (GPa) = 74.65171 43.00092 95.68550
#
# Poissons Ratio (x) = 0.16653 0.35875
# Poissons Ratio (y) = 0.28910 0.39838
# Poissons Ratio (z) = 0.27989 0.17903
#
# Static dielectric constant tensor:
#      x y z
#    x 4.173240 0.000000 -0.015170 
#    y 0.000000 3.756500 0.000000 
#    z -0.015170 0.000000 3.944580 
# 
# 
# High freq. dielectric constant tensor:
#      x y z
#    x 1.888570 0.000000 0.003890 
#    y 0.000000 1.862890 0.000000 
#    z 0.003890 0.000000 1.870400 
# 
# From -- ./inp_files/295371.got.cif
#   From: 2010.06.25/outbox.cif.g09.slc.cpg/sg15_148_cif.got.tgz:295371.got - 2010.06.28 07:06:18.
