data_PCOD8149633
_publ_section_title
;
Structure prediction by ZEFSAII (Michael W. Deem and Ramdas Pophale) SiO2 
 PCOD8149633
Probable space group: C 2/C
;
_chemical_formula_sum "Si O2"
_cell_formula_units_Z 52
_cell_length_a 8.886507
_cell_length_b 21.036465
_cell_length_c 22.570328
_cell_angle_alpha 90.000000
_cell_angle_beta 140.841275
_cell_angle_gamma 90.000000
_cell_volume 2664.373149
_symmetry_space_group_name_H-M "C 2/C"
_symmetry_group_IT_number 15
_symmetry_cell_setting 'monoclinic'
loop_
_space_group_symop_operation_xyz
x,y,z
-x,y,1/2-z
-x,-y,-z
x,-y,1/2+z
1/2+x,1/2+y,z
1/2-x,1/2+y,1/2-z
1/2-x,1/2-y,-z
1/2+x,1/2-y,1/2+z
loop_
_atom_site_type_symbol
_atom_site_label
_atom_site_fract_x
_atom_site_fract_y
_atom_site_fract_z
Si Si1 0.905781 0.110160 0.896676
Si Si2 0.855277 0.038781 0.766508
Si Si3 0.152361 0.607438 0.400279
Si Si4 0.058602 0.921017 0.624112
Si Si5 0.500000 0.204621 0.750000
Si Si6 0.333527 0.033439 0.580095
Si Si7 0.347424 0.326503 0.756432
O O1 0.957903 0.090095 0.844893
O O2 0.698385 0.161388 0.841294
O O3 0.831903 0.046045 0.911758
O O4 0.138487 0.141346 0.997834
O O5 0.591077 0.064307 0.670326
O O6 0.000000 0.037693 0.750000
O O7 0.854934 0.969999 0.798322
O O8 0.230099 0.588438 0.358031
O O9 0.110218 0.539528 0.418726
O O10 0.928775 0.653838 0.332896
O O11 0.034582 0.852087 0.647407
O O12 0.801809 0.937259 0.517896
O O13 0.373946 0.249616 0.761314
O O14 0.500000 0.358099 0.750000
#
# Coordination Sequence:
#
# PCOD8149633 Si02
#       7
#     8   8   8   8   4   8   8
#     4  11  21  43  67  89 123 166 212 253 310 376
#     4  12  23  34  60 100 130 155 194 259 322 374
#     4  11  21  37  68  98 119 161 211 252 317 382
#     4  11  21  38  60  96 130 154 203 255 314 377
#     4  10  24  44  66  78 130 176 210 256 300 358
#     4  11  21  36  65  98 123 162 200 256 323 379
#     4  10  24  40  58  89 125 170 206 253 304 356
#
# _framework density 19.516786
#
# number of rings (size 3 to 8) (size 9 to 14) (size 15 to 20)
#    0.462    0.615    6.154    1.846    0.000    2.462 
#    0.000    4.615    0.000    0.000    0.000    0.000 
#    0.000    0.000    0.000    0.000    0.000    0.000 
#
# Total GULP energy -322248.716138 kJ/mol
# GULP energy per Si atom -12394.181390 kJ/mol
# Density = 1.947236 g / cm^3
# Si number density = 19.516786 Si / 1000 Ang^3
#
#
#
# Elastic Constant Matrix: (Units=GPa)
#
#
# Indices 1 2 3 4 5 6 
#
# 1 102.9430 21.1177 51.8532 -0.0008 -2.4546 -0.0010
# 2 21.1177 87.9247 37.3886 -0.0011 -2.8967 -0.0015
# 3 51.8532 37.3886 141.7607 -0.0004 -3.6658 -0.0008
# 4 -0.0008 -0.0011 -0.0004 17.8443 -0.0005 3.0447
# 5 -2.4546 -2.8967 -3.6658 -0.0005 13.8493 -0.0006
# 6 -0.0010 -0.0015 -0.0008 3.0447 -0.0006 31.8500
#
#
#
# Elastic Compliance Matrix: (Units=1/GPa)
#
#
# Indices 1 2 3 4 5 6 
#
# 1 0.012019 -0.001126 -0.004078 0.000000 0.000815 0.000000
# 2 -0.001126 0.012960 -0.002962 0.000001 0.001727 0.000000
# 3 -0.004078 -0.002962 0.009356 0.000000 0.001134 0.000000
# 4 0.000000 0.000001 0.000000 0.056970 0.000002 -0.005446
# 5 0.000815 0.001727 0.001134 0.000002 0.073012 0.000001
# 6 0.000000 0.000000 0.000000 -0.005446 0.000001 0.031918
#
#
# Mechanical properties :
#
#
# Convention : Reuss Voigt Hill
#
# Bulk Modulus (GPa) = 55.54342 61.48306 58.51324
# Shear Modulus (GPa) = 22.87631 27.52664 25.20148
#
# Velocity S-wave (km/s) = 3.42736 3.75962 3.59733
# Velocity P-wave (km/s) = 6.64707 7.10052 6.87753
#
# Compressibility (1/GPa) = 0.01800393
#
# Stress axis : x y z
#
# Youngs Moduli (GPa) = 83.20363 77.16020 106.87913
#
# Poissons Ratio (x) = 0.08685 0.43588
# Poissons Ratio (y) = 0.09365 0.31655
# Poissons Ratio (z) = 0.33933 0.22853
#
# Static dielectric constant tensor:
#      x y z
#    x 3.390820 0.000000 0.030850 
#    y 0.000000 3.326900 0.000000 
#    z 0.030850 0.000000 3.795840 
# 
# 
# High freq. dielectric constant tensor:
#      x y z
#    x 1.742660 0.000000 0.004650 
#    y 0.000000 1.731200 0.000000 
#    z 0.004650 0.000000 1.779870 
# 
# From -- ./inp_files/234482.got.cif
#   From: 2010.06.25/outbox.cif.g09.slc.cpg/sg15_118_cif.got.tgz:234482.got - 2010.06.28 07:06:18.
