data_PCOD8149514
_publ_section_title
;
Structure prediction by ZEFSAII (Michael W. Deem and Ramdas Pophale) SiO2 
 PCOD8149514
Probable space group: C 2/C
;
_chemical_formula_sum "Si O2"
_cell_formula_units_Z 36
_cell_length_a 30.160939
_cell_length_b 4.872750
_cell_length_c 23.741944
_cell_angle_alpha 90.000000
_cell_angle_beta 152.800514
_cell_angle_gamma 90.000000
_cell_volume 1594.912771
_symmetry_space_group_name_H-M "C 2/C"
_symmetry_group_IT_number 15
_symmetry_cell_setting 'monoclinic'
loop_
_space_group_symop_operation_xyz
x,y,z
-x,y,1/2-z
-x,-y,-z
x,-y,1/2+z
1/2+x,1/2+y,z
1/2-x,1/2+y,1/2-z
1/2-x,1/2-y,-z
1/2+x,1/2-y,1/2+z
loop_
_atom_site_type_symbol
_atom_site_label
_atom_site_fract_x
_atom_site_fract_y
_atom_site_fract_z
Si Si1 0.822613 0.872099 0.691174
Si Si2 0.242007 0.870695 0.203810
Si Si3 0.110950 0.682390 0.964891
Si Si4 0.500000 0.448381 0.250000
Si Si5 0.573941 0.872070 0.738191
O O1 0.828842 0.737966 0.760942
O O2 0.709865 0.941325 0.549243
O O3 0.863962 0.651690 0.693084
O O4 0.884930 0.150307 0.759690
O O5 0.238603 0.682913 0.256112
O O6 0.140653 0.854736 0.054515
O O7 0.039103 0.438322 0.903024
O O8 0.056762 0.871404 0.859061
O O9 0.422108 0.254338 0.194239
#
# Coordination Sequence:
#
# PCOD8149514 Si02
#       5
#     8   8   8   4   8
#     4  10  26  43  77 100 146 188 237 286 357 427
#     4  10  23  47  76 100 141 190 233 293 359 410
#     4  10  27  47  73 106 147 186 234 304 345 419
#     4  12  26  46  72 104 152 190 228 302 352 418
#     4  12  24  47  69 111 141 185 245 280 359 431
#
# _framework density 22.571767000000001
#
# number of rings (size 3 to 8) (size 9 to 14) (size 15 to 20)
#    1.333    0.000    2.222    2.000    6.222    1.778 
#    0.000    6.667    0.000    0.000    0.000    0.000 
#    0.000    0.000    0.000    0.000    0.000    0.000 
#
# Total GULP energy -223071.508208 kJ/mol
# GULP energy per Si atom -12392.861567 kJ/mol
# Density = 2.252039 g / cm^3
# Si number density = 22.571767 Si / 1000 Ang^3
#
#
#
# Elastic Constant Matrix: (Units=GPa)
#
#
# Indices 1 2 3 4 5 6 
#
# 1 86.4260 24.3540 57.0638 0.0140 25.4321 0.0718
# 2 24.3540 93.8595 35.3675 0.1367 13.3292 0.4815
# 3 57.0638 35.3675 108.2098 -0.1065 -1.8171 -0.4043
# 4 0.0140 0.1367 -0.1065 64.1922 -0.0274 169.2925
# 5 25.4321 13.3292 -1.8171 -0.0274 50.3503 -0.1097
# 6 0.0718 0.4815 -0.4043 169.2925 -0.1097 632.2614
#
#
#
# Elastic Compliance Matrix: (Units=1/GPa)
#
#
# Indices 1 2 3 4 5 6 
#
# 1 0.023551 0.000480 -0.012786 0.000009 -0.012484 -0.000016
# 2 0.000480 0.012757 -0.004486 -0.000004 -0.003782 -0.000012
# 3 -0.012786 -0.004486 0.017590 -0.000004 0.008281 0.000019
# 4 0.000009 -0.000004 -0.000004 0.053014 -0.000006 -0.014195
# 5 -0.012484 -0.003782 0.008281 -0.000006 0.027467 0.000016
# 6 -0.000016 -0.000012 0.000019 -0.014195 0.000016 0.005382
#
#
# Mechanical properties :
#
#
# Convention : Reuss Voigt Hill
#
# Bulk Modulus (GPa) = 49.22932 58.00732 53.61832
# Shear Modulus (GPa) = 27.75969 160.80812 94.28391
#
# Velocity S-wave (km/s) = 3.51071 8.44972 6.47004
# Velocity P-wave (km/s) = 6.18797 10.99781 8.92308
#
# Compressibility (1/GPa) = 0.02031310
#
# Stress axis : x y z
#
# Youngs Moduli (GPa) = 42.46056 78.38660 56.85209
#
# Poissons Ratio (x) = -0.03763 0.72692
# Poissons Ratio (y) = -0.02039 0.25506
# Poissons Ratio (z) = 0.54291 0.35167
#
# Static dielectric constant tensor:
#      x y z
#    x 4.299110 -0.000020 0.213130 
#    y -0.000020 4.079180 -0.000020 
#    z 0.213130 -0.000020 3.762300 
# 
# 
# High freq. dielectric constant tensor:
#      x y z
#    x 1.894440 0.000000 0.011600 
#    y 0.000000 1.901690 0.000000 
#    z 0.011600 0.000000 1.856510 
# 
# From -- ./inp_files/284022.got.cif
#   From: 2010.06.25/outbox.cif.g09.slc.cpg/sg15_143_cif.got.tgz:284022.got - 2010.06.28 07:06:18.
