data_PCOD8149582
_publ_section_title
;
Structure prediction by ZEFSAII (Michael W. Deem and Ramdas Pophale) SiO2 
 PCOD8149582
Probable space group: C 2/C
;
_chemical_formula_sum "Si O2"
_cell_formula_units_Z 36
_cell_length_a 21.319372
_cell_length_b 11.214204
_cell_length_c 11.654294
_cell_angle_alpha 90.000000
_cell_angle_beta 41.401685
_cell_angle_gamma 90.000000
_cell_volume 1842.678765
_symmetry_space_group_name_H-M "C 2/C"
_symmetry_group_IT_number 15
_symmetry_cell_setting 'monoclinic'
loop_
_space_group_symop_operation_xyz
x,y,z
-x,y,1/2-z
-x,-y,-z
x,-y,1/2+z
1/2+x,1/2+y,z
1/2-x,1/2+y,1/2-z
1/2-x,1/2-y,-z
1/2+x,1/2-y,1/2+z
loop_
_atom_site_type_symbol
_atom_site_label
_atom_site_fract_x
_atom_site_fract_y
_atom_site_fract_z
Si Si1 0.309801 0.427457 0.411761
Si Si2 0.500000 0.492082 0.750000
Si Si3 0.509564 0.263260 0.611657
Si Si4 0.304666 0.204138 0.256469
Si Si5 0.195102 0.187292 0.175973
O O1 0.414733 0.423927 0.324602
O O2 0.296349 0.322841 0.340929
O O3 0.230815 0.409563 0.620612
O O4 0.295453 0.547705 0.361695
O O5 0.539152 0.402896 0.595192
O O6 0.500000 0.199490 0.750000
O O7 0.412135 0.264546 0.674973
O O8 0.413618 0.810017 0.567168
O O9 0.238375 0.220890 0.237790
O O10 0.250000 0.250000 0.000000
#
# Coordination Sequence:
#
# PCOD8149582 Si02
#       5
#     8   4   8   8   8
#     4  10  24  38  61  98 119 161 202 261 316 350
#     4   8  18  38  64  90 118 150 218 258 304 346
#     4   9  19  38  60  93 115 160 208 253 303 355
#     4  11  23  39  61  92 130 152 204 264 306 367
#     4  11  22  39  66  86 124 163 208 249 310 366
#
# _framework density 19.536774999999999
#
# number of rings (size 3 to 8) (size 9 to 14) (size 15 to 20)
#    0.667    1.333    2.222    0.000    9.333    1.778 
#    0.000    1.111    4.889    0.000    0.000    0.000 
#    0.000    0.000    0.000    0.000    0.000    0.000 
#
# Total GULP energy -223081.544494 kJ/mol
# GULP energy per Si atom -12393.419139 kJ/mol
# Density = 1.949231 g / cm^3
# Si number density = 19.536775 Si / 1000 Ang^3
#
#
#
# Elastic Constant Matrix: (Units=GPa)
#
#
# Indices 1 2 3 4 5 6 
#
# 1 153.4477 35.2734 56.4316 0.0000 -11.4324 0.0000
# 2 35.2734 40.6195 22.3579 0.0000 -14.0918 0.0000
# 3 56.4316 22.3579 133.9096 0.0000 -16.1175 0.0000
# 4 0.0000 0.0000 0.0000 21.0579 0.0000 -1.4283
# 5 -11.4324 -14.0918 -16.1175 0.0000 27.0969 0.0000
# 6 0.0000 0.0000 0.0000 -1.4283 0.0000 30.6871
#
#
#
# Elastic Compliance Matrix: (Units=1/GPa)
#
#
# Indices 1 2 3 4 5 6 
#
# 1 0.009007 -0.006743 -0.002838 0.000000 -0.001395 0.000000
# 2 -0.006743 0.036574 -0.001420 0.000000 0.015331 0.000000
# 3 -0.002838 -0.001420 0.009336 0.000000 0.003618 0.000000
# 4 0.000000 0.000000 0.000000 0.047639 0.000000 0.002217
# 5 -0.001395 0.015331 0.003618 0.000000 0.046441 0.000000
# 6 0.000000 0.000000 0.000000 0.002217 0.000000 0.032690
#
#
# Mechanical properties :
#
#
# Convention : Reuss Voigt Hill
#
# Bulk Modulus (GPa) = 30.37998 61.78917 46.08458
# Shear Modulus (GPa) = 23.29271 30.02932 26.66101
#
# Velocity S-wave (km/s) = 3.45664 3.92480 3.69814
# Velocity P-wave (km/s) = 5.61383 7.22734 6.47107
#
# Compressibility (1/GPa) = 0.03291642
#
# Stress axis : x y z
#
# Youngs Moduli (GPa) = 111.03024 27.34145 107.11293
#
# Poissons Ratio (x) = 0.18437 0.30393
# Poissons Ratio (y) = 0.74869 0.15206
# Poissons Ratio (z) = 0.31505 0.03881
#
# Static dielectric constant tensor:
#      x y z
#    x 3.619370 0.000000 -0.015740 
#    y 0.000000 3.328220 0.000000 
#    z -0.015740 0.000000 3.752500 
# 
# 
# High freq. dielectric constant tensor:
#      x y z
#    x 1.772710 0.000000 0.004030 
#    y 0.000000 1.729740 0.000000 
#    z 0.004030 0.000000 1.765680 
# 
# From -- ./inp_files/109370.got.cif
#   From: 2010.06.25/outbox.cif.g09.slc.cpg/sg15_55_cif.got.tgz:109370.got - 2010.06.28 07:06:18.
