data_PCOD8149619
_publ_section_title
;
Structure prediction by ZEFSAII (Michael W. Deem and Ramdas Pophale) SiO2 
 PCOD8149619
Probable space group: C 2/C
;
_chemical_formula_sum "Si O2"
_cell_formula_units_Z 56
_cell_length_a 16.748630
_cell_length_b 8.704995
_cell_length_c 24.193324
_cell_angle_alpha 90.000000
_cell_angle_beta 45.054633
_cell_angle_gamma 90.000000
_cell_volume 2496.560383
_symmetry_space_group_name_H-M "C 2/C"
_symmetry_group_IT_number 15
_symmetry_cell_setting 'monoclinic'
loop_
_space_group_symop_operation_xyz
x,y,z
-x,y,1/2-z
-x,-y,-z
x,-y,1/2+z
1/2+x,1/2+y,z
1/2-x,1/2+y,1/2-z
1/2-x,1/2-y,-z
1/2+x,1/2-y,1/2+z
loop_
_atom_site_type_symbol
_atom_site_label
_atom_site_fract_x
_atom_site_fract_y
_atom_site_fract_z
Si Si1 0.507491 0.492802 0.079169
Si Si2 0.062471 0.383118 0.164125
Si Si3 0.869124 0.223696 0.201012
Si Si4 0.200484 0.675061 0.881600
Si Si5 0.969981 0.253912 0.517877
Si Si6 0.747136 0.614454 0.457521
Si Si7 0.724509 0.649535 0.139834
O O1 0.427672 0.554128 0.167589
O O2 0.466675 0.322287 0.080783
O O3 0.484032 0.619506 0.044030
O O4 0.641012 0.490746 0.027223
O O5 0.140746 0.511634 0.097817
O O6 0.132672 0.227808 0.144911
O O7 0.000000 0.445159 0.250000
O O8 0.970536 0.344288 0.162470
O O9 0.794660 0.280052 0.185522
O O10 0.786092 0.218113 0.293581
O O11 0.235072 0.821803 0.901250
O O12 0.286340 0.535437 0.853155
O O13 0.072184 0.622168 0.961951
O O14 0.849763 0.313694 0.557110
O O15 0.750000 0.750000 0.500000
#
# Coordination Sequence:
#
# PCOD8149619 Si02
#       7
#     8   8   8   8   8   8   8
#     4   9  19  37  60  89 124 160 209 256 310 368
#     4  10  24  45  63  94 132 172 207 258 322 385
#     4  10  24  39  65  97 130 168 212 256 323 379
#     4  10  24  42  62 101 124 161 222 262 310 385
#     4   9  18  37  64  86 124 164 206 261 305 369
#     4  11  24  43  67  92 125 173 216 263 323 368
#     4  11  22  39  69  93 132 167 211 259 323 374
#
# _framework density 22.430859999999999
#
# number of rings (size 3 to 8) (size 9 to 14) (size 15 to 20)
#    0.000    2.000    1.429    1.286    4.000    6.286 
#    2.571    0.000    0.000    0.000    0.000    0.000 
#    0.000    0.000    0.000    0.000    0.000    0.000 
#
# Total GULP energy -347010.470703 kJ/mol
# GULP energy per Si atom -12393.231097 kJ/mol
# Density = 2.237981 g / cm^3
# Si number density = 22.430860 Si / 1000 Ang^3
#
#
#
# Elastic Constant Matrix: (Units=GPa)
#
#
# Indices 1 2 3 4 5 6 
#
# 1 72.2079 16.4597 8.4372 0.0000 10.2869 0.0001
# 2 16.4597 65.8424 18.0208 0.0000 1.6788 0.0003
# 3 8.4372 18.0208 47.4644 0.0000 -4.1336 0.0000
# 4 0.0000 0.0000 0.0000 35.6757 0.0000 -1.1817
# 5 10.2869 1.6788 -4.1336 0.0000 30.9995 0.0000
# 6 0.0001 0.0003 0.0000 -1.1817 0.0000 22.3661
#
#
#
# Elastic Compliance Matrix: (Units=1/GPa)
#
#
# Indices 1 2 3 4 5 6 
#
# 1 0.015564 -0.003207 -0.002007 0.000000 -0.005259 0.000000
# 2 -0.003207 0.017709 -0.006217 0.000000 -0.000724 0.000000
# 3 -0.002007 -0.006217 0.024153 0.000000 0.004223 0.000000
# 4 0.000000 0.000000 0.000000 0.028079 0.000000 0.001484
# 5 -0.005259 -0.000724 0.004223 0.000000 0.034606 0.000000
# 6 0.000000 0.000000 0.000000 0.001484 0.000000 0.044789
#
#
# Mechanical properties :
#
#
# Convention : Reuss Voigt Hill
#
# Bulk Modulus (GPa) = 28.93123 30.15003 29.54063
# Shear Modulus (GPa) = 25.08985 27.31473 26.20229
#
# Velocity S-wave (km/s) = 3.34809 3.49338 3.42151
# Velocity P-wave (km/s) = 5.27941 5.45364 5.36723
#
# Compressibility (1/GPa) = 0.03456473
#
# Stress axis : x y z
#
# Youngs Moduli (GPa) = 64.25232 56.46688 41.40237
#
# Poissons Ratio (x) = 0.18111 0.08309
# Poissons Ratio (y) = 0.20608 0.25738
# Poissons Ratio (z) = 0.12894 0.35104
#
# Static dielectric constant tensor:
#      x y z
#    x 3.900320 0.000000 -0.006870 
#    y 0.000000 3.982100 0.000000 
#    z -0.006870 0.000000 4.127440 
# 
# 
# High freq. dielectric constant tensor:
#      x y z
#    x 1.875340 0.000000 -0.004590 
#    y 0.000000 1.870970 0.000000 
#    z -0.004590 0.000000 1.882130 
# 
# From -- ./inp_files/298527.got.cif
#   From: 2010.06.25/outbox.cif.g09.slc.cpg/sg15_150_cif.got.tgz:298527.got - 2010.06.28 07:06:18.
