data_PCOD8149839
_publ_section_title
;
Structure prediction by ZEFSAII (Michael W. Deem and Ramdas Pophale) SiO2 
 PCOD8149839
Probable space group: C 2/C
;
_chemical_formula_sum "Si O2"
_cell_formula_units_Z 64
_cell_length_a 16.382553
_cell_length_b 9.286642
_cell_length_c 29.581921
_cell_angle_alpha 90.000000
_cell_angle_beta 133.802678
_cell_angle_gamma 90.000000
_cell_volume 3248.180378
_symmetry_space_group_name_H-M "C 2/C"
_symmetry_group_IT_number 15
_symmetry_cell_setting 'monoclinic'
loop_
_space_group_symop_operation_xyz
x,y,z
-x,y,1/2-z
-x,-y,-z
x,-y,1/2+z
1/2+x,1/2+y,z
1/2-x,1/2+y,1/2-z
1/2-x,1/2-y,-z
1/2+x,1/2-y,1/2+z
loop_
_atom_site_type_symbol
_atom_site_label
_atom_site_fract_x
_atom_site_fract_y
_atom_site_fract_z
Si Si1 0.589796 0.067845 0.142760
Si Si2 0.740081 0.461360 0.869102
Si Si3 0.129110 0.610607 0.915524
Si Si4 0.260787 0.030867 0.214777
Si Si5 0.181286 0.935547 0.944603
Si Si6 0.040054 0.892483 0.150733
Si Si7 0.387811 0.703463 0.727536
Si Si8 0.873339 0.334745 0.187155
O O1 0.641252 0.046807 0.112300
O O2 0.684583 0.014718 0.214631
O O3 0.557486 0.234258 0.136710
O O4 0.480833 0.968167 0.107212
O O5 0.761631 0.453310 0.931211
O O6 0.672553 0.606668 0.832875
O O7 0.657018 0.331942 0.824555
O O8 0.119837 0.780458 0.922411
O O9 0.144153 0.586107 0.867709
O O10 0.239931 0.543550 0.981584
O O11 0.294137 0.183492 0.207068
O O12 0.125697 0.013287 0.164348
O O13 0.297566 0.903042 0.196562
O O14 0.086425 0.058648 0.908945
O O15 0.065376 0.892151 0.213610
O O16 0.500000 0.781658 0.750000
O O17 0.000000 0.356044 0.250000
#
# Coordination Sequence:
#
# PCOD8149839 Si02
#       8
#     8   8   8   8   8   8   8   8
#     4  11  23  38  62  94 125 158 201 257 306 362
#     4  11  22  37  62  93 122 156 202 250 306 363
#     4  10  24  42  66  87 120 163 211 247 304 365
#     4  11  23  36  59  96 130 152 199 256 314 353
#     4  10  24  44  63  86 122 166 206 250 301 366
#     4  11  23  39  60  90 127 161 201 251 306 361
#     4  11  22  36  58  93 126 156 202 255 305 361
#     4  11  21  38  65  91 120 160 201 249 309 367
#
# _framework density 19.703340000000001
#
# number of rings (size 3 to 8) (size 9 to 14) (size 15 to 20)
#    0.000    1.250    5.000    0.750    5.250    1.000 
#    0.000    0.625    0.000    0.000    0.000    0.000 
#    0.000    0.000    0.000    0.000    0.000    0.000 
#
# Total GULP energy -396813.774378 kJ/mol
# GULP energy per Si atom -12400.430449 kJ/mol
# Density = 1.965849 g / cm^3
# Si number density = 19.703340 Si / 1000 Ang^3
#
#
#
# Elastic Constant Matrix: (Units=GPa)
#
#
# Indices 1 2 3 4 5 6 
#
# 1 129.4519 40.1513 35.7932 0.0000 4.9695 0.0000
# 2 40.1513 68.8821 38.6581 0.0000 4.2913 0.0000
# 3 35.7932 38.6581 72.9206 0.0000 0.9229 0.0000
# 4 0.0000 0.0000 0.0000 22.9359 0.0000 5.3179
# 5 4.9695 4.2913 0.9229 0.0000 22.9412 0.0000
# 6 0.0000 0.0000 0.0000 5.3179 0.0000 37.0550
#
#
#
# Elastic Compliance Matrix: (Units=1/GPa)
#
#
# Indices 1 2 3 4 5 6 
#
# 1 0.009779 -0.004183 -0.002567 0.000000 -0.001233 0.000000
# 2 -0.004183 0.022728 -0.009959 0.000000 -0.002945 0.000000
# 3 -0.002567 -0.009959 0.020233 0.000000 0.001605 0.000000
# 4 0.000000 0.000000 0.000000 0.045100 0.000000 -0.006473
# 5 -0.001233 -0.002945 0.001605 0.000000 0.044343 0.000000
# 6 0.000000 0.000000 0.000000 -0.006473 0.000000 0.027916
#
#
# Mechanical properties :
#
#
# Convention : Reuss Voigt Hill
#
# Bulk Modulus (GPa) = 51.75167 55.60663 53.67915
# Shear Modulus (GPa) = 23.81426 27.02988 25.42207
#
# Velocity S-wave (km/s) = 3.48032 3.70786 3.59589
# Velocity P-wave (km/s) = 6.51710 6.82746 6.67408
#
# Compressibility (1/GPa) = 0.01932305
#
# Stress axis : x y z
#
# Youngs Moduli (GPa) = 102.25595 43.99804 49.42462
#
# Poissons Ratio (x) = 0.18404 0.12688
# Poissons Ratio (y) = 0.42772 0.49221
# Poissons Ratio (z) = 0.26250 0.43816
#
# Static dielectric constant tensor:
#      x y z
#    x 3.628030 0.000000 -0.126640 
#    y 0.000000 3.554880 0.000000 
#    z -0.126640 0.000000 3.489140 
# 
# 
# High freq. dielectric constant tensor:
#      x y z
#    x 1.782590 0.000000 -0.003440 
#    y 0.000000 1.770500 0.000000 
#    z -0.003440 0.000000 1.748340 
# 
# From -- ./inp_files/313157.got.cif
#   From: 2010.06.25/outbox.cif.g09.slc.cpg/sg15_157_cif.got.tgz:313157.got - 2010.06.28 07:06:18.
