data_PCOD8149636
_publ_section_title
;
Structure prediction by ZEFSAII (Michael W. Deem and Ramdas Pophale) SiO2 
 PCOD8149636
Probable space group: C 2/C
;
_chemical_formula_sum "Si O2"
_cell_formula_units_Z 52
_cell_length_a 18.400386
_cell_length_b 11.621415
_cell_length_c 16.497241
_cell_angle_alpha 90.000000
_cell_angle_beta 45.134541
_cell_angle_gamma 90.000000
_cell_volume 2500.343502
_symmetry_space_group_name_H-M "C 2/C"
_symmetry_group_IT_number 15
_symmetry_cell_setting 'monoclinic'
loop_
_space_group_symop_operation_xyz
x,y,z
-x,y,1/2-z
-x,-y,-z
x,-y,1/2+z
1/2+x,1/2+y,z
1/2-x,1/2+y,1/2-z
1/2-x,1/2-y,-z
1/2+x,1/2-y,1/2+z
loop_
_atom_site_type_symbol
_atom_site_label
_atom_site_fract_x
_atom_site_fract_y
_atom_site_fract_z
Si Si1 0.500000 0.080135 0.250000
Si Si2 0.478101 0.368535 0.538508
Si Si3 0.410102 0.786049 0.672410
Si Si4 0.175801 0.430950 0.038361
Si Si5 0.332134 0.683953 0.512353
Si Si6 0.621331 0.002185 0.405108
Si Si7 0.212987 0.725675 0.771760
O O1 0.532848 0.165067 0.295370
O O2 0.595248 0.999532 0.155819
O O3 0.500000 0.500000 0.500000
O O4 0.504226 0.286555 0.441918
O O5 0.553339 0.347006 0.553571
O O6 0.361743 0.337399 0.657319
O O7 0.351634 0.883513 0.664806
O O8 0.304536 0.714782 0.768412
O O9 0.285871 0.426222 0.998497
O O10 0.149131 0.295650 0.058135
O O11 0.175434 0.490977 0.950498
O O12 0.260041 0.719820 0.644550
O O13 0.500000 0.000000 0.500000
O O14 0.649047 0.889511 0.333956
#
# Coordination Sequence:
#
# PCOD8149636 Si02
#       7
#     4   8   8   8   8   8   8
#     4  12  24  40  72  94 134 176 216 282 322 386
#     4  11  24  43  65  94 136 173 213 273 329 396
#     4  11  25  42  66 101 126 170 232 263 328 402
#     4  11  22  39  65  99 130 161 221 277 316 380
#     4  10  24  40  62 102 129 162 228 267 324 399
#     4  12  20  43  68  93 126 174 226 273 317 393
#     4  11  23  41  72  89 130 178 214 273 336 383
#
# _framework density 20.797142000000001
#
# number of rings (size 3 to 8) (size 9 to 14) (size 15 to 20)
#    0.000    0.923    6.154    0.923    8.615    0.000 
#    2.769    1.538    0.000    0.000    0.000    0.000 
#    0.000    0.000    0.000    0.000    0.000    0.000 
#
# Total GULP energy -322111.168932 kJ/mol
# GULP energy per Si atom -12388.891113 kJ/mol
# Density = 2.074981 g / cm^3
# Si number density = 20.797142 Si / 1000 Ang^3
#
#
#
# Elastic Constant Matrix: (Units=GPa)
#
#
# Indices 1 2 3 4 5 6 
#
# 1 136.1587 17.8948 37.8281 0.0000 0.3540 0.0000
# 2 17.8948 74.1286 11.7828 0.0000 8.4679 0.0000
# 3 37.8281 11.7828 54.0535 0.0000 -8.3699 0.0000
# 4 0.0000 0.0000 0.0000 25.7257 0.0000 -1.2982
# 5 0.3540 8.4679 -8.3699 0.0000 32.0614 0.0000
# 6 0.0000 0.0000 0.0000 -1.2982 0.0000 41.8891
#
#
#
# Elastic Compliance Matrix: (Units=1/GPa)
#
#
# Indices 1 2 3 4 5 6 
#
# 1 0.009295 -0.001033 -0.006516 0.000000 -0.001531 0.000000
# 2 -0.001033 0.014795 -0.003236 0.000000 -0.004741 0.000000
# 3 -0.006516 -0.003236 0.024917 0.000000 0.007431 0.000000
# 4 0.000000 0.000000 0.000000 0.038932 0.000000 0.001207
# 5 -0.001531 -0.004741 0.007431 0.000000 0.034399 0.000000
# 6 0.000000 0.000000 0.000000 0.001207 0.000000 0.023910
#
#
# Mechanical properties :
#
#
# Convention : Reuss Voigt Hill
#
# Bulk Modulus (GPa) = 36.44970 44.37247 40.41109
# Shear Modulus (GPa) = 28.25415 33.05760 30.65588
#
# Velocity S-wave (km/s) = 3.68986 3.99121 3.84349
# Velocity P-wave (km/s) = 5.97644 6.52854 6.25858
#
# Compressibility (1/GPa) = 0.02743506
#
# Stress axis : x y z
#
# Youngs Moduli (GPa) = 107.59014 67.58821 40.13364
#
# Poissons Ratio (x) = 0.06982 0.26153
# Poissons Ratio (y) = 0.11115 0.12989
# Poissons Ratio (z) = 0.70110 0.21874
#
# Static dielectric constant tensor:
#      x y z
#    x 4.379950 0.000000 -1.331400 
#    y 0.000000 3.742910 0.000000 
#    z -1.331400 0.000000 9.825040 
# 
# 
# High freq. dielectric constant tensor:
#      x y z
#    x 1.827340 0.000000 -0.011030 
#    y 0.000000 1.819000 0.000000 
#    z -0.011030 0.000000 1.800910 
# 
# From -- ./inp_files/215006.got.cif
#   From: 2010.06.25/outbox.cif.g09.slc.cpg/sg15_108_cif.got.tgz:215006.got - 2010.06.28 07:06:18.
