data_PCOD8149085
_publ_section_title
;
Structure prediction by ZEFSAII (Michael W. Deem and Ramdas Pophale) SiO2 
 PCOD8149085
Probable space group: C 2/C
;
_chemical_formula_sum "Si O2"
_cell_formula_units_Z 28
_cell_length_a 17.339298
_cell_length_b 7.447080
_cell_length_c 16.603002
_cell_angle_alpha 90.000000
_cell_angle_beta 32.025320
_cell_angle_gamma 90.000000
_cell_volume 1136.896283
_symmetry_space_group_name_H-M "C 2/C"
_symmetry_group_IT_number 15
_symmetry_cell_setting 'monoclinic'
loop_
_space_group_symop_operation_xyz
x,y,z
-x,y,1/2-z
-x,-y,-z
x,-y,1/2+z
1/2+x,1/2+y,z
1/2-x,1/2+y,1/2-z
1/2-x,1/2-y,-z
1/2+x,1/2-y,1/2+z
loop_
_atom_site_type_symbol
_atom_site_label
_atom_site_fract_x
_atom_site_fract_y
_atom_site_fract_z
Si Si1 0.420421 0.760338 0.492525
Si Si2 0.931871 0.659442 0.483880
Si Si3 0.000000 0.338989 0.250000
Si Si4 0.719193 0.050749 0.140757
O O1 0.550394 0.750339 0.443209
O O2 0.485597 0.722935 0.344459
O O3 0.298182 0.612460 0.618523
O O4 0.355771 0.963636 0.554229
O O5 0.834709 0.794165 0.516135
O O6 0.094683 0.636949 0.306224
O O7 0.856787 0.467708 0.371689
#
# Coordination Sequence:
#
# PCOD8149085 Si02
#       4
#     8   8   4   8
#     4  10  23  44  66 100 136 182 227 280 340 408
#     4  10  25  42  73 101 135 183 234 278 341 407
#     4  10  24  44  70 102 142 180 228 284 352 396
#     4  11  24  44  69 103 138 181 227 286 340 411
#
# _framework density 24.628456
#
# number of rings (size 3 to 8) (size 9 to 14) (size 15 to 20)
#    0.000    1.714    0.000    1.714   12.000    9.143 
#    0.000    7.143    0.000    0.000    0.000    0.000 
#    0.000    0.000    0.000    0.000    0.000    0.000 
#
# Total GULP energy -173468.980135 kJ/mol
# GULP energy per Si atom -12390.641438 kJ/mol
# Density = 2.457240 g / cm^3
# Si number density = 24.628456 Si / 1000 Ang^3
#
#
#
# Elastic Constant Matrix: (Units=GPa)
#
#
# Indices 1 2 3 4 5 6 
#
# 1 45.9823 -0.9571 27.6462 0.0001 5.5789 -0.0001
# 2 -0.9571 123.4716 55.9473 0.0007 -39.1329 -0.0004
# 3 27.6462 55.9473 111.7008 0.0001 -4.6219 -0.0001
# 4 0.0001 0.0007 0.0001 38.2001 0.0000 -17.5850
# 5 5.5789 -39.1329 -4.6219 0.0000 45.1818 0.0000
# 6 -0.0001 -0.0004 -0.0001 -17.5850 0.0000 36.8315
#
#
#
# Elastic Compliance Matrix: (Units=1/GPa)
#
#
# Indices 1 2 3 4 5 6 
#
# 1 0.027166 0.003869 -0.008698 0.000000 -0.000893 0.000000
# 2 0.003869 0.015860 -0.008388 0.000000 0.012401 0.000000
# 3 -0.008698 -0.008388 0.015115 0.000000 -0.004645 0.000000
# 4 0.000000 0.000000 0.000000 0.033552 0.000000 0.016019
# 5 -0.000893 0.012401 -0.004645 0.000000 0.032509 0.000000
# 6 0.000000 0.000000 0.000000 0.016019 0.000000 0.034799
#
#
# Mechanical properties :
#
#
# Convention : Reuss Voigt Hill
#
# Bulk Modulus (GPa) = 31.54044 49.60309 40.57176
# Shear Modulus (GPa) = 25.50949 37.27724 31.39336
#
# Velocity S-wave (km/s) = 3.22183 3.89470 3.57414
# Velocity P-wave (km/s) = 5.16474 6.35682 5.79154
#
# Compressibility (1/GPa) = 0.03170533
#
# Stress axis : x y z
#
# Youngs Moduli (GPa) = 36.81038 63.05038 66.16098
#
# Poissons Ratio (x) = -0.24394 0.57550
# Poissons Ratio (y) = -0.14242 0.55498
# Poissons Ratio (z) = 0.32019 0.52889
#
# Static dielectric constant tensor:
#      x y z
#    x 4.649720 0.000000 -0.159350 
#    y 0.000000 4.393420 0.000000 
#    z -0.159350 0.000000 3.990070 
# 
# 
# High freq. dielectric constant tensor:
#      x y z
#    x 1.990830 0.000000 -0.007340 
#    y 0.000000 1.972230 0.000000 
#    z -0.007340 0.000000 1.951350 
# 
# From -- ./inp_files/45483.got.cif
#   From: 2010.06.25/outbox.cif.g09.slc.cpg/sg15_23_cif.got.tgz:45483.got - 2010.06.28 07:06:18.
