data_PCOD8149801
_publ_section_title
;
Structure prediction by ZEFSAII (Michael W. Deem and Ramdas Pophale) SiO2 
 PCOD8149801
Probable space group: C 2/C
;
_chemical_formula_sum "Si O2"
_cell_formula_units_Z 56
_cell_length_a 17.985012
_cell_length_b 13.067449
_cell_length_c 13.062741
_cell_angle_alpha 90.000000
_cell_angle_beta 119.486595
_cell_angle_gamma 90.000000
_cell_volume 2672.330134
_symmetry_space_group_name_H-M "C 2/C"
_symmetry_group_IT_number 15
_symmetry_cell_setting 'monoclinic'
loop_
_space_group_symop_operation_xyz
x,y,z
-x,y,1/2-z
-x,-y,-z
x,-y,1/2+z
1/2+x,1/2+y,z
1/2-x,1/2+y,1/2-z
1/2-x,1/2-y,-z
1/2+x,1/2-y,1/2+z
loop_
_atom_site_type_symbol
_atom_site_label
_atom_site_fract_x
_atom_site_fract_y
_atom_site_fract_z
Si Si1 0.431814 0.204116 0.441572
Si Si2 0.507475 0.633674 0.362638
Si Si3 0.400669 0.273341 0.199548
Si Si4 0.849486 0.021545 0.573479
Si Si5 0.668023 0.623449 0.150784
Si Si6 0.296187 0.950211 0.898726
Si Si7 0.623720 0.832089 0.023366
O O1 0.442140 0.305694 0.515912
O O2 0.384390 0.231667 0.302717
O O3 0.376478 0.124697 0.471328
O O4 0.524065 0.155755 0.482526
O O5 0.500000 0.697631 0.250000
O O6 0.559601 0.533177 0.366157
O O7 0.414989 0.597105 0.337956
O O8 0.500000 0.294476 0.250000
O O9 0.351664 0.380689 0.151166
O O10 0.366428 0.191737 0.091643
O O11 0.830309 0.054314 0.446771
O O12 0.773233 0.945569 0.557124
O O13 0.752927 0.591246 0.266696
O O14 0.667332 0.742954 0.120099
O O15 0.329783 0.065273 0.911874
#
# Coordination Sequence:
#
# PCOD8149801 Si02
#       7
#     8   8   8   8   8   8   8
#     4  10  24  43  65  92 129 177 208 260 319 381
#     4  11  22  44  63  90 132 168 211 256 320 389
#     4   9  20  41  69  92 120 167 220 264 304 373
#     4  11  24  38  66  99 127 164 212 263 324 376
#     4  10  24  42  63  95 128 168 207 271 316 372
#     4  12  25  39  66  98 125 166 215 263 321 378
#     4   9  22  45  65  89 128 170 220 261 310 378
#
# _framework density 20.955494999999999
#
# number of rings (size 3 to 8) (size 9 to 14) (size 15 to 20)
#    0.000    1.714    1.429    2.143    6.000    1.714 
#    5.143    2.143    0.000    0.000    0.000    0.000 
#    0.000    0.000    0.000    0.000    0.000    0.000 
#
# Total GULP energy -347174.236542 kJ/mol
# GULP energy per Si atom -12399.079876 kJ/mol
# Density = 2.090780 g / cm^3
# Si number density = 20.955495 Si / 1000 Ang^3
#
#
#
# Elastic Constant Matrix: (Units=GPa)
#
#
# Indices 1 2 3 4 5 6 
#
# 1 75.2985 40.6475 45.1367 0.0000 -4.0749 0.0000
# 2 40.6475 86.2085 49.1675 0.0000 7.1095 0.0000
# 3 45.1367 49.1675 110.8623 0.0000 -0.5304 0.0000
# 4 0.0000 0.0000 0.0000 15.8147 0.0000 2.1417
# 5 -4.0749 7.1095 -0.5304 0.0000 28.8305 0.0000
# 6 0.0000 0.0000 0.0000 2.1417 0.0000 36.3879
#
#
#
# Elastic Compliance Matrix: (Units=1/GPa)
#
#
# Indices 1 2 3 4 5 6 
#
# 1 0.020435 -0.007063 -0.005166 0.000000 0.004535 0.000000
# 2 -0.007063 0.018433 -0.005326 0.000000 -0.005642 0.000000
# 3 -0.005166 -0.005326 0.013490 0.000000 0.000832 0.000000
# 4 0.000000 0.000000 0.000000 0.063740 0.000000 -0.003752
# 5 0.004535 -0.005642 0.000832 0.000000 0.036733 0.000000
# 6 0.000000 0.000000 0.000000 -0.003752 0.000000 0.027702
#
#
# Mechanical properties :
#
#
# Convention : Reuss Voigt Hill
#
# Bulk Modulus (GPa) = 57.97978 60.25254 59.11616
# Shear Modulus (GPa) = 22.58421 25.36781 23.97601
#
# Velocity S-wave (km/s) = 3.28643 3.48308 3.38618
# Velocity P-wave (km/s) = 6.49068 6.70752 6.59999
#
# Compressibility (1/GPa) = 0.01724739
#
# Stress axis : x y z
#
# Youngs Moduli (GPa) = 48.93508 54.25019 74.13053
#
# Poissons Ratio (x) = 0.38317 0.38295
# Poissons Ratio (y) = 0.34563 0.39485
# Poissons Ratio (z) = 0.25279 0.28896
#
# Static dielectric constant tensor:
#      x y z
#    x 3.952600 0.000000 -0.060260 
#    y 0.000000 3.604660 0.000000 
#    z -0.060260 0.000000 3.945270 
# 
# 
# High freq. dielectric constant tensor:
#      x y z
#    x 1.834990 0.000000 0.003050 
#    y 0.000000 1.803620 0.000000 
#    z 0.003050 0.000000 1.825860 
# 
# From -- ./inp_files/105816.got.cif
#   From: 2010.06.25/outbox.cif.g09.slc.cpg/sg15_53_cif.got.tgz:105816.got - 2010.06.28 07:06:18.
