data_PCOD8149564
_publ_section_title
;
Structure prediction by ZEFSAII (Michael W. Deem and Ramdas Pophale) SiO2 
 PCOD8149564
Probable space group: C 2/C
;
_chemical_formula_sum "Si O2"
_cell_formula_units_Z 44
_cell_length_a 13.365075
_cell_length_b 22.847336
_cell_length_c 12.137604
_cell_angle_alpha 90.000000
_cell_angle_beta 40.208018
_cell_angle_gamma 90.000000
_cell_volume 2392.652449
_symmetry_space_group_name_H-M "C 2/C"
_symmetry_group_IT_number 15
_symmetry_cell_setting 'monoclinic'
loop_
_space_group_symop_operation_xyz
x,y,z
-x,y,1/2-z
-x,-y,-z
x,-y,1/2+z
1/2+x,1/2+y,z
1/2-x,1/2+y,1/2-z
1/2-x,1/2-y,-z
1/2+x,1/2-y,1/2+z
loop_
_atom_site_type_symbol
_atom_site_label
_atom_site_fract_x
_atom_site_fract_y
_atom_site_fract_z
Si Si1 0.666768 0.413941 0.828104
Si Si2 0.667962 0.971666 0.366469
Si Si3 0.500000 0.758902 0.250000
Si Si4 0.325443 0.579624 0.539539
Si Si5 0.762805 0.328917 0.571441
Si Si6 0.165213 0.951728 0.065277
O O1 0.700649 0.478704 0.754298
O O2 0.772605 0.366327 0.675760
O O3 0.486485 0.401560 0.959731
O O4 0.706647 0.411953 0.924398
O O5 0.693541 0.925852 0.245248
O O6 0.698849 0.941166 0.458633
O O7 0.500000 0.000000 0.500000
O O8 0.367992 0.720310 0.303467
O O9 0.427513 0.798812 0.408342
O O10 0.278787 0.630330 0.496354
O O11 0.341641 0.519874 0.459216
O O12 0.000000 0.930868 0.250000
#
# Coordination Sequence:
#
# PCOD8149564 Si02
#       6
#     8   8   4   8   8   8
#     4  11  20  34  57  78 118 153 189 230 283 349
#     4  11  23  33  52  88 119 158 188 229 280 358
#     4  10  24  36  60  82 116 142 204 252 304 346
#     4  11  19  33  58  78 118 155 188 229 285 344
#     4  11  21  39  57  90 110 151 191 254 300 339
#     4  11  18  34  55  82 114 158 191 215 274 368
#
# _framework density 18.389631999999999
#
# number of rings (size 3 to 8) (size 9 to 14) (size 15 to 20)
#    0.000    1.091    7.273    1.091    2.545    2.909 
#    0.000    0.000    0.000    0.000    0.000   14.000 
#    0.000    0.000    0.000    0.000    0.000    0.000 
#
# Total GULP energy -272813.562699 kJ/mol
# GULP energy per Si atom -12400.616486 kJ/mol
# Density = 1.834778 g / cm^3
# Si number density = 18.389632 Si / 1000 Ang^3
#
#
#
# Elastic Constant Matrix: (Units=GPa)
#
#
# Indices 1 2 3 4 5 6 
#
# 1 119.7962 28.7045 64.1127 -0.0002 21.3732 0.0001
# 2 28.7045 73.4875 47.1363 0.0000 13.6444 0.0000
# 3 64.1127 47.1363 122.0834 -0.0004 15.0246 0.0002
# 4 -0.0002 0.0000 -0.0004 38.3239 0.0003 3.2631
# 5 21.3732 13.6444 15.0246 0.0003 33.8751 -0.0002
# 6 0.0001 0.0000 0.0002 3.2631 -0.0002 12.1385
#
#
#
# Elastic Compliance Matrix: (Units=1/GPa)
#
#
# Indices 1 2 3 4 5 6 
#
# 1 0.012431 -0.000151 -0.005830 0.000000 -0.005197 0.000000
# 2 -0.000151 0.018740 -0.006599 0.000000 -0.004526 0.000000
# 3 -0.005830 -0.006599 0.013773 0.000000 0.000228 0.000000
# 4 0.000000 0.000000 0.000000 0.026705 0.000000 -0.007179
# 5 -0.005197 -0.004526 0.000228 0.000000 0.034521 0.000001
# 6 0.000000 0.000000 0.000000 -0.007179 0.000001 0.084312
#
#
# Mechanical properties :
#
#
# Convention : Reuss Voigt Hill
#
# Bulk Modulus (GPa) = 50.54930 66.14156 58.34543
# Shear Modulus (GPa) = 22.49852 28.56175 25.53014
#
# Velocity S-wave (km/s) = 3.50156 3.94527 3.73002
# Velocity P-wave (km/s) = 6.62537 7.53647 7.09556
#
# Compressibility (1/GPa) = 0.01978267
#
# Stress axis : x y z
#
# Youngs Moduli (GPa) = 80.44295 53.36208 72.60665
#
# Poissons Ratio (x) = 0.00806 0.42333
# Poissons Ratio (y) = 0.01215 0.47914
# Poissons Ratio (z) = 0.46902 0.35214
#
# Static dielectric constant tensor:
#      x y z
#    x 3.334630 0.000000 0.208290 
#    y 0.000000 3.272060 0.000000 
#    z 0.208290 0.000000 3.677320 
# 
# 
# High freq. dielectric constant tensor:
#      x y z
#    x 1.699570 0.000000 0.006080 
#    y 0.000000 1.674630 0.000000 
#    z 0.006080 0.000000 1.729800 
# 
# From -- ./inp_files/32231.got.cif
#   From: 2010.06.25/outbox.cif.g09.slc.cpg/sg15_17_cif.got.tgz:32231.got - 2010.06.28 07:06:18.
