data_PCOD8149466
_publ_section_title
;
Structure prediction by ZEFSAII (Michael W. Deem and Ramdas Pophale) SiO2 
 PCOD8149466
Probable space group: C 2/C
;
_chemical_formula_sum "Si O2"
_cell_formula_units_Z 32
_cell_length_a 10.886558
_cell_length_b 23.125103
_cell_length_c 5.277332
_cell_angle_alpha 90.000000
_cell_angle_beta 85.152829
_cell_angle_gamma 90.000000
_cell_volume 1323.831472
_symmetry_space_group_name_H-M "C 2/C"
_symmetry_group_IT_number 15
_symmetry_cell_setting 'monoclinic'
loop_
_space_group_symop_operation_xyz
x,y,z
-x,y,1/2-z
-x,-y,-z
x,-y,1/2+z
1/2+x,1/2+y,z
1/2-x,1/2+y,1/2-z
1/2-x,1/2-y,-z
1/2+x,1/2-y,1/2+z
loop_
_atom_site_type_symbol
_atom_site_label
_atom_site_fract_x
_atom_site_fract_y
_atom_site_fract_z
Si Si1 0.641049 0.474276 0.162971
Si Si2 0.117831 0.778821 0.546463
Si Si3 0.046426 0.666447 0.988574
Si Si4 0.167153 0.157636 0.551939
O O1 0.500000 0.490428 0.250000
O O2 0.702142 0.484754 0.431100
O O3 0.659509 0.411037 0.043376
O O4 0.250000 0.750000 0.500000
O O5 0.015891 0.729409 0.522724
O O6 0.100974 0.812769 0.820456
O O7 0.101464 0.824926 0.325321
O O8 0.000000 0.634050 0.250000
O O9 0.190978 0.677855 0.969377
O O10 0.000000 0.629957 0.750000
#
# Coordination Sequence:
#
# PCOD8149466 Si02
#       4
#     8   8   8   8
#     4  10  23  46  72  96 123 163 228 290 334 382
#     4  12  23  39  61  96 136 183 213 253 316 408
#     4  12  23  38  59  90 136 179 214 257 310 396
#     4  12  24  42  66  96 133 179 214 275 336 381
#
# _framework density 24.172262
#
# number of rings (size 3 to 8) (size 9 to 14) (size 15 to 20)
#    0.000    0.500    5.000    3.750    0.000    3.000 
#    0.000    0.000    0.000    4.500    0.000    0.000 
#    0.000    0.000    0.000    0.000    0.000    0.000 
#
# Total GULP energy -198262.697153 kJ/mol
# GULP energy per Si atom -12391.418572 kJ/mol
# Density = 2.411724 g / cm^3
# Si number density = 24.172262 Si / 1000 Ang^3
#
#
#
# Elastic Constant Matrix: (Units=GPa)
#
#
# Indices 1 2 3 4 5 6 
#
# 1 72.2404 3.2625 23.6141 0.0000 15.5552 0.0000
# 2 3.2625 90.8978 39.6052 0.0000 -1.7111 0.0000
# 3 23.6141 39.6052 265.2784 0.0000 6.0763 0.0000
# 4 0.0000 0.0000 0.0000 -299.5277 0.0000 -54.0960
# 5 15.5552 -1.7111 6.0763 0.0000 36.1465 0.0000
# 6 0.0000 0.0000 0.0000 -54.0960 0.0000 4.0422
#
#
#
# Elastic Compliance Matrix: (Units=1/GPa)
#
#
# Indices 1 2 3 4 5 6 
#
# 1 0.015657 -0.000153 -0.001221 0.000000 -0.006540 0.000000
# 2 -0.000153 0.011795 -0.001768 0.000000 0.000921 0.000000
# 3 -0.001221 -0.001768 0.004148 0.000000 -0.000256 0.000000
# 4 0.000000 0.000000 0.000000 -0.000977 0.000000 -0.013076
# 5 -0.006540 0.000921 -0.000256 0.000000 0.030566 0.000000
# 6 0.000000 0.000000 0.000000 -0.013076 0.000000 0.072400
#
#
# Mechanical properties :
#
#
# Convention : Reuss Voigt Hill
#
# Bulk Modulus (GPa) = 39.50259 62.37559 50.93909
# Shear Modulus (GPa) = 33.71269 -27.73881 2.98694
#
# Velocity S-wave (km/s) = 3.73860 -3.39122 1.11282
# Velocity P-wave (km/s) = 5.91724 3.24450 4.77182
#
# Compressibility (1/GPa) = 0.02531480
#
# Stress axis : x y z
#
# Youngs Moduli (GPa) = 63.86955 84.78376 241.06905
#
# Poissons Ratio (x) = 0.01297 0.29436
# Poissons Ratio (y) = 0.00977 0.42631
# Poissons Ratio (z) = 0.07799 0.14993
#
# Static dielectric constant tensor:
#      x y z
#    x 4.672220 0.000000 0.062840 
#    y 0.000000 3.774710 0.000000 
#    z 0.062840 0.000000 7.585630 
# 
# 
# High freq. dielectric constant tensor:
#      x y z
#    x 1.964260 0.000000 -0.000770 
#    y 0.000000 1.909550 0.000000 
#    z -0.000770 0.000000 2.015780 
# 
# From -- ./inp_files/4054.got.cif
#   From: 2010.06.25/outbox.cif.g09.slc.cpg/sg15_3_cif.got.tgz:4054.got - 2010.06.28 07:06:18.
