data_PCOD8149488
_publ_section_title
;
Structure prediction by ZEFSAII (Michael W. Deem and Ramdas Pophale) SiO2 
 PCOD8149488
Probable space group: C 2/C
;
_chemical_formula_sum "Si O2"
_cell_formula_units_Z 44
_cell_length_a 8.074374
_cell_length_b 27.400851
_cell_length_c 10.329521
_cell_angle_alpha 90.000000
_cell_angle_beta 54.155323
_cell_angle_gamma 90.000000
_cell_volume 1852.523322
_symmetry_space_group_name_H-M "C 2/C"
_symmetry_group_IT_number 15
_symmetry_cell_setting 'monoclinic'
loop_
_space_group_symop_operation_xyz
x,y,z
-x,y,1/2-z
-x,-y,-z
x,-y,1/2+z
1/2+x,1/2+y,z
1/2-x,1/2+y,1/2-z
1/2-x,1/2-y,-z
1/2+x,1/2-y,1/2+z
loop_
_atom_site_type_symbol
_atom_site_label
_atom_site_fract_x
_atom_site_fract_y
_atom_site_fract_z
Si Si1 0.500000 0.468744 0.750000
Si Si2 0.788199 0.192727 0.275118
Si Si3 0.690543 0.596009 0.370005
Si Si4 0.570037 0.211822 0.857716
Si Si5 0.674117 0.037064 0.960312
Si Si6 0.161581 0.882451 0.283484
O O1 0.335898 0.438140 0.743000
O O2 0.373023 0.504600 0.902207
O O3 0.716595 0.147351 0.218990
O O4 0.611487 0.202249 0.460866
O O5 0.802156 0.238769 0.166724
O O6 0.000000 0.177908 0.250000
O O7 0.849478 0.571485 0.401195
O O8 0.461581 0.604890 0.530184
O O9 0.500000 0.231104 0.750000
O O10 0.695215 0.163798 0.766566
O O11 0.704656 0.071091 0.820456
O O12 0.500000 0.000000 0.000000
O O13 0.000000 0.867449 0.250000
#
# Coordination Sequence:
#
# PCOD8149488 Si02
#       6
#     4   8   8   8   8   8
#     4  12  24  46  68 100 138 184 232 290 372 408
#     4  11  22  42  70 110 142 188 233 296 356 424
#     4  11  23  45  72  99 143 183 240 298 354 429
#     4  11  23  41  72 105 145 187 237 286 358 428
#     4  11  26  45  69 101 138 188 239 292 358 421
#     4  10  23  47  66  98 142 188 234 293 352 417
#
# _framework density 23.751386
#
# number of rings (size 3 to 8) (size 9 to 14) (size 15 to 20)
#    0.000    1.091    3.636    4.909    2.545    0.727 
#    3.273    8.182    0.000    0.000    0.000    0.000 
#    0.000    0.000    0.000    0.000    0.000    0.000 
#
# Total GULP energy -272661.370939 kJ/mol
# GULP energy per Si atom -12393.698679 kJ/mol
# Density = 2.369733 g / cm^3
# Si number density = 23.751386 Si / 1000 Ang^3
#
#
#
# Elastic Constant Matrix: (Units=GPa)
#
#
# Indices 1 2 3 4 5 6 
#
# 1 60.7031 43.0894 17.8196 0.0000 3.0319 0.0000
# 2 43.0894 187.7856 61.6550 0.0000 5.1967 0.0000
# 3 17.8196 61.6550 138.4467 0.0000 9.4019 0.0000
# 4 0.0000 0.0000 0.0000 -73.0444 0.0000 29.8363
# 5 3.0319 5.1967 9.4019 0.0000 25.3629 0.0000
# 6 0.0000 0.0000 0.0000 29.8363 0.0000 24.4248
#
#
#
# Elastic Compliance Matrix: (Units=1/GPa)
#
#
# Indices 1 2 3 4 5 6 
#
# 1 0.019764 -0.004325 -0.000531 0.000000 -0.001280 0.000000
# 2 -0.004325 0.007185 -0.002645 0.000000 0.000025 0.000000
# 3 -0.000531 -0.002645 0.008646 0.000000 -0.002600 0.000000
# 4 0.000000 0.000000 0.000000 -0.009133 0.000000 0.011157
# 5 -0.001280 0.000025 -0.002600 0.000000 0.040539 0.000000
# 6 0.000000 0.000000 0.000000 0.011157 0.000000 0.027314
#
#
# Mechanical properties :
#
#
# Convention : Reuss Voigt Hill
#
# Bulk Modulus (GPa) = 48.56043 70.22926 59.39485
# Shear Modulus (GPa) = 43.03658 12.97342 28.00500
#
# Velocity S-wave (km/s) = 4.26133 2.33967 3.43751
# Velocity P-wave (km/s) = 6.68593 6.07712 6.38878
#
# Compressibility (1/GPa) = 0.02059290
#
# Stress axis : x y z
#
# Youngs Moduli (GPa) = 50.59806 139.17108 115.66443
#
# Poissons Ratio (x) = 0.60196 0.06138
# Poissons Ratio (y) = 0.21885 0.30592
# Poissons Ratio (z) = 0.02685 0.36809
#
# Static dielectric constant tensor:
#      x y z
#    x 5.607550 0.000000 0.994100 
#    y 0.000000 4.639320 0.000000 
#    z 0.994100 0.000000 5.267350 
# 
# 
# High freq. dielectric constant tensor:
#      x y z
#    x 1.908310 0.000000 -0.008810 
#    y 0.000000 1.976540 0.000000 
#    z -0.008810 0.000000 1.949240 
# 
# From -- ./inp_files/81098.got.cif
#   From: 2010.06.25/outbox.cif.g09.slc.cpg/sg15_41_cif.got.tgz:81098.got - 2010.06.28 07:06:18.
