data_PCOD8149542
_publ_section_title
;
Structure prediction by ZEFSAII (Michael W. Deem and Ramdas Pophale) SiO2 
 PCOD8149542
Probable space group: C 2/C
;
_chemical_formula_sum "Si O2"
_cell_formula_units_Z 48
_cell_length_a 25.318588
_cell_length_b 13.306194
_cell_length_c 19.181319
_cell_angle_alpha 90.000000
_cell_angle_beta 20.522617
_cell_angle_gamma 90.000000
_cell_volume 2265.454485
_symmetry_space_group_name_H-M "C 2/C"
_symmetry_group_IT_number 15
_symmetry_cell_setting 'monoclinic'
loop_
_space_group_symop_operation_xyz
x,y,z
-x,y,1/2-z
-x,-y,-z
x,-y,1/2+z
1/2+x,1/2+y,z
1/2-x,1/2+y,1/2-z
1/2-x,1/2-y,-z
1/2+x,1/2-y,1/2+z
loop_
_atom_site_type_symbol
_atom_site_label
_atom_site_fract_x
_atom_site_fract_y
_atom_site_fract_z
Si Si1 0.020953 0.276183 0.481150
Si Si2 0.000000 0.383839 0.250000
Si Si3 0.721328 0.551542 0.023411
Si Si4 0.236281 0.435943 0.186421
Si Si5 0.000000 0.107292 0.750000
Si Si6 0.488454 0.287740 0.657944
Si Si7 0.187396 0.158707 0.393127
O O1 0.089935 0.388752 0.405830
O O2 0.079290 0.200843 0.467497
O O3 0.079833 0.238281 0.333222
O O4 0.840980 0.278667 0.707420
O O5 0.856239 0.456265 0.413022
O O6 0.966390 0.315071 0.359114
O O7 0.600327 0.461541 0.178620
O O8 0.636210 0.657260 0.140383
O O9 0.796265 0.548367 0.854934
O O10 0.278690 0.542725 0.167736
O O11 0.370680 0.358147 0.030580
O O12 0.105296 0.173267 0.569635
#
# Coordination Sequence:
#
# PCOD8149542 Si02
#       7
#     8   4   8   8   4   8   8
#     4  12  25  42  65 103 132 169 215 269 328 388
#     4  12  21  30  62 107 136 164 204 261 328 403
#     4  11  20  37  64  97 130 171 209 255 325 391
#     4  11  21  43  66  95 137 174 207 264 324 390
#     4  10  23  50  68  81 124 180 224 271 316 377
#     4  12  20  36  64  98 139 169 206 256 329 398
#     4  11  26  46  69  89 127 173 223 274 329 374
#
# _framework density 21.187802000000001
#
# number of rings (size 3 to 8) (size 9 to 14) (size 15 to 20)
#    0.000    0.667    8.333    2.000    0.000    1.333 
#    0.000    3.333    0.000    0.000    0.000    0.000 
#    0.000    0.000    0.000    0.000    0.000    0.000 
#
# Total GULP energy -297620.399062 kJ/mol
# GULP energy per Si atom -12400.849961 kJ/mol
# Density = 2.113958 g / cm^3
# Si number density = 21.187802 Si / 1000 Ang^3
#
#
#
# Elastic Constant Matrix: (Units=GPa)
#
#
# Indices 1 2 3 4 5 6 
#
# 1 117.9253 53.8656 38.6632 -0.0001 -12.3240 0.0000
# 2 53.8656 65.1839 25.4795 -0.0001 -1.2467 0.0002
# 3 38.6632 25.4795 81.5021 0.0010 -14.4746 -0.0006
# 4 -0.0001 -0.0001 0.0010 21.6963 -0.0003 6.4841
# 5 -12.3240 -1.2467 -14.4746 -0.0003 44.5285 0.0003
# 6 0.0000 0.0002 -0.0006 6.4841 0.0003 28.0822
#
#
#
# Elastic Compliance Matrix: (Units=1/GPa)
#
#
# Indices 1 2 3 4 5 6 
#
# 1 0.014792 -0.010960 -0.003097 0.000000 0.002780 0.000000
# 2 -0.010960 0.025676 -0.003437 0.000000 -0.003432 0.000000
# 3 -0.003097 -0.003437 0.015541 -0.000001 0.004099 0.000001
# 4 0.000000 0.000000 -0.000001 0.049507 0.000000 -0.011431
# 5 0.002780 -0.003432 0.004099 0.000000 0.024463 0.000000
# 6 0.000000 0.000000 0.000001 -0.011431 0.000000 0.038249
#
#
# Mechanical properties :
#
#
# Convention : Reuss Voigt Hill
#
# Bulk Modulus (GPa) = 47.57126 55.62529 51.59828
# Shear Modulus (GPa) = 23.78416 28.63495 26.20955
#
# Velocity S-wave (km/s) = 3.35407 3.68024 3.52093
# Velocity P-wave (km/s) = 6.12378 6.66103 6.39804
#
# Compressibility (1/GPa) = 0.02102110
#
# Stress axis : x y z
#
# Youngs Moduli (GPa) = 67.60341 38.94688 64.34493
#
# Poissons Ratio (x) = 0.42685 0.19928
# Poissons Ratio (y) = 0.74093 0.22117
# Poissons Ratio (z) = 0.20937 0.13387
#
# Static dielectric constant tensor:
#      x y z
#    x 3.798260 0.000000 -0.126530 
#    y 0.000000 3.695500 0.000000 
#    z -0.126530 0.000000 4.019950 
# 
# 
# High freq. dielectric constant tensor:
#      x y z
#    x 1.821900 0.000000 -0.010390 
#    y 0.000000 1.806050 0.000000 
#    z -0.010390 0.000000 1.841140 
# 
# From -- ./inp_files/69858.got.cif
#   From: 2010.06.25/outbox.cif.g09.slc.cpg/sg15_35_cif.got.tgz:69858.got - 2010.06.28 07:06:18.
