data_PCOD8149691
_publ_section_title
;
Structure prediction by ZEFSAII (Michael W. Deem and Ramdas Pophale) SiO2 
 PCOD8149691
Probable space group: C 2/C
;
_chemical_formula_sum "Si O2"
_cell_formula_units_Z 60
_cell_length_a 6.631081
_cell_length_b 17.702174
_cell_length_c 25.333276
_cell_angle_alpha 90.000000
_cell_angle_beta 103.758060
_cell_angle_gamma 90.000000
_cell_volume 2888.414641
_symmetry_space_group_name_H-M "C 2/C"
_symmetry_group_IT_number 15
_symmetry_cell_setting 'monoclinic'
loop_
_space_group_symop_operation_xyz
x,y,z
-x,y,1/2-z
-x,-y,-z
x,-y,1/2+z
1/2+x,1/2+y,z
1/2-x,1/2+y,1/2-z
1/2-x,1/2-y,-z
1/2+x,1/2-y,1/2+z
loop_
_atom_site_type_symbol
_atom_site_label
_atom_site_fract_x
_atom_site_fract_y
_atom_site_fract_z
Si Si1 0.839798 0.397143 0.903528
Si Si2 0.925435 0.823762 0.887593
Si Si3 0.734573 0.162140 0.484339
Si Si4 0.000000 0.140007 0.750000
Si Si5 0.919225 0.413256 0.688556
Si Si6 0.751180 0.424867 0.171934
Si Si7 0.133740 0.335178 0.157993
Si Si8 0.339363 0.440630 0.089201
O O1 0.662928 0.334930 0.888417
O O2 0.746328 0.474495 0.921700
O O3 0.003190 0.362731 0.954685
O O4 0.919869 0.402008 0.848860
O O5 0.880655 0.853603 0.943405
O O6 0.791839 0.868844 0.836247
O O7 0.885318 0.734598 0.882638
O O8 0.750000 0.250000 0.500000
O O9 0.809288 0.107337 0.534821
O O10 0.884422 0.087876 0.784740
O O11 0.815322 0.188279 0.711121
O O12 0.885788 0.502031 0.691011
O O13 0.000000 0.382738 0.750000
O O14 0.588091 0.438564 0.114194
O O15 0.911550 0.355926 0.170548
O O16 0.208905 0.406507 0.129245
#
# Coordination Sequence:
#
# PCOD8149691 Si02
#       8
#     8   8   8   4   8   8   8   8
#     4  11  25  45  67  99 133 172 225 268 332 395
#     4  11  26  44  65  99 133 176 218 272 336 393
#     4  11  25  45  69  98 132 173 223 279 329 394
#     4  10  24  40  68  98 130 174 226 270 328 394
#     4  11  24  43  69  97 137 172 220 269 322 398
#     4  11  23  41  70  99 129 174 226 269 329 395
#     4  11  23  42  67  95 136 172 221 270 331 395
#     4  11  23  44  69  98 133 172 221 278 326 389
#
# _framework density 20.772642999999999
#
# number of rings (size 3 to 8) (size 9 to 14) (size 15 to 20)
#    0.000    1.067    4.000    1.600    4.667    3.733 
#    2.400    0.000    0.000    0.000    0.000    0.000 
#    0.000    0.000    0.000    0.000    0.000    0.000 
#
# Total GULP energy -371997.920009 kJ/mol
# GULP energy per Si atom -12399.930667 kJ/mol
# Density = 2.072536 g / cm^3
# Si number density = 20.772643 Si / 1000 Ang^3
#
#
#
# Elastic Constant Matrix: (Units=GPa)
#
#
# Indices 1 2 3 4 5 6 
#
# 1 143.9072 31.6890 56.4119 0.0000 13.6875 0.0000
# 2 31.6890 80.8326 28.0767 0.0000 12.2994 0.0000
# 3 56.4119 28.0767 127.4568 0.0000 17.8091 0.0000
# 4 0.0000 0.0000 0.0000 28.5588 0.0000 5.4146
# 5 13.6875 12.2994 17.8091 0.0000 27.1043 0.0000
# 6 0.0000 0.0000 0.0000 5.4146 0.0000 27.3148
#
#
#
# Elastic Compliance Matrix: (Units=1/GPa)
#
#
# Indices 1 2 3 4 5 6 
#
# 1 0.008818 -0.002123 -0.003245 0.000000 -0.001357 0.000000
# 2 -0.002123 0.014439 -0.001625 0.000000 -0.004413 0.000000
# 3 -0.003245 -0.001625 0.010249 0.000000 -0.004358 0.000000
# 4 0.000000 0.000000 0.000000 0.036383 0.000000 -0.007212
# 5 -0.001357 -0.004413 -0.004358 0.000000 0.042446 0.000000
# 6 0.000000 0.000000 0.000000 -0.007212 0.000000 0.038040
#
#
# Mechanical properties :
#
#
# Convention : Reuss Voigt Hill
#
# Bulk Modulus (GPa) = 51.22945 64.95020 58.08983
# Shear Modulus (GPa) = 29.26252 32.33017 30.79635
#
# Velocity S-wave (km/s) = 3.75734 3.94938 3.85456
# Velocity P-wave (km/s) = 6.59841 7.22024 6.91632
#
# Compressibility (1/GPa) = 0.01952002
#
# Stress axis : x y z
#
# Youngs Moduli (GPa) = 113.40817 69.25565 97.57062
#
# Poissons Ratio (x) = 0.14703 0.31665
# Poissons Ratio (y) = 0.24077 0.15850
# Poissons Ratio (z) = 0.36805 0.11251
#
# Static dielectric constant tensor:
#      x y z
#    x 3.947410 0.000000 0.134460 
#    y 0.000000 3.642990 0.000000 
#    z 0.134460 0.000000 4.052880 
# 
# 
# High freq. dielectric constant tensor:
#      x y z
#    x 1.825760 0.000000 0.005150 
#    y 0.000000 1.811280 0.000000 
#    z 0.005150 0.000000 1.819990 
# 
# From -- ./inp_files/286084.got.cif
#   From: 2010.06.25/outbox.cif.g09.slc.cpg/sg15_144_cif.got.tgz:286084.got - 2010.06.28 07:06:18.
