data_PCOD8149763
_publ_section_title
;
Structure prediction by ZEFSAII (Michael W. Deem and Ramdas Pophale) SiO2 
 PCOD8149763
Probable space group: C 2/C
;
_chemical_formula_sum "Si O2"
_cell_formula_units_Z 56
_cell_length_a 13.376324
_cell_length_b 12.904118
_cell_length_c 17.014641
_cell_angle_alpha 90.000000
_cell_angle_beta 115.310166
_cell_angle_gamma 90.000000
_cell_volume 2654.969579
_symmetry_space_group_name_H-M "C 2/C"
_symmetry_group_IT_number 15
_symmetry_cell_setting 'monoclinic'
loop_
_space_group_symop_operation_xyz
x,y,z
-x,y,1/2-z
-x,-y,-z
x,-y,1/2+z
1/2+x,1/2+y,z
1/2-x,1/2+y,1/2-z
1/2-x,1/2-y,-z
1/2+x,1/2-y,1/2+z
loop_
_atom_site_type_symbol
_atom_site_label
_atom_site_fract_x
_atom_site_fract_y
_atom_site_fract_z
Si Si1 0.148085 0.444480 0.141349
Si Si2 0.784577 0.335371 0.180691
Si Si3 0.646771 0.822988 0.981512
Si Si4 0.466331 0.342354 0.452516
Si Si5 0.990675 0.050851 0.117834
Si Si6 0.432799 0.001407 0.150170
Si Si7 0.331839 0.600499 0.201602
O O1 0.204423 0.375043 0.227118
O O2 0.207293 0.556962 0.160565
O O3 0.017836 0.461498 0.112230
O O4 0.168645 0.388288 0.066701
O O5 0.658348 0.325545 0.115035
O O6 0.847931 0.409418 0.140939
O O7 0.839257 0.223107 0.194285
O O8 0.534382 0.758728 0.951668
O O9 0.635537 0.900631 0.904018
O O10 0.750000 0.750000 0.000000
O O11 0.518965 0.440254 0.426683
O O12 0.472559 0.358152 0.548366
O O13 0.894894 0.050490 0.149761
O O14 0.110289 0.067565 0.197366
O O15 0.500000 0.035695 0.250000
#
# Coordination Sequence:
#
# PCOD8149763 Si02
#       7
#     8   8   8   8   8   8   8
#     4  11  24  46  66  98 137 175 221 281 336 406
#     4  11  25  42  72  99 132 180 226 276 340 395
#     4  12  27  43  70 100 135 181 223 274 345 404
#     4  11  24  44  66  99 134 174 219 281 337 393
#     4  10  24  41  69  97 133 165 229 278 327 397
#     4  10  26  46  66  98 138 174 227 278 330 410
#     4  11  23  43  69  97 130 177 223 273 337 400
#
# _framework density 21.092518999999999
#
# number of rings (size 3 to 8) (size 9 to 14) (size 15 to 20)
#    0.000    1.143    1.429    3.000   14.000    4.000 
#    2.571    0.000    0.000    0.000    0.000    0.000 
#    0.000    0.000    0.000    0.000    0.000    0.000 
#
# Total GULP energy -347398.539690 kJ/mol
# GULP energy per Si atom -12407.090703 kJ/mol
# Density = 2.104451 g / cm^3
# Si number density = 21.092519 Si / 1000 Ang^3
#
#
#
# Elastic Constant Matrix: (Units=GPa)
#
#
# Indices 1 2 3 4 5 6 
#
# 1 84.1360 27.3226 37.3594 0.0000 19.1679 0.0000
# 2 27.3226 113.6994 44.9778 0.0000 9.0440 0.0000
# 3 37.3594 44.9778 99.1995 0.0000 1.0914 0.0000
# 4 0.0000 0.0000 0.0000 28.9779 0.0000 4.8241
# 5 19.1679 9.0440 1.0914 0.0000 30.5650 0.0000
# 6 0.0000 0.0000 0.0000 4.8241 0.0000 34.0548
#
#
#
# Elastic Compliance Matrix: (Units=1/GPa)
#
#
# Indices 1 2 3 4 5 6 
#
# 1 0.017164 -0.000969 -0.005912 0.000000 -0.010266 0.000000
# 2 -0.000969 0.011054 -0.004619 0.000000 -0.002498 0.000000
# 3 -0.005912 -0.004619 0.014351 0.000000 0.004562 0.000000
# 4 0.000000 0.000000 0.000000 0.035342 0.000000 -0.005007
# 5 -0.010266 -0.002498 0.004562 0.000000 0.039731 0.000000
# 6 0.000000 0.000000 0.000000 -0.005007 0.000000 0.030074
#
#
# Mechanical properties :
#
#
# Convention : Reuss Voigt Hill
#
# Bulk Modulus (GPa) = 51.10246 57.37272 54.23759
# Shear Modulus (GPa) = 28.21013 31.21121 29.71067
#
# Velocity S-wave (km/s) = 3.66108 3.85090 3.75719
# Velocity P-wave (km/s) = 6.49243 6.85800 6.67772
#
# Compressibility (1/GPa) = 0.01956853
#
# Stress axis : x y z
#
# Youngs Moduli (GPa) = 58.26095 90.46355 69.67968
#
# Poissons Ratio (x) = 0.08770 0.41192
# Poissons Ratio (y) = 0.05648 0.32188
# Poissons Ratio (z) = 0.34442 0.41789
#
# Static dielectric constant tensor:
#      x y z
#    x 3.819440 0.000000 -0.016070 
#    y 0.000000 3.852970 0.000000 
#    z -0.016070 0.000000 3.949060 
# 
# 
# High freq. dielectric constant tensor:
#      x y z
#    x 1.834690 0.000000 0.000590 
#    y 0.000000 1.832780 0.000000 
#    z 0.000590 0.000000 1.839080 
# 
# From -- ./inp_files/204523.got.cif
#   From: 2010.06.25/outbox.cif.g09.slc.cpg/sg15_103_cif.got.tgz:204523.got - 2010.06.28 07:06:18.
