data_PCOD8149043
_publ_section_title
;
Structure prediction by ZEFSAII (Michael W. Deem and Ramdas Pophale) SiO2 
 PCOD8149043
Probable space group: C 2/C
;
_chemical_formula_sum "Si O2"
_cell_formula_units_Z 52
_cell_length_a 12.958891
_cell_length_b 11.653096
_cell_length_c 16.438972
_cell_angle_alpha 90.000000
_cell_angle_beta 71.211271
_cell_angle_gamma 90.000000
_cell_volume 2350.184680
_symmetry_space_group_name_H-M "C 2/C"
_symmetry_group_IT_number 15
_symmetry_cell_setting 'monoclinic'
loop_
_space_group_symop_operation_xyz
x,y,z
-x,y,1/2-z
-x,-y,-z
x,-y,1/2+z
1/2+x,1/2+y,z
1/2-x,1/2+y,1/2-z
1/2-x,1/2-y,-z
1/2+x,1/2-y,1/2+z
loop_
_atom_site_type_symbol
_atom_site_label
_atom_site_fract_x
_atom_site_fract_y
_atom_site_fract_z
Si Si1 0.616071 0.240608 0.678357
Si Si2 0.088526 0.934905 0.563176
Si Si3 0.246550 0.131816 0.550669
Si Si4 0.363832 0.010423 0.392379
Si Si5 0.705851 0.691898 0.737846
Si Si6 0.355647 0.488411 0.122017
Si Si7 0.000000 0.344675 0.750000
O O1 0.500000 0.250688 0.750000
O O2 0.640980 0.344695 0.611227
O O3 0.707222 0.250318 0.724692
O O4 0.623981 0.125131 0.623038
O O5 0.122250 0.904377 0.461648
O O6 0.130454 0.065113 0.571393
O O7 0.957620 0.926222 0.605508
O O8 0.250000 0.250000 0.500000
O O9 0.341162 0.046118 0.492013
O O10 0.268352 0.157030 0.639500
O O11 0.471310 0.074411 0.333756
O O12 0.257438 0.056029 0.367696
O O13 0.656046 0.578982 0.791379
O O14 0.604078 0.772185 0.746942
#
# Coordination Sequence:
#
# PCOD8149043 Si02
#       7
#     8   8   8   8   8   8   4
#     4  11  26  45  68 102 145 182 228 289 356 424
#     4  10  23  43  75 101 140 181 234 289 354 417
#     4  11  23  43  69 102 138 179 236 295 344 410
#     4  10  23  44  67  95 145 186 225 289 355 417
#     4  11  25  41  72 101 136 182 241 286 351 416
#     4   9  22  43  71 103 134 181 234 290 348 417
#     4  12  22  42  68  98 140 184 234 290 350 414
#
# _framework density 22.125917999999999
#
# number of rings (size 3 to 8) (size 9 to 14) (size 15 to 20)
#    0.000    1.538    2.308    0.923    4.308    8.000 
#    0.000    0.769    0.000    0.000    0.000    0.000 
#    0.000    0.000    0.000    0.000    0.000    0.000 
#
# Total GULP energy -322323.446779 kJ/mol
# GULP energy per Si atom -12397.055645 kJ/mol
# Density = 2.207556 g / cm^3
# Si number density = 22.125918 Si / 1000 Ang^3
#
#
#
# Elastic Constant Matrix: (Units=GPa)
#
#
# Indices 1 2 3 4 5 6 
#
# 1 77.5427 38.3458 48.2636 0.0000 -4.5680 0.0000
# 2 38.3458 107.0045 67.2174 0.0000 9.2211 0.0000
# 3 48.2636 67.2174 179.9310 0.0000 6.6484 0.0000
# 4 0.0000 0.0000 0.0000 38.8004 0.0000 0.0200
# 5 -4.5680 9.2211 6.6484 0.0000 36.0764 0.0000
# 6 0.0000 0.0000 0.0000 0.0200 0.0000 29.3063
#
#
#
# Elastic Compliance Matrix: (Units=1/GPa)
#
#
# Indices 1 2 3 4 5 6 
#
# 1 0.017321 -0.004621 -0.003065 0.000000 0.003939 0.000000
# 2 -0.004621 0.013636 -0.003729 0.000000 -0.003383 0.000000
# 3 -0.003065 -0.003729 0.007805 0.000000 -0.000873 0.000000
# 4 0.000000 0.000000 0.000000 0.025773 0.000000 -0.000018
# 5 0.003939 -0.003383 -0.000873 0.000000 0.029243 0.000000
# 6 0.000000 0.000000 0.000000 -0.000018 0.000000 0.034122
#
#
# Mechanical properties :
#
#
# Convention : Reuss Voigt Hill
#
# Bulk Modulus (GPa) = 62.77216 74.68131 68.72674
# Shear Modulus (GPa) = 32.04246 34.88004 33.46125
#
# Velocity S-wave (km/s) = 3.80963 3.97474 3.89306
# Velocity P-wave (km/s) = 6.91253 7.40884 7.16498
#
# Compressibility (1/GPa) = 0.01593063
#
# Stress axis : x y z
#
# Youngs Moduli (GPa) = 57.73233 73.33737 128.11643
#
# Poissons Ratio (x) = 0.33890 0.39273
# Poissons Ratio (y) = 0.26678 0.47779
# Poissons Ratio (z) = 0.17697 0.27350
#
# Static dielectric constant tensor:
#      x y z
#    x 4.045870 0.000000 -0.240650 
#    y 0.000000 3.915320 0.000000 
#    z -0.240650 0.000000 4.432660 
# 
# 
# High freq. dielectric constant tensor:
#      x y z
#    x 1.862370 0.000000 -0.016830 
#    y 0.000000 1.860350 0.000000 
#    z -0.016830 0.000000 1.889040 
# 
# From -- ./inp_files/152570.got.cif
#   From: 2010.06.25/outbox.cif.g09.slc.cpg/sg15_77_cif.got.tgz:152570.got - 2010.06.28 07:06:18.
