data_PCOD8149212
_publ_section_title
;
Structure prediction by ZEFSAII (Michael W. Deem and Ramdas Pophale) SiO2 
 PCOD8149212
Probable space group: C 2/C
;
_chemical_formula_sum "Si O2"
_cell_formula_units_Z 40
_cell_length_a 10.909125
_cell_length_b 28.646608
_cell_length_c 7.486043
_cell_angle_alpha 90.000000
_cell_angle_beta 49.789279
_cell_angle_gamma 90.000000
_cell_volume 1786.586921
_symmetry_space_group_name_H-M "C 2/C"
_symmetry_group_IT_number 15
_symmetry_cell_setting 'monoclinic'
loop_
_space_group_symop_operation_xyz
x,y,z
-x,y,1/2-z
-x,-y,-z
x,-y,1/2+z
1/2+x,1/2+y,z
1/2-x,1/2+y,1/2-z
1/2-x,1/2-y,-z
1/2+x,1/2-y,1/2+z
loop_
_atom_site_type_symbol
_atom_site_label
_atom_site_fract_x
_atom_site_fract_y
_atom_site_fract_z
Si Si1 0.780793 0.142845 0.118410
Si Si2 0.656387 0.529548 0.805772
Si Si3 0.833608 0.453753 0.803996
Si Si4 0.316483 0.199078 0.972203
Si Si5 0.650758 0.366539 0.345818
O O1 0.694675 0.095310 0.270706
O O2 0.700213 0.185649 0.302010
O O3 0.753416 0.145607 0.928901
O O4 0.966549 0.144977 0.990169
O O5 0.818032 0.498777 0.691259
O O6 0.673650 0.541352 0.580428
O O7 0.665244 0.579418 0.896430
O O8 0.500000 0.500000 0.000000
O O9 0.000000 0.453035 0.750000
O O10 0.500000 0.196915 0.750000
O O11 0.217456 0.163158 0.945439
O O12 0.250000 0.250000 0.000000
#
# Coordination Sequence:
#
# PCOD8149212 Si02
#       5
#     8   8   8   8   8
#     4  10  23  44  70  99 139 179 232 286 350 423
#     4  11  22  39  63  96 135 186 233 270 339 414
#     4  11  24  38  61  96 137 181 230 287 341 404
#     4  12  28  47  74 104 136 179 234 297 363 425
#     4  10  23  44  72 101 139 189 232 288 351 415
#
# _framework density 22.389060000000001
#
# number of rings (size 3 to 8) (size 9 to 14) (size 15 to 20)
#    0.000    1.200    2.000    3.000    8.400    3.200 
#    0.000    0.000    0.000    0.000    0.000    0.000 
#    0.000    0.000    0.000    0.000    0.000    0.000 
#
# Total GULP energy -247914.792920 kJ/mol
# GULP energy per Si atom -12395.739646 kJ/mol
# Density = 2.233810 g / cm^3
# Si number density = 22.389060 Si / 1000 Ang^3
#
#
#
# Elastic Constant Matrix: (Units=GPa)
#
#
# Indices 1 2 3 4 5 6 
#
# 1 81.9557 41.3240 20.0303 0.0000 -5.2032 0.0000
# 2 41.3240 166.5557 46.1005 0.0000 7.9072 0.0000
# 3 20.0303 46.1005 95.0173 0.0000 0.4015 0.0000
# 4 0.0000 0.0000 0.0000 31.6188 0.0000 3.1590
# 5 -5.2032 7.9072 0.4015 0.0000 29.3494 0.0000
# 6 0.0000 0.0000 0.0000 3.1590 0.0000 38.6341
#
#
#
# Elastic Compliance Matrix: (Units=1/GPa)
#
#
# Indices 1 2 3 4 5 6 
#
# 1 0.014467 -0.003358 -0.001435 0.000000 0.003489 0.000000
# 2 -0.003358 0.007814 -0.003072 0.000000 -0.002658 0.000000
# 3 -0.001435 -0.003072 0.012316 0.000000 0.000405 0.000000
# 4 0.000000 0.000000 0.000000 0.031887 0.000000 -0.002607
# 5 0.003489 -0.002658 0.000405 0.000000 0.035402 0.000000
# 6 0.000000 0.000000 0.000000 -0.002607 0.000000 0.026097
#
#
# Mechanical properties :
#
#
# Convention : Reuss Voigt Hill
#
# Bulk Modulus (GPa) = 53.00474 62.04871 57.52672
# Shear Modulus (GPa) = 33.33308 35.65870 34.49589
#
# Velocity S-wave (km/s) = 3.86270 3.99517 3.92949
# Velocity P-wave (km/s) = 6.60452 7.00399 6.80719
#
# Compressibility (1/GPa) = 0.01886624
#
# Stress axis : x y z
#
# Youngs Moduli (GPa) = 69.12230 127.98254 81.19710
#
# Poissons Ratio (x) = 0.42974 0.11655
# Poissons Ratio (y) = 0.23210 0.24943
# Poissons Ratio (z) = 0.09922 0.39315
#
# Static dielectric constant tensor:
#      x y z
#    x 4.112280 0.000000 0.117250 
#    y 0.000000 4.352440 0.000000 
#    z 0.117250 0.000000 4.216710 
# 
# 
# High freq. dielectric constant tensor:
#      x y z
#    x 1.882090 0.000000 -0.006790 
#    y 0.000000 1.881290 0.000000 
#    z -0.006790 0.000000 1.886180 
# 
# From -- ./inp_files/34713.got.cif
#   From: 2010.06.25/outbox.cif.g09.slc.cpg/sg15_18_cif.got.tgz:34713.got - 2010.06.28 07:06:18.
