data_PCOD8149964
_publ_section_title
;
Structure prediction by ZEFSAII (Michael W. Deem and Ramdas Pophale) SiO2 
 PCOD8149964
Probable space group: C 2/C
;
_chemical_formula_sum "Si O2"
_cell_formula_units_Z 40
_cell_length_a 11.133884
_cell_length_b 22.142484
_cell_length_c 12.250683
_cell_angle_alpha 90.000000
_cell_angle_beta 143.050313
_cell_angle_gamma 90.000000
_cell_volume 1815.473050
_symmetry_space_group_name_H-M "C 2/C"
_symmetry_group_IT_number 15
_symmetry_cell_setting 'monoclinic'
loop_
_space_group_symop_operation_xyz
x,y,z
-x,y,1/2-z
-x,-y,-z
x,-y,1/2+z
1/2+x,1/2+y,z
1/2-x,1/2+y,1/2-z
1/2-x,1/2-y,-z
1/2+x,1/2-y,1/2+z
loop_
_atom_site_type_symbol
_atom_site_label
_atom_site_fract_x
_atom_site_fract_y
_atom_site_fract_z
Si Si1 0.656349 0.118849 0.948477
Si Si2 0.500000 0.470844 0.750000
Si Si3 0.500000 0.871346 0.750000
Si Si4 0.609113 0.191645 0.114126
Si Si5 0.563170 0.585167 0.911103
Si Si6 0.448649 0.676278 0.003318
O O1 0.500000 0.088736 0.750000
O O2 0.799090 0.068514 0.105327
O O3 0.530911 0.154314 0.951452
O O4 0.781401 0.169388 0.973770
O O5 0.499785 0.514042 0.857882
O O6 0.503549 0.828960 0.858955
O O7 0.301810 0.912018 0.603977
O O8 0.842078 0.176953 0.283470
O O9 0.575979 0.262891 0.082912
O O10 0.500000 0.616410 0.750000
O O11 0.442252 0.618393 0.918595
#
# Coordination Sequence:
#
# PCOD8149964 Si02
#       6
#     8   4   4   8   8   8
#     4  12  25  44  67  99 131 178 221 274 335 387
#     4  10  24  45  66  98 133 176 228 268 322 398
#     4  10  24  43  66 102 129 174 222 268 340 382
#     4  11  24  42  69  99 137 171 223 273 330 404
#     4   9  24  42  65  94 135 170 221 270 319 392
#     4  11  23  42  67  99 137 172 220 276 332 390
#
# _framework density 22.032824999999999
#
# number of rings (size 3 to 8) (size 9 to 14) (size 15 to 20)
#    0.600    0.800    2.000    1.800    8.400    2.400 
#    0.000    2.000    0.000    0.000    0.000    0.000 
#    0.000    0.000    0.000    0.000    0.000    0.000 
#
# Total GULP energy -247958.885831 kJ/mol
# GULP energy per Si atom -12397.944292 kJ/mol
# Density = 2.198268 g / cm^3
# Si number density = 22.032825 Si / 1000 Ang^3
#
#
#
# Elastic Constant Matrix: (Units=GPa)
#
#
# Indices 1 2 3 4 5 6 
#
# 1 106.3984 38.6737 30.9697 0.0000 -18.6742 0.0000
# 2 38.6737 139.7075 41.1630 0.0000 -10.9504 0.0000
# 3 30.9697 41.1630 94.3952 0.0000 -5.1612 0.0000
# 4 0.0000 0.0000 0.0000 29.2303 0.0000 -3.9972
# 5 -18.6742 -10.9504 -5.1612 0.0000 31.5082 0.0000
# 6 0.0000 0.0000 0.0000 -3.9972 0.0000 19.2350
#
#
#
# Elastic Compliance Matrix: (Units=1/GPa)
#
#
# Indices 1 2 3 4 5 6 
#
# 1 0.011976 -0.002051 -0.002710 0.000000 0.005941 0.000000
# 2 -0.002051 0.008731 -0.003062 0.000000 0.001317 0.000000
# 3 -0.002710 -0.003062 0.012787 0.000000 -0.000576 0.000000
# 4 0.000000 0.000000 0.000000 0.035212 0.000000 0.007317
# 5 0.005941 0.001317 -0.000576 0.000000 0.035622 0.000000
# 6 0.000000 0.000000 0.000000 0.007317 0.000000 0.053509
#
#
# Mechanical properties :
#
#
# Convention : Reuss Voigt Hill
#
# Bulk Modulus (GPa) = 56.03198 62.45710 59.24454
# Shear Modulus (GPa) = 27.86566 31.30768 29.58667
#
# Velocity S-wave (km/s) = 3.56017 3.77365 3.66846
# Velocity P-wave (km/s) = 6.51046 6.88448 6.70008
#
# Compressibility (1/GPa) = 0.01784695
#
# Stress axis : x y z
#
# Youngs Moduli (GPa) = 83.50314 114.53270 78.20583
#
# Poissons Ratio (x) = 0.23491 0.21192
# Poissons Ratio (y) = 0.17127 0.23950
# Poissons Ratio (z) = 0.22628 0.35075
#
# Static dielectric constant tensor:
#      x y z
#    x 3.773490 0.000000 -0.113640 
#    y 0.000000 3.879450 0.000000 
#    z -0.113640 0.000000 4.279030 
# 
# 
# High freq. dielectric constant tensor:
#      x y z
#    x 1.854960 0.000000 -0.006480 
#    y 0.000000 1.855000 0.000000 
#    z -0.006480 0.000000 1.887880 
# 
# From -- ./inp_files/91045.got.cif
#   From: 2010.06.25/outbox.cif.g09.slc.cpg/sg15_46_cif.got.tgz:91045.got - 2010.06.28 07:06:18.
