data_PCOD8149451
_publ_section_title
;
Structure prediction by ZEFSAII (Michael W. Deem and Ramdas Pophale) SiO2 
 PCOD8149451
Probable space group: C 2/C
;
_chemical_formula_sum "Si O2"
_cell_formula_units_Z 56
_cell_length_a 26.696589
_cell_length_b 8.176604
_cell_length_c 12.048477
_cell_angle_alpha 90.000000
_cell_angle_beta 70.168994
_cell_angle_gamma 90.000000
_cell_volume 2474.063263
_symmetry_space_group_name_H-M "C 2/C"
_symmetry_group_IT_number 15
_symmetry_cell_setting 'monoclinic'
loop_
_space_group_symop_operation_xyz
x,y,z
-x,y,1/2-z
-x,-y,-z
x,-y,1/2+z
1/2+x,1/2+y,z
1/2-x,1/2+y,1/2-z
1/2-x,1/2-y,-z
1/2+x,1/2-y,1/2+z
loop_
_atom_site_type_symbol
_atom_site_label
_atom_site_fract_x
_atom_site_fract_y
_atom_site_fract_z
Si Si1 0.366207 0.388408 0.989161
Si Si2 0.266015 0.212281 0.112925
Si Si3 0.942048 0.294630 0.274454
Si Si4 0.947746 0.879074 0.540869
Si Si5 0.166999 0.811997 0.096041
Si Si6 0.444855 0.824721 0.831415
Si Si7 0.271274 0.833430 0.142705
O O1 0.402782 0.258258 0.900617
O O2 0.335677 0.492376 0.916456
O O3 0.322848 0.296017 0.096163
O O4 0.399236 0.504634 0.044703
O O5 0.222840 0.284668 0.232271
O O6 0.273501 0.024226 0.127858
O O7 0.250000 0.250000 0.000000
O O8 0.928929 0.213006 0.166560
O O9 0.943510 0.490035 0.287945
O O10 0.000000 0.220268 0.250000
O O11 0.949521 0.720837 0.457936
O O12 0.000000 0.000000 0.500000
O O13 0.108844 0.752582 0.180823
O O14 0.214136 0.761120 0.143952
O O15 0.180117 0.739373 0.963969
O O16 0.500000 0.741296 0.750000
#
# Coordination Sequence:
#
# PCOD8149451 Si02
#       7
#     8   8   8   8   8   8   8
#     4  11  24  43  72 106 139 184 244 295 365 430
#     4  12  26  45  71 103 138 183 239 300 361 441
#     4  11  24  46  68 102 148 189 234 299 360 436
#     4  11  25  44  75 103 145 194 246 294 364 434
#     4  10  23  46  71 103 136 189 241 293 366 439
#     4  10  25  45  72 105 147 181 241 296 364 432
#     4  11  25  46  72  97 146 185 239 300 368 431
#
# _framework density 22.634827999999999
#
# number of rings (size 3 to 8) (size 9 to 14) (size 15 to 20)
#    0.000    1.143    2.857    1.714    8.000    4.571 
#    7.714    0.000    0.000    0.000    0.000    0.000 
#    0.000    0.000    0.000    0.000    0.000    0.000 
#
# Total GULP energy -346884.762271 kJ/mol
# GULP energy per Si atom -12388.741510 kJ/mol
# Density = 2.258331 g / cm^3
# Si number density = 22.634828 Si / 1000 Ang^3
#
#
#
# Elastic Constant Matrix: (Units=GPa)
#
#
# Indices 1 2 3 4 5 6 
#
# 1 86.5182 22.5330 23.7203 0.0000 -13.8930 0.0000
# 2 22.5330 106.0289 40.5845 0.0000 -8.1002 0.0000
# 3 23.7203 40.5845 106.5812 0.0000 -3.2870 0.0000
# 4 0.0000 0.0000 0.0000 79.9873 0.0000 40.2406
# 5 -13.8930 -8.1002 -3.2870 0.0000 41.6216 0.0000
# 6 0.0000 0.0000 0.0000 40.2406 0.0000 79.2775
#
#
#
# Elastic Compliance Matrix: (Units=1/GPa)
#
#
# Indices 1 2 3 4 5 6 
#
# 1 0.013222 -0.001675 -0.002184 0.000000 0.003915 0.000000
# 2 -0.001675 0.011392 -0.003924 0.000000 0.001348 0.000000
# 3 -0.002184 -0.003924 0.011344 0.000000 -0.000597 0.000000
# 4 0.000000 0.000000 0.000000 0.016789 0.000000 -0.008522
# 5 0.003915 0.001348 -0.000597 0.000000 0.025548 0.000000
# 6 0.000000 0.000000 0.000000 -0.008522 0.000000 0.016940
#
#
# Mechanical properties :
#
#
# Convention : Reuss Voigt Hill
#
# Bulk Modulus (GPa) = 49.03597 52.53377 50.78487
# Shear Modulus (GPa) = 42.51762 54.32999 48.42380
#
# Velocity S-wave (km/s) = 4.33877 4.90458 4.63033
# Velocity P-wave (km/s) = 6.84185 7.43861 7.14646
#
# Compressibility (1/GPa) = 0.02039319
#
# Stress axis : x y z
#
# Youngs Moduli (GPa) = 75.63199 87.77965 88.15019
#
# Poissons Ratio (x) = 0.14701 0.19253
# Poissons Ratio (y) = 0.12667 0.34587
# Poissons Ratio (z) = 0.16519 0.34442
#
# Static dielectric constant tensor:
#      x y z
#    x 4.491590 0.000000 -0.147860 
#    y 0.000000 4.617150 0.000000 
#    z -0.147860 0.000000 4.028700 
# 
# 
# High freq. dielectric constant tensor:
#      x y z
#    x 1.902300 0.000000 -0.013980 
#    y 0.000000 1.899390 0.000000 
#    z -0.013980 0.000000 1.893850 
# 
# From -- ./inp_files/121866.got.cif
#   From: 2010.06.25/outbox.cif.g09.slc.cpg/sg15_61_cif.got.tgz:121866.got - 2010.06.28 07:06:18.
