data_PCOD8149793
_publ_section_title
;
Structure prediction by ZEFSAII (Michael W. Deem and Ramdas Pophale) SiO2 
 PCOD8149793
Probable space group: C 2/C
;
_chemical_formula_sum "Si O2"
_cell_formula_units_Z 36
_cell_length_a 6.499220
_cell_length_b 19.728737
_cell_length_c 13.364684
_cell_angle_alpha 90.000000
_cell_angle_beta 88.244650
_cell_angle_gamma 90.000000
_cell_volume 1712.834370
_symmetry_space_group_name_H-M "C 2/C"
_symmetry_group_IT_number 15
_symmetry_cell_setting 'monoclinic'
loop_
_space_group_symop_operation_xyz
x,y,z
-x,y,1/2-z
-x,-y,-z
x,-y,1/2+z
1/2+x,1/2+y,z
1/2-x,1/2+y,1/2-z
1/2-x,1/2-y,-z
1/2+x,1/2-y,1/2+z
loop_
_atom_site_type_symbol
_atom_site_label
_atom_site_fract_x
_atom_site_fract_y
_atom_site_fract_z
Si Si1 0.864896 0.700938 0.350437
Si Si2 0.806170 0.954720 0.021338
Si Si3 0.500000 0.237500 0.750000
Si Si4 0.478844 0.941768 0.868289
Si Si5 0.887663 0.826277 0.149228
O O1 0.629301 0.716718 0.325739
O O2 0.869639 0.628692 0.407135
O O3 0.000000 0.690313 0.250000
O O4 0.979229 0.764367 0.404091
O O5 0.882647 0.885445 0.069300
O O6 0.648051 0.992860 0.096248
O O7 0.703108 0.941047 0.915469
O O8 0.000000 0.000000 0.000000
O O9 0.346536 0.192935 0.819820
O O10 0.500000 0.947112 0.750000
O O11 0.000000 0.849569 0.250000
#
# Coordination Sequence:
#
# PCOD8149793 Si02
#       5
#     8   8   4   8   8
#     4   8  17  36  60  91 116 155 203 250 303 363
#     4  11  26  40  58  93 123 162 207 248 306 370
#     4   8  16  34  64  88 118 156 196 250 306 352
#     4  10  24  42  62  88 125 158 206 254 304 368
#     4   9  20  36  61  89 120 157 207 246 299 364
#
# _framework density 21.017793999999999
#
# number of rings (size 3 to 8) (size 9 to 14) (size 15 to 20)
#    0.000    3.111    0.000    0.000    4.667   11.556 
#    0.000    2.222    0.000    0.000    0.000    0.000 
#    0.000    0.000    0.000    0.000    0.000    0.000 
#
# Total GULP energy -223091.163494 kJ/mol
# GULP energy per Si atom -12393.953527 kJ/mol
# Density = 2.096996 g / cm^3
# Si number density = 21.017794 Si / 1000 Ang^3
#
#
#
# Elastic Constant Matrix: (Units=GPa)
#
#
# Indices 1 2 3 4 5 6 
#
# 1 142.2689 40.6916 37.1375 0.0000 28.0078 0.0000
# 2 40.6916 129.8903 43.6452 0.0000 25.3475 0.0000
# 3 37.1375 43.6452 92.1571 0.0000 29.5920 0.0000
# 4 0.0000 0.0000 0.0000 69.4664 0.0000 14.5879
# 5 28.0078 25.3475 29.5920 0.0000 22.2021 0.0000
# 6 0.0000 0.0000 0.0000 14.5879 0.0000 31.7920
#
#
#
# Elastic Compliance Matrix: (Units=1/GPa)
#
#
# Indices 1 2 3 4 5 6 
#
# 1 0.009419 -0.000832 0.000190 0.000000 -0.011186 0.000000
# 2 -0.000832 0.010164 -0.001904 0.000000 -0.008016 0.000000
# 3 0.000190 -0.001904 0.019327 0.000000 -0.023825 0.000000
# 4 0.000000 0.000000 0.000000 0.015931 0.000000 -0.007310
# 5 -0.011186 -0.008016 -0.023825 0.000000 0.100059 0.000000
# 6 0.000000 0.000000 0.000000 -0.007310 0.000000 0.034809
#
#
# Mechanical properties :
#
#
# Convention : Reuss Voigt Hill
#
# Bulk Modulus (GPa) = 29.57041 67.47387 48.52214
# Shear Modulus (GPa) = 24.26333 40.88156 32.57244
#
# Velocity S-wave (km/s) = 3.40136 4.41511 3.94096
# Velocity P-wave (km/s) = 5.43373 7.62652 6.62153
#
# Compressibility (1/GPa) = 0.03381759
#
# Stress axis : x y z
#
# Youngs Moduli (GPa) = 106.16361 98.39098 51.74201
#
# Poissons Ratio (x) = 0.08184 -0.00983
# Poissons Ratio (y) = 0.08831 0.09853
# Poissons Ratio (z) = -0.02017 0.18736
#
# Static dielectric constant tensor:
#      x y z
#    x 4.121820 0.000000 0.222450 
#    y 0.000000 4.668840 0.000000 
#    z 0.222450 0.000000 3.482130 
# 
# 
# High freq. dielectric constant tensor:
#      x y z
#    x 1.833730 0.000000 0.015010 
#    y 0.000000 1.838030 0.000000 
#    z 0.015010 0.000000 1.795690 
# 
# From -- ./inp_files/128725.got.cif
#   From: 2010.06.25/outbox.cif.g09.slc.cpg/sg15_65_cif.got.tgz:128725.got - 2010.06.28 07:06:18.
