data_PCOD8149528
_publ_section_title
;
Structure prediction by ZEFSAII (Michael W. Deem and Ramdas Pophale) SiO2 
 PCOD8149528
Probable space group: C 2/C
;
_chemical_formula_sum "Si O2"
_cell_formula_units_Z 60
_cell_length_a 23.721261
_cell_length_b 8.796452
_cell_length_c 22.823800
_cell_angle_alpha 90.000000
_cell_angle_beta 145.667314
_cell_angle_gamma 90.000000
_cell_volume 2686.026122
_symmetry_space_group_name_H-M "C 2/C"
_symmetry_group_IT_number 15
_symmetry_cell_setting 'monoclinic'
loop_
_space_group_symop_operation_xyz
x,y,z
-x,y,1/2-z
-x,-y,-z
x,-y,1/2+z
1/2+x,1/2+y,z
1/2-x,1/2+y,1/2-z
1/2-x,1/2-y,-z
1/2+x,1/2-y,1/2+z
loop_
_atom_site_type_symbol
_atom_site_label
_atom_site_fract_x
_atom_site_fract_y
_atom_site_fract_z
Si Si1 0.892783 0.363271 0.612842
Si Si2 0.269413 0.944737 0.401492
Si Si3 0.418872 0.117764 0.449152
Si Si4 0.780455 0.327717 0.720287
Si Si5 0.098011 0.483696 0.264266
Si Si6 0.434681 0.379923 0.910679
Si Si7 0.909697 0.872317 0.758251
Si Si8 0.500000 0.587334 0.750000
O O1 0.810381 0.349408 0.491827
O O2 0.858797 0.484422 0.633464
O O3 0.996584 0.417667 0.671534
O O4 0.905785 0.198097 0.655037
O O5 0.211905 0.829267 0.308640
O O6 0.356668 0.038269 0.446077
O O7 0.193691 0.072965 0.360260
O O8 0.347514 0.181723 0.336313
O O9 0.487231 0.246775 0.535215
O O10 0.500000 0.000000 0.500000
O O11 0.821848 0.467291 0.716533
O O12 0.663452 0.345976 0.634944
O O13 0.073443 0.306157 0.236081
O O14 0.399211 0.427363 0.816185
O O15 0.500000 0.500000 0.000000
O O16 0.994009 0.975627 0.800633
#
# Coordination Sequence:
#
# PCOD8149528 Si02
#       8
#     8   8   8   8   8   8   8   4
#     4  10  23  48  70  99 134 184 233 287 355 412
#     4  12  25  42  72 102 139 180 237 286 346 419
#     4  12  25  45  71 100 142 192 226 284 349 412
#     4  12  26  45  70 104 144 186 234 283 345 433
#     4  10  24  45  70  97 141 181 230 291 346 412
#     4  12  28  43  69 106 147 182 233 288 355 412
#     4  12  25  44  69 103 138 178 233 296 341 419
#     4  10  24  44  74  94 134 180 236 288 348 416
#
# _framework density 22.337831999999999
#
# number of rings (size 3 to 8) (size 9 to 14) (size 15 to 20)
#    0.000    0.800    2.667    5.600    3.733    2.667 
#    0.000    0.000    0.000    0.000    0.000    0.000 
#    0.000    0.000    0.000    0.000    0.000    0.000 
#
# Total GULP energy -371863.389612 kJ/mol
# GULP energy per Si atom -12395.446320 kJ/mol
# Density = 2.228699 g / cm^3
# Si number density = 22.337832 Si / 1000 Ang^3
#
#
#
# Elastic Constant Matrix: (Units=GPa)
#
#
# Indices 1 2 3 4 5 6 
#
# 1 79.3640 25.6627 19.6416 0.0000 -12.9892 0.0000
# 2 25.6627 126.8605 25.2313 0.0000 -3.7454 0.0000
# 3 19.6416 25.2313 100.9754 0.0000 -7.8141 0.0000
# 4 0.0000 0.0000 0.0000 32.0169 0.0000 1.4253
# 5 -12.9892 -3.7454 -7.8141 0.0000 36.0931 0.0000
# 6 0.0000 0.0000 0.0000 1.4253 0.0000 40.5198
#
#
#
# Elastic Compliance Matrix: (Units=1/GPa)
#
#
# Indices 1 2 3 4 5 6 
#
# 1 0.014608 -0.002446 -0.001874 0.000000 0.004597 0.000000
# 2 -0.002446 0.008711 -0.001728 0.000000 -0.000351 0.000000
# 3 -0.001874 -0.001728 0.010815 0.000000 0.001488 0.000000
# 4 0.000000 0.000000 0.000000 0.031282 0.000000 -0.001100
# 5 0.004597 -0.000351 0.001488 0.000000 0.029646 0.000000
# 6 0.000000 0.000000 0.000000 -0.001100 0.000000 0.024718
#
#
# Mechanical properties :
#
#
# Convention : Reuss Voigt Hill
#
# Bulk Modulus (GPa) = 45.38051 49.80791 47.59421
# Shear Modulus (GPa) = 35.91369 37.50360 36.70865
#
# Velocity S-wave (km/s) = 4.01403 4.10192 4.05821
# Velocity P-wave (km/s) = 6.46861 6.69181 6.58115
#
# Compressibility (1/GPa) = 0.02203589
#
# Stress axis : x y z
#
# Youngs Moduli (GPa) = 68.45777 114.79906 92.46528
#
# Poissons Ratio (x) = 0.28085 0.17331
# Poissons Ratio (y) = 0.16748 0.15977
# Poissons Ratio (z) = 0.12832 0.19836
#
# Static dielectric constant tensor:
#      x y z
#    x 4.076810 0.000000 -0.071090 
#    y 0.000000 4.056330 0.000000 
#    z -0.071090 0.000000 4.049320 
# 
# 
# High freq. dielectric constant tensor:
#      x y z
#    x 1.890060 0.000000 -0.000650 
#    y 0.000000 1.886040 0.000000 
#    z -0.000650 0.000000 1.880610 
# 
# From -- ./inp_files/281676.got.cif
#   From: 2010.06.25/outbox.cif.g09.slc.cpg/sg15_141_cif.got.tgz:281676.got - 2010.06.28 07:06:18.
