data_PCOD8149429
_publ_section_title
;
Structure prediction by ZEFSAII (Michael W. Deem and Ramdas Pophale) SiO2 
 PCOD8149429
Probable space group: C 2/C
;
_chemical_formula_sum "Si O2"
_cell_formula_units_Z 52
_cell_length_a 10.729566
_cell_length_b 12.573757
_cell_length_c 22.226791
_cell_angle_alpha 90.000000
_cell_angle_beta 51.764564
_cell_angle_gamma 90.000000
_cell_volume 2355.352699
_symmetry_space_group_name_H-M "C 2/C"
_symmetry_group_IT_number 15
_symmetry_cell_setting 'monoclinic'
loop_
_space_group_symop_operation_xyz
x,y,z
-x,y,1/2-z
-x,-y,-z
x,-y,1/2+z
1/2+x,1/2+y,z
1/2-x,1/2+y,1/2-z
1/2-x,1/2-y,-z
1/2+x,1/2-y,1/2+z
loop_
_atom_site_type_symbol
_atom_site_label
_atom_site_fract_x
_atom_site_fract_y
_atom_site_fract_z
Si Si1 0.113280 0.627315 0.560191
Si Si2 0.268053 0.125696 0.685724
Si Si3 0.811911 0.826309 0.894911
Si Si4 0.662309 0.511331 0.917129
Si Si5 0.118795 0.304751 0.660968
Si Si6 0.140717 0.798211 0.340995
Si Si7 0.000000 0.961908 0.750000
O O1 0.100820 0.752560 0.581273
O O2 0.182380 0.606813 0.472613
O O3 0.222252 0.580791 0.578265
O O4 0.939146 0.576404 0.619209
O O5 0.217360 0.199191 0.645661
O O6 0.263532 0.194515 0.748528
O O7 0.146472 0.029897 0.729827
O O8 0.718765 0.768538 0.870106
O O9 0.948622 0.896305 0.824119
O O10 0.753202 0.399023 0.883164
O O11 0.617798 0.578942 0.870286
O O12 0.500000 0.500000 0.000000
O O13 0.000000 0.337411 0.750000
O O14 0.018207 0.267136 0.631934
#
# Coordination Sequence:
#
# PCOD8149429 Si02
#       7
#     8   8   8   8   8   8   4
#     4  10  25  46  66 103 137 177 232 288 347 431
#     4  11  24  44  69 101 139 175 239 288 348 427
#     4  10  24  44  71  97 138 181 227 289 349 410
#     4  11  27  43  72 103 137 187 232 292 360 425
#     4  10  24  47  69 103 140 186 230 300 353 416
#     4  10  23  46  68 104 136 185 236 280 353 431
#     4  12  24  42  68 102 132 182 228 288 350 414
#
# _framework density 22.077373000000001
#
# number of rings (size 3 to 8) (size 9 to 14) (size 15 to 20)
#    0.000    1.538    2.308    0.923   12.923    3.692 
#    0.000    0.000    0.000    0.000    0.000    0.000 
#    0.000    0.000    0.000    0.000    0.000    0.000 
#
# Total GULP energy -322199.586158 kJ/mol
# GULP energy per Si atom -12392.291775 kJ/mol
# Density = 2.202712 g / cm^3
# Si number density = 22.077373 Si / 1000 Ang^3
#
#
#
# Elastic Constant Matrix: (Units=GPa)
#
#
# Indices 1 2 3 4 5 6 
#
# 1 107.7647 45.1483 59.6051 0.0000 -14.8636 0.0000
# 2 45.1483 107.6498 50.1000 0.0000 -8.0843 0.0000
# 3 59.6051 50.1000 152.0984 0.0000 -22.3340 0.0000
# 4 0.0000 0.0000 0.0000 71.8851 0.0000 -12.6929
# 5 -14.8636 -8.0843 -22.3340 0.0000 45.2219 0.0000
# 6 0.0000 0.0000 0.0000 -12.6929 0.0000 36.2285
#
#
#
# Elastic Compliance Matrix: (Units=1/GPa)
#
#
# Indices 1 2 3 4 5 6 
#
# 1 0.013084 -0.003648 -0.003655 0.000000 0.001843 0.000000
# 2 -0.003648 0.011990 -0.002567 0.000000 -0.000323 0.000000
# 3 -0.003655 -0.002567 0.009282 0.000000 0.002924 0.000000
# 4 0.000000 0.000000 0.000000 0.014828 0.000000 0.005195
# 5 0.001843 -0.000323 0.002924 0.000000 0.024105 0.000000
# 6 0.000000 0.000000 0.000000 0.005195 0.000000 0.029423
#
#
# Mechanical properties :
#
#
# Convention : Reuss Voigt Hill
#
# Bulk Modulus (GPa) = 68.42258 75.24663 71.83460
# Shear Modulus (GPa) = 39.26998 44.84442 42.05720
#
# Velocity S-wave (km/s) = 4.22209 4.51182 4.36936
# Velocity P-wave (km/s) = 7.40456 7.82938 7.61993
#
# Compressibility (1/GPa) = 0.01461506
#
# Stress axis : x y z
#
# Youngs Moduli (GPa) = 76.43184 83.40429 107.73476
#
# Poissons Ratio (x) = 0.30424 0.39378
# Poissons Ratio (y) = 0.27881 0.27659
# Poissons Ratio (z) = 0.27936 0.21413
#
# Static dielectric constant tensor:
#      x y z
#    x 3.973480 0.000000 0.028890 
#    y 0.000000 4.336690 0.000000 
#    z 0.028890 0.000000 4.179260 
# 
# 
# High freq. dielectric constant tensor:
#      x y z
#    x 1.875190 0.000000 0.000990 
#    y 0.000000 1.866000 0.000000 
#    z 0.000990 0.000000 1.873400 
# 
# From -- ./inp_files/269205.got.cif
#   From: 2010.06.25/outbox.cif.g09.slc.cpg/sg15_135_cif.got.tgz:269205.got - 2010.06.28 07:06:18.
