data_PCOD8149810
_publ_section_title
;
Structure prediction by ZEFSAII (Michael W. Deem and Ramdas Pophale) SiO2 
 PCOD8149810
Probable space group: C 2/C
;
_chemical_formula_sum "Si O2"
_cell_formula_units_Z 40
_cell_length_a 12.743747
_cell_length_b 6.745427
_cell_length_c 24.136874
_cell_angle_alpha 90.000000
_cell_angle_beta 108.835279
_cell_angle_gamma 90.000000
_cell_volume 1963.747228
_symmetry_space_group_name_H-M "C 2/C"
_symmetry_group_IT_number 15
_symmetry_cell_setting 'monoclinic'
loop_
_space_group_symop_operation_xyz
x,y,z
-x,y,1/2-z
-x,-y,-z
x,-y,1/2+z
1/2+x,1/2+y,z
1/2-x,1/2+y,1/2-z
1/2-x,1/2-y,-z
1/2+x,1/2-y,1/2+z
loop_
_atom_site_type_symbol
_atom_site_label
_atom_site_fract_x
_atom_site_fract_y
_atom_site_fract_z
Si Si1 0.654232 0.412680 0.479124
Si Si2 0.706842 0.634526 0.169413
Si Si3 0.628153 0.201577 0.771717
Si Si4 0.404913 0.347042 0.426716
Si Si5 0.767877 0.974524 0.622080
O O1 0.750000 0.250000 0.500000
O O2 0.534279 0.305358 0.459287
O O3 0.658396 0.566986 0.530353
O O4 0.668827 0.537547 0.425493
O O5 0.664456 0.740321 0.216763
O O6 0.812522 0.499260 0.199980
O O7 0.609207 0.502139 0.126241
O O8 0.744145 0.797558 0.131449
O O9 0.500000 0.151600 0.750000
O O10 0.653543 0.380313 0.817916
O O11 0.349232 0.139298 0.401101
#
# Coordination Sequence:
#
# PCOD8149810 Si02
#       5
#     8   8   8   8   8
#     4  11  22  43  65  93 123 163 208 251 310 367
#     4  11  22  43  61  93 124 160 211 251 305 371
#     4  11  24  41  64  89 124 166 204 254 309 362
#     4  10  24  42  64  91 128 160 203 259 303 366
#     4  11  23  42  65  91 127 163 204 255 307 365
#
# _framework density 20.369218
#
# number of rings (size 3 to 8) (size 9 to 14) (size 15 to 20)
#    0.000    1.200    4.000    1.800    0.000    3.200 
#    3.600    0.000    0.000    0.000    0.000    0.000 
#    0.000    0.000    0.000    0.000    0.000    0.000 
#
# Total GULP energy -248117.470147 kJ/mol
# GULP energy per Si atom -12405.873507 kJ/mol
# Density = 2.032286 g / cm^3
# Si number density = 20.369218 Si / 1000 Ang^3
#
#
#
# Elastic Constant Matrix: (Units=GPa)
#
#
# Indices 1 2 3 4 5 6 
#
# 1 114.3793 48.6455 35.5743 0.0000 21.0512 0.0000
# 2 48.6455 99.1379 32.1443 0.0000 -4.2974 0.0000
# 3 35.5743 32.1443 102.9326 0.0000 -3.5033 0.0000
# 4 0.0000 0.0000 0.0000 23.9977 0.0000 0.7337
# 5 21.0512 -4.2974 -3.5033 0.0000 23.5250 0.0000
# 6 0.0000 0.0000 0.0000 0.7337 0.0000 18.7772
#
#
#
# Elastic Compliance Matrix: (Units=1/GPa)
#
#
# Indices 1 2 3 4 5 6 
#
# 1 0.016042 -0.007343 -0.003805 0.000000 -0.016263 0.000000
# 2 -0.007343 0.014640 -0.001728 0.000000 0.008988 0.000000
# 3 -0.003805 -0.001728 0.011734 0.000000 0.004836 0.000000
# 4 0.000000 0.000000 0.000000 0.041720 0.000000 -0.001630
# 5 -0.016263 0.008988 0.004836 0.000000 0.059423 0.000000
# 6 0.000000 0.000000 0.000000 -0.001630 0.000000 0.053320
#
#
# Mechanical properties :
#
#
# Convention : Reuss Voigt Hill
#
# Bulk Modulus (GPa) = 60.00673 61.01977 60.51325
# Shear Modulus (GPa) = 21.91181 26.59902 24.25542
#
# Velocity S-wave (km/s) = 3.28339 3.61757 3.45452
# Velocity P-wave (km/s) = 6.62553 6.88992 6.75902
#
# Compressibility (1/GPa) = 0.01666480
#
# Stress axis : x y z
#
# Youngs Moduli (GPa) = 62.33450 68.30576 85.21996
#
# Poissons Ratio (x) = 0.50158 0.32424
# Poissons Ratio (y) = 0.45773 0.14727
# Poissons Ratio (z) = 0.23717 0.11804
#
# Static dielectric constant tensor:
#      x y z
#    x 3.556910 0.000000 -0.054240 
#    y 0.000000 3.574090 0.000000 
#    z -0.054240 0.000000 4.189160 
# 
# 
# High freq. dielectric constant tensor:
#      x y z
#    x 1.791160 0.000000 -0.000930 
#    y 0.000000 1.794540 0.000000 
#    z -0.000930 0.000000 1.822310 
# 
# From -- ./inp_files/271647.got.cif
#   From: 2010.06.25/outbox.cif.g09.slc.cpg/sg15_136_cif.got.tgz:271647.got - 2010.06.28 07:06:18.
