data_PCOD8149369
_publ_section_title
;
Structure prediction by ZEFSAII (Michael W. Deem and Ramdas Pophale) SiO2 
 PCOD8149369
Probable space group: C 2/C
;
_chemical_formula_sum "Si O2"
_cell_formula_units_Z 60
_cell_length_a 27.374770
_cell_length_b 8.831793
_cell_length_c 27.815337
_cell_angle_alpha 90.000000
_cell_angle_beta 154.855445
_cell_angle_gamma 90.000000
_cell_volume 2857.419394
_symmetry_space_group_name_H-M "C 2/C"
_symmetry_group_IT_number 15
_symmetry_cell_setting 'monoclinic'
loop_
_space_group_symop_operation_xyz
x,y,z
-x,y,1/2-z
-x,-y,-z
x,-y,1/2+z
1/2+x,1/2+y,z
1/2-x,1/2+y,1/2-z
1/2-x,1/2-y,-z
1/2+x,1/2-y,1/2+z
loop_
_atom_site_type_symbol
_atom_site_label
_atom_site_fract_x
_atom_site_fract_y
_atom_site_fract_z
Si Si1 0.489387 0.392225 0.366965
Si Si2 0.500000 0.236790 0.750000
Si Si3 0.907259 0.513132 0.590338
Si Si4 0.595227 0.548640 0.122872
Si Si5 0.664445 0.111323 0.658805
Si Si6 0.372145 0.701545 0.589164
Si Si7 0.361771 0.498489 0.663411
Si Si8 0.995375 0.576214 0.071613
O O1 0.473715 0.537367 0.387706
O O2 0.615873 0.380776 0.453221
O O3 0.396092 0.409412 0.241460
O O4 0.465473 0.242800 0.377110
O O5 0.429627 0.143219 0.648202
O O6 0.410574 0.329097 0.703211
O O7 0.947586 0.354620 0.650797
O O8 0.773905 0.506163 0.459459
O O9 0.970952 0.531207 0.595954
O O10 0.642505 0.716764 0.156408
O O11 0.700793 0.429065 0.218233
O O12 0.500000 0.500000 0.000000
O O13 0.617519 0.088480 0.562848
O O14 0.600702 0.996222 0.637310
O O15 0.250000 0.750000 0.500000
O O16 0.420335 0.583901 0.670303
#
# Coordination Sequence:
#
# PCOD8149369 Si02
#       8
#     8   4   8   8   8   8   8   8
#     4  11  21  41  70  97 130 181 230 286 354 428
#     4  12  24  38  62  92 144 180 216 284 348 422
#     4  10  24  40  63  97 129 176 230 279 349 419
#     4  12  26  46  72 104 143 187 241 299 367 438
#     4  11  25  46  71 101 141 186 233 309 360 421
#     4   9  20  40  66  93 126 175 224 283 334 411
#     4  11  22  42  65  93 136 176 225 285 344 415
#     4  10  23  45  71  97 135 180 240 296 360 426
#
# _framework density 20.997966999999999
#
# number of rings (size 3 to 8) (size 9 to 14) (size 15 to 20)
#    0.000    1.333    2.667    2.000    7.467    0.000 
#    2.400    0.000    0.000    0.000    0.000    0.000 
#    0.000    0.000    0.000    0.000    0.000    0.000 
#
# Total GULP energy -371682.796945 kJ/mol
# GULP energy per Si atom -12389.426565 kJ/mol
# Density = 2.095017 g / cm^3
# Si number density = 20.997967 Si / 1000 Ang^3
#
#
#
# Elastic Constant Matrix: (Units=GPa)
#
#
# Indices 1 2 3 4 5 6 
#
# 1 144.7202 50.2994 60.5262 0.0000 -14.3746 0.0001
# 2 50.2994 93.4912 45.3382 -0.0007 -12.4628 -0.0002
# 3 60.5262 45.3382 107.4720 -0.0005 -4.0871 0.0001
# 4 0.0000 -0.0007 -0.0005 33.3323 -0.0001 -4.7195
# 5 -14.3746 -12.4628 -4.0871 -0.0001 31.1128 0.0001
# 6 0.0001 -0.0002 0.0001 -4.7195 0.0001 45.6615
#
#
#
# Elastic Compliance Matrix: (Units=1/GPa)
#
#
# Indices 1 2 3 4 5 6 
#
# 1 0.010007 -0.002915 -0.004296 0.000000 0.002891 0.000000
# 2 -0.002915 0.015006 -0.004534 0.000000 0.004068 0.000000
# 3 -0.004296 -0.004534 0.013560 0.000000 -0.002020 0.000000
# 4 0.000000 0.000000 0.000000 0.030447 0.000000 0.003147
# 5 0.002891 0.004068 -0.002020 0.000000 0.034841 0.000000
# 6 0.000000 0.000000 0.000000 0.003147 0.000000 0.022226
#
#
# Mechanical properties :
#
#
# Convention : Reuss Voigt Hill
#
# Bulk Modulus (GPa) = 66.30120 73.11233 69.70676
# Shear Modulus (GPa) = 32.34083 34.65594 33.49839
#
# Velocity S-wave (km/s) = 3.92878 4.06697 3.99847
# Velocity P-wave (km/s) = 7.22662 7.54639 7.38824
#
# Compressibility (1/GPa) = 0.01508268
#
# Stress axis : x y z
#
# Youngs Moduli (GPa) = 99.93023 66.64209 73.74624
#
# Poissons Ratio (x) = 0.19427 0.31682
# Poissons Ratio (y) = 0.29131 0.33435
# Poissons Ratio (z) = 0.42930 0.30214
#
# Static dielectric constant tensor:
#      x y z
#    x 4.245470 0.000000 -0.154300 
#    y 0.000000 4.171290 0.000000 
#    z -0.154300 0.000000 3.704000 
# 
# 
# High freq. dielectric constant tensor:
#      x y z
#    x 1.844670 0.000000 -0.001280 
#    y 0.000000 1.823660 0.000000 
#    z -0.001280 0.000000 1.815450 
# 
# From -- ./inp_files/303118.got.cif
#   From: 2010.06.25/outbox.cif.g09.slc.cpg/sg15_152_cif.got.tgz:303118.got - 2010.06.28 07:06:18.
