data_PCOD8149230
_publ_section_title
;
Structure prediction by ZEFSAII (Michael W. Deem and Ramdas Pophale) SiO2 
 PCOD8149230
Probable space group: C 2/C
;
_chemical_formula_sum "Si O2"
_cell_formula_units_Z 32
_cell_length_a 13.556028
_cell_length_b 6.875650
_cell_length_c 15.404860
_cell_angle_alpha 90.000000
_cell_angle_beta 97.128581
_cell_angle_gamma 90.000000
_cell_volume 1424.734381
_symmetry_space_group_name_H-M "C 2/C"
_symmetry_group_IT_number 15
_symmetry_cell_setting 'monoclinic'
loop_
_space_group_symop_operation_xyz
x,y,z
-x,y,1/2-z
-x,-y,-z
x,-y,1/2+z
1/2+x,1/2+y,z
1/2-x,1/2+y,1/2-z
1/2-x,1/2-y,-z
1/2+x,1/2-y,1/2+z
loop_
_atom_site_type_symbol
_atom_site_label
_atom_site_fract_x
_atom_site_fract_y
_atom_site_fract_z
Si Si1 0.742169 0.252518 0.643107
Si Si2 0.355940 0.031709 0.019037
Si Si3 0.460116 0.697176 0.954530
Si Si4 0.892927 0.025381 0.773486
O O1 0.683450 0.096926 0.579295
O O2 0.774201 0.434668 0.585069
O O3 0.670024 0.332259 0.710498
O O4 0.838097 0.150590 0.694383
O O5 0.384968 0.803751 0.014274
O O6 0.450634 0.158050 0.056689
O O7 0.403201 0.657546 0.859478
O O8 0.500000 0.500000 0.000000
O O9 0.000000 0.957082 0.750000
#
# Coordination Sequence:
#
# PCOD8149230 Si02
#       4
#     8   8   8   8
#     4  11  24  45  66 103 139 185 235 290 349 418
#     4  10  23  44  71  98 137 181 237 288 344 417
#     4  11  22  44  71 100 135 186 229 286 351 419
#     4  12  25  43  67 102 144 177 233 287 348 417
#
# _framework density 22.460326999999999
#
# number of rings (size 3 to 8) (size 9 to 14) (size 15 to 20)
#    0.000    1.000    5.000    1.500    0.000    3.000 
#    0.000    0.000    0.000    0.000    0.000    0.000 
#    0.000    0.000    0.000    0.000    0.000    0.000 
#
# Total GULP energy -198461.884699 kJ/mol
# GULP energy per Si atom -12403.867794 kJ/mol
# Density = 2.240921 g / cm^3
# Si number density = 22.460327 Si / 1000 Ang^3
#
#
#
# Elastic Constant Matrix: (Units=GPa)
#
#
# Indices 1 2 3 4 5 6 
#
# 1 121.8565 41.3333 22.2418 0.0000 -11.8274 0.0000
# 2 41.3333 117.0329 30.1804 0.0000 -9.8129 0.0000
# 3 22.2418 30.1804 94.2638 0.0000 14.0420 0.0000
# 4 0.0000 0.0000 0.0000 25.6456 0.0000 -5.7293
# 5 -11.8274 -9.8129 14.0420 0.0000 45.2239 0.0000
# 6 0.0000 0.0000 0.0000 -5.7293 0.0000 36.4065
#
#
#
# Elastic Compliance Matrix: (Units=1/GPa)
#
#
# Indices 1 2 3 4 5 6 
#
# 1 0.009710 -0.002762 -0.001778 0.000000 0.002492 0.000000
# 2 -0.002762 0.010530 -0.003096 0.000000 0.002524 0.000000
# 3 -0.001778 -0.003096 0.012780 0.000000 -0.005105 0.000000
# 4 0.000000 0.000000 0.000000 0.040414 0.000000 0.006360
# 5 0.002492 0.002524 -0.005105 0.000000 0.024897 0.000000
# 6 0.000000 0.000000 0.000000 0.006360 0.000000 0.028468
#
#
# Mechanical properties :
#
#
# Convention : Reuss Voigt Hill
#
# Bulk Modulus (GPa) = 56.34350 57.85156 57.09753
# Shear Modulus (GPa) = 33.78721 37.41506 35.60113
#
# Velocity S-wave (km/s) = 3.88275 4.08588 3.98561
# Velocity P-wave (km/s) = 6.72616 6.93343 6.83058
#
# Compressibility (1/GPa) = 0.01774828
#
# Stress axis : x y z
#
# Youngs Moduli (GPa) = 102.99133 94.96762 78.24945
#
# Poissons Ratio (x) = 0.26227 0.13913
# Poissons Ratio (y) = 0.28443 0.24224
# Poissons Ratio (z) = 0.18312 0.29399
#
# Static dielectric constant tensor:
#      x y z
#    x 4.273060 0.000000 0.021190 
#    y 0.000000 2.885330 0.000000 
#    z 0.021190 0.000000 4.259510 
# 
# 
# High freq. dielectric constant tensor:
#      x y z
#    x 1.900460 0.000000 0.011450 
#    y 0.000000 1.872860 0.000000 
#    z 0.011450 0.000000 1.890120 
# 
# From -- ./inp_files/201883.got.cif
#   From: 2010.06.25/outbox.cif.g09.slc.cpg/sg15_101_cif.got.tgz:201883.got - 2010.06.28 07:06:18.
