data_PCOD8149100
_publ_section_title
;
Structure prediction by ZEFSAII (Michael W. Deem and Ramdas Pophale) SiO2 
 PCOD8149100
Probable space group: C 2/C
;
_chemical_formula_sum "Si O2"
_cell_formula_units_Z 48
_cell_length_a 10.774026
_cell_length_b 22.489810
_cell_length_c 8.868960
_cell_angle_alpha 90.000000
_cell_angle_beta 82.397413
_cell_angle_gamma 90.000000
_cell_volume 2130.109784
_symmetry_space_group_name_H-M "C 2/C"
_symmetry_group_IT_number 15
_symmetry_cell_setting 'monoclinic'
loop_
_space_group_symop_operation_xyz
x,y,z
-x,y,1/2-z
-x,-y,-z
x,-y,1/2+z
1/2+x,1/2+y,z
1/2-x,1/2+y,1/2-z
1/2-x,1/2-y,-z
1/2+x,1/2-y,1/2+z
loop_
_atom_site_type_symbol
_atom_site_label
_atom_site_fract_x
_atom_site_fract_y
_atom_site_fract_z
Si Si1 0.018949 0.327276 0.078430
Si Si2 0.185182 0.437915 0.009448
Si Si3 0.886267 0.891230 0.174674
Si Si4 0.635872 0.046531 0.194122
Si Si5 0.013369 0.193661 0.416963
Si Si6 0.744987 0.853019 0.485848
O O1 0.124528 0.372039 0.997589
O O2 0.000000 0.350951 0.250000
O O3 0.055201 0.257943 0.072754
O O4 0.893762 0.326552 0.998071
O O5 0.315981 0.437925 0.079440
O O6 0.100581 0.484621 0.115971
O O7 0.209199 0.463725 0.839130
O O8 0.789916 0.861894 0.307136
O O9 0.000000 0.921678 0.250000
O O10 0.939358 0.841619 0.055202
O O11 0.500000 0.076814 0.250000
O O12 0.729710 0.084407 0.074728
O O13 0.161334 0.190981 0.438061
O O14 0.000000 0.166787 0.250000
#
# Coordination Sequence:
#
# PCOD8149100 Si02
#       6
#     8   8   8   8   8   8
#     4  11  22  40  67  98 134 177 221 279 339 397
#     4  12  24  43  67 100 137 175 226 277 343 401
#     4  10  23  44  68  95 138 182 223 277 335 403
#     4  12  25  41  69 102 136 174 222 283 339 402
#     4  10  23  44  66  96 135 182 226 273 329 404
#     4  11  22  44  64 100 136 174 226 277 337 400
#
# _framework density 22.534049
#
# number of rings (size 3 to 8) (size 9 to 14) (size 15 to 20)
#    0.000    1.000    3.333    3.500    0.000    0.667 
#   12.000    8.333    0.000    0.000    0.000    0.000 
#    0.000    0.000    0.000    0.000    0.000    0.000 
#
# Total GULP energy -297442.299195 kJ/mol
# GULP energy per Si atom -12393.429133 kJ/mol
# Density = 2.248276 g / cm^3
# Si number density = 22.534049 Si / 1000 Ang^3
#
#
#
# Elastic Constant Matrix: (Units=GPa)
#
#
# Indices 1 2 3 4 5 6 
#
# 1 90.9055 22.5845 49.0621 0.0000 13.9223 0.0000
# 2 22.5845 80.8996 41.2979 0.0000 -1.0369 0.0000
# 3 49.0621 41.2979 163.6320 0.0000 17.0855 0.0000
# 4 0.0000 0.0000 0.0000 24.7511 0.0000 5.0000
# 5 13.9223 -1.0369 17.0855 0.0000 41.8150 0.0000
# 6 0.0000 0.0000 0.0000 5.0000 0.0000 25.4032
#
#
#
# Elastic Compliance Matrix: (Units=1/GPa)
#
#
# Indices 1 2 3 4 5 6 
#
# 1 0.013811 -0.002253 -0.003224 0.000000 -0.003337 0.000000
# 2 -0.002253 0.014702 -0.003292 0.000000 0.002460 0.000000
# 3 -0.003224 -0.003292 0.008153 0.000000 -0.002339 0.000000
# 4 0.000000 0.000000 0.000000 0.042075 0.000000 -0.008281
# 5 -0.003337 0.002460 -0.002339 0.000000 0.026043 0.000000
# 6 0.000000 0.000000 0.000000 -0.008281 0.000000 0.040995
#
#
# Mechanical properties :
#
#
# Convention : Reuss Voigt Hill
#
# Bulk Modulus (GPa) = 52.27685 62.36955 57.32320
# Shear Modulus (GPa) = 29.46506 33.22671 31.34588
#
# Velocity S-wave (km/s) = 3.61997 3.84410 3.73372
# Velocity P-wave (km/s) = 6.38135 6.88773 6.63937
#
# Compressibility (1/GPa) = 0.01912893
#
# Stress axis : x y z
#
# Youngs Moduli (GPa) = 72.40517 68.01878 122.65332
#
# Poissons Ratio (x) = 0.15322 0.39545
# Poissons Ratio (y) = 0.16310 0.40376
# Poissons Ratio (z) = 0.23344 0.22391
#
# Static dielectric constant tensor:
#      x y z
#    x 4.137630 0.000000 0.309800 
#    y 0.000000 3.763340 0.000000 
#    z 0.309800 0.000000 4.355260 
# 
# 
# High freq. dielectric constant tensor:
#      x y z
#    x 1.881580 0.000000 0.019010 
#    y 0.000000 1.864020 0.000000 
#    z 0.019010 0.000000 1.910320 
# 
# From -- ./inp_files/32049.got.cif
#   From: 2010.06.25/outbox.cif.g09.slc.cpg/sg15_17_cif.got.tgz:32049.got - 2010.06.28 07:06:18.
