data_PCOD8149509
_publ_section_title
;
Structure prediction by ZEFSAII (Michael W. Deem and Ramdas Pophale) SiO2 
 PCOD8149509
Probable space group: C 2/C
;
_chemical_formula_sum "Si O2"
_cell_formula_units_Z 48
_cell_length_a 12.234899
_cell_length_b 26.312725
_cell_length_c 9.042306
_cell_angle_alpha 90.000000
_cell_angle_beta 52.330968
_cell_angle_gamma 90.000000
_cell_volume 2304.230561
_symmetry_space_group_name_H-M "C 2/C"
_symmetry_group_IT_number 15
_symmetry_cell_setting 'monoclinic'
loop_
_space_group_symop_operation_xyz
x,y,z
-x,y,1/2-z
-x,-y,-z
x,-y,1/2+z
1/2+x,1/2+y,z
1/2-x,1/2+y,1/2-z
1/2-x,1/2-y,-z
1/2+x,1/2-y,1/2+z
loop_
_atom_site_type_symbol
_atom_site_label
_atom_site_fract_x
_atom_site_fract_y
_atom_site_fract_z
Si Si1 0.974213 0.654466 0.611859
Si Si2 0.353388 0.980234 0.894849
Si Si3 0.849719 0.297164 0.939421
Si Si4 0.214271 0.385022 0.717244
Si Si5 0.989505 0.055863 0.083197
Si Si6 0.770816 0.564199 0.772433
O O1 0.879016 0.690335 0.587651
O O2 0.889395 0.603432 0.711917
O O3 0.000000 0.681132 0.750000
O O4 0.124325 0.640937 0.420778
O O5 0.500000 0.008052 0.750000
O O6 0.373779 0.930309 0.778680
O O7 0.248406 0.021903 0.919994
O O8 0.305092 0.967235 0.097619
O O9 0.769968 0.343931 0.927557
O O10 0.000000 0.285505 0.750000
O O11 0.750000 0.250000 0.000000
O O12 0.357675 0.409117 0.652257
O O13 0.000000 0.051514 0.250000
O O14 0.117001 0.088164 0.903438
O O15 0.000000 0.000000 0.000000
#
# Coordination Sequence:
#
# PCOD8149509 Si02
#       6
#     8   8   8   8   8   8
#     4  11  23  42  67  99 129 169 220 271 324 396
#     4  12  22  37  58  92 127 175 226 268 315 384
#     4  10  23  47  73  98 126 167 218 280 342 400
#     4  11  23  44  63  89 138 169 215 280 326 394
#     4  12  26  40  56  89 134 182 226 273 325 389
#     4  12  24  36  60  90 130 178 227 261 321 384
#
# _framework density 20.831250000000001
#
# number of rings (size 3 to 8) (size 9 to 14) (size 15 to 20)
#    0.000    0.667    5.000    3.500    2.333    1.333 
#    0.000    4.167    0.000    0.000    0.000    0.000 
#    0.000    0.000    0.000    0.000    0.000    0.000 
#
# Total GULP energy -297367.851096 kJ/mol
# GULP energy per Si atom -12390.327129 kJ/mol
# Density = 2.078384 g / cm^3
# Si number density = 20.831250 Si / 1000 Ang^3
#
#
#
# Elastic Constant Matrix: (Units=GPa)
#
#
# Indices 1 2 3 4 5 6 
#
# 1 153.7514 60.9478 78.6981 0.0000 8.3530 0.0000
# 2 60.9478 91.3766 29.1398 0.0000 9.2856 0.0000
# 3 78.6981 29.1398 111.8035 0.0000 6.7766 0.0000
# 4 0.0000 0.0000 0.0000 19.9792 0.0000 -0.1927
# 5 8.3530 9.2856 6.7766 0.0000 48.0455 0.0000
# 6 0.0000 0.0000 0.0000 -0.1927 0.0000 33.3825
#
#
#
# Elastic Compliance Matrix: (Units=1/GPa)
#
#
# Indices 1 2 3 4 5 6 
#
# 1 0.012684 -0.006123 -0.007333 0.000000 0.000012 0.000000
# 2 -0.006123 0.015063 0.000500 0.000000 -0.001917 0.000000
# 3 -0.007333 0.000500 0.014024 0.000000 -0.000800 0.000000
# 4 0.000000 0.000000 0.000000 0.050055 0.000000 0.000289
# 5 0.000012 -0.001917 -0.000800 0.000000 0.021295 0.000000
# 6 0.000000 0.000000 0.000000 0.000289 0.000000 0.029957
#
#
# Mechanical properties :
#
#
# Convention : Reuss Voigt Hill
#
# Bulk Modulus (GPa) = 63.05415 77.16698 70.11056
# Shear Modulus (GPa) = 28.69008 32.82450 30.75729
#
# Velocity S-wave (km/s) = 3.71517 3.97386 3.84669
# Velocity P-wave (km/s) = 6.98127 7.62756 7.31156
#
# Compressibility (1/GPa) = 0.01585939
#
# Stress axis : x y z
#
# Youngs Moduli (GPa) = 78.83988 66.38793 71.30564
#
# Poissons Ratio (x) = 0.40649 0.52289
# Poissons Ratio (y) = 0.48273 -0.03566
# Poissons Ratio (z) = 0.57814 -0.03320
#
# Static dielectric constant tensor:
#      x y z
#    x 4.155250 0.000000 -0.003630 
#    y 0.000000 3.460860 0.000000 
#    z -0.003630 0.000000 4.199840 
# 
# 
# High freq. dielectric constant tensor:
#      x y z
#    x 1.837480 0.000000 -0.002030 
#    y 0.000000 1.776400 0.000000 
#    z -0.002030 0.000000 1.829960 
# 
# From -- ./inp_files/33402.got.cif
#   From: 2010.06.25/outbox.cif.g09.slc.cpg/sg15_17_cif.got.tgz:33402.got - 2010.06.28 07:06:18.
