data_PCOD8149390
_publ_section_title
;
Structure prediction by ZEFSAII (Michael W. Deem and Ramdas Pophale) SiO2 
 PCOD8149390
Probable space group: C 2/C
;
_chemical_formula_sum "Si O2"
_cell_formula_units_Z 56
_cell_length_a 13.760218
_cell_length_b 14.242169
_cell_length_c 22.160349
_cell_angle_alpha 90.000000
_cell_angle_beta 32.150984
_cell_angle_gamma 90.000000
_cell_volume 2311.074167
_symmetry_space_group_name_H-M "C 2/C"
_symmetry_group_IT_number 15
_symmetry_cell_setting 'monoclinic'
loop_
_space_group_symop_operation_xyz
x,y,z
-x,y,1/2-z
-x,-y,-z
x,-y,1/2+z
1/2+x,1/2+y,z
1/2-x,1/2+y,1/2-z
1/2-x,1/2-y,-z
1/2+x,1/2-y,1/2+z
loop_
_atom_site_type_symbol
_atom_site_label
_atom_site_fract_x
_atom_site_fract_y
_atom_site_fract_z
Si Si1 0.872563 0.723845 0.092909
Si Si2 0.807271 0.044137 0.458916
Si Si3 0.000000 0.448795 0.750000
Si Si4 0.058418 0.702590 0.117465
Si Si5 0.658134 0.571239 0.926684
Si Si6 0.000000 0.150905 0.250000
Si Si7 0.551752 0.395413 0.289546
Si Si8 0.962585 0.572177 0.572330
O O1 0.893841 0.836319 0.084164
O O2 0.655447 0.712080 0.200097
O O3 0.950014 0.675885 0.113216
O O4 0.983029 0.676792 0.979366
O O5 0.832835 0.100278 0.507491
O O6 0.589776 0.041259 0.561435
O O7 0.911943 0.090705 0.348872
O O8 0.896950 0.939306 0.415818
O O9 0.928370 0.386197 0.844254
O O10 0.841323 0.517742 0.810028
O O11 0.941814 0.783087 0.211999
O O12 0.250000 0.750000 0.000000
O O13 0.500000 0.500000 0.000000
O O14 0.500000 0.429274 0.250000
O O15 0.751936 0.433245 0.202894
O O16 0.000000 0.500000 0.500000
#
# Coordination Sequence:
#
# PCOD8149390 Si02
#       8
#     8   8   4   8   8   4   8   8
#     4  11  26  47  73 103 155 197 259 311 389 461
#     4  11  24  45  71 109 152 191 247 321 371 467
#     4  12  29  49  80 112 154 206 265 320 403 458
#     4  12  27  48  75 110 150 199 257 329 380 467
#     4  12  29  49  73 107 153 198 253 317 386 464
#     4  10  23  45  74 106 142 198 245 300 379 460
#     4  12  21  40  71 104 143 191 250 301 382 444
#     4  11  24  42  72 110 146 192 251 312 375 455
#
# _framework density 24.231155999999999
#
# number of rings (size 3 to 8) (size 9 to 14) (size 15 to 20)
#    0.000    0.571    2.857    4.714    6.000    5.714 
#    0.000    0.000    0.000    0.000    0.000    0.000 
#    0.000    0.000    0.000    0.000    0.000    0.000 
#
# Total GULP energy -347197.613011 kJ/mol
# GULP energy per Si atom -12399.914750 kJ/mol
# Density = 2.417600 g / cm^3
# Si number density = 24.231156 Si / 1000 Ang^3
#
#
#
# Elastic Constant Matrix: (Units=GPa)
#
#
# Indices 1 2 3 4 5 6 
#
# 1 126.2501 5.3382 36.2131 0.0030 -21.1063 0.0006
# 2 5.3382 106.2989 16.1213 -0.0001 -6.8325 0.0010
# 3 36.2131 16.1213 105.1090 0.0073 -22.8990 0.0033
# 4 0.0030 -0.0001 0.0073 22.4398 -0.0047 -7.4196
# 5 -21.1063 -6.8325 -22.8990 -0.0047 51.0831 -0.0009
# 6 0.0006 0.0010 0.0033 -7.4196 -0.0009 37.5739
#
#
#
# Elastic Compliance Matrix: (Units=1/GPa)
#
#
# Indices 1 2 3 4 5 6 
#
# 1 0.009093 0.000103 -0.002579 0.000000 0.002615 0.000000
# 2 0.000103 0.009655 -0.001358 0.000001 0.000725 0.000000
# 3 -0.002579 -0.001358 0.011458 -0.000003 0.003889 -0.000001
# 4 0.000000 0.000001 -0.000003 0.047676 0.000003 0.009415
# 5 0.002615 0.000725 0.003889 0.000003 0.022497 0.000001
# 6 0.000000 0.000000 -0.000001 0.009415 0.000001 0.028473
#
#
# Mechanical properties :
#
#
# Convention : Reuss Voigt Hill
#
# Bulk Modulus (GPa) = 44.37172 50.33368 47.35270
# Shear Modulus (GPa) = 34.71394 40.88505 37.79950
#
# Velocity S-wave (km/s) = 3.78910 4.11212 3.95391
# Velocity P-wave (km/s) = 6.12328 6.58509 6.35838
#
# Compressibility (1/GPa) = 0.02253688
#
# Stress axis : x y z
#
# Youngs Moduli (GPa) = 109.97066 103.57469 87.27486
#
# Poissons Ratio (x) = -0.01062 0.22508
# Poissons Ratio (y) = -0.01128 0.11854
# Poissons Ratio (z) = 0.28361 0.14068
#
# Static dielectric constant tensor:
#      x y z
#    x 4.866310 0.000070 -0.131530 
#    y 0.000070 4.527260 -0.000060 
#    z -0.131530 -0.000060 4.212950 
# 
# 
# High freq. dielectric constant tensor:
#      x y z
#    x 1.972480 0.000000 -0.011610 
#    y 0.000000 1.966950 0.000000 
#    z -0.011610 0.000000 1.962960 
# 
# From -- ./inp_files/274496.got.cif
#   From: 2010.06.25/outbox.cif.g09.slc.cpg/sg15_138_cif.got.tgz:274496.got - 2010.06.28 07:06:18.
