data_PCOD8149039
_publ_section_title
;
Structure prediction by ZEFSAII (Michael W. Deem and Ramdas Pophale) SiO2 
 PCOD8149039
Probable space group: C 2/C
;
_chemical_formula_sum "Si O2"
_cell_formula_units_Z 64
_cell_length_a 17.457342
_cell_length_b 13.307501
_cell_length_c 23.695395
_cell_angle_alpha 90.000000
_cell_angle_beta 31.728886
_cell_angle_gamma 90.000000
_cell_volume 2894.957452
_symmetry_space_group_name_H-M "C 2/C"
_symmetry_group_IT_number 15
_symmetry_cell_setting 'monoclinic'
loop_
_space_group_symop_operation_xyz
x,y,z
-x,y,1/2-z
-x,-y,-z
x,-y,1/2+z
1/2+x,1/2+y,z
1/2-x,1/2+y,1/2-z
1/2-x,1/2-y,-z
1/2+x,1/2-y,1/2+z
loop_
_atom_site_type_symbol
_atom_site_label
_atom_site_fract_x
_atom_site_fract_y
_atom_site_fract_z
Si Si1 0.585904 0.359443 0.482573
Si Si2 0.232199 0.492692 0.876125
Si Si3 0.355123 0.280866 0.807277
Si Si4 0.607225 0.879093 0.729225
Si Si5 0.625290 0.783832 0.327765
Si Si6 0.580241 0.424071 0.016626
Si Si7 0.092518 0.167292 0.781892
Si Si8 0.047822 0.493278 0.881953
O O1 0.740432 0.306210 0.393368
O O2 0.458767 0.279995 0.572879
O O3 0.559260 0.400072 0.435881
O O4 0.585642 0.455904 0.524158
O O5 0.300479 0.391492 0.859191
O O6 0.353085 0.578883 0.793536
O O7 0.163968 0.466920 0.857757
O O8 0.111737 0.536442 0.994869
O O9 0.500000 0.253534 0.750000
O O10 0.384131 0.281106 0.722706
O O11 0.500000 0.928982 0.750000
O O12 0.771996 0.885434 0.604429
O O13 0.555464 0.763967 0.767906
O O14 0.590852 0.933345 0.799321
O O15 0.788189 0.800303 0.246676
O O16 0.545172 0.889345 0.368994
O O17 0.551549 0.370201 0.094510
#
# Coordination Sequence:
#
# PCOD8149039 Si02
#       8
#     8   8   8   8   8   8   8   8
#     4  11  23  42  68 103 135 179 234 282 348 415
#     4  10  23  44  71 105 132 185 240 289 345 417
#     4  12  25  42  67 101 148 177 220 284 357 429
#     4  12  28  46  70 103 144 186 230 298 370 424
#     4  11  21  41  71  99 132 176 231 284 338 416
#     4  11  25  43  70 104 136 183 240 294 342 427
#     4  11  24  43  73  99 133 182 241 294 341 415
#     4  10  23  43  74 100 135 183 237 292 344 417
#
# _framework density 22.107406000000001
#
# number of rings (size 3 to 8) (size 9 to 14) (size 15 to 20)
#    0.000    1.000    3.750    2.250    7.000    3.500 
#    4.500    0.000    0.000    0.000    0.000    0.000 
#    0.000    0.000    0.000    0.000    0.000    0.000 
#
# Total GULP energy -396913.414351 kJ/mol
# GULP energy per Si atom -12403.544198 kJ/mol
# Density = 2.205709 g / cm^3
# Si number density = 22.107406 Si / 1000 Ang^3
#
#
#
# Elastic Constant Matrix: (Units=GPa)
#
#
# Indices 1 2 3 4 5 6 
#
# 1 50.3071 11.4998 25.8346 0.0018 -9.0679 0.0001
# 2 11.4998 140.1095 51.5449 0.0023 -3.0374 0.0005
# 3 25.8346 51.5449 139.4274 0.0033 8.7478 0.0022
# 4 0.0018 0.0023 0.0033 36.0547 0.0013 3.9881
# 5 -9.0679 -3.0374 8.7478 0.0013 23.7920 -0.0003
# 6 0.0001 0.0005 0.0022 3.9881 -0.0003 20.7716
#
#
#
# Elastic Compliance Matrix: (Units=1/GPa)
#
#
# Indices 1 2 3 4 5 6 
#
# 1 0.024632 0.000193 -0.005349 -0.000001 0.011380 0.000001
# 2 0.000193 0.008379 -0.003281 0.000000 0.002350 0.000000
# 3 -0.005349 -0.003281 0.009756 0.000000 -0.006045 -0.000001
# 4 -0.000001 0.000000 0.000000 0.028337 -0.000002 -0.005441
# 5 0.011380 0.002350 -0.006045 -0.000002 0.048890 0.000002
# 6 0.000001 0.000000 -0.000001 -0.005441 0.000002 0.049187
#
#
# Mechanical properties :
#
#
# Convention : Reuss Voigt Hill
#
# Bulk Modulus (GPa) = 38.62160 56.40032 47.51096
# Shear Modulus (GPa) = 25.68215 32.18796 28.93506
#
# Velocity S-wave (km/s) = 3.41207 3.81987 3.62171
# Velocity P-wave (km/s) = 5.74725 6.70989 6.24714
#
# Compressibility (1/GPa) = 0.02589224
#
# Stress axis : x y z
#
# Youngs Moduli (GPa) = 40.59747 119.34025 102.50563
#
# Poissons Ratio (x) = -0.02303 0.54834
# Poissons Ratio (y) = -0.00783 0.33632
# Poissons Ratio (z) = 0.21717 0.39155
#
# Static dielectric constant tensor:
#      x y z
#    x 3.653370 0.000000 0.072870 
#    y 0.000000 4.125880 0.000000 
#    z 0.072870 0.000000 4.035560 
# 
# 
# High freq. dielectric constant tensor:
#      x y z
#    x 1.841940 0.000000 0.003970 
#    y 0.000000 1.884040 0.000000 
#    z 0.003970 0.000000 1.878840 
# 
# From -- ./inp_files/277635.got.cif
#   From: 2010.06.25/outbox.cif.g09.slc.cpg/sg15_139_cif.got.tgz:277635.got - 2010.06.28 07:06:18.
