data_PCOD8149881
_publ_section_title
;
Structure prediction by ZEFSAII (Michael W. Deem and Ramdas Pophale) SiO2 
 PCOD8149881
Probable space group: C 2/C
;
_chemical_formula_sum "Si O2"
_cell_formula_units_Z 56
_cell_length_a 30.827362
_cell_length_b 7.961021
_cell_length_c 20.783680
_cell_angle_alpha 90.000000
_cell_angle_beta 29.582456
_cell_angle_gamma 90.000000
_cell_volume 2518.078383
_symmetry_space_group_name_H-M "C 2/C"
_symmetry_group_IT_number 15
_symmetry_cell_setting 'monoclinic'
loop_
_space_group_symop_operation_xyz
x,y,z
-x,y,1/2-z
-x,-y,-z
x,-y,1/2+z
1/2+x,1/2+y,z
1/2-x,1/2+y,1/2-z
1/2-x,1/2-y,-z
1/2+x,1/2-y,1/2+z
loop_
_atom_site_type_symbol
_atom_site_label
_atom_site_fract_x
_atom_site_fract_y
_atom_site_fract_z
Si Si1 0.409484 0.464885 0.979285
Si Si2 0.666348 0.207828 0.859104
Si Si3 0.892290 0.997864 0.266306
Si Si4 0.189307 0.214271 0.733279
Si Si5 0.709297 0.445369 0.978631
Si Si6 0.866100 0.340642 0.241763
Si Si7 0.933435 0.386963 0.521171
O O1 0.507729 0.535098 0.842497
O O2 0.361250 0.604804 0.084825
O O3 0.361159 0.449283 0.972753
O O4 0.412776 0.280685 0.006824
O O5 0.760939 0.151945 0.766334
O O6 0.680398 0.215480 0.764350
O O7 0.598047 0.062018 0.970190
O O8 0.874315 0.194132 0.283624
O O9 0.871733 0.922379 0.222279
O O10 0.829236 0.915170 0.401012
O O11 0.269514 0.268157 0.582724
O O12 0.123727 0.367324 0.838683
O O13 0.805034 0.530519 0.859049
O O14 0.963561 0.405793 0.097418
#
# Coordination Sequence:
#
# PCOD8149881 Si02
#       7
#     8   8   8   8   8   8   8
#     4  10  24  42  68  95 123 170 215 259 325 368
#     4  11  23  40  66  96 128 161 206 274 322 370
#     4  11  24  42  64  90 130 169 215 259 305 387
#     4  11  24  38  64  97 122 169 208 259 327 371
#     4  11  23  42  63  91 129 173 210 256 315 377
#     4  11  23  39  65  94 123 169 208 261 327 368
#     4  11  23  41  65  98 128 158 211 273 321 372
#
# _framework density 22.239180999999999
#
# number of rings (size 3 to 8) (size 9 to 14) (size 15 to 20)
#    0.000    1.143    1.429    4.286    8.000    2.286 
#    0.000    0.000    0.000    0.000    0.000    0.000 
#    0.000    0.000    0.000    0.000    0.000    0.000 
#
# Total GULP energy -347130.271139 kJ/mol
# GULP energy per Si atom -12397.509684 kJ/mol
# Density = 2.218856 g / cm^3
# Si number density = 22.239181 Si / 1000 Ang^3
#
#
#
# Elastic Constant Matrix: (Units=GPa)
#
#
# Indices 1 2 3 4 5 6 
#
# 1 89.6735 12.0828 31.7330 -0.0448 -22.1450 -0.0301
# 2 12.0828 67.9888 3.1788 -0.0331 -8.0095 -0.0364
# 3 31.7330 3.1788 107.2791 0.0462 -14.3058 0.0278
# 4 -0.0448 -0.0331 0.0462 31.9958 -0.0298 -6.8312
# 5 -22.1450 -8.0095 -14.3058 -0.0298 37.8983 -0.0421
# 6 -0.0301 -0.0364 0.0278 -6.8312 -0.0421 18.5602
#
#
#
# Elastic Compliance Matrix: (Units=1/GPa)
#
#
# Indices 1 2 3 4 5 6 
#
# 1 0.014174 -0.001575 -0.003250 0.000041 0.006723 0.000055
# 2 -0.001575 0.015259 0.000338 0.000024 0.002432 0.000041
# 3 -0.003250 0.000338 0.010561 -0.000023 0.002159 -0.000024
# 4 0.000041 0.000024 -0.000023 0.033920 0.000061 0.012485
# 5 0.006723 0.002432 0.002159 0.000061 0.031644 0.000107
# 6 0.000055 0.000041 -0.000024 0.012485 0.000107 0.058474
#
#
# Mechanical properties :
#
#
# Convention : Reuss Voigt Hill
#
# Bulk Modulus (GPa) = 32.23660 39.88120 36.05890
# Shear Modulus (GPa) = 27.27108 32.22064 29.74586
#
# Velocity S-wave (km/s) = 3.50560 3.81047 3.66121
# Velocity P-wave (km/s) = 5.55990 6.10994 5.84140
#
# Compressibility (1/GPa) = 0.03102064
#
# Stress axis : x y z
#
# Youngs Moduli (GPa) = 70.55193 65.53525 94.69174
#
# Poissons Ratio (x) = 0.10322 0.30770
# Poissons Ratio (y) = 0.11112 -0.03201
# Poissons Ratio (z) = 0.22926 -0.02215
#
# Static dielectric constant tensor:
#      x y z
#    x 4.006060 -0.000010 -0.244720 
#    y -0.000010 3.885180 0.000030 
#    z -0.244720 0.000030 4.061370 
# 
# 
# High freq. dielectric constant tensor:
#      x y z
#    x 1.872130 0.000000 -0.021720 
#    y 0.000000 1.877420 0.000000 
#    z -0.021720 0.000000 1.878090 
# 
# From -- ./inp_files/258942.got.cif
#   From: 2010.06.25/outbox.cif.g09.slc.cpg/sg15_130_cif.got.tgz:258942.got - 2010.06.28 07:06:18.
