data_PCOD8149518
_publ_section_title
;
Structure prediction by ZEFSAII (Michael W. Deem and Ramdas Pophale) SiO2 
 PCOD8149518
Probable space group: C 2/C
;
_chemical_formula_sum "Si O2"
_cell_formula_units_Z 56
_cell_length_a 19.180895
_cell_length_b 11.329820
_cell_length_c 11.079245
_cell_angle_alpha 90.000000
_cell_angle_beta 82.363372
_cell_angle_gamma 90.000000
_cell_volume 2386.343796
_symmetry_space_group_name_H-M "C 2/C"
_symmetry_group_IT_number 15
_symmetry_cell_setting 'monoclinic'
loop_
_space_group_symop_operation_xyz
x,y,z
-x,y,1/2-z
-x,-y,-z
x,-y,1/2+z
1/2+x,1/2+y,z
1/2-x,1/2+y,1/2-z
1/2-x,1/2-y,-z
1/2+x,1/2-y,1/2+z
loop_
_atom_site_type_symbol
_atom_site_label
_atom_site_fract_x
_atom_site_fract_y
_atom_site_fract_z
Si Si1 0.623680 0.106140 0.867200
Si Si2 0.500000 0.410189 0.750000
Si Si3 0.886898 0.095264 0.720297
Si Si4 0.676150 0.868014 0.952875
Si Si5 0.073979 0.691466 0.117889
Si Si6 0.548910 0.712200 0.004801
Si Si7 0.000000 0.518989 0.750000
Si Si8 0.753820 0.347756 0.325643
O O1 0.675725 0.175768 0.766835
O O2 0.542659 0.101346 0.835843
O O3 0.626174 0.176287 0.992802
O O4 0.653667 0.975024 0.874220
O O5 0.429030 0.488204 0.771149
O O6 0.496407 0.330615 0.870371
O O7 0.895774 0.217115 0.792528
O O8 0.912371 0.105470 0.574876
O O9 0.802806 0.069631 0.732653
O O10 0.606766 0.808832 0.030151
O O11 0.725899 0.908572 0.051723
O O12 0.717104 0.778137 0.856672
O O13 0.060640 0.561083 0.175197
O O14 0.999329 0.736266 0.089379
#
# Coordination Sequence:
#
# PCOD8149518 Si02
#       8
#     8   4   8   8   8   8   4   8
#     4  12  26  41  72 105 132 184 229 284 341 416
#     4  12  25  41  72 104 132 178 239 283 342 410
#     4  11  23  47  68  96 140 184 223 283 350 405
#     4  10  23  48  65  94 141 179 226 279 348 405
#     4  12  23  42  71 104 135 177 229 292 339 399
#     4  11  23  42  69 101 134 177 229 292 337 404
#     4  12  21  43  70 100 144 176 227 283 360 394
#     4  10  25  44  68  94 137 185 221 280 341 415
#
# _framework density 23.466863
#
# number of rings (size 3 to 8) (size 9 to 14) (size 15 to 20)
#    0.000    0.857    4.286    2.571    4.000    4.000 
#    0.000    0.000    0.000    0.000    0.000    0.000 
#    0.000    0.000    0.000    0.000    0.000    0.000 
#
# Total GULP energy -347219.539699 kJ/mol
# GULP energy per Si atom -12400.697846 kJ/mol
# Density = 2.341345 g / cm^3
# Si number density = 23.466863 Si / 1000 Ang^3
#
#
#
# Elastic Constant Matrix: (Units=GPa)
#
#
# Indices 1 2 3 4 5 6 
#
# 1 131.1140 27.0845 33.6174 0.0000 13.9248 0.0000
# 2 27.0845 52.0425 18.5642 0.0000 1.2463 0.0000
# 3 33.6174 18.5642 113.3601 0.0000 -4.5878 0.0000
# 4 0.0000 0.0000 0.0000 20.9255 0.0000 2.8926
# 5 13.9248 1.2463 -4.5878 0.0000 44.6591 0.0000
# 6 0.0000 0.0000 0.0000 2.8926 0.0000 17.3007
#
#
#
# Elastic Compliance Matrix: (Units=1/GPa)
#
#
# Indices 1 2 3 4 5 6 
#
# 1 0.009349 -0.003993 -0.002241 0.000000 -0.003034 0.000000
# 2 -0.003993 0.022150 -0.002428 0.000000 0.000378 0.000000
# 3 -0.002241 -0.002428 0.009956 0.000000 0.001789 0.000000
# 4 0.000000 0.000000 0.000000 0.048919 0.000000 -0.008179
# 5 -0.003034 0.000378 0.001789 0.000000 0.023511 0.000000
# 6 0.000000 0.000000 0.000000 -0.008179 0.000000 0.059169
#
#
# Mechanical properties :
#
#
# Convention : Reuss Voigt Hill
#
# Bulk Modulus (GPa) = 41.44157 50.56097 46.00127
# Shear Modulus (GPa) = 25.19878 31.06042 28.12960
#
# Velocity S-wave (km/s) = 3.28045 3.64206 3.46597
# Velocity P-wave (km/s) = 5.66095 6.26726 5.97181
#
# Compressibility (1/GPa) = 0.02413036
#
# Stress axis : x y z
#
# Youngs Moduli (GPa) = 106.96706 45.14617 100.44084
#
# Poissons Ratio (x) = 0.18028 0.22511
# Poissons Ratio (y) = 0.42714 0.24386
# Poissons Ratio (z) = 0.23974 0.10961
#
# Static dielectric constant tensor:
#      x y z
#    x 4.476040 0.000000 0.150140 
#    y 0.000000 3.892550 0.000000 
#    z 0.150140 0.000000 4.140950 
# 
# 
# High freq. dielectric constant tensor:
#      x y z
#    x 1.935450 0.000000 0.008520 
#    y 0.000000 1.902800 0.000000 
#    z 0.008520 0.000000 1.937850 
# 
# From -- ./inp_files/111025.got.cif
#   From: 2010.06.25/outbox.cif.g09.slc.cpg/sg15_56_cif.got.tgz:111025.got - 2010.06.28 07:06:18.
