data_PCOD8149647
_publ_section_title
;
Structure prediction by ZEFSAII (Michael W. Deem and Ramdas Pophale) SiO2 
 PCOD8149647
Probable space group: C 2/C
;
_chemical_formula_sum "Si O2"
_cell_formula_units_Z 48
_cell_length_a 24.281265
_cell_length_b 9.757201
_cell_length_c 14.654304
_cell_angle_alpha 90.000000
_cell_angle_beta 42.669112
_cell_angle_gamma 90.000000
_cell_volume 2353.097148
_symmetry_space_group_name_H-M "C 2/C"
_symmetry_group_IT_number 15
_symmetry_cell_setting 'monoclinic'
loop_
_space_group_symop_operation_xyz
x,y,z
-x,y,1/2-z
-x,-y,-z
x,-y,1/2+z
1/2+x,1/2+y,z
1/2-x,1/2+y,1/2-z
1/2-x,1/2-y,-z
1/2+x,1/2-y,1/2+z
loop_
_atom_site_type_symbol
_atom_site_label
_atom_site_fract_x
_atom_site_fract_y
_atom_site_fract_z
Si Si1 0.209599 0.994449 0.728492
Si Si2 0.411922 0.287493 0.555254
Si Si3 0.846375 0.510468 0.705444
Si Si4 0.741777 0.410560 0.497555
Si Si5 0.092974 0.090944 0.634263
Si Si6 0.094107 0.778786 0.324385
O O1 0.143261 0.873067 0.807990
O O2 0.257452 0.986193 0.574774
O O3 0.269180 0.972070 0.739003
O O4 0.162215 0.138286 0.797975
O O5 0.397912 0.127262 0.591963
O O6 0.388304 0.322552 0.479679
O O7 0.504689 0.329035 0.461936
O O8 0.815269 0.549998 0.842763
O O9 0.902423 0.379064 0.651715
O O10 0.750000 0.250000 0.500000
O O11 0.653679 0.460209 0.565968
O O12 0.108337 0.195460 0.699298
O O13 0.000000 0.035825 0.750000
#
# Coordination Sequence:
#
# PCOD8149647 Si02
#       6
#     8   8   8   8   8   8
#     4  11  23  40  64  88 122 169 209 251 307 376
#     4  11  21  42  64  90 124 164 208 253 313 372
#     4  12  24  39  64  93 128 159 205 264 309 364
#     4  11  23  40  61  94 127 157 209 260 312 363
#     4   9  21  41  67  88 120 168 215 251 304 378
#     4  10  24  40  63  91 122 166 211 258 306 362
#
# _framework density 20.398648000000001
#
# number of rings (size 3 to 8) (size 9 to 14) (size 15 to 20)
#    0.000    1.333    3.333    2.000    2.333    1.333 
#    0.000    0.000    0.000    0.000    0.000    0.000 
#    0.000    0.000    0.000    0.000    0.000    0.000 
#
# Total GULP energy -297616.049485 kJ/mol
# GULP energy per Si atom -12400.668729 kJ/mol
# Density = 2.035222 g / cm^3
# Si number density = 20.398648 Si / 1000 Ang^3
#
#
#
# Elastic Constant Matrix: (Units=GPa)
#
#
# Indices 1 2 3 4 5 6 
#
# 1 73.8685 30.9767 35.2543 0.0001 4.6052 0.0000
# 2 30.9767 120.8870 26.9864 0.0008 -1.5445 -0.0006
# 3 35.2543 26.9864 88.8281 0.0003 5.9445 -0.0001
# 4 0.0001 0.0008 0.0003 31.8687 0.0001 0.1250
# 5 4.6052 -1.5445 5.9445 0.0001 22.0153 -0.0001
# 6 0.0000 -0.0006 -0.0001 0.1250 -0.0001 31.6155
#
#
#
# Elastic Compliance Matrix: (Units=1/GPa)
#
#
# Indices 1 2 3 4 5 6 
#
# 1 0.017904 -0.003290 -0.005947 0.000000 -0.002370 0.000000
# 2 -0.003290 0.009520 -0.001708 0.000000 0.001817 0.000000
# 3 -0.005947 -0.001708 0.014321 0.000000 -0.002743 0.000000
# 4 0.000000 0.000000 0.000000 0.031379 0.000000 -0.000124
# 5 -0.002370 0.001817 -0.002743 0.000000 0.046787 0.000000
# 6 0.000000 0.000000 0.000000 -0.000124 0.000000 0.031631
#
#
# Mechanical properties :
#
#
# Convention : Reuss Voigt Hill
#
# Bulk Modulus (GPa) = 50.37111 52.22429 51.29770
# Shear Modulus (GPa) = 27.77018 29.79097 28.78058
#
# Velocity S-wave (km/s) = 3.69368 3.82571 3.76028
# Velocity P-wave (km/s) = 6.55271 6.72103 6.63740
#
# Compressibility (1/GPa) = 0.01985265
#
# Stress axis : x y z
#
# Youngs Moduli (GPa) = 55.85486 105.04424 69.82988
#
# Poissons Ratio (x) = 0.34563 0.41531
# Poissons Ratio (y) = 0.18378 0.11926
# Poissons Ratio (z) = 0.33219 0.17941
#
# Static dielectric constant tensor:
#      x y z
#    x 3.666950 0.000000 0.028520 
#    y 0.000000 3.643810 0.000000 
#    z 0.028520 0.000000 3.911090 
# 
# 
# High freq. dielectric constant tensor:
#      x y z
#    x 1.793170 0.000000 0.004510 
#    y 0.000000 1.792790 0.000000 
#    z 0.004510 0.000000 1.809400 
# 
# From -- ./inp_files/176866.got.cif
#   From: 2010.06.25/outbox.cif.g09.slc.cpg/sg15_89_cif.got.tgz:176866.got - 2010.06.28 07:06:18.
