data_PCOD8149711
_publ_section_title
;
Structure prediction by ZEFSAII (Michael W. Deem and Ramdas Pophale) SiO2 
 PCOD8149711
Probable space group: C 2/C
;
_chemical_formula_sum "Si O2"
_cell_formula_units_Z 44
_cell_length_a 28.005799
_cell_length_b 8.155105
_cell_length_c 9.806731
_cell_angle_alpha 90.000000
_cell_angle_beta 59.957067
_cell_angle_gamma 90.000000
_cell_volume 1938.850716
_symmetry_space_group_name_H-M "C 2/C"
_symmetry_group_IT_number 15
_symmetry_cell_setting 'monoclinic'
loop_
_space_group_symop_operation_xyz
x,y,z
-x,y,1/2-z
-x,-y,-z
x,-y,1/2+z
1/2+x,1/2+y,z
1/2-x,1/2+y,1/2-z
1/2-x,1/2-y,-z
1/2+x,1/2-y,1/2+z
loop_
_atom_site_type_symbol
_atom_site_label
_atom_site_fract_x
_atom_site_fract_y
_atom_site_fract_z
Si Si1 0.000000 0.640531 0.750000
Si Si2 0.778637 0.156207 0.081454
Si Si3 0.111290 0.606654 0.694603
Si Si4 0.550962 0.413392 0.496673
Si Si5 0.884985 0.988776 0.838577
Si Si6 0.322156 0.973119 0.146924
O O1 0.049579 0.535924 0.748548
O O2 0.030561 0.742798 0.587583
O O3 0.811077 0.283389 0.130175
O O4 0.734801 0.058652 0.233071
O O5 0.750000 0.250000 0.000000
O O6 0.821433 0.024331 0.961019
O O7 0.107657 0.801761 0.720932
O O8 0.154410 0.570912 0.514080
O O9 0.132571 0.516730 0.798819
O O10 0.500000 0.500000 0.500000
O O11 0.577057 0.520974 0.582504
O O12 0.596483 0.391201 0.311829
#
# Coordination Sequence:
#
# PCOD8149711 Si02
#       6
#     4   8   8   8   8   8
#     4  10  24  40  72  98 144 170 230 274 352 398
#     4  12  28  45  69 104 133 182 227 283 337 407
#     4  11  25  46  70 101 136 184 221 285 336 410
#     4  11  19  40  66 103 130 174 220 280 325 397
#     4  11  25  40  73 100 137 171 230 279 336 396
#     4  12  27  47  71  97 141 179 232 278 345 402
#
# _framework density 22.693857000000001
#
# number of rings (size 3 to 8) (size 9 to 14) (size 15 to 20)
#    0.000    0.727    5.455    2.182   10.182    2.182 
#    0.000    0.000    0.000    0.000    0.000    0.000 
#    0.000    0.000    0.000    0.000    0.000    0.000 
#
# Total GULP energy -272829.836528 kJ/mol
# GULP energy per Si atom -12401.356206 kJ/mol
# Density = 2.264221 g / cm^3
# Si number density = 22.693857 Si / 1000 Ang^3
#
#
#
# Elastic Constant Matrix: (Units=GPa)
#
#
# Indices 1 2 3 4 5 6 
#
# 1 121.8317 11.8812 29.9842 0.0000 8.1373 0.0000
# 2 11.8812 35.6902 15.0580 0.0000 -5.3234 0.0000
# 3 29.9842 15.0580 92.4384 0.0000 15.8639 0.0000
# 4 0.0000 0.0000 0.0000 20.9415 0.0000 -8.6624
# 5 8.1373 -5.3234 15.8639 0.0000 45.2376 0.0000
# 6 0.0000 0.0000 0.0000 -8.6624 0.0000 34.3831
#
#
#
# Elastic Compliance Matrix: (Units=1/GPa)
#
#
# Indices 1 2 3 4 5 6 
#
# 1 0.009083 -0.002160 -0.002416 0.000000 -0.001041 0.000000
# 2 -0.002160 0.031993 -0.005558 0.000000 0.006103 0.000000
# 3 -0.002416 -0.005558 0.013348 0.000000 -0.004900 0.000000
# 4 0.000000 0.000000 0.000000 0.053307 0.000000 0.013430
# 5 -0.001041 0.006103 -0.004900 0.000000 0.024729 0.000000
# 6 0.000000 0.000000 0.000000 0.013430 0.000000 0.032468
#
#
# Mechanical properties :
#
#
# Convention : Reuss Voigt Hill
#
# Bulk Modulus (GPa) = 29.27706 40.42300 34.85003
# Shear Modulus (GPa) = 25.43477 32.98157 29.20817
#
# Velocity S-wave (km/s) = 3.35143 3.81639 3.59144
# Velocity P-wave (km/s) = 5.28252 6.10498 5.70858
#
# Compressibility (1/GPa) = 0.03415644
#
# Stress axis : x y z
#
# Youngs Moduli (GPa) = 110.09923 31.25659 74.91725
#
# Poissons Ratio (x) = 0.06750 0.18098
# Poissons Ratio (y) = 0.23778 0.41642
# Poissons Ratio (z) = 0.26597 0.17374
#
# Static dielectric constant tensor:
#      x y z
#    x 4.807350 0.000000 -0.007590 
#    y 0.000000 3.953580 0.000000 
#    z -0.007590 0.000000 4.986500 
# 
# 
# High freq. dielectric constant tensor:
#      x y z
#    x 1.921230 0.000000 -0.000720 
#    y 0.000000 1.862010 0.000000 
#    z -0.000720 0.000000 1.912100 
# 
# From -- ./inp_files/68526.got.cif
#   From: 2010.06.25/outbox.cif.g09.slc.cpg/sg15_35_cif.got.tgz:68526.got - 2010.06.28 07:06:18.
