data_PCOD8149480
_publ_section_title
;
Structure prediction by ZEFSAII (Michael W. Deem and Ramdas Pophale) SiO2 
 PCOD8149480
Probable space group: C 2/C
;
_chemical_formula_sum "Si O2"
_cell_formula_units_Z 44
_cell_length_a 20.053309
_cell_length_b 10.301360
_cell_length_c 10.235623
_cell_angle_alpha 90.000000
_cell_angle_beta 111.089937
_cell_angle_gamma 90.000000
_cell_volume 1972.805779
_symmetry_space_group_name_H-M "C 2/C"
_symmetry_group_IT_number 15
_symmetry_cell_setting 'monoclinic'
loop_
_space_group_symop_operation_xyz
x,y,z
-x,y,1/2-z
-x,-y,-z
x,-y,1/2+z
1/2+x,1/2+y,z
1/2-x,1/2+y,1/2-z
1/2-x,1/2-y,-z
1/2+x,1/2-y,1/2+z
loop_
_atom_site_type_symbol
_atom_site_label
_atom_site_fract_x
_atom_site_fract_y
_atom_site_fract_z
Si Si1 0.000000 0.384405 0.750000
Si Si2 0.938640 0.769758 0.808953
Si Si3 0.740968 0.595993 0.983789
Si Si4 0.435855 0.256442 0.423453
Si Si5 0.385746 0.062320 0.590276
Si Si6 0.343625 0.500221 0.322839
O O1 0.939790 0.298142 0.779633
O O2 0.955570 0.473182 0.617146
O O3 0.897645 0.638661 0.736074
O O4 0.000000 0.812166 0.750000
O O5 0.878162 0.877442 0.776126
O O6 0.980996 0.752148 0.973843
O O7 0.709047 0.565576 0.818675
O O8 0.750000 0.750000 0.000000
O O9 0.815786 0.523220 0.046458
O O10 0.693951 0.543867 0.070272
O O11 0.382764 0.166855 0.471403
O O12 0.406022 0.401080 0.405740
#
# Coordination Sequence:
#
# PCOD8149480 Si02
#       6
#     4   8   8   8   8   8
#     4  12  24  40  74 106 140 182 254 310 364 438
#     4  10  23  46  76 106 141 191 244 308 382 436
#     4  12  31  49  75 110 152 206 255 304 374 463
#     4  11  25  43  74 108 143 190 244 321 372 440
#     4  11  25  47  73 101 147 195 248 306 379 440
#     4  12  29  48  74 109 155 198 248 313 382 454
#
# _framework density 22.303260999999999
#
# number of rings (size 3 to 8) (size 9 to 14) (size 15 to 20)
#    0.000    0.727    2.727    4.364   14.000    1.455 
#    0.000    0.000    0.000    0.000    0.000    0.000 
#    0.000    0.000    0.000    0.000    0.000    0.000 
#
# Total GULP energy -272810.980885 kJ/mol
# GULP energy per Si atom -12400.499131 kJ/mol
# Density = 2.225250 g / cm^3
# Si number density = 22.303261 Si / 1000 Ang^3
#
#
#
# Elastic Constant Matrix: (Units=GPa)
#
#
# Indices 1 2 3 4 5 6 
#
# 1 89.5651 60.1863 29.2703 0.0000 11.4225 0.0000
# 2 60.1863 149.9278 46.3447 0.0000 7.2219 0.0000
# 3 29.2703 46.3447 107.3267 0.0000 3.9024 0.0000
# 4 0.0000 0.0000 0.0000 36.8074 0.0000 2.9206
# 5 11.4225 7.2219 3.9024 0.0000 32.6014 0.0000
# 6 0.0000 0.0000 0.0000 2.9206 0.0000 50.4814
#
#
#
# Elastic Compliance Matrix: (Units=1/GPa)
#
#
# Indices 1 2 3 4 5 6 
#
# 1 0.016122 -0.005723 -0.001774 0.000000 -0.004169 0.000000
# 2 -0.005723 0.009785 -0.002670 0.000000 0.000157 0.000000
# 3 -0.001774 -0.002670 0.010958 0.000000 -0.000099 0.000000
# 4 0.000000 0.000000 0.000000 0.027294 0.000000 -0.001579
# 5 -0.004169 0.000157 -0.000099 0.000000 0.032111 0.000000
# 6 0.000000 0.000000 0.000000 -0.001579 0.000000 0.019901
#
#
# Mechanical properties :
#
#
# Convention : Reuss Voigt Hill
#
# Bulk Modulus (GPa) = 60.49378 68.71359 64.60369
# Shear Modulus (GPa) = 35.20756 38.04591 36.62674
#
# Velocity S-wave (km/s) = 3.97745 4.13467 4.05682
# Velocity P-wave (km/s) = 6.94807 7.32596 7.13951
#
# Compressibility (1/GPa) = 0.01653063
#
# Stress axis : x y z
#
# Youngs Moduli (GPa) = 62.02669 102.19676 91.25906
#
# Poissons Ratio (x) = 0.58485 0.16191
# Poissons Ratio (y) = 0.35496 0.24369
# Poissons Ratio (z) = 0.11004 0.27289
#
# Static dielectric constant tensor:
#      x y z
#    x 3.912140 0.000000 0.032220 
#    y 0.000000 4.177070 0.000000 
#    z 0.032220 0.000000 4.286810 
# 
# 
# High freq. dielectric constant tensor:
#      x y z
#    x 1.874420 0.000000 0.000870 
#    y 0.000000 1.894710 0.000000 
#    z 0.000870 0.000000 1.886840 
# 
# From -- ./inp_files/110156.got.cif
#   From: 2010.06.25/outbox.cif.g09.slc.cpg/sg15_56_cif.got.tgz:110156.got - 2010.06.28 07:06:18.
