data_PCOD8149870
_publ_section_title
;
Structure prediction by ZEFSAII (Michael W. Deem and Ramdas Pophale) SiO2 
 PCOD8149870
Probable space group: C 2/C
;
_chemical_formula_sum "Si O2"
_cell_formula_units_Z 56
_cell_length_a 9.052567
_cell_length_b 26.576866
_cell_length_c 10.810023
_cell_angle_alpha 90.000000
_cell_angle_beta 113.213444
_cell_angle_gamma 90.000000
_cell_volume 2390.220169
_symmetry_space_group_name_H-M "C 2/C"
_symmetry_group_IT_number 15
_symmetry_cell_setting 'monoclinic'
loop_
_space_group_symop_operation_xyz
x,y,z
-x,y,1/2-z
-x,-y,-z
x,-y,1/2+z
1/2+x,1/2+y,z
1/2-x,1/2+y,1/2-z
1/2-x,1/2-y,-z
1/2+x,1/2-y,1/2+z
loop_
_atom_site_type_symbol
_atom_site_label
_atom_site_fract_x
_atom_site_fract_y
_atom_site_fract_z
Si Si1 0.605385 0.614934 0.072453
Si Si2 0.745559 0.141383 0.625012
Si Si3 0.178358 0.715370 0.800886
Si Si4 0.315910 0.432440 0.351949
Si Si5 0.606194 0.096605 0.000237
Si Si6 0.332687 0.965154 0.758135
Si Si7 0.345485 0.321389 0.601154
O O1 0.756687 0.585146 0.175523
O O2 0.525737 0.653768 0.146616
O O3 0.665537 0.647796 0.975935
O O4 0.471877 0.573256 0.990440
O O5 0.743421 0.196668 0.688973
O O6 0.844214 0.103326 0.744204
O O7 0.572993 0.116194 0.549977
O O8 0.160443 0.775636 0.803220
O O9 0.000000 0.691021 0.750000
O O10 0.295443 0.695905 0.946574
O O11 0.159409 0.413718 0.376810
O O12 0.292186 0.489100 0.296501
O O13 0.629411 0.044879 0.084874
O O14 0.718205 0.137853 0.104661
O O15 0.500000 0.979177 0.750000
#
# Coordination Sequence:
#
# PCOD8149870 Si02
#       7
#     8   8   8   8   8   8   8
#     4  11  25  45  68 103 144 178 231 301 353 396
#     4  12  21  44  74  98 141 180 232 296 349 418
#     4  11  21  41  73  96 129 180 234 281 350 431
#     4  11  25  42  69 102 135 189 241 282 345 417
#     4  11  23  44  70  97 138 191 230 280 352 423
#     4  12  26  43  67 103 146 189 234 287 343 421
#     4  10  24  42  68 102 132 178 235 285 349 422
#
# _framework density 23.428804
#
# number of rings (size 3 to 8) (size 9 to 14) (size 15 to 20)
#    0.000    0.857    5.714    2.143    4.000    2.857 
#    5.143    0.714    9.429    0.000    0.000    0.000 
#    0.000    0.000    0.000    0.000    0.000    0.000 
#
# Total GULP energy -347194.941651 kJ/mol
# GULP energy per Si atom -12399.819345 kJ/mol
# Density = 2.337548 g / cm^3
# Si number density = 23.428804 Si / 1000 Ang^3
#
#
#
# Elastic Constant Matrix: (Units=GPa)
#
#
# Indices 1 2 3 4 5 6 
#
# 1 73.1492 14.0553 18.5606 0.0000 -5.7740 0.0000
# 2 14.0553 123.5733 34.1279 0.0000 -14.5183 0.0000
# 3 18.5606 34.1279 58.3440 0.0000 -7.5637 0.0000
# 4 0.0000 0.0000 0.0000 38.5303 0.0000 7.1009
# 5 -5.7740 -14.5183 -7.5637 0.0000 47.5691 0.0000
# 6 0.0000 0.0000 0.0000 7.1009 0.0000 19.3145
#
#
#
# Elastic Compliance Matrix: (Units=1/GPa)
#
#
# Indices 1 2 3 4 5 6 
#
# 1 0.014939 -0.000364 -0.004410 0.000000 0.001001 0.000000
# 2 -0.000364 0.009869 -0.005383 0.000000 0.002112 0.000000
# 3 -0.004410 -0.005383 0.021860 0.000000 0.001298 0.000000
# 4 0.000000 0.000000 0.000000 0.027840 0.000000 -0.010235
# 5 0.001001 0.002112 0.001298 0.000000 0.021994 0.000000
# 6 0.000000 0.000000 0.000000 -0.010235 0.000000 0.055537
#
#
# Mechanical properties :
#
#
# Convention : Reuss Voigt Hill
#
# Bulk Modulus (GPa) = 37.94546 43.17268 40.55907
# Shear Modulus (GPa) = 27.60358 33.63764 30.62061
#
# Velocity S-wave (km/s) = 3.43620 3.79322 3.61912
# Velocity P-wave (km/s) = 5.65460 6.13612 5.90027
#
# Compressibility (1/GPa) = 0.02635361
#
# Stress axis : x y z
#
# Youngs Moduli (GPa) = 66.94105 101.33247 45.74649
#
# Poissons Ratio (x) = 0.03685 0.20173
# Poissons Ratio (y) = 0.02434 0.24626
# Poissons Ratio (z) = 0.29520 0.54548
#
# Static dielectric constant tensor:
#      x y z
#    x 4.118060 0.000000 0.133760 
#    y 0.000000 4.239670 0.000000 
#    z 0.133760 0.000000 4.383840 
# 
# 
# High freq. dielectric constant tensor:
#      x y z
#    x 1.919920 0.000000 0.016150 
#    y 0.000000 1.920510 0.000000 
#    z 0.016150 0.000000 1.945160 
# 
# From -- ./inp_files/81426.got.cif
#   From: 2010.06.25/outbox.cif.g09.slc.cpg/sg15_41_cif.got.tgz:81426.got - 2010.06.28 07:06:18.
