data_PCOD8149477
_publ_section_title
;
Structure prediction by ZEFSAII (Michael W. Deem and Ramdas Pophale) SiO2 
 PCOD8149477
Probable space group: C 2/C
;
_chemical_formula_sum "Si O2"
_cell_formula_units_Z 40
_cell_length_a 11.083157
_cell_length_b 24.566027
_cell_length_c 8.385186
_cell_angle_alpha 90.000000
_cell_angle_beta 136.101747
_cell_angle_gamma 90.000000
_cell_volume 1583.005166
_symmetry_space_group_name_H-M "C 2/C"
_symmetry_group_IT_number 15
_symmetry_cell_setting 'monoclinic'
loop_
_space_group_symop_operation_xyz
x,y,z
-x,y,1/2-z
-x,-y,-z
x,-y,1/2+z
1/2+x,1/2+y,z
1/2-x,1/2+y,1/2-z
1/2-x,1/2-y,-z
1/2+x,1/2-y,1/2+z
loop_
_atom_site_type_symbol
_atom_site_label
_atom_site_fract_x
_atom_site_fract_y
_atom_site_fract_z
Si Si1 0.840592 0.707509 0.698821
Si Si2 0.000000 0.335365 0.750000
Si Si3 0.544918 0.620972 0.466720
Si Si4 0.859879 0.205808 0.478147
Si Si5 0.834590 0.429688 0.394331
Si Si6 0.500000 0.017073 0.750000
O O1 0.750000 0.750000 0.500000
O O2 0.708158 0.660780 0.611311
O O3 0.898627 0.738321 0.917783
O O4 0.000000 0.682899 0.750000
O O5 0.839854 0.295399 0.650097
O O6 0.928541 0.373685 0.540020
O O7 0.379966 0.652610 0.382677
O O8 0.625799 0.575576 0.662467
O O9 0.500000 0.596823 0.250000
O O10 0.000000 0.198741 0.750000
O O11 0.927786 0.445063 0.318897
O O12 0.849077 0.477392 0.538325
#
# Coordination Sequence:
#
# PCOD8149477 Si02
#       6
#     8   4   8   8   8   4
#     4  12  25  46  67 100 145 198 249 290 346 420
#     4  11  26  44  78 106 146 196 238 300 364 427
#     4  12  26  46  71 103 145 194 248 299 348 435
#     4  12  26  48  66 107 153 189 253 298 350 416
#     4  10  23  46  75 107 138 187 233 295 370 439
#     4   9  22  46  78 106 140 178 238 296 380 453
#
# _framework density 25.268395000000002
#
# number of rings (size 3 to 8) (size 9 to 14) (size 15 to 20)
#    0.000    0.800    6.000    0.000    7.000    0.800 
#    9.000    1.000    0.000    0.000    0.000    0.000 
#    0.000    0.000    0.000    0.000    0.000    0.000 
#
# Total GULP energy -248003.400924 kJ/mol
# GULP energy per Si atom -12400.170046 kJ/mol
# Density = 2.521088 g / cm^3
# Si number density = 25.268395 Si / 1000 Ang^3
#
#
#
# Elastic Constant Matrix: (Units=GPa)
#
#
# Indices 1 2 3 4 5 6 
#
# 1 124.4280 20.5924 32.1524 0.0000 5.1324 0.0000
# 2 20.5924 74.0722 21.6081 0.0000 0.0068 0.0000
# 3 32.1524 21.6081 155.9612 0.0000 -11.9068 0.0000
# 4 0.0000 0.0000 0.0000 30.0647 0.0000 3.0257
# 5 5.1324 0.0068 -11.9068 0.0000 45.3339 0.0000
# 6 0.0000 0.0000 0.0000 3.0257 0.0000 19.8193
#
#
#
# Elastic Compliance Matrix: (Units=1/GPa)
#
#
# Indices 1 2 3 4 5 6 
#
# 1 0.008852 -0.001976 -0.001661 0.000000 -0.001438 0.000000
# 2 -0.001976 0.014522 -0.001620 0.000000 -0.000204 0.000000
# 3 -0.001661 -0.001620 0.007136 0.000000 0.002063 0.000000
# 4 0.000000 0.000000 0.000000 0.033781 0.000000 -0.005157
# 5 -0.001438 -0.000204 0.002063 0.000000 0.022763 0.000000
# 6 0.000000 0.000000 0.000000 -0.005157 0.000000 0.051243
#
#
# Mechanical properties :
#
#
# Convention : Reuss Voigt Hill
#
# Bulk Modulus (GPa) = 50.00987 55.90745 52.95866
# Shear Modulus (GPa) = 32.15884 37.71749 34.93817
#
# Velocity S-wave (km/s) = 3.57135 3.86771 3.72248
# Velocity P-wave (km/s) = 6.06964 6.48992 6.28329
#
# Compressibility (1/GPa) = 0.01999605
#
# Stress axis : x y z
#
# Youngs Moduli (GPa) = 112.96414 68.85900 140.13055
#
# Poissons Ratio (x) = 0.13609 0.23275
# Poissons Ratio (y) = 0.22326 0.22704
# Poissons Ratio (z) = 0.18763 0.11156
#
# Static dielectric constant tensor:
#      x y z
#    x 6.344930 0.000000 -1.174560 
#    y 0.000000 4.034480 0.000000 
#    z -1.174560 0.000000 6.503310 
# 
# 
# High freq. dielectric constant tensor:
#      x y z
#    x 2.001100 0.000000 -0.022130 
#    y 0.000000 1.995880 0.000000 
#    z -0.022130 0.000000 2.044020 
# 
# From -- ./inp_files/35498.got.cif
#   From: 2010.06.25/outbox.cif.g09.slc.cpg/sg15_18_cif.got.tgz:35498.got - 2010.06.28 07:06:18.
