data_PCOD8149645
_publ_section_title
;
Structure prediction by ZEFSAII (Michael W. Deem and Ramdas Pophale) SiO2 
 PCOD8149645
Probable space group: C 2/C
;
_chemical_formula_sum "Si O2"
_cell_formula_units_Z 48
_cell_length_a 12.072510
_cell_length_b 18.016939
_cell_length_c 11.506302
_cell_angle_alpha 90.000000
_cell_angle_beta 94.602526
_cell_angle_gamma 90.000000
_cell_volume 2494.661567
_symmetry_space_group_name_H-M "C 2/C"
_symmetry_group_IT_number 15
_symmetry_cell_setting 'monoclinic'
loop_
_space_group_symop_operation_xyz
x,y,z
-x,y,1/2-z
-x,-y,-z
x,-y,1/2+z
1/2+x,1/2+y,z
1/2-x,1/2+y,1/2-z
1/2-x,1/2-y,-z
1/2+x,1/2-y,1/2+z
loop_
_atom_site_type_symbol
_atom_site_label
_atom_site_fract_x
_atom_site_fract_y
_atom_site_fract_z
Si Si1 0.201369 0.336832 0.621162
Si Si2 0.958587 0.080490 0.535331
Si Si3 0.439112 0.980708 0.871727
Si Si4 0.878234 0.909412 0.791774
Si Si5 0.176600 0.830135 0.108424
Si Si6 0.223768 0.943638 0.290363
O O1 0.101893 0.395424 0.629396
O O2 0.306062 0.350599 0.714265
O O3 0.154900 0.254943 0.642114
O O4 0.245579 0.340697 0.495057
O O5 0.893187 0.119876 0.423974
O O6 0.875622 0.072916 0.632648
O O7 0.058225 0.132333 0.582450
O O8 0.000000 0.000000 0.500000
O O9 0.500000 0.992670 0.750000
O O10 0.335609 0.036729 0.868024
O O11 0.500000 0.000000 0.000000
O O12 0.000000 0.920771 0.750000
O O13 0.813025 0.987351 0.792829
O O14 0.244871 0.870951 0.215558
#
# Coordination Sequence:
#
# PCOD8149645 Si02
#       6
#     8   8   8   8   8   8
#     4  10  24  40  63  85 131 165 202 249 310 374
#     4  12  20  34  65  96 122 149 202 257 313 355
#     4  11  25  44  65  88 123 174 218 255 307 381
#     4  11  19  36  60  95 121 157 197 252 304 365
#     4  11  21  41  60  96 125 160 197 257 314 366
#     4  11  23  36  65  91 121 153 208 260 306 358
#
# _framework density 19.241085999999999
#
# number of rings (size 3 to 8) (size 9 to 14) (size 15 to 20)
#    0.000    1.000    5.000    2.500    4.667    1.333 
#    3.000    1.667    0.000    0.000    0.000    0.000 
#    0.000    0.000    0.000    0.000    0.000    0.000 
#
# Total GULP energy -297505.246030 kJ/mol
# GULP energy per Si atom -12396.051918 kJ/mol
# Density = 1.919729 g / cm^3
# Si number density = 19.241086 Si / 1000 Ang^3
#
#
#
# Elastic Constant Matrix: (Units=GPa)
#
#
# Indices 1 2 3 4 5 6 
#
# 1 90.3262 61.1601 26.3078 0.0000 18.4762 0.0000
# 2 61.1601 140.1774 57.0304 0.0000 8.0408 0.0000
# 3 26.3078 57.0304 101.9339 0.0000 19.1570 0.0000
# 4 0.0000 0.0000 0.0000 23.5470 0.0000 -4.0661
# 5 18.4762 8.0408 19.1570 0.0000 37.2641 0.0000
# 6 0.0000 0.0000 0.0000 -4.0661 0.0000 27.6188
#
#
#
# Elastic Compliance Matrix: (Units=1/GPa)
#
#
# Indices 1 2 3 4 5 6 
#
# 1 0.017482 -0.007688 0.001225 0.000000 -0.007639 0.000000
# 2 -0.007688 0.012635 -0.005855 0.000000 0.004095 0.000000
# 3 0.001225 -0.005855 0.013999 0.000000 -0.006541 0.000000
# 4 0.000000 0.000000 0.000000 0.043576 0.000000 0.006415
# 5 -0.007639 0.004095 -0.006541 0.000000 0.033102 0.000000
# 6 0.000000 0.000000 0.000000 0.006415 0.000000 0.037152
#
#
# Mechanical properties :
#
#
# Convention : Reuss Voigt Hill
#
# Bulk Modulus (GPa) = 51.33174 69.04823 60.18998
# Shear Modulus (GPa) = 26.44466 30.21527 28.32996
#
# Velocity S-wave (km/s) = 3.71129 3.96706 3.84131
# Velocity P-wave (km/s) = 6.71573 7.54634 7.14312
#
# Compressibility (1/GPa) = 0.01948112
#
# Stress axis : x y z
#
# Youngs Moduli (GPa) = 57.20144 79.14528 71.43395
#
# Poissons Ratio (x) = 0.60844 -0.08749
# Poissons Ratio (y) = 0.43975 0.41822
# Poissons Ratio (z) = -0.07006 0.46336
#
# Static dielectric constant tensor:
#      x y z
#    x 3.572580 0.000000 0.170080 
#    y 0.000000 3.634610 0.000000 
#    z 0.170080 0.000000 3.852260 
# 
# 
# High freq. dielectric constant tensor:
#      x y z
#    x 1.749660 0.000000 0.004760 
#    y 0.000000 1.735310 0.000000 
#    z 0.004760 0.000000 1.766800 
# 
# From -- ./inp_files/87228.got.cif
#   From: 2010.06.25/outbox.cif.g09.slc.cpg/sg15_44_cif.got.tgz:87228.got - 2010.06.28 07:06:18.
