data_PCOD8149898
_publ_section_title
;
Structure prediction by ZEFSAII (Michael W. Deem and Ramdas Pophale) SiO2 
 PCOD8149898
Probable space group: C 2/C
;
_chemical_formula_sum "Si O2"
_cell_formula_units_Z 40
_cell_length_a 20.612835
_cell_length_b 6.823553
_cell_length_c 19.560441
_cell_angle_alpha 90.000000
_cell_angle_beta 139.185984
_cell_angle_gamma 90.000000
_cell_volume 1798.219951
_symmetry_space_group_name_H-M "C 2/C"
_symmetry_group_IT_number 15
_symmetry_cell_setting 'monoclinic'
loop_
_space_group_symop_operation_xyz
x,y,z
-x,y,1/2-z
-x,-y,-z
x,-y,1/2+z
1/2+x,1/2+y,z
1/2-x,1/2+y,1/2-z
1/2-x,1/2-y,-z
1/2+x,1/2-y,1/2+z
loop_
_atom_site_type_symbol
_atom_site_label
_atom_site_fract_x
_atom_site_fract_y
_atom_site_fract_z
Si Si1 0.376669 0.706976 0.100989
Si Si2 0.410451 0.638976 0.277195
Si Si3 0.211684 0.435241 0.928864
Si Si4 0.106809 0.554958 0.618467
Si Si5 0.701852 0.737471 0.779654
O O1 0.348675 0.664535 0.158288
O O2 0.477100 0.609740 0.156806
O O3 0.375574 0.948433 0.098231
O O4 0.295492 0.603529 0.988577
O O5 0.410056 0.824940 0.326078
O O6 0.369649 0.449360 0.282869
O O7 0.177512 0.364628 0.827381
O O8 0.250000 0.250000 0.000000
O O9 0.180753 0.679331 0.627917
O O10 0.169682 0.360749 0.687305
O O11 0.000000 0.500000 0.500000
#
# Coordination Sequence:
#
# PCOD8149898 Si02
#       5
#     8   8   8   8   8
#     4  10  24  42  70 103 141 179 235 296 367 425
#     4  11  24  46  66 103 143 185 235 298 351 432
#     4  11  23  42  72 106 137 184 233 302 364 428
#     4  12  29  47  73 104 144 200 240 296 358 428
#     4  12  26  48  72 104 149 185 247 297 353 438
#
# _framework density 22.244221
#
# number of rings (size 3 to 8) (size 9 to 14) (size 15 to 20)
#    0.000    0.800    6.000    0.000    5.600    2.400 
#    0.000    0.000    0.000    0.000    0.000    0.000 
#    0.000    0.000    0.000    0.000    0.000    0.000 
#
# Total GULP energy -247810.316132 kJ/mol
# GULP energy per Si atom -12390.515807 kJ/mol
# Density = 2.219359 g / cm^3
# Si number density = 22.244221 Si / 1000 Ang^3
#
#
#
# Elastic Constant Matrix: (Units=GPa)
#
#
# Indices 1 2 3 4 5 6 
#
# 1 87.3442 31.8722 32.4757 0.0001 14.8521 0.0001
# 2 31.8722 124.5833 45.8085 0.0005 5.9481 0.0003
# 3 32.4757 45.8085 107.1680 0.0000 21.5104 0.0000
# 4 0.0001 0.0005 0.0000 43.0451 0.0000 -2.6836
# 5 14.8521 5.9481 21.5104 0.0000 31.7297 0.0000
# 6 0.0001 0.0003 0.0000 -2.6836 0.0000 35.0406
#
#
#
# Elastic Compliance Matrix: (Units=1/GPa)
#
#
# Indices 1 2 3 4 5 6 
#
# 1 0.013981 -0.002536 -0.002239 0.000000 -0.004551 0.000000
# 2 -0.002536 0.010019 -0.003907 0.000000 0.001958 0.000000
# 3 -0.002239 -0.003907 0.013106 0.000000 -0.007104 0.000000
# 4 0.000000 0.000000 0.000000 0.023343 0.000000 0.001788
# 5 -0.004551 0.001958 -0.007104 0.000000 0.038095 0.000000
# 6 0.000000 0.000000 0.000000 0.001788 0.000000 0.028675
#
#
# Mechanical properties :
#
#
# Convention : Reuss Voigt Hill
#
# Bulk Modulus (GPa) = 50.65671 59.93425 55.29548
# Shear Modulus (GPa) = 33.07688 35.89235 34.48462
#
# Velocity S-wave (km/s) = 3.86033 4.02127 3.94162
# Velocity P-wave (km/s) = 6.53391 6.96872 6.75481
#
# Compressibility (1/GPa) = 0.01974072
#
# Stress axis : x y z
#
# Youngs Moduli (GPa) = 71.52684 99.81423 76.30348
#
# Poissons Ratio (x) = 0.25314 0.17086
# Poissons Ratio (y) = 0.18140 0.29810
# Poissons Ratio (z) = 0.16016 0.38995
#
# Static dielectric constant tensor:
#      x y z
#    x 4.017670 0.000000 -0.041900 
#    y 0.000000 4.345030 0.000000 
#    z -0.041900 0.000000 4.130860 
# 
# 
# High freq. dielectric constant tensor:
#      x y z
#    x 1.865680 0.000000 0.003910 
#    y 0.000000 1.892750 0.000000 
#    z 0.003910 0.000000 1.876870 
# 
# From -- ./inp_files/251144.got.cif
#   From: 2010.06.25/outbox.cif.g09.slc.cpg/sg15_126_cif.got.tgz:251144.got - 2010.06.28 07:06:18.
