data_PCOD8149367
_publ_section_title
;
Structure prediction by ZEFSAII (Michael W. Deem and Ramdas Pophale) SiO2 
 PCOD8149367
Probable space group: C 2/C
;
_chemical_formula_sum "Si O2"
_cell_formula_units_Z 44
_cell_length_a 17.134193
_cell_length_b 8.405778
_cell_length_c 17.777127
_cell_angle_alpha 90.000000
_cell_angle_beta 129.398049
_cell_angle_gamma 90.000000
_cell_volume 1978.541090
_symmetry_space_group_name_H-M "C 2/C"
_symmetry_group_IT_number 15
_symmetry_cell_setting 'monoclinic'
loop_
_space_group_symop_operation_xyz
x,y,z
-x,y,1/2-z
-x,-y,-z
x,-y,1/2+z
1/2+x,1/2+y,z
1/2-x,1/2+y,1/2-z
1/2-x,1/2-y,-z
1/2+x,1/2-y,1/2+z
loop_
_atom_site_type_symbol
_atom_site_label
_atom_site_fract_x
_atom_site_fract_y
_atom_site_fract_z
Si Si1 0.792996 0.367948 0.875500
Si Si2 0.500000 0.055157 0.750000
Si Si3 0.037486 0.765273 0.914982
Si Si4 0.818399 0.651740 0.133983
Si Si5 0.169676 0.020676 0.927484
Si Si6 0.814906 0.294630 0.319391
O O1 0.704759 0.408758 0.880422
O O2 0.821673 0.519126 0.841790
O O3 0.749530 0.227686 0.796271
O O4 0.893286 0.307779 0.977515
O O5 0.540962 0.155591 0.844066
O O6 0.590599 0.946269 0.773258
O O7 0.925095 0.782771 0.877937
O O8 0.077017 0.939280 0.914703
O O9 0.866547 0.807684 0.123905
O O10 0.735895 0.699819 0.144131
O O11 0.766011 0.540114 0.040198
#
# Coordination Sequence:
#
# PCOD8149367 Si02
#       6
#     8   4   8   8   8   8
#     4  11  24  46  67 101 141 183 230 294 341 426
#     4  12  24  42  74 100 130 188 234 284 346 414
#     4  12  25  42  73 102 136 183 236 286 352 415
#     4  10  24  46  67 100 138 181 230 291 342 413
#     4  10  23  45  71  96 137 183 235 283 344 414
#     4  11  26  43  67 100 144 177 231 287 361 406
#
# _framework density 22.238606999999998
#
# number of rings (size 3 to 8) (size 9 to 14) (size 15 to 20)
#    0.000    1.091    1.818    3.273    5.091    4.364 
#    0.000    0.000    0.000    0.000    0.000    0.000 
#    0.000    0.000    0.000    0.000    0.000    0.000 
#
# Total GULP energy -272935.243667 kJ/mol
# GULP energy per Si atom -12406.147439 kJ/mol
# Density = 2.218799 g / cm^3
# Si number density = 22.238607 Si / 1000 Ang^3
#
#
#
# Elastic Constant Matrix: (Units=GPa)
#
#
# Indices 1 2 3 4 5 6 
#
# 1 130.6685 68.9159 45.4238 0.0000 9.8593 0.0000
# 2 68.9159 107.8648 71.5503 0.0000 9.9402 0.0000
# 3 45.4238 71.5503 153.2575 0.0000 -7.8077 0.0000
# 4 0.0000 0.0000 0.0000 25.4270 0.0000 -10.8105
# 5 9.8593 9.9402 -7.8077 0.0000 30.5926 0.0000
# 6 0.0000 0.0000 0.0000 -10.8105 0.0000 27.9433
#
#
#
# Elastic Compliance Matrix: (Units=1/GPa)
#
#
# Indices 1 2 3 4 5 6 
#
# 1 0.011601 -0.007168 -0.000166 0.000000 -0.001452 0.000000
# 2 -0.007168 0.019060 -0.007064 0.000000 -0.005686 0.000000
# 3 -0.000166 -0.007064 0.010123 0.000000 0.004932 0.000000
# 4 0.000000 0.000000 0.000000 0.047071 0.000000 0.018210
# 5 -0.001452 -0.005686 0.004932 0.000000 0.036262 0.000000
# 6 0.000000 0.000000 0.000000 0.018210 0.000000 0.042832
#
#
# Mechanical properties :
#
#
# Convention : Reuss Voigt Hill
#
# Bulk Modulus (GPa) = 83.40949 84.84118 84.12534
# Shear Modulus (GPa) = 25.03270 30.51931 27.77601
#
# Velocity S-wave (km/s) = 3.35870 3.70855 3.53795
# Velocity P-wave (km/s) = 7.25460 7.52137 7.38919
#
# Compressibility (1/GPa) = 0.01198904
#
# Stress axis : x y z
#
# Youngs Moduli (GPa) = 86.20252 52.46598 98.78413
#
# Poissons Ratio (x) = 0.37607 0.01638
# Poissons Ratio (y) = 0.61790 0.69777
# Poissons Ratio (z) = 0.01429 0.37060
#
# Static dielectric constant tensor:
#      x y z
#    x 3.957210 0.000000 -0.146370 
#    y 0.000000 4.080550 0.000000 
#    z -0.146370 0.000000 4.051170 
# 
# 
# High freq. dielectric constant tensor:
#      x y z
#    x 1.877330 0.000000 -0.006940 
#    y 0.000000 1.881560 0.000000 
#    z -0.006940 0.000000 1.884610 
# 
# From -- ./inp_files/159198.got.cif
#   From: 2010.06.25/outbox.cif.g09.slc.cpg/sg15_80_cif.got.tgz:159198.got - 2010.06.28 07:06:18.
