data_PCOD8149652
_publ_section_title
;
Structure prediction by ZEFSAII (Michael W. Deem and Ramdas Pophale) SiO2 
 PCOD8149652
Probable space group: C 2/C
;
_chemical_formula_sum "Si O2"
_cell_formula_units_Z 40
_cell_length_a 17.492588
_cell_length_b 20.356403
_cell_length_c 5.173045
_cell_angle_alpha 90.000000
_cell_angle_beta 87.475521
_cell_angle_gamma 90.000000
_cell_volume 1840.262066
_symmetry_space_group_name_H-M "C 2/C"
_symmetry_group_IT_number 15
_symmetry_cell_setting 'monoclinic'
loop_
_space_group_symop_operation_xyz
x,y,z
-x,y,1/2-z
-x,-y,-z
x,-y,1/2+z
1/2+x,1/2+y,z
1/2-x,1/2+y,1/2-z
1/2-x,1/2-y,-z
1/2+x,1/2-y,1/2+z
loop_
_atom_site_type_symbol
_atom_site_label
_atom_site_fract_x
_atom_site_fract_y
_atom_site_fract_z
Si Si1 0.769303 0.179738 0.903967
Si Si2 0.050542 0.687300 0.494448
Si Si3 0.157432 0.040892 0.039749
Si Si4 0.080986 0.833185 0.362212
Si Si5 0.706808 0.123091 0.416354
O O1 0.860423 0.168844 0.888702
O O2 0.739859 0.175880 0.614181
O O3 0.750000 0.250000 0.000000
O O4 0.729660 0.130854 0.112113
O O5 0.082345 0.762227 0.507864
O O6 0.115543 0.630402 0.461620
O O7 0.000000 0.670642 0.750000
O O8 0.000000 0.680717 0.250000
O O9 0.109083 0.109255 0.052579
O O10 0.133639 0.999541 0.793825
O O11 0.249933 0.055078 0.012495
O O12 0.000000 0.850380 0.250000
#
# Coordination Sequence:
#
# PCOD8149652 Si02
#       5
#     8   8   8   8   8
#     4  11  21  36  63  92 126 168 207 253 317 384
#     4  11  24  39  64 101 135 160 198 261 345 401
#     4  11  25  44  64  89 121 177 232 262 299 362
#     4  10  24  40  63  96 136 169 204 264 323 384
#     4  11  23  41  66  91 128 164 216 271 317 378
#
# _framework density 21.736034
#
# number of rings (size 3 to 8) (size 9 to 14) (size 15 to 20)
#    0.000    1.200    2.000    4.200    5.600    4.000 
#    0.000    0.000    0.000    3.600    0.000    0.000 
#    0.000    0.000    0.000    0.000    0.000    0.000 
#
# Total GULP energy -247792.548366 kJ/mol
# GULP energy per Si atom -12389.627418 kJ/mol
# Density = 2.168656 g / cm^3
# Si number density = 21.736034 Si / 1000 Ang^3
#
#
#
# Elastic Constant Matrix: (Units=GPa)
#
#
# Indices 1 2 3 4 5 6 
#
# 1 143.0324 15.0639 38.7318 0.0000 -11.2498 0.0000
# 2 15.0639 25.2402 0.9164 0.0000 13.7884 0.0000
# 3 38.7318 0.9164 111.3576 0.0000 -5.5158 0.0000
# 4 0.0000 0.0000 0.0000 25.2761 0.0000 6.0906
# 5 -11.2498 13.7884 -5.5158 0.0000 37.2901 0.0000
# 6 0.0000 0.0000 0.0000 6.0906 0.0000 38.3048
#
#
#
# Elastic Compliance Matrix: (Units=1/GPa)
#
#
# Indices 1 2 3 4 5 6 
#
# 1 0.009038 -0.008214 -0.002811 0.000000 0.005348 0.000000
# 2 -0.008214 0.057308 0.001222 0.000000 -0.023487 0.000000
# 3 -0.002811 0.001222 0.009956 0.000000 0.000173 0.000000
# 4 0.000000 0.000000 0.000000 0.041139 0.000000 -0.006541
# 5 0.005348 -0.023487 0.000173 0.000000 0.037140 0.000000
# 6 0.000000 0.000000 0.000000 -0.006541 0.000000 0.027146
#
#
# Mechanical properties :
#
#
# Convention : Reuss Voigt Hill
#
# Bulk Modulus (GPa) = 17.63777 43.22829 30.43303
# Shear Modulus (GPa) = 22.70313 35.16873 28.93593
#
# Velocity S-wave (km/s) = 3.23537 4.02679 3.65258
# Velocity P-wave (km/s) = 4.69989 6.44601 5.64092
#
# Compressibility (1/GPa) = 0.05669650
#
# Stress axis : x y z
#
# Youngs Moduli (GPa) = 110.63954 17.44958 100.43835
#
# Poissons Ratio (x) = 0.14333 0.28235
# Poissons Ratio (y) = 0.90877 -0.12272
# Poissons Ratio (z) = 0.31103 -0.02132
#
# Static dielectric constant tensor:
#      x y z
#    x 4.166960 0.000000 -0.036080 
#    y 0.000000 3.924200 0.000000 
#    z -0.036080 0.000000 4.566640 
# 
# 
# High freq. dielectric constant tensor:
#      x y z
#    x 1.854680 0.000000 0.001070 
#    y 0.000000 1.826240 0.000000 
#    z 0.001070 0.000000 1.868210 
# 
# From -- ./inp_files/10184.got.cif
#   From: 2010.06.25/outbox.cif.g09.slc.cpg/sg15_6_cif.got.tgz:10184.got - 2010.06.28 07:06:18.
