data_PCOD8149108
_publ_section_title
;
Structure prediction by ZEFSAII (Michael W. Deem and Ramdas Pophale) SiO2 
 PCOD8149108
Probable space group: C 2/C
;
_chemical_formula_sum "Si O2"
_cell_formula_units_Z 56
_cell_length_a 8.922747
_cell_length_b 16.498254
_cell_length_c 18.949999
_cell_angle_alpha 90.000000
_cell_angle_beta 109.621760
_cell_angle_gamma 90.000000
_cell_volume 2627.631010
_symmetry_space_group_name_H-M "C 2/C"
_symmetry_group_IT_number 15
_symmetry_cell_setting 'monoclinic'
loop_
_space_group_symop_operation_xyz
x,y,z
-x,y,1/2-z
-x,-y,-z
x,-y,1/2+z
1/2+x,1/2+y,z
1/2-x,1/2+y,1/2-z
1/2-x,1/2-y,-z
1/2+x,1/2-y,1/2+z
loop_
_atom_site_type_symbol
_atom_site_label
_atom_site_fract_x
_atom_site_fract_y
_atom_site_fract_z
Si Si1 0.310917 0.267271 0.221772
Si Si2 0.572995 0.590231 0.513512
Si Si3 0.298272 0.415806 0.315337
Si Si4 0.167401 0.672102 0.020815
Si Si5 0.860894 0.755833 0.950620
Si Si6 0.706457 0.874258 0.683213
Si Si7 0.000000 0.477988 0.750000
Si Si8 0.000000 0.979069 0.750000
O O1 0.500000 0.266554 0.250000
O O2 0.248474 0.346409 0.252402
O O3 0.248873 0.259333 0.133461
O O4 0.239251 0.191530 0.251568
O O5 0.500000 0.500000 0.500000
O O6 0.628609 0.617551 0.600378
O O7 0.735541 0.593560 0.492004
O O8 0.446357 0.655793 0.463879
O O9 0.141863 0.468829 0.304865
O O10 0.439086 0.468443 0.305143
O O11 0.159152 0.671011 0.104171
O O12 0.250000 0.750000 0.000000
O O13 0.984119 0.680165 0.968317
O O14 0.750000 0.750000 0.000000
O O15 0.559424 0.924799 0.692894
O O16 0.859216 0.928616 0.692411
#
# Coordination Sequence:
#
# PCOD8149108 Si02
#       8
#     8   8   8   8   8   8   4   4
#     4  12  24  42  71  98 133 182 234 286 341 412
#     4  11  25  44  72 102 143 179 228 292 359 417
#     4  11  24  45  68  99 140 177 234 279 355 415
#     4  10  23  44  66  99 140 181 230 279 349 425
#     4  11  26  44  68  99 138 183 233 285 353 418
#     4  11  23  43  71  97 137 175 237 282 345 412
#     4  10  26  42  70 100 136 172 232 296 344 406
#     4  10  24  40  72  98 132 180 228 284 346 410
#
# _framework density 21.311972000000001
#
# number of rings (size 3 to 8) (size 9 to 14) (size 15 to 20)
#    0.000    1.143    1.429    4.286   10.000    0.571 
#    0.000    1.429    0.000    0.000    0.000    0.000 
#    0.000    0.000    0.000    0.000    0.000    0.000 
#
# Total GULP energy -347156.544935 kJ/mol
# GULP energy per Si atom -12398.448033 kJ/mol
# Density = 2.126347 g / cm^3
# Si number density = 21.311972 Si / 1000 Ang^3
#
#
#
# Elastic Constant Matrix: (Units=GPa)
#
#
# Indices 1 2 3 4 5 6 
#
# 1 150.5959 54.1387 56.0244 0.0000 -1.6843 0.0000
# 2 54.1387 111.8997 44.6899 0.0000 -0.6453 0.0000
# 3 56.0244 44.6899 181.2177 0.0000 2.5122 0.0000
# 4 0.0000 0.0000 0.0000 32.0538 0.0000 9.0193
# 5 -1.6843 -0.6453 2.5122 0.0000 29.7414 0.0000
# 6 0.0000 0.0000 0.0000 9.0193 0.0000 24.1361
#
#
#
# Elastic Compliance Matrix: (Units=1/GPa)
#
#
# Indices 1 2 3 4 5 6 
#
# 1 0.008545 -0.003408 -0.001809 0.000000 0.000563 0.000000
# 2 -0.003408 0.011278 -0.001730 0.000000 0.000198 0.000000
# 3 -0.001809 -0.001730 0.006514 0.000000 -0.000690 0.000000
# 4 0.000000 0.000000 0.000000 0.034863 0.000000 -0.013028
# 5 0.000563 0.000198 -0.000690 0.000000 0.033718 0.000000
# 6 0.000000 0.000000 0.000000 -0.013028 0.000000 0.046300
#
#
# Mechanical properties :
#
#
# Convention : Reuss Voigt Hill
#
# Bulk Modulus (GPa) = 80.37821 83.71327 82.04574
# Shear Modulus (GPa) = 31.39529 36.44360 33.91944
#
# Velocity S-wave (km/s) = 3.84230 4.13971 3.99377
# Velocity P-wave (km/s) = 7.58164 7.88763 7.73615
#
# Compressibility (1/GPa) = 0.01244118
#
# Stress axis : x y z
#
# Youngs Moduli (GPa) = 117.02940 88.67006 153.52207
#
# Poissons Ratio (x) = 0.30223 0.27771
# Poissons Ratio (y) = 0.39889 0.26562
# Poissons Ratio (z) = 0.21170 0.15342
#
# Static dielectric constant tensor:
#      x y z
#    x 5.096210 0.000000 0.487190 
#    y 0.000000 4.054290 0.000000 
#    z 0.487190 0.000000 4.243560 
# 
# 
# High freq. dielectric constant tensor:
#      x y z
#    x 1.853800 0.000000 -0.009280 
#    y 0.000000 1.836080 0.000000 
#    z -0.009280 0.000000 1.839680 
# 
# From -- ./inp_files/190968.got.cif
#   From: 2010.06.25/outbox.cif.g09.slc.cpg/sg15_96_cif.got.tgz:190968.got - 2010.06.28 07:06:18.
