data_PCOD8149289
_publ_section_title
;
Structure prediction by ZEFSAII (Michael W. Deem and Ramdas Pophale) SiO2 
 PCOD8149289
Probable space group: C 2/C
;
_chemical_formula_sum "Si O2"
_cell_formula_units_Z 36
_cell_length_a 21.281923
_cell_length_b 14.758642
_cell_length_c 8.420849
_cell_angle_alpha 90.000000
_cell_angle_beta 142.211961
_cell_angle_gamma 90.000000
_cell_volume 1620.656062
_symmetry_space_group_name_H-M "C 2/C"
_symmetry_group_IT_number 15
_symmetry_cell_setting 'monoclinic'
loop_
_space_group_symop_operation_xyz
x,y,z
-x,y,1/2-z
-x,-y,-z
x,-y,1/2+z
1/2+x,1/2+y,z
1/2-x,1/2+y,1/2-z
1/2-x,1/2-y,-z
1/2+x,1/2-y,1/2+z
loop_
_atom_site_type_symbol
_atom_site_label
_atom_site_fract_x
_atom_site_fract_y
_atom_site_fract_z
Si Si1 0.193986 0.523852 0.701040
Si Si2 0.536178 0.372812 0.497229
Si Si3 0.447470 0.167679 0.971168
Si Si4 0.339023 0.451321 0.220381
Si Si5 0.500000 0.086684 0.750000
O O1 0.153225 0.604626 0.733148
O O2 0.276131 0.571588 0.751296
O O3 0.099014 0.476718 0.421961
O O4 0.255000 0.443822 0.913201
O O5 0.500000 0.398036 0.250000
O O6 0.582856 0.272795 0.605816
O O7 0.433386 0.381429 0.399856
O O8 0.621724 0.444842 0.716079
O O9 0.500000 0.152661 0.250000
O O10 0.513279 0.142620 0.942927
#
# Coordination Sequence:
#
# PCOD8149289 Si02
#       5
#     8   8   8   8   4
#     4  12  22  42  68  97 129 182 227 272 338 411
#     4  10  23  45  64  99 140 176 221 290 335 405
#     4  11  24  43  68  97 141 175 222 286 339 391
#     4  11  23  41  70  94 132 181 228 269 345 408
#     4  12  24  44  66 100 140 178 224 282 342 406
#
# _framework density 22.213225999999999
#
# number of rings (size 3 to 8) (size 9 to 14) (size 15 to 20)
#    0.000    0.889    5.556    2.000    0.000    2.667 
#    4.000    3.333    0.000    0.000    0.000    0.000 
#    0.000    0.000    0.000    0.000    0.000    0.000 
#
# Total GULP energy -223041.701715 kJ/mol
# GULP energy per Si atom -12391.205651 kJ/mol
# Density = 2.216267 g / cm^3
# Si number density = 22.213226 Si / 1000 Ang^3
#
#
#
# Elastic Constant Matrix: (Units=GPa)
#
#
# Indices 1 2 3 4 5 6 
#
# 1 153.3291 14.3747 23.9321 0.0000 -4.8804 0.0000
# 2 14.3747 82.4355 21.0245 0.0000 2.7138 0.0000
# 3 23.9321 21.0245 67.3626 0.0000 4.1894 0.0000
# 4 0.0000 0.0000 0.0000 -14.4972 0.0000 -7.6320
# 5 -4.8804 2.7138 4.1894 0.0000 40.5537 0.0000
# 6 0.0000 0.0000 0.0000 -7.6320 0.0000 24.6368
#
#
#
# Elastic Compliance Matrix: (Units=1/GPa)
#
#
# Indices 1 2 3 4 5 6 
#
# 1 0.006986 -0.000657 -0.002347 0.000000 0.001127 0.000000
# 2 -0.000657 0.013250 -0.003867 0.000000 -0.000566 0.000000
# 3 -0.002347 -0.003867 0.016996 0.000000 -0.001779 0.000000
# 4 0.000000 0.000000 0.000000 -0.059307 0.000000 -0.018372
# 5 0.001127 -0.000566 -0.001779 0.000000 0.025016 0.000000
# 6 0.000000 0.000000 0.000000 -0.018372 0.000000 0.034898
#
#
# Mechanical properties :
#
#
# Convention : Reuss Voigt Hill
#
# Bulk Modulus (GPa) = 42.56948 46.86552 44.71750
# Shear Modulus (GPa) = 84.15893 26.39171 55.27532
#
# Velocity S-wave (km/s) = 6.16191 3.45063 4.99380
# Velocity P-wave (km/s) = 8.35650 6.08438 7.30927
#
# Compressibility (1/GPa) = 0.02349101
#
# Stress axis : x y z
#
# Youngs Moduli (GPa) = 143.15000 75.47127 58.83588
#
# Poissons Ratio (x) = 0.04956 0.13809
# Poissons Ratio (y) = 0.09400 0.22752
# Poissons Ratio (z) = 0.33597 0.29184
#
# Static dielectric constant tensor:
#      x y z
#    x 4.500950 0.000000 -0.208590 
#    y 0.000000 3.748570 0.000000 
#    z -0.208590 0.000000 4.029660 
# 
# 
# High freq. dielectric constant tensor:
#      x y z
#    x 1.891750 0.000000 -0.003220 
#    y 0.000000 1.848050 0.000000 
#    z -0.003220 0.000000 1.871700 
# 
# From -- ./inp_files/28832.got.cif
#   From: 2010.06.25/outbox.cif.g09.slc.cpg/sg15_15_cif.got.tgz:28832.got - 2010.06.28 07:06:18.
