data_PCOD8149208
_publ_section_title
;
Structure prediction by ZEFSAII (Michael W. Deem and Ramdas Pophale) SiO2 
 PCOD8149208
Probable space group: C 2/C
;
_chemical_formula_sum "Si O2"
_cell_formula_units_Z 32
_cell_length_a 8.645422
_cell_length_b 19.869543
_cell_length_c 10.134661
_cell_angle_alpha 90.000000
_cell_angle_beta 119.894117
_cell_angle_gamma 90.000000
_cell_volume 1509.302581
_symmetry_space_group_name_H-M "C 2/C"
_symmetry_group_IT_number 15
_symmetry_cell_setting 'monoclinic'
loop_
_space_group_symop_operation_xyz
x,y,z
-x,y,1/2-z
-x,-y,-z
x,-y,1/2+z
1/2+x,1/2+y,z
1/2-x,1/2+y,1/2-z
1/2-x,1/2-y,-z
1/2+x,1/2-y,1/2+z
loop_
_atom_site_type_symbol
_atom_site_label
_atom_site_fract_x
_atom_site_fract_y
_atom_site_fract_z
Si Si1 0.961183 0.945238 0.592049
Si Si2 0.948306 0.443401 0.083056
Si Si3 0.208277 0.183113 0.154054
Si Si4 0.463621 0.813562 0.518292
O O1 0.757435 0.923622 0.502076
O O2 0.000000 0.979034 0.750000
O O3 0.085828 0.880864 0.627150
O O4 0.000000 0.000000 0.500000
O O5 0.000000 0.469889 0.250000
O O6 0.051501 0.375477 0.089171
O O7 0.000000 0.500000 0.000000
O O8 0.341454 0.193894 0.333409
O O9 0.316505 0.171821 0.066322
O O10 0.080435 0.247408 0.084689
#
# Coordination Sequence:
#
# PCOD8149208 Si02
#       4
#     8   8   8   8
#     4  12  25  45  68  99 133 176 224 278 333 395
#     4  12  27  44  69  99 135 179 223 278 336 396
#     4  10  23  44  70  98 135 176 219 278 329 405
#     4  10  23  45  68  99 135 175 222 270 341 394
#
# _framework density 21.201846
#
# number of rings (size 3 to 8) (size 9 to 14) (size 15 to 20)
#    0.000    1.000    2.500    3.000    7.000    2.000 
#    4.500    0.000    0.000    0.000    0.000    0.000 
#    0.000    0.000    0.000    0.000    0.000    0.000 
#
# Total GULP energy -198462.821520 kJ/mol
# GULP energy per Si atom -12403.926345 kJ/mol
# Density = 2.115359 g / cm^3
# Si number density = 21.201846 Si / 1000 Ang^3
#
#
#
# Elastic Constant Matrix: (Units=GPa)
#
#
# Indices 1 2 3 4 5 6 
#
# 1 99.9658 79.1372 59.4962 0.0000 8.9848 0.0000
# 2 79.1372 165.2947 75.2274 0.0000 -9.7589 0.0000
# 3 59.4962 75.2274 150.7758 0.0000 -11.8144 0.0000
# 4 0.0000 0.0000 0.0000 37.9520 0.0000 -0.9279
# 5 8.9848 -9.7589 -11.8144 0.0000 45.9476 0.0000
# 6 0.0000 0.0000 0.0000 -0.9279 0.0000 -83.7787
#
#
#
# Elastic Compliance Matrix: (Units=1/GPa)
#
#
# Indices 1 2 3 4 5 6 
#
# 1 0.019142 -0.007605 -0.004265 0.000000 -0.006455 0.000000
# 2 -0.007605 0.010869 -0.002168 0.000000 0.003238 0.000000
# 3 -0.004265 -0.002168 0.009620 0.000000 0.002847 0.000000
# 4 0.000000 0.000000 0.000000 0.026342 0.000000 -0.000292
# 5 -0.006455 0.003238 0.002847 0.000000 0.024446 0.000000
# 6 0.000000 0.000000 0.000000 -0.000292 0.000000 -0.011933
#
#
# Mechanical properties :
#
#
# Convention : Reuss Voigt Hill
#
# Bulk Modulus (GPa) = 86.54138 93.75088 90.14613
# Shear Modulus (GPa) = 45.28437 13.50253 29.39345
#
# Velocity S-wave (km/s) = 4.62656 2.52634 3.72743
# Velocity P-wave (km/s) = 8.33346 7.26802 7.81891
#
# Compressibility (1/GPa) = 0.01155517
#
# Stress axis : x y z
#
# Youngs Moduli (GPa) = 52.24078 92.00863 103.94714
#
# Poissons Ratio (x) = 0.69969 0.44334
# Poissons Ratio (y) = 0.39727 0.22538
# Poissons Ratio (z) = 0.22281 0.19950
#
# Static dielectric constant tensor:
#      x y z
#    x 4.037170 0.000000 0.034860 
#    y 0.000000 3.900610 0.000000 
#    z 0.034860 0.000000 4.059080 
# 
# 
# High freq. dielectric constant tensor:
#      x y z
#    x 1.849150 0.000000 -0.000780 
#    y 0.000000 1.834740 0.000000 
#    z -0.000780 0.000000 1.842410 
# 
# From -- ./inp_files/22072.got.cif
#   From: 2010.06.25/outbox.cif.g09.slc.cpg/sg15_12_cif.got.tgz:22072.got - 2010.06.28 07:06:18.
