data_PCOD8149953
_publ_section_title
;
Structure prediction by ZEFSAII (Michael W. Deem and Ramdas Pophale) SiO2 
 PCOD8149953
Probable space group: C 2/C
;
_chemical_formula_sum "Si O2"
_cell_formula_units_Z 44
_cell_length_a 12.057933
_cell_length_b 8.776600
_cell_length_c 23.381473
_cell_angle_alpha 90.000000
_cell_angle_beta 126.515255
_cell_angle_gamma 90.000000
_cell_volume 1988.676657
_symmetry_space_group_name_H-M "C 2/C"
_symmetry_group_IT_number 15
_symmetry_cell_setting 'monoclinic'
loop_
_space_group_symop_operation_xyz
x,y,z
-x,y,1/2-z
-x,-y,-z
x,-y,1/2+z
1/2+x,1/2+y,z
1/2-x,1/2+y,1/2-z
1/2-x,1/2-y,-z
1/2+x,1/2-y,1/2+z
loop_
_atom_site_type_symbol
_atom_site_label
_atom_site_fract_x
_atom_site_fract_y
_atom_site_fract_z
Si Si1 0.711733 0.293387 0.850543
Si Si2 0.877366 0.543673 0.604405
Si Si3 0.548837 0.841091 0.490877
Si Si4 0.949747 0.765442 0.341524
Si Si5 0.137537 0.143062 0.993673
Si Si6 0.000000 0.958154 0.250000
O O1 0.620481 0.141934 0.836230
O O2 0.803358 0.311931 0.935373
O O3 0.798602 0.274916 0.819074
O O4 0.617178 0.440783 0.815009
O O5 0.943327 0.648114 0.575035
O O6 0.716385 0.509137 0.537810
O O7 0.962398 0.388939 0.639781
O O8 0.435200 0.714518 0.472598
O O9 0.500000 0.000000 0.500000
O O10 0.021759 0.880421 0.409231
O O11 0.930509 0.850119 0.275913
O O12 0.250000 0.250000 0.000000
#
# Coordination Sequence:
#
# PCOD8149953 Si02
#       6
#     8   8   8   8   8   4
#     4  11  26  43  64  96 129 167 216 259 316 381
#     4  11  22  39  68  98 129 162 207 262 326 379
#     4  11  19  38  68  99 132 157 195 267 331 379
#     4  10  24  43  65  90 126 170 215 262 313 370
#     4   9  18  35  65  96 124 157 198 255 325 378
#     4  12  28  44  64  86 128 180 224 256 308 372
#
# _framework density 22.125267000000001
#
# number of rings (size 3 to 8) (size 9 to 14) (size 15 to 20)
#    0.000    1.455    5.455    1.636    2.545    8.000 
#    0.000    0.000    0.000    0.000    0.000    0.000 
#    0.000    0.000    0.000    0.000    0.000    0.000 
#
# Total GULP energy -272763.793723 kJ/mol
# GULP energy per Si atom -12398.354260 kJ/mol
# Density = 2.207491 g / cm^3
# Si number density = 22.125267 Si / 1000 Ang^3
#
#
#
# Elastic Constant Matrix: (Units=GPa)
#
#
# Indices 1 2 3 4 5 6 
#
# 1 119.4882 53.8901 32.3186 0.0000 -7.8449 0.0000
# 2 53.8901 95.7878 47.6792 0.0000 -20.7471 0.0000
# 3 32.3186 47.6792 48.9476 0.0000 -10.7027 0.0000
# 4 0.0000 0.0000 0.0000 36.6993 0.0000 -8.2233
# 5 -7.8449 -20.7471 -10.7027 0.0000 22.9730 0.0000
# 6 0.0000 0.0000 0.0000 -8.2233 0.0000 35.0899
#
#
#
# Elastic Compliance Matrix: (Units=1/GPa)
#
#
# Indices 1 2 3 4 5 6 
#
# 1 0.011475 -0.005719 -0.002537 0.000000 -0.002428 0.000000
# 2 -0.005719 0.025485 -0.018308 0.000000 0.012533 0.000000
# 3 -0.002537 -0.018308 0.040232 0.000000 0.001343 0.000000
# 4 0.000000 0.000000 0.000000 0.028759 0.000000 0.006740
# 5 -0.002428 0.012533 0.001343 0.000000 0.054645 0.000000
# 6 0.000000 0.000000 0.000000 0.006740 0.000000 0.030078
#
#
# Mechanical properties :
#
#
# Convention : Reuss Voigt Hill
#
# Bulk Modulus (GPa) = 41.55459 59.11103 50.33281
# Shear Modulus (GPa) = 19.85533 27.64148 23.74840
#
# Velocity S-wave (km/s) = 2.99892 3.53840 3.27977
# Velocity P-wave (km/s) = 5.55101 6.59305 6.09434
#
# Compressibility (1/GPa) = 0.02406473
#
# Stress axis : x y z
#
# Youngs Moduli (GPa) = 87.14526 39.23904 24.85589
#
# Poissons Ratio (x) = 0.22442 0.06305
# Poissons Ratio (y) = 0.49840 0.45506
# Poissons Ratio (z) = 0.22105 0.71838
#
# Static dielectric constant tensor:
#      x y z
#    x 4.579650 0.000000 -0.036090 
#    y 0.000000 5.629810 0.000000 
#    z -0.036090 0.000000 3.877580 
# 
# 
# High freq. dielectric constant tensor:
#      x y z
#    x 1.890390 0.000000 -0.005060 
#    y 0.000000 1.871170 0.000000 
#    z -0.005060 0.000000 1.839510 
# 
# From -- ./inp_files/268133.got.cif
#   From: 2010.06.25/outbox.cif.g09.slc.cpg/sg15_135_cif.got.tgz:268133.got - 2010.06.28 07:06:18.
