data_PCOD8149760
_publ_section_title
;
Structure prediction by ZEFSAII (Michael W. Deem and Ramdas Pophale) SiO2 
 PCOD8149760
Probable space group: C 2/C
;
_chemical_formula_sum "Si O2"
_cell_formula_units_Z 52
_cell_length_a 31.607043
_cell_length_b 10.086683
_cell_length_c 8.289661
_cell_angle_alpha 90.000000
_cell_angle_beta 59.235108
_cell_angle_gamma 90.000000
_cell_volume 2270.912619
_symmetry_space_group_name_H-M "C 2/C"
_symmetry_group_IT_number 15
_symmetry_cell_setting 'monoclinic'
loop_
_space_group_symop_operation_xyz
x,y,z
-x,y,1/2-z
-x,-y,-z
x,-y,1/2+z
1/2+x,1/2+y,z
1/2-x,1/2+y,1/2-z
1/2-x,1/2-y,-z
1/2+x,1/2-y,1/2+z
loop_
_atom_site_type_symbol
_atom_site_label
_atom_site_fract_x
_atom_site_fract_y
_atom_site_fract_z
Si Si1 0.444625 0.658750 0.152779
Si Si2 0.500000 0.454525 0.250000
Si Si3 0.256184 0.618135 0.387479
Si Si4 0.392980 0.867953 0.777057
Si Si5 0.052292 0.587669 0.647924
Si Si6 0.354348 0.728064 0.128651
Si Si7 0.805094 0.517996 0.271267
O O1 0.455320 0.542901 0.262129
O O2 0.459239 0.795757 0.205513
O O3 0.387379 0.673646 0.212432
O O4 0.478372 0.639042 0.930279
O O5 0.250000 0.750000 0.500000
O O6 0.309896 0.621213 0.198931
O O7 0.209890 0.599412 0.357826
O O8 0.247454 0.500457 0.533527
O O9 0.432889 0.853993 0.556678
O O10 0.405287 0.991459 0.871010
O O11 0.339381 0.886281 0.806953
O O12 0.388274 0.736303 0.899418
O O13 0.000000 0.509077 0.750000
O O14 0.332689 0.876862 0.192511
#
# Coordination Sequence:
#
# PCOD8149760 Si02
#       7
#     8   4   8   8   8   8   8
#     4  11  24  46  72  99 135 187 227 289 344 411
#     4  10  26  48  72  96 144 178 240 284 342 424
#     4  10  24  41  68  99 137 182 229 286 351 415
#     4  12  23  41  70 104 146 180 225 290 339 425
#     4  12  24  41  68 107 143 183 229 282 353 408
#     4  11  24  42  69  99 136 184 230 284 345 413
#     4  11  20  45  67  97 140 177 228 286 341 411
#
# _framework density 22.898282999999999
#
# number of rings (size 3 to 8) (size 9 to 14) (size 15 to 20)
#    0.000    0.923    5.385    0.462    4.308    1.846 
#    1.385    0.000    0.000    0.000    0.000    0.000 
#    0.000    0.000    0.000    0.000    0.000    0.000 
#
# Total GULP energy -322141.978837 kJ/mol
# GULP energy per Si atom -12390.076109 kJ/mol
# Density = 2.284617 g / cm^3
# Si number density = 22.898283 Si / 1000 Ang^3
#
#
#
# Elastic Constant Matrix: (Units=GPa)
#
#
# Indices 1 2 3 4 5 6 
#
# 1 141.3097 39.8147 45.2816 0.0000 3.2533 0.0000
# 2 39.8147 54.0559 32.9017 0.0000 -0.5439 0.0000
# 3 45.2816 32.9017 141.2263 0.0000 0.5535 0.0000
# 4 0.0000 0.0000 0.0000 42.3179 0.0000 1.2278
# 5 3.2533 -0.5439 0.5535 0.0000 35.4610 0.0000
# 6 0.0000 0.0000 0.0000 1.2278 0.0000 32.3480
#
#
#
# Elastic Compliance Matrix: (Units=1/GPa)
#
#
# Indices 1 2 3 4 5 6 
#
# 1 0.009261 -0.005855 -0.001602 0.000000 -0.000914 0.000000
# 2 -0.005855 0.025264 -0.004012 0.000000 0.000987 0.000000
# 3 -0.001602 -0.004012 0.008529 0.000000 -0.000048 0.000000
# 4 0.000000 0.000000 0.000000 0.023657 0.000000 -0.000898
# 5 -0.000914 0.000987 -0.000048 0.000000 0.028300 0.000000
# 6 0.000000 0.000000 0.000000 -0.000898 0.000000 0.030948
#
#
# Mechanical properties :
#
#
# Convention : Reuss Voigt Hill
#
# Bulk Modulus (GPa) = 49.71225 63.62089 56.66657
# Shear Modulus (GPa) = 32.13324 36.59831 34.36577
#
# Velocity S-wave (km/s) = 3.75013 4.00221 3.87822
# Velocity P-wave (km/s) = 6.36463 7.01437 6.69738
#
# Compressibility (1/GPa) = 0.02011576
#
# Stress axis : x y z
#
# Youngs Moduli (GPa) = 107.98342 39.58174 117.24313
#
# Poissons Ratio (x) = 0.23176 0.18777
# Poissons Ratio (y) = 0.63228 0.47042
# Poissons Ratio (z) = 0.17294 0.15881
#
# Static dielectric constant tensor:
#      x y z
#    x 4.592170 0.000000 -0.075320 
#    y 0.000000 3.850270 0.000000 
#    z -0.075320 0.000000 4.685740 
# 
# 
# High freq. dielectric constant tensor:
#      x y z
#    x 1.918360 0.000000 0.005140 
#    y 0.000000 1.864740 0.000000 
#    z 0.005140 0.000000 1.920290 
# 
# From -- ./inp_files/65371.got.cif
#   From: 2010.06.25/outbox.cif.g09.slc.cpg/sg15_33_cif.got.tgz:65371.got - 2010.06.28 07:06:18.
