data_PCOD8149665
_publ_section_title
;
Structure prediction by ZEFSAII (Michael W. Deem and Ramdas Pophale) SiO2 
 PCOD8149665
Probable space group: C 2/C
;
_chemical_formula_sum "Si O2"
_cell_formula_units_Z 60
_cell_length_a 16.596543
_cell_length_b 12.891955
_cell_length_c 11.703182
_cell_angle_alpha 90.000000
_cell_angle_beta 72.493621
_cell_angle_gamma 90.000000
_cell_volume 2388.056670
_symmetry_space_group_name_H-M "C 2/C"
_symmetry_group_IT_number 15
_symmetry_cell_setting 'monoclinic'
loop_
_space_group_symop_operation_xyz
x,y,z
-x,y,1/2-z
-x,-y,-z
x,-y,1/2+z
1/2+x,1/2+y,z
1/2-x,1/2+y,1/2-z
1/2-x,1/2-y,-z
1/2+x,1/2-y,1/2+z
loop_
_atom_site_type_symbol
_atom_site_label
_atom_site_fract_x
_atom_site_fract_y
_atom_site_fract_z
Si Si1 0.594667 0.201139 0.695727
Si Si2 0.830680 0.152822 0.170233
Si Si3 0.377955 0.988012 0.452489
Si Si4 0.797449 0.064584 0.957675
Si Si5 0.917427 0.045368 0.710680
Si Si6 0.131022 0.851078 0.485391
Si Si7 0.149037 0.341282 0.837489
Si Si8 0.000000 0.385933 0.750000
O O1 0.500000 0.159669 0.750000
O O2 0.640286 0.235406 0.794377
O O3 0.648227 0.104046 0.625304
O O4 0.585980 0.298655 0.612351
O O5 0.735384 0.118180 0.244277
O O6 0.834628 0.148690 0.031041
O O7 0.898029 0.073517 0.193419
O O8 0.303652 0.072356 0.501895
O O9 0.392936 0.931598 0.567445
O O10 0.460368 0.045611 0.369415
O O11 0.813377 0.945356 0.991070
O O12 0.838772 0.091582 0.817853
O O13 0.932912 0.104899 0.584302
O O14 0.000000 0.053220 0.750000
O O15 0.179969 0.758615 0.397800
O O16 0.075730 0.316656 0.774178
#
# Coordination Sequence:
#
# PCOD8149665 Si02
#       8
#     8   8   8   8   8   8   8   4
#     4  11  22  39  67 102 134 169 226 273 326 398
#     4  11  22  38  64  94 130 172 215 277 326 390
#     4  11  22  43  68  99 128 174 227 277 332 393
#     4  11  22  41  68  95 133 173 227 271 328 401
#     4  11  24  40  65  95 134 174 223 265 331 398
#     4  10  24  40  65  96 130 181 212 273 331 391
#     4  11  23  43  66  93 132 173 223 277 335 392
#     4  12  24  42  68  98 130 174 226 278 340 390
#
# _framework density 25.125032999999998
#
# number of rings (size 3 to 8) (size 9 to 14) (size 15 to 20)
#    0.000    1.067    4.667    1.600    2.800    3.200 
#    0.000    0.667    0.000    0.000    0.000    0.000 
#    0.000    0.000    0.000    0.000    0.000    0.000 
#
# Total GULP energy -371758.835310 kJ/mol
# GULP energy per Si atom -12391.961177 kJ/mol
# Density = 2.506785 g / cm^3
# Si number density = 25.125033 Si / 1000 Ang^3
#
#
#
# Elastic Constant Matrix: (Units=GPa)
#
#
# Indices 1 2 3 4 5 6 
#
# 1 83.2087 0.0891 4.3467 0.0000 -7.8691 0.0000
# 2 0.0891 31.4753 1.2940 0.0000 3.5282 0.0000
# 3 4.3467 1.2940 60.6367 0.0000 3.8577 0.0000
# 4 0.0000 0.0000 0.0000 28.3755 0.0000 3.7495
# 5 -7.8691 3.5282 3.8577 0.0000 34.0891 0.0000
# 6 0.0000 0.0000 0.0000 3.7495 0.0000 22.2236
#
#
#
# Elastic Compliance Matrix: (Units=1/GPa)
#
#
# Indices 1 2 3 4 5 6 
#
# 1 0.012359 -0.000328 -0.001070 0.000000 0.003008 0.000000
# 2 -0.000328 0.032166 -0.000450 0.000000 -0.003354 0.000000
# 3 -0.001070 -0.000450 0.016711 0.000000 -0.002092 0.000000
# 4 0.000000 0.000000 0.000000 0.036045 0.000000 -0.006081
# 5 0.003008 -0.003354 -0.002092 0.000000 0.030613 0.000000
# 6 0.000000 0.000000 0.000000 -0.006081 0.000000 0.046023
#
#
# Mechanical properties :
#
#
# Convention : Reuss Voigt Hill
#
# Bulk Modulus (GPa) = 17.37917 20.75336 19.06627
# Shear Modulus (GPa) = 25.40732 28.24370 26.82551
#
# Velocity S-wave (km/s) = 3.18344 3.35644 3.27108
# Velocity P-wave (km/s) = 4.52156 4.82689 4.67672
#
# Compressibility (1/GPa) = 0.05754013
#
# Stress axis : x y z
#
# Youngs Moduli (GPa) = 80.91464 31.08841 59.84065
#
# Poissons Ratio (x) = 0.01020 0.06405
# Poissons Ratio (y) = 0.02655 0.02690
# Poissons Ratio (z) = 0.08660 0.01398
#
# Static dielectric constant tensor:
#      x y z
#    x 4.103970 0.000000 0.011150 
#    y 0.000000 4.263970 0.000000 
#    z 0.011150 0.000000 4.808030 
# 
# 
# High freq. dielectric constant tensor:
#      x y z
#    x 1.986420 0.000000 0.001540 
#    y 0.000000 1.981610 0.000000 
#    z 0.001540 0.000000 2.013290 
# 
# From -- ./inp_files/105352.got.cif
#   From: 2010.06.25/outbox.cif.g09.slc.cpg/sg15_53_cif.got.tgz:105352.got - 2010.06.28 07:06:18.
