data_PCOD8149622
_publ_section_title
;
Structure prediction by ZEFSAII (Michael W. Deem and Ramdas Pophale) SiO2 
 PCOD8149622
Probable space group: C 2/C
;
_chemical_formula_sum "Si O2"
_cell_formula_units_Z 64
_cell_length_a 17.007361
_cell_length_b 17.238531
_cell_length_c 19.192960
_cell_angle_alpha 90.000000
_cell_angle_beta 147.134155
_cell_angle_gamma 90.000000
_cell_volume 3053.641368
_symmetry_space_group_name_H-M "C 2/C"
_symmetry_group_IT_number 15
_symmetry_cell_setting 'monoclinic'
loop_
_space_group_symop_operation_xyz
x,y,z
-x,y,1/2-z
-x,-y,-z
x,-y,1/2+z
1/2+x,1/2+y,z
1/2-x,1/2+y,1/2-z
1/2-x,1/2-y,-z
1/2+x,1/2-y,1/2+z
loop_
_atom_site_type_symbol
_atom_site_label
_atom_site_fract_x
_atom_site_fract_y
_atom_site_fract_z
Si Si1 0.390071 0.670328 0.420387
Si Si2 0.884796 0.360383 0.988833
Si Si3 0.114753 0.694378 0.386706
Si Si4 0.602758 0.092960 0.760106
Si Si5 0.143478 0.065601 0.391818
Si Si6 0.748674 0.551380 0.087164
Si Si7 0.874307 0.817160 0.508853
Si Si8 0.420851 0.199471 0.367805
O O1 0.366709 0.590880 0.446203
O O2 0.472129 0.654628 0.409173
O O3 0.504794 0.721822 0.549568
O O4 0.235186 0.711745 0.287039
O O5 0.765056 0.423187 0.923160
O O6 0.900462 0.360507 0.916700
O O7 0.850719 0.274608 0.991978
O O8 0.033416 0.387301 0.134530
O O9 0.250000 0.750000 0.500000
O O10 0.162843 0.617410 0.384558
O O11 0.000000 0.737996 0.250000
O O12 0.036061 0.666338 0.398500
O O13 0.500000 0.111123 0.750000
O O14 0.642567 0.001872 0.787280
O O15 0.743659 0.146222 0.868091
O O16 0.122364 0.150531 0.410235
O O17 0.000000 0.033624 0.250000
O O18 0.178360 0.003292 0.476817
#
# Coordination Sequence:
#
# PCOD8149622 Si02
#       8
#     8   8   8   8   8   8   8   8
#     4  11  24  44  69 100 142 177 229 302 343 410
#     4  11  24  39  68 100 140 172 233 286 341 418
#     4  12  23  44  75  99 130 180 235 290 350 414
#     4  11  23  42  68 100 133 191 229 273 358 422
#     4  11  24  41  61  98 136 183 227 279 347 414
#     4  11  24  45  69  93 141 183 232 279 353 425
#     4  10  24  39  68  97 134 184 233 282 344 409
#     4  11  24  42  67 108 129 175 229 293 349 395
#
# _framework density 20.958583000000001
#
# number of rings (size 3 to 8) (size 9 to 14) (size 15 to 20)
#    0.000    1.000    5.000    1.500    8.750    2.500 
#    2.250    3.750    0.000    0.000    0.000    0.000 
#    0.000    0.000    0.000    0.000    0.000    0.000 
#
# Total GULP energy -396658.789453 kJ/mol
# GULP energy per Si atom -12395.587170 kJ/mol
# Density = 2.091088 g / cm^3
# Si number density = 20.958583 Si / 1000 Ang^3
#
#
#
# Elastic Constant Matrix: (Units=GPa)
#
#
# Indices 1 2 3 4 5 6 
#
# 1 110.1264 27.4876 41.4774 0.0007 5.8505 0.0010
# 2 27.4876 102.1585 61.2008 -0.0004 -0.4256 0.0004
# 3 41.4774 61.2008 146.0238 -0.0026 8.2763 0.0005
# 4 0.0007 -0.0004 -0.0026 29.5357 0.0000 2.4995
# 5 5.8505 -0.4256 8.2763 0.0000 36.1542 0.0010
# 6 0.0010 0.0004 0.0005 2.4995 0.0010 36.6707
#
#
#
# Elastic Compliance Matrix: (Units=1/GPa)
#
#
# Indices 1 2 3 4 5 6 
#
# 1 0.010357 -0.001427 -0.002277 0.000000 -0.001171 0.000000
# 2 -0.001427 0.013340 -0.005276 0.000000 0.001596 0.000000
# 3 -0.002277 -0.005276 0.009816 0.000001 -0.001941 0.000000
# 4 0.000000 0.000000 0.000001 0.034054 0.000000 -0.002321
# 5 -0.001171 0.001596 -0.001941 0.000000 0.028312 -0.000001
# 6 0.000000 0.000000 0.000000 -0.002321 -0.000001 0.027428
#
#
# Mechanical properties :
#
#
# Convention : Reuss Voigt Hill
#
# Bulk Modulus (GPa) = 64.30053 68.73781 66.51917
# Shear Modulus (GPa) = 34.14092 35.68166 34.91129
#
# Velocity S-wave (km/s) = 4.04043 4.13059 4.08576
# Velocity P-wave (km/s) = 7.24660 7.45770 7.35290
#
# Compressibility (1/GPa) = 0.01555197
#
# Stress axis : x y z
#
# Youngs Moduli (GPa) = 96.55664 74.96142 101.87142
#
# Poissons Ratio (x) = 0.10700 0.23197
# Poissons Ratio (y) = 0.13782 0.53748
# Poissons Ratio (z) = 0.21987 0.39550
#
# Static dielectric constant tensor:
#      x y z
#    x 4.023120 -0.000070 -0.327930 
#    y -0.000070 4.787130 -0.000100 
#    z -0.327930 -0.000100 3.461580 
# 
# 
# High freq. dielectric constant tensor:
#      x y z
#    x 1.833840 0.000000 0.005450 
#    y 0.000000 1.800380 0.000000 
#    z 0.005450 0.000000 1.832790 
# 
# From -- ./inp_files/249661.got.cif
#   From: 2010.06.25/outbox.cif.g09.slc.cpg/sg15_125_cif.got.tgz:249661.got - 2010.06.28 07:06:18.
