data_PCOD8149858
_publ_section_title
;
Structure prediction by ZEFSAII (Michael W. Deem and Ramdas Pophale) SiO2 
 PCOD8149858
Probable space group: C 2/C
;
_chemical_formula_sum "Si O2"
_cell_formula_units_Z 52
_cell_length_a 25.607446
_cell_length_b 8.736676
_cell_length_c 11.662093
_cell_angle_alpha 90.000000
_cell_angle_beta 62.323801
_cell_angle_gamma 90.000000
_cell_volume 2310.574925
_symmetry_space_group_name_H-M "C 2/C"
_symmetry_group_IT_number 15
_symmetry_cell_setting 'monoclinic'
loop_
_space_group_symop_operation_xyz
x,y,z
-x,y,1/2-z
-x,-y,-z
x,-y,1/2+z
1/2+x,1/2+y,z
1/2-x,1/2+y,1/2-z
1/2-x,1/2-y,-z
1/2+x,1/2-y,1/2+z
loop_
_atom_site_type_symbol
_atom_site_label
_atom_site_fract_x
_atom_site_fract_y
_atom_site_fract_z
Si Si1 0.021643 0.257980 0.954611
Si Si2 0.202915 0.150616 0.314609
Si Si3 0.414011 0.928284 0.125434
Si Si4 0.604212 0.437054 0.526378
Si Si5 0.500000 0.403178 0.250000
Si Si6 0.836034 0.314034 0.381993
Si Si7 0.797467 0.539901 0.603416
O O1 0.050880 0.420448 0.931232
O O2 0.017761 0.210149 0.829934
O O3 0.059679 0.131664 0.979580
O O4 0.954978 0.277011 0.069900
O O5 0.191348 0.230169 0.201496
O O6 0.223547 0.281913 0.385502
O O7 0.145675 0.061869 0.421603
O O8 0.257241 0.035966 0.243372
O O9 0.390206 0.915531 0.279811
O O10 0.363656 0.937385 0.080782
O O11 0.559868 0.502402 0.666629
O O12 0.645462 0.309314 0.541858
O O13 0.793720 0.438509 0.490345
#
# Coordination Sequence:
#
# PCOD8149858 Si02
#       7
#     8   8   8   8   4   8   8
#     4  11  24  42  66 100 141 177 231 289 344 411
#     4  11  26  45  70 103 142 181 235 291 345 420
#     4  10  24  42  67 100 136 179 229 285 346 409
#     4  12  24  45  69 103 142 183 228 289 351 409
#     4  12  24  36  68  96 138 174 232 278 342 414
#     4  11  23  44  71  97 138 180 237 280 354 413
#     4  11  23  46  68  98 137 183 229 288 342 412
#
# _framework density 22.505222
#
# number of rings (size 3 to 8) (size 9 to 14) (size 15 to 20)
#    0.000    0.923    1.538    5.538    4.308    1.231 
#    0.000    3.846    0.000    0.000    0.000    0.000 
#    0.000    0.000    0.000    0.000    0.000    0.000 
#
# Total GULP energy -322133.208195 kJ/mol
# GULP energy per Si atom -12389.738777 kJ/mol
# Density = 2.245400 g / cm^3
# Si number density = 22.505222 Si / 1000 Ang^3
#
#
#
# Elastic Constant Matrix: (Units=GPa)
#
#
# Indices 1 2 3 4 5 6 
#
# 1 -6.3408 -99.5947 -17.3954 0.0000 -60.7091 0.0000
# 2 -99.5947 -203.3637 -38.0931 0.0000 -161.3924 0.0000
# 3 -17.3954 -38.0931 104.1425 0.0000 -62.3164 0.0000
# 4 0.0000 0.0000 0.0000********** 0.0000 7097.6270
# 5 -60.7091 -161.3924 -62.3164 0.0000 -6.5639 0.0000
# 6 0.0000 0.0000 0.0000 7097.6270 0.0000-3058.7176
#
#
#
# Elastic Compliance Matrix: (Units=1/GPa)
#
#
# Indices 1 2 3 4 5 6 
#
# 1 0.025441 -0.008815 -0.001510 0.000000 -0.004236 0.000000
# 2 -0.008815 0.004852 -0.003337 0.000000 -0.006082 0.000000
# 3 -0.001510 -0.003337 0.009817 0.000000 0.002820 0.000000
# 4 0.000000 0.000000 0.000000 0.004500 0.000000 0.010442
# 5 -0.004236 -0.006082 0.002820 0.000000 0.009613 0.000000
# 6 0.000000 0.000000 0.000000 0.010442 0.000000 0.023903
#
#
# Mechanical properties :
#
#
# Convention : Reuss Voigt Hill
#
# Bulk Modulus (GPa) = 78.20945 -46.19204 16.00871
# Shear Modulus (GPa) = 45.57504 -3859.25975 -1906.84236
#
# Velocity S-wave (km/s) = 4.50498 -41.45541 -29.13981
# Velocity P-wave (km/s) = 7.86682 48.08296 33.54165
#
# Compressibility (1/GPa) = 0.01278618
#
# Stress axis : x y z
#
# Youngs Moduli (GPa) = 39.30731 206.11860 101.86831
#
# Poissons Ratio (x) = 1.81684 0.15377
# Poissons Ratio (y) = 0.34648 0.33996
# Poissons Ratio (z) = 0.05934 0.68786
#
# Static dielectric constant tensor:
#      x y z
#    x 3.208190 0.000000 0.205200 
#    y 0.000000 4.640010 0.000000 
#    z 0.205200 0.000000 4.032450 
# 
# 
# High freq. dielectric constant tensor:
#      x y z
#    x 1.879170 0.000000 -0.017410 
#    y 0.000000 1.908140 0.000000 
#    z -0.017410 0.000000 1.898720 
# 
# From -- ./inp_files/121805.got.cif
#   From: 2010.06.25/outbox.cif.g09.slc.cpg/sg15_61_cif.got.tgz:121805.got - 2010.06.28 07:06:18.
