data_PCOD8149936
_publ_section_title
;
Structure prediction by ZEFSAII (Michael W. Deem and Ramdas Pophale) SiO2 
 PCOD8149936
Probable space group: C 2/C
;
_chemical_formula_sum "Si O2"
_cell_formula_units_Z 28
_cell_length_a 18.835299
_cell_length_b 9.374888
_cell_length_c 9.068786
_cell_angle_alpha 90.000000
_cell_angle_beta 46.945698
_cell_angle_gamma 90.000000
_cell_volume 1170.121703
_symmetry_space_group_name_H-M "C 2/C"
_symmetry_group_IT_number 15
_symmetry_cell_setting 'monoclinic'
loop_
_space_group_symop_operation_xyz
x,y,z
-x,y,1/2-z
-x,-y,-z
x,-y,1/2+z
1/2+x,1/2+y,z
1/2-x,1/2+y,1/2-z
1/2-x,1/2-y,-z
1/2+x,1/2-y,1/2+z
loop_
_atom_site_type_symbol
_atom_site_label
_atom_site_fract_x
_atom_site_fract_y
_atom_site_fract_z
Si Si1 0.716637 0.909717 0.517634
Si Si2 0.882230 0.117629 0.166601
Si Si3 0.000000 0.990733 0.250000
Si Si4 0.604003 0.064121 0.899872
O O1 0.750000 0.750000 0.500000
O O2 0.619172 0.922356 0.554402
O O3 0.796454 0.009265 0.326814
O O4 0.687726 0.960627 0.720590
O O5 0.864983 0.284698 0.216662
O O6 0.968077 0.088106 0.159752
O O7 0.914473 0.103301 0.947316
O O8 0.500000 0.000000 0.000000
#
# Coordination Sequence:
#
# PCOD8149936 Si02
#       4
#     8   8   4   8
#     4  12  27  49  76 108 150 193 246 305 372 443
#     4  11  25  46  73 103 145 189 242 296 367 433
#     4  10  24  42  76 104 138 184 244 298 360 428
#     4  12  28  45  75 109 149 191 248 302 370 437
#
# _framework density 23.929136
#
# number of rings (size 3 to 8) (size 9 to 14) (size 15 to 20)
#    0.000    0.571    0.000    6.857   16.000    0.000 
#    0.000    0.000    0.000    0.000    0.000    0.000 
#    0.000    0.000    0.000    0.000    0.000    0.000 
#
# Total GULP energy -173455.976481 kJ/mol
# GULP energy per Si atom -12389.712606 kJ/mol
# Density = 2.387467 g / cm^3
# Si number density = 23.929136 Si / 1000 Ang^3
#
#
#
# Elastic Constant Matrix: (Units=GPa)
#
#
# Indices 1 2 3 4 5 6 
#
# 1 100.6356 36.9318 16.4814 0.0000 14.1752 0.0000
# 2 36.9318 193.8103 48.5221 0.0000 -9.2896 0.0000
# 3 16.4814 48.5221 127.8030 0.0000 1.4110 0.0000
# 4 0.0000 0.0000 0.0000 40.8041 0.0000 -2.5347
# 5 14.1752 -9.2896 1.4110 0.0000 45.0413 0.0000
# 6 0.0000 0.0000 0.0000 -2.5347 0.0000 32.5856
#
#
#
# Elastic Compliance Matrix: (Units=1/GPa)
#
#
# Indices 1 2 3 4 5 6 
#
# 1 0.011416 -0.002223 -0.000584 0.000000 -0.004033 0.000000
# 2 -0.002223 0.006205 -0.002092 0.000000 0.002045 0.000000
# 3 -0.000584 -0.002092 0.008700 0.000000 -0.000520 0.000000
# 4 0.000000 0.000000 0.000000 0.024626 0.000000 0.001916
# 5 -0.004033 0.002045 -0.000520 0.000000 0.023909 0.000000
# 6 0.000000 0.000000 0.000000 0.001916 0.000000 0.030837
#
#
# Mechanical properties :
#
#
# Convention : Reuss Voigt Hill
#
# Bulk Modulus (GPa) = 60.51620 69.56883 65.04251
# Shear Modulus (GPa) = 41.32294 45.04043 43.18168
#
# Velocity S-wave (km/s) = 4.16009 4.34319 4.25263
# Velocity P-wave (km/s) = 6.95844 7.36797 7.16613
#
# Compressibility (1/GPa) = 0.01652450
#
# Stress axis : x y z
#
# Youngs Moduli (GPa) = 87.59499 161.16305 114.94602
#
# Poissons Ratio (x) = 0.35819 0.06711
# Poissons Ratio (y) = 0.19468 0.24044
# Poissons Ratio (z) = 0.05114 0.33711
#
# Static dielectric constant tensor:
#      x y z
#    x 4.543370 0.000000 0.253650 
#    y 0.000000 4.393810 0.000000 
#    z 0.253650 0.000000 4.415080 
# 
# 
# High freq. dielectric constant tensor:
#      x y z
#    x 1.967140 0.000000 0.012400 
#    y 0.000000 1.957490 0.000000 
#    z 0.012400 0.000000 1.950200 
# 
# From -- ./inp_files/53329.got.cif
#   From: 2010.06.25/outbox.cif.g09.slc.cpg/sg15_27_cif.got.tgz:53329.got - 2010.06.28 07:06:18.
