data_PCOD8149561
_publ_section_title
;
Structure prediction by ZEFSAII (Michael W. Deem and Ramdas Pophale) SiO2 
 PCOD8149561
Probable space group: C 2/C
;
_chemical_formula_sum "Si O2"
_cell_formula_units_Z 44
_cell_length_a 13.200006
_cell_length_b 18.297080
_cell_length_c 9.029548
_cell_angle_alpha 90.000000
_cell_angle_beta 111.337251
_cell_angle_gamma 90.000000
_cell_volume 2031.345239
_symmetry_space_group_name_H-M "C 2/C"
_symmetry_group_IT_number 15
_symmetry_cell_setting 'monoclinic'
loop_
_space_group_symop_operation_xyz
x,y,z
-x,y,1/2-z
-x,-y,-z
x,-y,1/2+z
1/2+x,1/2+y,z
1/2-x,1/2+y,1/2-z
1/2-x,1/2-y,-z
1/2+x,1/2-y,1/2+z
loop_
_atom_site_type_symbol
_atom_site_label
_atom_site_fract_x
_atom_site_fract_y
_atom_site_fract_z
Si Si1 0.000000 0.489932 0.250000
Si Si2 0.252476 0.666924 0.311540
Si Si3 0.725177 0.114493 0.616059
Si Si4 0.445707 0.227706 0.872985
Si Si5 0.905431 0.791129 0.307046
Si Si6 0.856271 0.453868 0.919416
O O1 0.090175 0.442082 0.388160
O O2 0.051016 0.544826 0.157160
O O3 0.271835 0.624316 0.474681
O O4 0.359357 0.707275 0.309267
O O5 0.159454 0.725020 0.305104
O O6 0.221110 0.613956 0.158477
O O7 0.610345 0.156221 0.583083
O O8 0.818120 0.142818 0.780379
O O9 0.710213 0.028802 0.629521
O O10 0.500000 0.202335 0.750000
O O11 0.547343 0.260533 0.016322
O O12 0.000000 0.818646 0.250000
#
# Coordination Sequence:
#
# PCOD8149561 Si02
#       6
#     4   8   8   8   8   8
#     4  10  24  36  58  98 124 170 194 258 328 366
#     4  11  23  43  66  94 129 168 212 262 310 385
#     4  11  23  42  65  96 128 169 211 260 312 385
#     4  11  25  42  67  97 127 161 216 269 314 364
#     4  11  21  40  72  89 121 173 216 252 313 380
#     4  11  24  39  62  95 133 160 216 255 319 377
#
# _framework density 21.660520999999999
#
# number of rings (size 3 to 8) (size 9 to 14) (size 15 to 20)
#    0.000    1.091    5.455    1.091    7.636    4.364 
#    0.000    1.818    0.000    0.000    0.000    0.000 
#    0.000    0.000    0.000    0.000    0.000    0.000 
#
# Total GULP energy -272775.493044 kJ/mol
# GULP energy per Si atom -12398.886047 kJ/mol
# Density = 2.161122 g / cm^3
# Si number density = 21.660521 Si / 1000 Ang^3
#
#
#
# Elastic Constant Matrix: (Units=GPa)
#
#
# Indices 1 2 3 4 5 6 
#
# 1 85.5509 31.0615 24.1042 0.0000 5.5109 0.0000
# 2 31.0615 89.2453 -0.2877 0.0000 7.0800 0.0000
# 3 24.1042 -0.2877 84.3136 0.0000 5.5131 0.0000
# 4 0.0000 0.0000 0.0000 35.4929 0.0000 7.4385
# 5 5.5109 7.0800 5.5131 0.0000 38.5108 0.0000
# 6 0.0000 0.0000 0.0000 7.4385 0.0000 15.3560
#
#
#
# Elastic Compliance Matrix: (Units=1/GPa)
#
#
# Indices 1 2 3 4 5 6 
#
# 1 0.014763 -0.005106 -0.004201 0.000000 -0.000572 0.000000
# 2 -0.005106 0.013140 0.001630 0.000000 -0.001918 0.000000
# 3 -0.004201 0.001630 0.013171 0.000000 -0.001584 0.000000
# 4 0.000000 0.000000 0.000000 0.031358 0.000000 -0.015190
# 5 -0.000572 -0.001918 -0.001584 0.000000 0.026628 0.000000
# 6 0.000000 0.000000 0.000000 -0.015190 0.000000 0.072479
#
#
# Mechanical properties :
#
#
# Convention : Reuss Voigt Hill
#
# Bulk Modulus (GPa) = 38.88063 40.98511 39.93287
# Shear Modulus (GPa) = 25.57989 31.48740 28.53364
#
# Velocity S-wave (km/s) = 3.44022 3.81685 3.63342
# Velocity P-wave (km/s) = 5.81112 6.19573 6.00650
#
# Compressibility (1/GPa) = 0.02571975
#
# Stress axis : x y z
#
# Youngs Moduli (GPa) = 67.73497 76.10468 75.92703
#
# Poissons Ratio (x) = 0.38863 0.31894
# Poissons Ratio (y) = 0.34589 -0.12377
# Poissons Ratio (z) = 0.28453 -0.12406
#
# Static dielectric constant tensor:
#      x y z
#    x 3.872680 0.000000 0.269920 
#    y 0.000000 3.742160 0.000000 
#    z 0.269920 0.000000 4.171090 
# 
# 
# High freq. dielectric constant tensor:
#      x y z
#    x 1.839530 0.000000 0.006640 
#    y 0.000000 1.839010 0.000000 
#    z 0.006640 0.000000 1.857180 
# 
# From -- ./inp_files/39319.got.cif
#   From: 2010.06.25/outbox.cif.g09.slc.cpg/sg15_20_cif.got.tgz:39319.got - 2010.06.28 07:06:18.
