data_PCOD8149437
_publ_section_title
;
Structure prediction by ZEFSAII (Michael W. Deem and Ramdas Pophale) SiO2 
 PCOD8149437
Probable space group: C 2/C
;
_chemical_formula_sum "Si O2"
_cell_formula_units_Z 40
_cell_length_a 28.109640
_cell_length_b 9.571389
_cell_length_c 10.750234
_cell_angle_alpha 90.000000
_cell_angle_beta 143.093719
_cell_angle_gamma 90.000000
_cell_volume 1736.868280
_symmetry_space_group_name_H-M "C 2/C"
_symmetry_group_IT_number 15
_symmetry_cell_setting 'monoclinic'
loop_
_space_group_symop_operation_xyz
x,y,z
-x,y,1/2-z
-x,-y,-z
x,-y,1/2+z
1/2+x,1/2+y,z
1/2-x,1/2+y,1/2-z
1/2-x,1/2-y,-z
1/2+x,1/2-y,1/2+z
loop_
_atom_site_type_symbol
_atom_site_label
_atom_site_fract_x
_atom_site_fract_y
_atom_site_fract_z
Si Si1 0.087596 0.585241 0.390219
Si Si2 0.197621 0.774621 0.768029
Si Si3 0.093962 0.899444 0.738148
Si Si4 0.156649 0.706004 0.066277
Si Si5 0.921884 0.207143 0.848664
O O1 0.152946 0.636028 0.626221
O O2 0.099452 0.419286 0.403179
O O3 0.094414 0.659824 0.271743
O O4 0.000000 0.619793 0.250000
O O5 0.127988 0.879040 0.668730
O O6 0.250000 0.750000 0.000000
O O7 0.250872 0.837577 0.765427
O O8 0.149229 0.838440 0.960215
O O9 0.011229 0.816007 0.583767
O O10 0.093916 0.065275 0.761366
O O11 0.138618 0.761712 0.165696
#
# Coordination Sequence:
#
# PCOD8149437 Si02
#       5
#     8   8   8   8   8
#     4  12  26  45  76 108 143 189 247 302 359 426
#     4  10  25  46  69  99 149 189 227 300 368 422
#     4  10  23  46  69 101 145 191 233 296 361 433
#     4  11  27  44  71 107 149 184 241 301 362 426
#     4  11  25  42  76 103 140 189 245 289 360 435
#
# _framework density 23.029954
#
# number of rings (size 3 to 8) (size 9 to 14) (size 15 to 20)
#    0.000    1.200    2.000    1.800   11.200    4.000 
#    0.000    0.000    0.000    0.000    0.000    0.000 
#    0.000    0.000    0.000    0.000    0.000    0.000 
#
# Total GULP energy -247836.865562 kJ/mol
# GULP energy per Si atom -12391.843278 kJ/mol
# Density = 2.297754 g / cm^3
# Si number density = 23.029954 Si / 1000 Ang^3
#
#
#
# Elastic Constant Matrix: (Units=GPa)
#
#
# Indices 1 2 3 4 5 6 
#
# 1 178.2914 20.5092 38.6369 0.0000 9.5864 0.0000
# 2 20.5092 95.8729 25.3034 0.0000 -17.4506 0.0000
# 3 38.6369 25.3034 67.1049 0.0000 0.4065 0.0000
# 4 0.0000 0.0000 0.0000 25.0673 0.0000 -8.0305
# 5 9.5864 -17.4506 0.4065 0.0000 32.0223 0.0000
# 6 0.0000 0.0000 0.0000 -8.0305 0.0000 30.9551
#
#
#
# Elastic Compliance Matrix: (Units=1/GPa)
#
#
# Indices 1 2 3 4 5 6 
#
# 1 0.006591 -0.000953 -0.003421 0.000000 -0.002449 0.000000
# 2 -0.000953 0.013183 -0.004468 0.000000 0.007526 0.000000
# 3 -0.003421 -0.004468 0.018566 0.000000 -0.001646 0.000000
# 4 0.000000 0.000000 0.000000 0.043509 0.000000 0.011287
# 5 -0.002449 0.007526 -0.001646 0.000000 0.036084 0.000000
# 6 0.000000 0.000000 0.000000 0.011287 0.000000 0.035233
#
#
# Mechanical properties :
#
#
# Convention : Reuss Voigt Hill
#
# Bulk Modulus (GPa) = 48.40865 56.68538 52.54701
# Shear Modulus (GPa) = 28.13151 34.73025 31.43088
#
# Velocity S-wave (km/s) = 3.49881 3.88757 3.69830
# Velocity P-wave (km/s) = 6.11455 6.69463 6.41116
#
# Compressibility (1/GPa) = 0.02065747
#
# Stress axis : x y z
#
# Youngs Moduli (GPa) = 151.71166 75.85241 53.86050
#
# Poissons Ratio (x) = 0.07228 0.18426
# Poissons Ratio (y) = 0.14457 0.24065
# Poissons Ratio (z) = 0.51900 0.33891
#
# Static dielectric constant tensor:
#      x y z
#    x 4.765840 0.000000 0.382140 
#    y 0.000000 3.972230 0.000000 
#    z 0.382140 0.000000 3.945610 
# 
# 
# High freq. dielectric constant tensor:
#      x y z
#    x 1.932880 0.000000 0.014890 
#    y 0.000000 1.903440 0.000000 
#    z 0.014890 0.000000 1.898740 
# 
# From -- ./inp_files/125728.got.cif
#   From: 2010.06.25/outbox.cif.g09.slc.cpg/sg15_63_cif.got.tgz:125728.got - 2010.06.28 07:06:18.
