data_PCOD8149851
_publ_section_title
;
Structure prediction by ZEFSAII (Michael W. Deem and Ramdas Pophale) SiO2 
 PCOD8149851
Probable space group: C 2/C
;
_chemical_formula_sum "Si O2"
_cell_formula_units_Z 44
_cell_length_a 13.177447
_cell_length_b 6.453580
_cell_length_c 21.987226
_cell_angle_alpha 90.000000
_cell_angle_beta 86.347966
_cell_angle_gamma 90.000000
_cell_volume 1866.034182
_symmetry_space_group_name_H-M "C 2/C"
_symmetry_group_IT_number 15
_symmetry_cell_setting 'monoclinic'
loop_
_space_group_symop_operation_xyz
x,y,z
-x,y,1/2-z
-x,-y,-z
x,-y,1/2+z
1/2+x,1/2+y,z
1/2-x,1/2+y,1/2-z
1/2-x,1/2-y,-z
1/2+x,1/2-y,1/2+z
loop_
_atom_site_type_symbol
_atom_site_label
_atom_site_fract_x
_atom_site_fract_y
_atom_site_fract_z
Si Si1 0.855946 0.201462 0.814689
Si Si2 0.500000 0.404150 0.750000
Si Si3 0.860717 0.453127 0.216471
Si Si4 0.930880 0.811781 0.982434
Si Si5 0.070269 0.503841 0.409955
Si Si6 0.279304 0.374493 0.439793
O O1 0.869608 0.414803 0.777832
O O2 0.853175 0.244952 0.888529
O O3 0.757166 0.075394 0.795371
O O4 0.951577 0.050021 0.803379
O O5 0.589148 0.270323 0.776536
O O6 0.930852 0.568229 0.161455
O O7 0.979333 0.650413 0.932625
O O8 0.827543 0.903339 0.957106
O O9 0.913418 0.696061 0.046365
O O10 0.000000 0.000000 0.000000
O O11 0.175603 0.381364 0.407207
O O12 0.250000 0.250000 0.500000
#
# Coordination Sequence:
#
# PCOD8149851 Si02
#       6
#     8   4   8   8   8   8
#     4  11  25  45  70  99 138 180 230 284 344 411
#     4  12  24  46  72  98 136 186 226 280 350 402
#     4  11  24  45  69 101 135 179 229 286 342 411
#     4  11  22  41  65  98 132 178 221 272 331 404
#     4  10  24  42  66  97 135 173 222 277 337 398
#     4  11  23  44  67  97 133 177 222 275 339 397
#
# _framework density 23.579418
#
# number of rings (size 3 to 8) (size 9 to 14) (size 15 to 20)
#    0.000    1.091    3.636    2.182    0.000    5.818 
#    3.273    0.000    0.000    0.000    0.000    0.000 
#    0.000    0.000    0.000    0.000    0.000    0.000 
#
# Total GULP energy -272631.674522 kJ/mol
# GULP energy per Si atom -12392.348842 kJ/mol
# Density = 2.352575 g / cm^3
# Si number density = 23.579418 Si / 1000 Ang^3
#
#
#
# Elastic Constant Matrix: (Units=GPa)
#
#
# Indices 1 2 3 4 5 6 
#
# 1 65.9362 33.8071 36.7641 0.0000 -14.8889 0.0000
# 2 33.8071 95.0483 65.8730 0.0000 -17.6103 0.0000
# 3 36.7641 65.8730 198.6301 0.0000 -33.8423 0.0000
# 4 0.0000 0.0000 0.0000 36.3073 0.0000 2.1904
# 5 -14.8889 -17.6103 -33.8423 0.0000 35.1894 0.0000
# 6 0.0000 0.0000 0.0000 2.1904 0.0000 45.9995
#
#
#
# Elastic Compliance Matrix: (Units=1/GPa)
#
#
# Indices 1 2 3 4 5 6 
#
# 1 0.019540 -0.005372 -0.001058 0.000000 0.004562 0.000000
# 2 -0.005372 0.015401 -0.003812 0.000000 0.001768 0.000000
# 3 -0.001058 -0.003812 0.007287 0.000000 0.004653 0.000000
# 4 0.000000 0.000000 0.000000 0.027622 0.000000 -0.001315
# 5 0.004562 0.001768 0.004653 0.000000 0.035708 0.000000
# 6 0.000000 0.000000 0.000000 -0.001315 0.000000 0.021802
#
#
# Mechanical properties :
#
#
# Convention : Reuss Voigt Hill
#
# Bulk Modulus (GPa) = 45.98679 70.27809 58.13244
# Shear Modulus (GPa) = 32.23883 38.37729 35.30806
#
# Velocity S-wave (km/s) = 3.70164 4.03870 3.87384
# Velocity P-wave (km/s) = 6.14937 7.18454 6.68702
#
# Compressibility (1/GPa) = 0.02174537
#
# Stress axis : x y z
#
# Youngs Moduli (GPa) = 51.17598 64.93007 137.22551
#
# Poissons Ratio (x) = 0.34879 0.14518
# Poissons Ratio (y) = 0.27490 0.52311
# Poissons Ratio (z) = 0.05414 0.24752
#
# Static dielectric constant tensor:
#      x y z
#    x 4.370440 0.000000 -0.449130 
#    y 0.000000 3.920590 0.000000 
#    z -0.449130 0.000000 5.053070 
# 
# 
# High freq. dielectric constant tensor:
#      x y z
#    x 1.950430 0.000000 -0.012770 
#    y 0.000000 1.918670 0.000000 
#    z -0.012770 0.000000 1.952450 
# 
# From -- ./inp_files/271881.got.cif
#   From: 2010.06.25/outbox.cif.g09.slc.cpg/sg15_136_cif.got.tgz:271881.got - 2010.06.28 07:06:18.
