data_PCOD8149937
_publ_section_title
;
Structure prediction by ZEFSAII (Michael W. Deem and Ramdas Pophale) SiO2 
 PCOD8149937
Probable space group: C 2/C
;
_chemical_formula_sum "Si O2"
_cell_formula_units_Z 44
_cell_length_a 5.317503
_cell_length_b 18.262994
_cell_length_c 20.100982
_cell_angle_alpha 90.000000
_cell_angle_beta 76.588707
_cell_angle_gamma 90.000000
_cell_volume 1898.844435
_symmetry_space_group_name_H-M "C 2/C"
_symmetry_group_IT_number 15
_symmetry_cell_setting 'monoclinic'
loop_
_space_group_symop_operation_xyz
x,y,z
-x,y,1/2-z
-x,-y,-z
x,-y,1/2+z
1/2+x,1/2+y,z
1/2-x,1/2+y,1/2-z
1/2-x,1/2-y,-z
1/2+x,1/2-y,1/2+z
loop_
_atom_site_type_symbol
_atom_site_label
_atom_site_fract_x
_atom_site_fract_y
_atom_site_fract_z
Si Si1 0.154178 0.933194 0.523240
Si Si2 0.637706 0.320477 0.172316
Si Si3 0.422262 0.040898 0.137084
Si Si4 0.327271 0.897476 0.375724
Si Si5 0.785717 0.838138 0.635055
Si Si6 0.500000 0.409475 0.750000
O O1 0.340469 0.971744 0.565664
O O2 0.309247 0.888989 0.456715
O O3 0.982981 0.870674 0.568949
O O4 0.000000 0.000000 0.500000
O O5 0.500000 0.300904 0.250000
O O6 0.428930 0.364295 0.141245
O O7 0.732381 0.247628 0.128630
O O8 0.900672 0.365851 0.167528
O O9 0.510943 0.124286 0.139770
O O10 0.190555 0.032393 0.203464
O O11 0.654278 0.984830 0.141321
O O12 0.875917 0.854671 0.704239
#
# Coordination Sequence:
#
# PCOD8149937 Si02
#       6
#     8   8   8   8   8   4
#     4  11  24  48  77 111 147 191 253 315 374 440
#     4  12  30  49  71 108 157 198 246 308 377 445
#     4  11  24  45  77 106 145 197 255 315 366 450
#     4  12  28  47  75 110 153 196 242 313 381 439
#     4  11  26  46  79 101 149 199 250 308 368 455
#     4  10  24  42  76 110 138 194 274 300 374 440
#
# _framework density 23.171987999999999
#
# number of rings (size 3 to 8) (size 9 to 14) (size 15 to 20)
#    0.000    0.727    1.818    3.818   14.000    2.909 
#    0.000    0.000    0.000    0.000    0.000    0.000 
#    0.000    0.000    0.000    0.000    0.000    0.000 
#
# Total GULP energy -272765.632961 kJ/mol
# GULP energy per Si atom -12398.437862 kJ/mol
# Density = 2.311925 g / cm^3
# Si number density = 23.171988 Si / 1000 Ang^3
#
#
#
# Elastic Constant Matrix: (Units=GPa)
#
#
# Indices 1 2 3 4 5 6 
#
# 1 106.4170 29.7136 11.0663 0.0000 12.6882 0.0000
# 2 29.7136 103.0371 10.3701 0.0000 4.2983 0.0000
# 3 11.0663 10.3701 99.8995 0.0000 -9.9443 0.0000
# 4 0.0000 0.0000 0.0000 26.4745 0.0000 -4.0773
# 5 12.6882 4.2983 -9.9443 0.0000 29.2535 0.0000
# 6 0.0000 0.0000 0.0000 -4.0773 0.0000 39.5693
#
#
#
# Elastic Compliance Matrix: (Units=1/GPa)
#
#
# Indices 1 2 3 4 5 6 
#
# 1 0.010895 -0.002802 -0.001393 0.000000 -0.004787 0.000000
# 2 -0.002802 0.010626 -0.000856 0.000000 -0.000637 0.000000
# 3 -0.001393 -0.000856 0.010687 0.000000 0.004363 0.000000
# 4 0.000000 0.000000 0.000000 0.038381 0.000000 0.003955
# 5 -0.004787 -0.000637 0.004363 0.000000 0.037837 0.000000
# 6 0.000000 0.000000 0.000000 0.003955 0.000000 0.025680
#
#
# Mechanical properties :
#
#
# Convention : Reuss Voigt Hill
#
# Bulk Modulus (GPa) = 45.23409 45.73928 45.48669
# Shear Modulus (GPa) = 32.98663 36.27304 34.62984
#
# Velocity S-wave (km/s) = 3.77710 3.96078 3.87003
# Velocity P-wave (km/s) = 6.21171 6.37958 6.29620
#
# Compressibility (1/GPa) = 0.02210722
#
# Stress axis : x y z
#
# Youngs Moduli (GPa) = 91.78561 94.10868 93.56749
#
# Poissons Ratio (x) = 0.26369 0.13030
# Poissons Ratio (y) = 0.25718 0.08010
# Poissons Ratio (z) = 0.12782 0.08056
#
# Static dielectric constant tensor:
#      x y z
#    x 4.243180 0.000000 -0.146400 
#    y 0.000000 3.986980 0.000000 
#    z -0.146400 0.000000 4.523000 
# 
# 
# High freq. dielectric constant tensor:
#      x y z
#    x 1.926200 0.000000 -0.011350 
#    y 0.000000 1.907110 0.000000 
#    z -0.011350 0.000000 1.933400 
# 
# From -- ./inp_files/226903.got.cif
#   From: 2010.06.25/outbox.cif.g09.slc.cpg/sg15_114_cif.got.tgz:226903.got - 2010.06.28 07:06:18.
