data_PCOD8149905
_publ_section_title
;
Structure prediction by ZEFSAII (Michael W. Deem and Ramdas Pophale) SiO2 
 PCOD8149905
Probable space group: C 2/C
;
_chemical_formula_sum "Si O2"
_cell_formula_units_Z 44
_cell_length_a 5.120865
_cell_length_b 19.790564
_cell_length_c 23.406153
_cell_angle_alpha 90.000000
_cell_angle_beta 56.395823
_cell_angle_gamma 90.000000
_cell_volume 1975.670147
_symmetry_space_group_name_H-M "C 2/C"
_symmetry_group_IT_number 15
_symmetry_cell_setting 'monoclinic'
loop_
_space_group_symop_operation_xyz
x,y,z
-x,y,1/2-z
-x,-y,-z
x,-y,1/2+z
1/2+x,1/2+y,z
1/2-x,1/2+y,1/2-z
1/2-x,1/2-y,-z
1/2+x,1/2-y,1/2+z
loop_
_atom_site_type_symbol
_atom_site_label
_atom_site_fract_x
_atom_site_fract_y
_atom_site_fract_z
Si Si1 0.328465 0.744934 0.611238
Si Si2 0.757173 0.024667 0.077683
Si Si3 0.102676 0.332976 0.424303
Si Si4 0.000000 0.319955 0.250000
Si Si5 0.214040 0.424678 0.315014
Si Si6 0.766076 0.390612 0.570718
O O1 0.696502 0.723683 0.566027
O O2 0.255784 0.822720 0.608753
O O3 0.155782 0.701343 0.584223
O O4 0.231174 0.729726 0.687858
O O5 0.456906 0.054863 0.083041
O O6 0.921697 0.078514 0.100111
O O7 0.608987 0.965791 0.135670
O O8 0.000000 0.000000 0.000000
O O9 0.310854 0.386608 0.362619
O O10 0.924957 0.378813 0.490972
O O11 0.175587 0.365180 0.274335
O O12 0.500000 0.467563 0.250000
#
# Coordination Sequence:
#
# PCOD8149905 Si02
#       6
#     8   8   8   4   8   8
#     4  11  23  42  68 102 134 179 225 287 354 409
#     4  12  27  44  70 100 142 187 230 284 340 422
#     4  11  22  40  72 100 133 175 228 288 345 411
#     4  10  24  42  70  94 136 172 236 288 344 412
#     4  11  24  43  71  98 136 183 243 279 349 408
#     4  12  25  44  67 104 142 179 226 287 354 408
#
# _framework density 22.270923
#
# number of rings (size 3 to 8) (size 9 to 14) (size 15 to 20)
#    0.000    0.727    3.636    3.818    5.091    0.000 
#    1.636    0.000    0.000    0.000    0.000    0.000 
#    0.000    0.000    0.000    0.000    0.000    0.000 
#
# Total GULP energy -272697.976915 kJ/mol
# GULP energy per Si atom -12395.362587 kJ/mol
# Density = 2.222023 g / cm^3
# Si number density = 22.270923 Si / 1000 Ang^3
#
#
#
# Elastic Constant Matrix: (Units=GPa)
#
#
# Indices 1 2 3 4 5 6 
#
# 1 119.5658 37.8584 33.5348 0.0000 7.2295 0.0000
# 2 37.8584 106.0020 53.7821 0.0000 5.7233 0.0000
# 3 33.5348 53.7821 131.4514 0.0000 0.2400 0.0000
# 4 0.0000 0.0000 0.0000 9.4556 0.0000 -10.4264
# 5 7.2295 5.7233 0.2400 0.0000 29.8268 0.0000
# 6 0.0000 0.0000 0.0000 -10.4264 0.0000 43.4525
#
#
#
# Elastic Compliance Matrix: (Units=1/GPa)
#
#
# Indices 1 2 3 4 5 6 
#
# 1 0.009706 -0.002667 -0.001382 0.000000 -0.001830 0.000000
# 2 -0.002667 0.012790 -0.004549 0.000000 -0.001771 0.000000
# 3 -0.001382 -0.004549 0.009819 0.000000 0.001129 0.000000
# 4 0.000000 0.000000 0.000000 0.143806 0.000000 0.034506
# 5 -0.001830 -0.001771 0.001129 0.000000 0.034301 0.000000
# 6 0.000000 0.000000 0.000000 0.034506 0.000000 0.031293
#
#
# Mechanical properties :
#
#
# Convention : Reuss Voigt Hill
#
# Bulk Modulus (GPa) = 66.13900 67.48556 66.81228
# Shear Modulus (GPa) = 18.94287 32.00324 25.47306
#
# Velocity S-wave (km/s) = 2.91961 3.79489 3.38565
# Velocity P-wave (km/s) = 6.41307 7.04056 6.73412
#
# Compressibility (1/GPa) = 0.01511967
#
# Stress axis : x y z
#
# Youngs Moduli (GPa) = 103.02771 78.18587 101.84166
#
# Poissons Ratio (x) = 0.20850 0.14072
# Poissons Ratio (y) = 0.27474 0.46332
# Poissons Ratio (z) = 0.14236 0.35570
#
# Static dielectric constant tensor:
#      x y z
#    x 4.101150 0.000000 0.008400 
#    y 0.000000 4.048050 0.000000 
#    z 0.008400 0.000000 4.749320 
# 
# 
# High freq. dielectric constant tensor:
#      x y z
#    x 1.886520 0.000000 0.005790 
#    y 0.000000 1.867850 0.000000 
#    z 0.005790 0.000000 1.884950 
# 
# From -- ./inp_files/285965.got.cif
#   From: 2010.06.25/outbox.cif.g09.slc.cpg/sg15_143_cif.got.tgz:285965.got - 2010.06.28 07:06:18.
