data_PCOD8149097
_publ_section_title
;
Structure prediction by ZEFSAII (Michael W. Deem and Ramdas Pophale) SiO2 
 PCOD8149097
Probable space group: C 2/C
;
_chemical_formula_sum "Si O2"
_cell_formula_units_Z 48
_cell_length_a 7.119073
_cell_length_b 11.775718
_cell_length_c 22.611846
_cell_angle_alpha 90.000000
_cell_angle_beta 107.237603
_cell_angle_gamma 90.000000
_cell_volume 1810.458066
_symmetry_space_group_name_H-M "C 2/C"
_symmetry_group_IT_number 15
_symmetry_cell_setting 'monoclinic'
loop_
_space_group_symop_operation_xyz
x,y,z
-x,y,1/2-z
-x,-y,-z
x,-y,1/2+z
1/2+x,1/2+y,z
1/2-x,1/2+y,1/2-z
1/2-x,1/2-y,-z
1/2+x,1/2-y,1/2+z
loop_
_atom_site_type_symbol
_atom_site_label
_atom_site_fract_x
_atom_site_fract_y
_atom_site_fract_z
Si Si1 0.838503 0.341871 0.182982
Si Si2 0.201743 0.107617 0.795083
Si Si3 0.233056 0.486189 0.019359
Si Si4 0.402985 0.710119 0.604746
Si Si5 0.071974 0.900785 0.855289
Si Si6 0.800981 0.542983 0.111210
O O1 0.860630 0.367119 0.256938
O O2 0.610338 0.347736 0.141238
O O3 0.925601 0.223909 0.170547
O O4 0.941731 0.445013 0.153454
O O5 0.250514 0.186114 0.856122
O O6 0.000000 0.155945 0.750000
O O7 0.168617 0.977557 0.812782
O O8 0.308802 0.357781 0.041028
O O9 0.316856 0.581808 0.071613
O O10 0.302357 0.507880 0.957720
O O11 0.000000 0.500000 0.000000
O O12 0.422970 0.846362 0.599666
O O13 0.845696 0.930108 0.848318
#
# Coordination Sequence:
#
# PCOD8149097 Si02
#       6
#     8   8   8   8   8   8
#     4  11  24  43  70  97 133 182 220 277 344 400
#     4   9  19  43  66  91 137 173 214 281 334 392
#     4  11  24  45  69  98 140 181 223 280 342 403
#     4  10  23  44  66  95 136 178 222 278 336 398
#     4  11  24  42  71 100 135 177 229 278 339 401
#     4  12  24  42  70 100 137 171 231 276 338 397
#
# _framework density 26.512627999999999
#
# number of rings (size 3 to 8) (size 9 to 14) (size 15 to 20)
#    0.000    1.333    5.000    2.000    4.667    0.667 
#    0.000    0.000    0.000    0.000    0.000    0.000 
#    0.000    0.000    0.000    0.000    0.000    0.000 
#
# Total GULP energy -297468.282211 kJ/mol
# GULP energy per Si atom -12394.511759 kJ/mol
# Density = 2.645228 g / cm^3
# Si number density = 26.512628 Si / 1000 Ang^3
#
#
#
# Elastic Constant Matrix: (Units=GPa)
#
#
# Indices 1 2 3 4 5 6 
#
# 1 90.7627 27.3076 20.1285 0.0000 -26.5865 0.0000
# 2 27.3076 184.4843 77.2317 0.0000 -14.5012 0.0000
# 3 20.1285 77.2317 169.7453 0.0000 -25.4741 0.0000
# 4 0.0000 0.0000 0.0000 43.9098 0.0000 -3.9017
# 5 -26.5865 -14.5012 -25.4741 0.0000 47.9308 0.0000
# 6 0.0000 0.0000 0.0000 -3.9017 0.0000 33.1890
#
#
#
# Elastic Compliance Matrix: (Units=1/GPa)
#
#
# Indices 1 2 3 4 5 6 
#
# 1 0.013525 -0.001505 0.000150 0.000000 0.007127 0.000000
# 2 -0.001505 0.006872 -0.003001 0.000000 -0.000350 0.000000
# 3 0.000150 -0.003001 0.007732 0.000000 0.003285 0.000000
# 4 0.000000 0.000000 0.000000 0.023014 0.000000 0.002706
# 5 0.007127 -0.000350 0.003285 0.000000 0.026456 0.000000
# 6 0.000000 0.000000 0.000000 0.002706 0.000000 0.030449
#
#
# Mechanical properties :
#
#
# Convention : Reuss Voigt Hill
#
# Bulk Modulus (GPa) = 51.49875 77.14753 64.32314
# Shear Modulus (GPa) = 40.57449 46.36091 43.46770
#
# Velocity S-wave (km/s) = 3.91626 4.18620 4.05348
# Velocity P-wave (km/s) = 6.31790 7.24757 6.79864
#
# Compressibility (1/GPa) = 0.01941795
#
# Stress axis : x y z
#
# Youngs Moduli (GPa) = 73.93902 145.51943 129.33919
#
# Poissons Ratio (x) = 0.21896 -0.01945
# Poissons Ratio (y) = 0.11126 0.38812
# Poissons Ratio (z) = -0.01112 0.43667
#
# Static dielectric constant tensor:
#      x y z
#    x 5.252490 0.000000 -0.142340 
#    y 0.000000 4.765190 0.000000 
#    z -0.142340 0.000000 5.186990 
# 
# 
# High freq. dielectric constant tensor:
#      x y z
#    x 2.091250 0.000000 0.004470 
#    y 0.000000 2.058620 0.000000 
#    z 0.004470 0.000000 2.087700 
# 
# From -- ./inp_files/263558.got.cif
#   From: 2010.06.25/outbox.cif.g09.slc.cpg/sg15_132_cif.got.tgz:263558.got - 2010.06.28 07:06:18.
