data_PCOD8149497
_publ_section_title
;
Structure prediction by ZEFSAII (Michael W. Deem and Ramdas Pophale) SiO2 
 PCOD8149497
Probable space group: C 2/C
;
_chemical_formula_sum "Si O2"
_cell_formula_units_Z 48
_cell_length_a 25.094419
_cell_length_b 5.398582
_cell_length_c 14.547023
_cell_angle_alpha 90.000000
_cell_angle_beta 70.235139
_cell_angle_gamma 90.000000
_cell_volume 1854.647439
_symmetry_space_group_name_H-M "C 2/C"
_symmetry_group_IT_number 15
_symmetry_cell_setting 'monoclinic'
loop_
_space_group_symop_operation_xyz
x,y,z
-x,y,1/2-z
-x,-y,-z
x,-y,1/2+z
1/2+x,1/2+y,z
1/2-x,1/2+y,1/2-z
1/2-x,1/2-y,-z
1/2+x,1/2-y,1/2+z
loop_
_atom_site_type_symbol
_atom_site_label
_atom_site_fract_x
_atom_site_fract_y
_atom_site_fract_z
Si Si1 0.733762 0.119285 0.376047
Si Si2 0.702903 0.877450 0.684142
Si Si3 0.376089 0.750717 0.469222
Si Si4 0.519984 0.056273 0.146096
Si Si5 0.596844 0.406073 0.200864
Si Si6 0.553645 0.391090 0.415407
O O1 0.707017 0.125610 0.291096
O O2 0.772658 0.363993 0.369742
O O3 0.683159 0.113007 0.480105
O O4 0.765359 0.862257 0.375851
O O5 0.637124 0.836174 0.695238
O O6 0.368967 0.608907 0.377434
O O7 0.391172 0.589435 0.551120
O O8 0.431393 0.923548 0.438666
O O9 0.500000 0.904886 0.250000
O O10 0.544454 0.317931 0.169640
O O11 0.466887 0.118876 0.110255
O O12 0.575080 0.529931 0.309585
O O13 0.500000 0.500000 0.500000
#
# Coordination Sequence:
#
# PCOD8149497 Si02
#       6
#     8   8   8   8   8   8
#     4  10  24  45  74 101 144 188 240 287 373 425
#     4  10  23  47  70 106 142 187 235 304 351 439
#     4  12  25  43  72 103 133 193 231 291 358 432
#     4  10  25  43  65 102 142 179 236 293 348 429
#     4  11  25  44  69 104 141 176 246 291 358 420
#     4  11  23  46  69  98 143 189 228 295 355 428
#
# _framework density 25.880928999999998
#
# number of rings (size 3 to 8) (size 9 to 14) (size 15 to 20)
#    0.000    1.333    3.333    0.500    7.000    1.333 
#    3.000    0.000    0.000    0.000    0.000    0.000 
#    0.000    0.000    0.000    0.000    0.000    0.000 
#
# Total GULP energy -297391.760500 kJ/mol
# GULP energy per Si atom -12391.323354 kJ/mol
# Density = 2.582202 g / cm^3
# Si number density = 25.880929 Si / 1000 Ang^3
#
#
#
# Elastic Constant Matrix: (Units=GPa)
#
#
# Indices 1 2 3 4 5 6 
#
# 1 75.8479 7.3712 18.4734 0.0000 0.7569 0.0000
# 2 7.3712 80.6191 21.8882 0.0000 -1.7656 0.0000
# 3 18.4734 21.8882 134.4007 0.0000 -14.1541 0.0000
# 4 0.0000 0.0000 0.0000 19.7195 0.0000 -18.0141
# 5 0.7569 -1.7656 -14.1541 0.0000 45.6240 0.0000
# 6 0.0000 0.0000 0.0000 -18.0141 0.0000 26.7076
#
#
#
# Elastic Compliance Matrix: (Units=1/GPa)
#
#
# Indices 1 2 3 4 5 6 
#
# 1 0.013717 -0.000771 -0.001847 0.000000 -0.000831 0.000000
# 2 -0.000771 0.013022 -0.002027 0.000000 -0.000112 0.000000
# 3 -0.001847 -0.002027 0.008290 0.000000 0.002524 0.000000
# 4 0.000000 0.000000 0.000000 0.132115 0.000000 0.089111
# 5 -0.000831 -0.000112 0.002524 0.000000 0.022711 0.000000
# 6 0.000000 0.000000 0.000000 0.089111 0.000000 0.097547
#
#
# Mechanical properties :
#
#
# Convention : Reuss Voigt Hill
#
# Bulk Modulus (GPa) = 38.84969 42.92592 40.88781
# Shear Modulus (GPa) = 16.37881 34.61920 25.49900
#
# Velocity S-wave (km/s) = 2.51839 3.66134 3.14226
# Velocity P-wave (km/s) = 4.84767 5.87331 5.38496
#
# Compressibility (1/GPa) = 0.02574023
#
# Stress axis : x y z
#
# Youngs Moduli (GPa) = 72.89996 76.79154 120.62377
#
# Poissons Ratio (x) = 0.05919 0.22284
# Poissons Ratio (y) = 0.05619 0.24446
# Poissons Ratio (z) = 0.13468 0.15563
#
# Static dielectric constant tensor:
#      x y z
#    x 4.744140 0.000000 0.121160 
#    y 0.000000 4.244470 0.000000 
#    z 0.121160 0.000000 5.116380 
# 
# 
# High freq. dielectric constant tensor:
#      x y z
#    x 2.048220 0.000000 0.004660 
#    y 0.000000 1.996270 0.000000 
#    z 0.004660 0.000000 2.061340 
# 
# From -- ./inp_files/180009.got.cif
#   From: 2010.06.25/outbox.cif.g09.slc.cpg/sg15_91_cif.got.tgz:180009.got - 2010.06.28 07:06:18.
