data_PCOD8149187
_publ_section_title
;
Structure prediction by ZEFSAII (Michael W. Deem and Ramdas Pophale) SiO2 
 PCOD8149187
Probable space group: C 2/C
;
_chemical_formula_sum "Si O2"
_cell_formula_units_Z 56
_cell_length_a 11.037774
_cell_length_b 8.782474
_cell_length_c 28.889517
_cell_angle_alpha 90.000000
_cell_angle_beta 113.232734
_cell_angle_gamma 90.000000
_cell_volume 2573.426019
_symmetry_space_group_name_H-M "C 2/C"
_symmetry_group_IT_number 15
_symmetry_cell_setting 'monoclinic'
loop_
_space_group_symop_operation_xyz
x,y,z
-x,y,1/2-z
-x,-y,-z
x,-y,1/2+z
1/2+x,1/2+y,z
1/2-x,1/2+y,1/2-z
1/2-x,1/2-y,-z
1/2+x,1/2-y,1/2+z
loop_
_atom_site_type_symbol
_atom_site_label
_atom_site_fract_x
_atom_site_fract_y
_atom_site_fract_z
Si Si1 0.709882 0.882844 0.065297
Si Si2 0.938802 0.502303 0.883061
Si Si3 0.102544 0.150701 0.727155
Si Si4 0.615916 0.449758 0.550332
Si Si5 0.989198 0.153176 0.888332
Si Si6 0.392776 0.005822 0.771310
Si Si7 0.828432 0.404538 0.023508
O O1 0.703487 0.952480 0.116626
O O2 0.622096 0.731009 0.052585
O O3 0.859899 0.859844 0.073698
O O4 0.647566 0.000627 0.019442
O O5 0.952349 0.540583 0.831043
O O6 0.950221 0.323976 0.895134
O O7 0.033169 0.611492 0.928682
O O8 0.247511 0.077150 0.746850
O O9 0.125779 0.327890 0.740437
O O10 0.000000 0.083584 0.750000
O O11 0.030354 0.119220 0.668266
O O12 0.500000 0.500000 0.500000
O O13 0.596564 0.527759 0.597433
O O14 0.753205 0.501708 0.550952
O O15 0.500000 0.071020 0.750000
O O16 0.750000 0.250000 0.000000
#
# Coordination Sequence:
#
# PCOD8149187 Si02
#       7
#     8   8   8   8   8   8   8
#     4  12  24  44  65  95 136 172 224 275 322 396
#     4  11  24  43  66  95 137 172 217 277 332 392
#     4  10  23  44  69  98 135 171 225 280 339 404
#     4  12  23  40  66  96 131 176 221 265 327 392
#     4  11  24  42  67  97 130 178 221 273 336 397
#     4  10  24  45  68 100 133 173 222 281 340 399
#     4  12  24  42  65  97 136 176 219 270 330 401
#
# _framework density 21.760874000000001
#
# number of rings (size 3 to 8) (size 9 to 14) (size 15 to 20)
#    0.000    0.857    2.857    4.286    2.000    2.857 
#    0.000    0.000    0.000    0.000    0.000    0.000 
#    0.000    0.000    0.000    0.000    0.000    0.000 
#
# Total GULP energy -347041.050429 kJ/mol
# GULP energy per Si atom -12394.323230 kJ/mol
# Density = 2.171135 g / cm^3
# Si number density = 21.760874 Si / 1000 Ang^3
#
#
#
# Elastic Constant Matrix: (Units=GPa)
#
#
# Indices 1 2 3 4 5 6 
#
# 1 124.0857 41.8251 43.6967 0.0000 -24.2533 0.0000
# 2 41.8251 98.9430 51.8513 0.0000 -11.2952 0.0000
# 3 43.6967 51.8513 110.8251 0.0000 -17.0684 0.0000
# 4 0.0000 0.0000 0.0000 29.5833 0.0000 -1.5582
# 5 -24.2533 -11.2952 -17.0684 0.0000 47.7774 0.0000
# 6 0.0000 0.0000 0.0000 -1.5582 0.0000 41.3940
#
#
#
# Elastic Compliance Matrix: (Units=1/GPa)
#
#
# Indices 1 2 3 4 5 6 
#
# 1 0.010567 -0.002853 -0.002232 0.000000 0.003892 0.000000
# 2 -0.002853 0.014204 -0.005531 0.000000 -0.000066 0.000000
# 3 -0.002232 -0.005531 0.012821 0.000000 0.002139 0.000000
# 4 0.000000 0.000000 0.000000 0.033870 0.000000 0.001275
# 5 0.003892 -0.000066 0.002139 0.000000 0.023655 0.000000
# 6 0.000000 0.000000 0.000000 0.001275 0.000000 0.024206
#
#
# Mechanical properties :
#
#
# Convention : Reuss Voigt Hill
#
# Bulk Modulus (GPa) = 61.12567 67.62222 64.37395
# Shear Modulus (GPa) = 34.24472 36.84965 35.54718
#
# Velocity S-wave (km/s) = 3.97127 4.11955 4.04609
# Velocity P-wave (km/s) = 7.01275 7.33281 7.17457
#
# Compressibility (1/GPa) = 0.01635974
#
# Stress axis : x y z
#
# Youngs Moduli (GPa) = 94.63012 70.40447 77.99972
#
# Poissons Ratio (x) = 0.20085 0.17412
# Poissons Ratio (y) = 0.26996 0.43140
# Poissons Ratio (z) = 0.21125 0.38939
#
# Static dielectric constant tensor:
#      x y z
#    x 3.794910 0.000000 -0.279750 
#    y 0.000000 3.933280 0.000000 
#    z -0.279750 0.000000 4.051330 
# 
# 
# High freq. dielectric constant tensor:
#      x y z
#    x 1.879020 0.000000 -0.014930 
#    y 0.000000 1.852980 0.000000 
#    z -0.014930 0.000000 1.856090 
# 
# From -- ./inp_files/291641.got.cif
#   From: 2010.06.25/outbox.cif.g09.slc.cpg/sg15_146_cif.got.tgz:291641.got - 2010.06.28 07:06:18.
