data_PCOD8149767
_publ_section_title
;
Structure prediction by ZEFSAII (Michael W. Deem and Ramdas Pophale) SiO2 
 PCOD8149767
Probable space group: C 2/C
;
_chemical_formula_sum "Si O2"
_cell_formula_units_Z 24
_cell_length_a 7.736750
_cell_length_b 26.855113
_cell_length_c 8.521166
_cell_angle_alpha 90.000000
_cell_angle_beta 145.043678
_cell_angle_gamma 90.000000
_cell_volume 1014.384651
_symmetry_space_group_name_H-M "C 2/C"
_symmetry_group_IT_number 15
_symmetry_cell_setting 'monoclinic'
loop_
_space_group_symop_operation_xyz
x,y,z
-x,y,1/2-z
-x,-y,-z
x,-y,1/2+z
1/2+x,1/2+y,z
1/2-x,1/2+y,1/2-z
1/2-x,1/2-y,-z
1/2+x,1/2-y,1/2+z
loop_
_atom_site_type_symbol
_atom_site_label
_atom_site_fract_x
_atom_site_fract_y
_atom_site_fract_z
Si Si1 0.000000 0.214224 0.750000
Si Si2 0.243525 0.363036 0.301807
Si Si3 0.273133 0.070024 0.319460
Si Si4 0.500000 0.005720 0.750000
O O1 0.116530 0.182286 0.689732
O O2 0.750000 0.250000 0.500000
O O3 0.501468 0.391967 0.589797
O O4 0.000000 0.344068 0.250000
O O5 0.086459 0.398886 0.055964
O O6 0.263155 0.041303 0.481364
O O7 0.286886 0.028161 0.197424
#
# Coordination Sequence:
#
# PCOD8149767 Si02
#       4
#     4   8   8   4
#     4  12  28  51  80 108 134 176 232 299 376 444
#     4  12  26  47  73 105 145 184 233 294 361 422
#     4  11  24  43  67 105 148 198 238 290 340 399
#     4  10  24  41  70 100 154 196 254 283 324 404
#
# _framework density 23.659666000000001
#
# number of rings (size 3 to 8) (size 9 to 14) (size 15 to 20)
#    0.000    0.667    1.667    5.000    0.000    9.333 
#    0.000    0.000    0.000    0.000    0.000    0.000 
#    0.000    0.000    0.000    0.000    0.000    0.000 
#
# Total GULP energy -148805.836360 kJ/mol
# GULP energy per Si atom -12400.486363 kJ/mol
# Density = 2.360582 g / cm^3
# Si number density = 23.659666 Si / 1000 Ang^3
#
#
#
# Elastic Constant Matrix: (Units=GPa)
#
#
# Indices 1 2 3 4 5 6 
#
# 1 155.8232 112.7945 87.6147 0.0000 -18.8139 0.0000
# 2 112.7945 183.8870 99.1903 0.0000 -3.6874 0.0000
# 3 87.6147 99.1903 202.9968 0.0000 11.2261 0.0000
# 4 0.0000 0.0000 0.0000 55.6794 0.0000 -6.7915
# 5 -18.8139 -3.6874 11.2261 0.0000 28.0627 0.0000
# 6 0.0000 0.0000 0.0000 -6.7915 0.0000 54.5469
#
#
#
# Elastic Compliance Matrix: (Units=1/GPa)
#
#
# Indices 1 2 3 4 5 6 
#
# 1 0.014599 -0.006847 -0.003525 0.000000 0.010298 0.000000
# 2 -0.006847 0.010767 -0.002178 0.000000 -0.002304 0.000000
# 3 -0.003525 -0.002178 0.007832 0.000000 -0.005782 0.000000
# 4 0.000000 0.000000 0.000000 0.018237 0.000000 0.002271
# 5 0.010298 -0.002304 -0.005782 0.000000 0.044549 0.000000
# 6 0.000000 0.000000 0.000000 0.002271 0.000000 0.018616
#
#
# Mechanical properties :
#
#
# Convention : Reuss Voigt Hill
#
# Bulk Modulus (GPa) = 123.50086 126.87844 125.18965
# Shear Modulus (GPa) = 35.11259 43.86497 39.48878
#
# Velocity S-wave (km/s) = 3.85654 4.31048 4.08981
# Velocity P-wave (km/s) = 8.49369 8.86096 8.67927
#
# Compressibility (1/GPa) = 0.00809711
#
# Stress axis : x y z
#
# Youngs Moduli (GPa) = 68.49660 92.87716 127.68590
#
# Poissons Ratio (x) = 0.63595 0.45008
# Poissons Ratio (y) = 0.46901 0.27814
# Poissons Ratio (z) = 0.24144 0.20232
#
# Static dielectric constant tensor:
#      x y z
#    x 4.616620 0.000000 -0.200540 
#    y 0.000000 3.598290 0.000000 
#    z -0.200540 0.000000 4.607780 
# 
# 
# High freq. dielectric constant tensor:
#      x y z
#    x 1.950670 0.000000 0.002250 
#    y 0.000000 1.932140 0.000000 
#    z 0.002250 0.000000 1.968720 
# 
# From -- ./inp_files/25947.got.cif
#   From: 2010.06.25/outbox.cif.g09.slc.cpg/sg15_13_cif.got.tgz:25947.got - 2010.06.28 07:06:18.
