data_PCOD8149318
_publ_section_title
;
Structure prediction by ZEFSAII (Michael W. Deem and Ramdas Pophale) SiO2 
 PCOD8149318
Probable space group: C 2/C
;
_chemical_formula_sum "Si O2"
_cell_formula_units_Z 44
_cell_length_a 5.922245
_cell_length_b 17.111976
_cell_length_c 18.024975
_cell_angle_alpha 90.000000
_cell_angle_beta 107.992170
_cell_angle_gamma 90.000000
_cell_volume 1737.347960
_symmetry_space_group_name_H-M "C 2/C"
_symmetry_group_IT_number 15
_symmetry_cell_setting 'monoclinic'
loop_
_space_group_symop_operation_xyz
x,y,z
-x,y,1/2-z
-x,-y,-z
x,-y,1/2+z
1/2+x,1/2+y,z
1/2-x,1/2+y,1/2-z
1/2-x,1/2-y,-z
1/2+x,1/2-y,1/2+z
loop_
_atom_site_type_symbol
_atom_site_label
_atom_site_fract_x
_atom_site_fract_y
_atom_site_fract_z
Si Si1 0.500000 0.017797 0.750000
Si Si2 0.802931 0.436435 0.990915
Si Si3 0.391611 0.603561 0.880154
Si Si4 0.293660 0.577975 0.176582
Si Si5 0.103802 0.747972 0.836105
Si Si6 0.656530 0.194570 0.555592
O O1 0.735213 0.067921 0.796597
O O2 0.443389 0.963066 0.815643
O O3 0.639750 0.447723 0.900592
O O4 0.644881 0.447418 0.048518
O O5 0.000000 0.500000 0.000000
O O6 0.923065 0.350235 0.001692
O O7 0.302874 0.691109 0.887661
O O8 0.671233 0.622761 0.897206
O O9 0.500000 0.546956 0.250000
O O10 0.273095 0.671079 0.174729
O O11 0.000000 0.711323 0.750000
O O12 0.902326 0.751133 0.880181
O O13 0.750000 0.250000 0.500000
#
# Coordination Sequence:
#
# PCOD8149318 Si02
#       6
#     4   8   8   8   8   8
#     4  12  26  44  70 114 146 194 244 300 376 446
#     4  11  24  45  67 105 145 186 241 294 369 436
#     4  11  24  45  75 104 147 190 248 306 362 443
#     4  11  26  44  71 101 152 192 241 301 369 446
#     4  10  23  45  67 106 143 189 247 304 361 442
#     4  11  25  44  76 105 138 193 252 306 363 439
#
# _framework density 25.325956000000001
#
# number of rings (size 3 to 8) (size 9 to 14) (size 15 to 20)
#    0.000    1.091    2.727    2.182    2.545   11.636 
#    0.000    0.000    0.000    0.000    0.000    0.000 
#    0.000    0.000    0.000    0.000    0.000    0.000 
#
# Total GULP energy -272583.551121 kJ/mol
# GULP energy per Si atom -12390.161415 kJ/mol
# Density = 2.526831 g / cm^3
# Si number density = 25.325956 Si / 1000 Ang^3
#
#
#
# Elastic Constant Matrix: (Units=GPa)
#
#
# Indices 1 2 3 4 5 6 
#
# 1 66.4268 23.0903 29.3630 0.0000 -14.1036 0.0000
# 2 23.0903 89.7403 20.3137 0.0000 -11.1081 0.0000
# 3 29.3630 20.3137 166.0209 0.0000 -5.2568 0.0000
# 4 0.0000 0.0000 0.0000 33.6549 0.0000 -8.7547
# 5 -14.1036 -11.1081 -5.2568 0.0000 47.8134 0.0000
# 6 0.0000 0.0000 0.0000 -8.7547 0.0000 36.7248
#
#
#
# Elastic Compliance Matrix: (Units=1/GPa)
#
#
# Indices 1 2 3 4 5 6 
#
# 1 0.018401 -0.003596 -0.002678 0.000000 0.004298 0.000000
# 2 -0.003596 0.012474 -0.000835 0.000000 0.001745 0.000000
# 3 -0.002678 -0.000835 0.006591 0.000000 -0.000259 0.000000
# 4 0.000000 0.000000 0.000000 0.031678 0.000000 0.007552
# 5 0.004298 0.001745 -0.000259 0.000000 0.022559 0.000000
# 6 0.000000 0.000000 0.000000 0.007552 0.000000 0.029030
#
#
# Mechanical properties :
#
#
# Convention : Reuss Voigt Hill
#
# Bulk Modulus (GPa) = 43.01764 51.96910 47.49337
# Shear Modulus (GPa) = 35.03863 40.26669 37.65266
#
# Velocity S-wave (km/s) = 3.72359 3.99173 3.85999
# Velocity P-wave (km/s) = 5.95897 6.46605 6.21768
#
# Compressibility (1/GPa) = 0.02324628
#
# Stress axis : x y z
#
# Youngs Moduli (GPa) = 54.34603 80.16920 151.72265
#
# Poissons Ratio (x) = 0.28831 0.40636
# Poissons Ratio (y) = 0.19544 0.12668
# Poissons Ratio (z) = 0.14555 0.06693
#
# Static dielectric constant tensor:
#      x y z
#    x 4.477910 0.000000 0.082300 
#    y 0.000000 4.600030 0.000000 
#    z 0.082300 0.000000 5.201320 
# 
# 
# High freq. dielectric constant tensor:
#      x y z
#    x 1.989550 0.000000 0.000430 
#    y 0.000000 2.024520 0.000000 
#    z 0.000430 0.000000 2.026250 
# 
# From -- ./inp_files/184986.got.cif
#   From: 2010.06.25/outbox.cif.g09.slc.cpg/sg15_93_cif.got.tgz:184986.got - 2010.06.28 07:06:18.
