data_PCOD8149106
_publ_section_title
;
Structure prediction by ZEFSAII (Michael W. Deem and Ramdas Pophale) SiO2 
 PCOD8149106
Probable space group: C 2/C
;
_chemical_formula_sum "Si O2"
_cell_formula_units_Z 56
_cell_length_a 12.187228
_cell_length_b 7.444127
_cell_length_c 32.038451
_cell_angle_alpha 90.000000
_cell_angle_beta 57.409846
_cell_angle_gamma 90.000000
_cell_volume 2448.969128
_symmetry_space_group_name_H-M "C 2/C"
_symmetry_group_IT_number 15
_symmetry_cell_setting 'monoclinic'
loop_
_space_group_symop_operation_xyz
x,y,z
-x,y,1/2-z
-x,-y,-z
x,-y,1/2+z
1/2+x,1/2+y,z
1/2-x,1/2+y,1/2-z
1/2-x,1/2-y,-z
1/2+x,1/2-y,1/2+z
loop_
_atom_site_type_symbol
_atom_site_label
_atom_site_fract_x
_atom_site_fract_y
_atom_site_fract_z
Si Si1 0.896923 0.084330 0.938407
Si Si2 0.276244 0.407002 0.547290
Si Si3 0.306263 0.313157 0.630879
Si Si4 0.356130 0.672762 0.657530
Si Si5 0.525189 0.671232 0.699335
Si Si6 0.565563 0.804779 0.105972
Si Si7 0.420957 0.731807 0.304271
O O1 0.775662 0.205115 0.949049
O O2 0.031033 0.189926 0.900662
O O3 0.890630 0.899366 0.913238
O O4 0.885803 0.047643 0.990268
O O5 0.341360 0.412264 0.579803
O O6 0.161125 0.552919 0.565190
O O7 0.305180 0.465371 0.667261
O O8 0.167386 0.221739 0.654001
O O9 0.418390 0.167197 0.618731
O O10 0.415171 0.736623 0.689683
O O11 0.231818 0.798025 0.674586
O O12 0.500000 0.756208 0.750000
O O13 0.510782 0.458116 0.703173
O O14 0.566197 0.845147 0.155674
O O15 0.500000 0.829004 0.250000
#
# Coordination Sequence:
#
# PCOD8149106 Si02
#       7
#     8   8   8   8   8   8   8
#     4  10  23  44  66  98 139 165 232 272 325 411
#     4  11  22  44  67  97 133 182 214 278 339 384
#     4  11  23  42  64  97 131 169 234 266 330 413
#     4  11  23  43  65  93 135 171 213 282 323 392
#     4  11  25  42  65  96 131 174 220 278 331 393
#     4  11  23  43  66  98 134 176 222 275 332 397
#     4  11  24  43  65  94 133 172 219 275 332 391
#
# _framework density 22.866762000000001
#
# number of rings (size 3 to 8) (size 9 to 14) (size 15 to 20)
#    0.000    1.143    5.714    0.429    4.000    2.857 
#    2.571    1.429    0.000    0.000    0.000    0.000 
#    0.000    0.000    0.000    0.000    0.000    0.000 
#
# Total GULP energy -347166.971470 kJ/mol
# GULP energy per Si atom -12398.820410 kJ/mol
# Density = 2.281472 g / cm^3
# Si number density = 22.866762 Si / 1000 Ang^3
#
#
#
# Elastic Constant Matrix: (Units=GPa)
#
#
# Indices 1 2 3 4 5 6 
#
# 1 147.5232 2.9698 51.4020 0.0000 13.3245 0.0000
# 2 2.9698 35.4303 12.6516 0.0000 1.6142 0.0000
# 3 51.4020 12.6516 168.2549 0.0000 14.8848 0.0000
# 4 0.0000 0.0000 0.0000 16.7565 0.0000 -4.4304
# 5 13.3245 1.6142 14.8848 0.0000 33.9583 0.0000
# 6 0.0000 0.0000 0.0000 -4.4304 0.0000 29.0828
#
#
#
# Elastic Compliance Matrix: (Units=1/GPa)
#
#
# Indices 1 2 3 4 5 6 
#
# 1 0.007726 0.000231 -0.002194 0.000000 -0.002081 0.000000
# 2 0.000231 0.029016 -0.002208 0.000000 -0.000502 0.000000
# 3 -0.002194 -0.002208 0.006964 0.000000 -0.002087 0.000000
# 4 0.000000 0.000000 0.000000 0.062183 0.000000 0.009473
# 5 -0.002081 -0.000502 -0.002087 0.000000 0.031203 0.000000
# 6 0.000000 0.000000 0.000000 0.009473 0.000000 0.035828
#
#
# Mechanical properties :
#
#
# Convention : Reuss Voigt Hill
#
# Bulk Modulus (GPa) = 28.27664 53.91722 41.09693
# Shear Modulus (GPa) = 25.89995 34.90519 30.40257
#
# Velocity S-wave (km/s) = 3.36913 3.91123 3.65026
# Velocity P-wave (km/s) = 5.24666 6.63529 5.98141
#
# Compressibility (1/GPa) = 0.03536488
#
# Stress axis : x y z
#
# Youngs Moduli (GPa) = 129.42899 34.46331 143.59265
#
# Poissons Ratio (x) = -0.00794 0.31499
# Poissons Ratio (y) = -0.02983 0.31703
# Poissons Ratio (z) = 0.28392 0.07609
#
# Static dielectric constant tensor:
#      x y z
#    x 4.059560 0.000000 0.104120 
#    y 0.000000 3.794120 0.000000 
#    z 0.104120 0.000000 4.554940 
# 
# 
# High freq. dielectric constant tensor:
#      x y z
#    x 1.905040 0.000000 0.002780 
#    y 0.000000 1.883190 0.000000 
#    z 0.002780 0.000000 1.910120 
# 
# From -- ./inp_files/310236.got.cif
#   From: 2010.06.25/outbox.cif.g09.slc.cpg/sg15_156_cif.got.tgz:310236.got - 2010.06.28 07:06:18.
