data_PCOD8149008
_publ_section_title
;
Structure prediction by ZEFSAII (Michael W. Deem and Ramdas Pophale) SiO2 
 PCOD8149008
Probable space group: C 2/C
;
_chemical_formula_sum "Si O2"
_cell_formula_units_Z 56
_cell_length_a 9.035310
_cell_length_b 11.937539
_cell_length_c 25.186324
_cell_angle_alpha 90.000000
_cell_angle_beta 118.915458
_cell_angle_gamma 90.000000
_cell_volume 2377.915944
_symmetry_space_group_name_H-M "C 2/C"
_symmetry_group_IT_number 15
_symmetry_cell_setting 'monoclinic'
loop_
_space_group_symop_operation_xyz
x,y,z
-x,y,1/2-z
-x,-y,-z
x,-y,1/2+z
1/2+x,1/2+y,z
1/2-x,1/2+y,1/2-z
1/2-x,1/2-y,-z
1/2+x,1/2-y,1/2+z
loop_
_atom_site_type_symbol
_atom_site_label
_atom_site_fract_x
_atom_site_fract_y
_atom_site_fract_z
Si Si1 0.606986 0.607182 0.090798
Si Si2 0.500000 0.305963 0.250000
Si Si3 0.212906 0.011352 0.313242
Si Si4 0.494276 0.156969 0.955528
Si Si5 0.235958 0.960340 0.930716
Si Si6 0.300985 0.320743 0.776345
Si Si7 0.000000 0.644202 0.750000
Si Si8 0.409667 0.043905 0.632257
O O1 0.564271 0.715360 0.047512
O O2 0.437440 0.530811 0.065768
O O3 0.675547 0.650861 0.158637
O O4 0.754258 0.535977 0.087733
O O5 0.633653 0.386284 0.304212
O O6 0.392145 0.220839 0.268142
O O7 0.178339 0.079515 0.361638
O O8 0.135917 0.075968 0.249121
O O9 0.412052 0.018274 0.337397
O O10 0.332499 0.078371 0.940074
O O11 0.574252 0.139764 0.910365
O O12 0.640508 0.132719 0.023571
O O13 0.405176 0.211663 0.778828
O O14 0.125692 0.575454 0.811304
#
# Coordination Sequence:
#
# PCOD8149008 Si02
#       8
#     8   4   8   8   8   8   4   8
#     4  12  23  43  66  96 128 172 209 268 324 380
#     4  12  23  43  64  90 134 174 199 267 316 384
#     4  11  23  42  61  96 127 167 214 262 311 388
#     4  10  23  48  65  94 130 170 215 269 318 375
#     4  10  23  43  71  92 129 171 217 266 317 378
#     4  12  24  38  66  94 129 169 213 252 333 381
#     4  12  21  41  58  96 132 164 203 273 310 384
#     4  11  24  41  63  93 134 161 216 266 314 383
#
# _framework density 23.550032999999999
#
# number of rings (size 3 to 8) (size 9 to 14) (size 15 to 20)
#    0.000    0.857    2.857    5.143    2.000    0.571 
#    0.000    7.857    0.000    0.000    0.000    0.000 
#    0.000    0.000    0.000    0.000    0.000    0.000 
#
# Total GULP energy -346976.508310 kJ/mol
# GULP energy per Si atom -12392.018154 kJ/mol
# Density = 2.349643 g / cm^3
# Si number density = 23.550033 Si / 1000 Ang^3
#
#
#
# Elastic Constant Matrix: (Units=GPa)
#
#
# Indices 1 2 3 4 5 6 
#
# 1 101.3552 25.5967 -6.4965 0.0000 30.8768 0.0000
# 2 25.5967 63.6237 -8.1191 0.0000 6.2579 0.0000
# 3 -6.4965 -8.1191 58.6708 0.0000 3.1824 0.0000
# 4 0.0000 0.0000 0.0000 46.7042 0.0000 2.3531
# 5 30.8768 6.2579 3.1824 0.0000 34.3159 0.0000
# 6 0.0000 0.0000 0.0000 2.3531 0.0000 33.6045
#
#
#
# Elastic Compliance Matrix: (Units=1/GPa)
#
#
# Indices 1 2 3 4 5 6 
#
# 1 0.015052 -0.004569 0.001733 0.000000 -0.012871 0.000000
# 2 -0.004569 0.017730 0.001910 0.000000 0.000700 0.000000
# 3 0.001733 0.001910 0.017693 0.000000 -0.003548 0.000000
# 4 0.000000 0.000000 0.000000 0.021487 0.000000 -0.001505
# 5 -0.012871 0.000700 -0.003548 0.000000 0.040924 0.000000
# 6 0.000000 0.000000 0.000000 -0.001505 0.000000 0.029863
#
#
# Mechanical properties :
#
#
# Convention : Reuss Voigt Hill
#
# Bulk Modulus (GPa) = 20.56649 27.29021 23.92835
# Shear Modulus (GPa) = 31.09270 37.10284 34.09777
#
# Velocity S-wave (km/s) = 3.63751 3.97355 3.80924
# Velocity P-wave (km/s) = 5.13751 5.71537 5.43413
#
# Compressibility (1/GPa) = 0.04862278
#
# Stress axis : x y z
#
# Youngs Moduli (GPa) = 66.43543 56.40082 56.52009
#
# Poissons Ratio (x) = 0.25767 -0.09793
# Poissons Ratio (y) = 0.30352 -0.10794
# Poissons Ratio (z) = -0.11511 -0.10771
#
# Static dielectric constant tensor:
#      x y z
#    x 4.342300 0.000000 0.081370 
#    y 0.000000 4.109720 0.000000 
#    z 0.081370 0.000000 4.387130 
# 
# 
# High freq. dielectric constant tensor:
#      x y z
#    x 1.942000 0.000000 0.016240 
#    y 0.000000 1.916920 0.000000 
#    z 0.016240 0.000000 1.931780 
# 
# From -- ./inp_files/287987.got.cif
#   From: 2010.06.25/outbox.cif.g09.slc.cpg/sg15_144_cif.got.tgz:287987.got - 2010.06.28 07:06:18.
