data_PCOD8149464
_publ_section_title
;
Structure prediction by ZEFSAII (Michael W. Deem and Ramdas Pophale) SiO2 
 PCOD8149464
Probable space group: C 2/C
;
_chemical_formula_sum "Si O2"
_cell_formula_units_Z 48
_cell_length_a 15.006487
_cell_length_b 9.288901
_cell_length_c 14.996838
_cell_angle_alpha 90.000000
_cell_angle_beta 68.090653
_cell_angle_gamma 90.000000
_cell_volume 1939.482748
_symmetry_space_group_name_H-M "C 2/C"
_symmetry_group_IT_number 15
_symmetry_cell_setting 'monoclinic'
loop_
_space_group_symop_operation_xyz
x,y,z
-x,y,1/2-z
-x,-y,-z
x,-y,1/2+z
1/2+x,1/2+y,z
1/2-x,1/2+y,1/2-z
1/2-x,1/2-y,-z
1/2+x,1/2-y,1/2+z
loop_
_atom_site_type_symbol
_atom_site_label
_atom_site_fract_x
_atom_site_fract_y
_atom_site_fract_z
Si Si1 0.877349 0.013888 0.857059
Si Si2 0.760106 0.500527 0.818379
Si Si3 0.091164 0.695586 0.655590
Si Si4 0.996069 0.331987 0.007555
Si Si5 0.436369 0.390696 0.145692
Si Si6 0.216952 0.318357 0.365879
O O1 0.905049 0.111353 0.760264
O O2 0.777647 0.094487 0.921001
O O3 0.962306 0.020954 0.898852
O O4 0.863076 0.848906 0.830552
O O5 0.828160 0.571771 0.868301
O O6 0.648090 0.536192 0.881013
O O7 0.793952 0.570938 0.712581
O O8 0.771153 0.327920 0.814760
O O9 0.000000 0.654555 0.750000
O O10 0.060049 0.718203 0.566166
O O11 0.886794 0.278328 0.057542
O O12 0.000000 0.500000 0.000000
O O13 0.042557 0.267870 0.900303
#
# Coordination Sequence:
#
# PCOD8149464 Si02
#       6
#     8   8   8   8   8   8
#     4  10  23  46  79 100 141 202 247 286 366 450
#     4  11  24  44  77 104 142 203 245 299 356 450
#     4  12  24  48  75 108 144 195 248 294 365 442
#     4  12  30  47  72 114 155 185 244 318 365 424
#     4  10  23  46  72 104 146 188 242 297 369 422
#     4  11  25  45  74 108 148 191 252 295 368 437
#
# _framework density 24.748866
#
# number of rings (size 3 to 8) (size 9 to 14) (size 15 to 20)
#    0.000    1.000    3.333    3.000    9.333    4.000 
#    0.000    0.000    0.000    0.000    0.000    0.000 
#    0.000    0.000    0.000    0.000    0.000    0.000 
#
# Total GULP energy -297493.977497 kJ/mol
# GULP energy per Si atom -12395.582396 kJ/mol
# Density = 2.469254 g / cm^3
# Si number density = 24.748866 Si / 1000 Ang^3
#
#
#
# Elastic Constant Matrix: (Units=GPa)
#
#
# Indices 1 2 3 4 5 6 
#
# 1 177.5709 42.4233 9.8956 0.0000 -12.6657 0.0000
# 2 42.4233 164.9340 31.8085 0.0000 -7.0108 0.0000
# 3 9.8956 31.8085 60.8921 0.0000 -4.4997 0.0000
# 4 0.0000 0.0000 0.0000 161.0035 0.0000 3.4782
# 5 -12.6657 -7.0108 -4.4997 0.0000 16.9658 0.0000
# 6 0.0000 0.0000 0.0000 3.4782 0.0000 37.6399
#
#
#
# Elastic Compliance Matrix: (Units=1/GPa)
#
#
# Indices 1 2 3 4 5 6 
#
# 1 0.006267 -0.001445 0.000039 0.000000 0.004091 0.000000
# 2 -0.001445 0.007136 -0.003421 0.000000 0.000962 0.000000
# 3 0.000039 -0.003421 0.018463 0.000000 0.003512 0.000000
# 4 0.000000 0.000000 0.000000 0.006223 0.000000 -0.000575
# 5 0.004091 0.000962 0.003512 0.000000 0.063325 0.000000
# 6 0.000000 0.000000 0.000000 -0.000575 0.000000 0.026621
#
#
# Mechanical properties :
#
#
# Convention : Reuss Voigt Hill
#
# Bulk Modulus (GPa) = 45.02617 63.51687 54.27152
# Shear Modulus (GPa) = 34.46057 64.40648 49.43352
#
# Velocity S-wave (km/s) = 3.73555 5.10691 4.47408
# Velocity P-wave (km/s) = 6.06947 7.77781 6.97613
#
# Compressibility (1/GPa) = 0.02220930
#
# Stress axis : x y z
#
# Youngs Moduli (GPa) = 159.57796 140.14310 54.16248
#
# Poissons Ratio (x) = 0.20257 -0.00211
# Poissons Ratio (y) = 0.23066 0.18531
# Poissons Ratio (z) = -0.00623 0.47949
#
# Static dielectric constant tensor:
#      x y z
#    x 5.672470 0.000000 0.019270 
#    y 0.000000 4.488480 0.000000 
#    z 0.019270 0.000000 4.381300 
# 
# 
# High freq. dielectric constant tensor:
#      x y z
#    x 2.007720 0.000000 -0.008300 
#    y 0.000000 1.989950 0.000000 
#    z -0.008300 0.000000 1.951420 
# 
# From -- ./inp_files/208924.got.cif
#   From: 2010.06.25/outbox.cif.g09.slc.cpg/sg15_105_cif.got.tgz:208924.got - 2010.06.28 07:06:18.
