data_PCOD8149965
_publ_section_title
;
Structure prediction by ZEFSAII (Michael W. Deem and Ramdas Pophale) SiO2 
 PCOD8149965
Probable space group: C 2/C
;
_chemical_formula_sum "Si O2"
_cell_formula_units_Z 60
_cell_length_a 13.578736
_cell_length_b 16.990313
_cell_length_c 11.667550
_cell_angle_alpha 90.000000
_cell_angle_beta 88.054578
_cell_angle_gamma 90.000000
_cell_volume 2690.233666
_symmetry_space_group_name_H-M "C 2/C"
_symmetry_group_IT_number 15
_symmetry_cell_setting 'monoclinic'
loop_
_space_group_symop_operation_xyz
x,y,z
-x,y,1/2-z
-x,-y,-z
x,-y,1/2+z
1/2+x,1/2+y,z
1/2-x,1/2+y,1/2-z
1/2-x,1/2-y,-z
1/2+x,1/2-y,1/2+z
loop_
_atom_site_type_symbol
_atom_site_label
_atom_site_fract_x
_atom_site_fract_y
_atom_site_fract_z
Si Si1 0.512253 0.646353 0.528336
Si Si2 0.151770 0.072260 0.337126
Si Si3 0.502315 0.079369 0.878457
Si Si4 0.164881 0.268370 0.593508
Si Si5 0.385367 0.216157 0.980357
Si Si6 0.000000 0.039552 0.750000
Si Si7 0.147678 0.553985 0.056686
Si Si8 0.755238 0.213420 0.312084
O O1 0.563053 0.602847 0.420531
O O2 0.569514 0.723119 0.563194
O O3 0.411642 0.690606 0.497408
O O4 0.501353 0.588415 0.633893
O O5 0.237089 0.034117 0.417585
O O6 0.191577 0.140917 0.254037
O O7 0.101650 0.009785 0.253531
O O8 0.500000 0.111170 0.750000
O O9 0.470848 0.151966 0.960928
O O10 0.425823 0.006659 0.879337
O O11 0.611440 0.054121 0.923229
O O12 0.250000 0.250000 0.500000
O O13 0.134846 0.359054 0.606942
O O14 0.197163 0.238019 0.717251
O O15 0.327004 0.221079 0.862708
O O16 0.318612 0.182699 0.086287
#
# Coordination Sequence:
#
# PCOD8149965 Si02
#       8
#     8   8   8   8   8   4   8   8
#     4  12  24  44  71 104 136 183 237 293 356 418
#     4  11  25  46  73  95 145 189 235 294 358 437
#     4  11  26  42  70 105 140 194 234 291 358 429
#     4  11  21  43  72  99 132 187 236 279 348 425
#     4  11  25  42  69 104 143 176 238 300 348 420
#     4  12  28  44  68 110 136 190 238 302 360 426
#     4  10  24  44  63 104 140 178 238 288 353 411
#     4  10  24  43  66 104 138 186 229 294 356 413
#
# _framework density 22.302894999999999
#
# number of rings (size 3 to 8) (size 9 to 14) (size 15 to 20)
#    0.000    1.067    4.000    2.000    3.733    9.600 
#    1.200    0.000    0.000    0.000    0.000    0.000 
#    0.000    0.000    0.000    0.000    0.000    0.000 
#
# Total GULP energy -371671.872709 kJ/mol
# GULP energy per Si atom -12389.062424 kJ/mol
# Density = 2.225213 g / cm^3
# Si number density = 22.302895 Si / 1000 Ang^3
#
#
#
# Elastic Constant Matrix: (Units=GPa)
#
#
# Indices 1 2 3 4 5 6 
#
# 1 79.0525 16.0716 28.0051 0.0000 7.7048 0.0000
# 2 16.0716 80.7958 23.2942 0.0000 -6.4902 0.0000
# 3 28.0051 23.2942 134.7940 0.0000 1.1748 0.0000
# 4 0.0000 0.0000 0.0000 33.3551 0.0000 6.3140
# 5 7.7048 -6.4902 1.1748 0.0000 41.4537 0.0000
# 6 0.0000 0.0000 0.0000 6.3140 0.0000 14.1073
#
#
#
# Elastic Compliance Matrix: (Units=1/GPa)
#
#
# Indices 1 2 3 4 5 6 
#
# 1 0.014317 -0.002352 -0.002542 0.000000 -0.002957 0.000000
# 2 -0.002352 0.013598 -0.001884 0.000000 0.002620 0.000000
# 3 -0.002542 -0.001884 0.008273 0.000000 -0.000057 0.000000
# 4 0.000000 0.000000 0.000000 0.032756 0.000000 -0.014660
# 5 -0.002957 0.002620 -0.000057 0.000000 0.025085 0.000000
# 6 0.000000 0.000000 0.000000 -0.014660 0.000000 0.077447
#
#
# Mechanical properties :
#
#
# Convention : Reuss Voigt Hill
#
# Bulk Modulus (GPa) = 44.18745 47.70934 45.94840
# Shear Modulus (GPa) = 25.96368 32.93466 29.44917
#
# Velocity S-wave (km/s) = 3.41565 3.84695 3.63770
# Velocity P-wave (km/s) = 5.95071 6.41639 6.18793
#
# Compressibility (1/GPa) = 0.02263086
#
# Stress axis : x y z
#
# Youngs Moduli (GPa) = 69.84744 73.53774 120.87531
#
# Poissons Ratio (x) = 0.17300 0.30729
# Poissons Ratio (y) = 0.16432 0.22774
# Poissons Ratio (z) = 0.17757 0.13855
#
# Static dielectric constant tensor:
#      x y z
#    x 4.349020 0.000000 0.453240 
#    y 0.000000 3.963200 0.000000 
#    z 0.453240 0.000000 4.158280 
# 
# 
# High freq. dielectric constant tensor:
#      x y z
#    x 1.883860 0.000000 0.027320 
#    y 0.000000 1.875390 0.000000 
#    z 0.027320 0.000000 1.885840 
# 
# From -- ./inp_files/98328.got.cif
#   From: 2010.06.25/outbox.cif.g09.slc.cpg/sg15_50_cif.got.tgz:98328.got - 2010.06.28 07:06:18.
