data_PCOD8149504
_publ_section_title
;
Structure prediction by ZEFSAII (Michael W. Deem and Ramdas Pophale) SiO2 
 PCOD8149504
Probable space group: C 2/C
;
_chemical_formula_sum "Si O2"
_cell_formula_units_Z 28
_cell_length_a 21.767211
_cell_length_b 7.242211
_cell_length_c 9.856564
_cell_angle_alpha 90.000000
_cell_angle_beta 46.680241
_cell_angle_gamma 90.000000
_cell_volume 1130.457180
_symmetry_space_group_name_H-M "C 2/C"
_symmetry_group_IT_number 15
_symmetry_cell_setting 'monoclinic'
loop_
_space_group_symop_operation_xyz
x,y,z
-x,y,1/2-z
-x,-y,-z
x,-y,1/2+z
1/2+x,1/2+y,z
1/2-x,1/2+y,1/2-z
1/2-x,1/2-y,-z
1/2+x,1/2-y,1/2+z
loop_
_atom_site_type_symbol
_atom_site_label
_atom_site_fract_x
_atom_site_fract_y
_atom_site_fract_z
Si Si1 0.500000 0.370725 0.750000
Si Si2 0.916724 0.393710 0.168521
Si Si3 0.647659 0.410417 0.917377
Si Si4 0.749139 0.472296 0.513996
O O1 0.563147 0.254517 0.746717
O O2 0.557381 0.489535 0.561967
O O3 0.873809 0.295821 0.102689
O O4 0.847018 0.532659 0.340602
O O5 0.000000 0.500000 0.000000
O O6 0.710968 0.520066 0.719283
O O7 0.692208 0.411155 0.995620
O O8 0.750000 0.250000 0.500000
#
# Coordination Sequence:
#
# PCOD8149504 Si02
#       4
#     4   8   8   8
#     4  12  24  48  72 108 150 192 254 298 368 446
#     4  11  27  46  73 111 151 188 246 314 366 437
#     4  11  23  48  76 101 150 200 242 300 370 444
#     4  10  23  47  72 107 145 191 248 300 361 445
#
# _framework density 24.768740000000001
#
# number of rings (size 3 to 8) (size 9 to 14) (size 15 to 20)
#    0.000    1.143    5.714    0.857    4.000    1.143 
#    5.143    7.143    0.000    0.000    0.000    0.000 
#    0.000    0.000    0.000    0.000    0.000    0.000 
#
# Total GULP energy -173555.306594 kJ/mol
# GULP energy per Si atom -12396.807614 kJ/mol
# Density = 2.471237 g / cm^3
# Si number density = 24.768740 Si / 1000 Ang^3
#
#
#
# Elastic Constant Matrix: (Units=GPa)
#
#
# Indices 1 2 3 4 5 6 
#
# 1 93.9753 6.3717 54.1958 0.0000 -23.2291 0.0000
# 2 6.3717 39.7201 40.7171 0.0000 -14.6186 0.0000
# 3 54.1958 40.7171 226.5788 0.0000 -38.2466 0.0000
# 4 0.0000 0.0000 0.0000 29.7860 0.0000 -8.5387
# 5 -23.2291 -14.6186 -38.2466 0.0000 53.4486 0.0000
# 6 0.0000 0.0000 0.0000 -8.5387 0.0000 40.6250
#
#
#
# Elastic Compliance Matrix: (Units=1/GPa)
#
#
# Indices 1 2 3 4 5 6 
#
# 1 0.013201 0.002412 -0.002856 0.000000 0.004353 0.000000
# 2 0.002412 0.032568 -0.005401 0.000000 0.006091 0.000000
# 3 -0.002856 -0.005401 0.006379 0.000000 0.001846 0.000000
# 4 0.000000 0.000000 0.000000 0.035725 0.000000 0.007509
# 5 0.004353 0.006091 0.001846 0.000000 0.023588 0.000000
# 6 0.000000 0.000000 0.000000 0.007509 0.000000 0.026194
#
#
# Mechanical properties :
#
#
# Convention : Reuss Voigt Hill
#
# Bulk Modulus (GPa) = 24.71756 62.53816 43.62786
# Shear Modulus (GPa) = 30.70668 42.03789 36.37229
#
# Velocity S-wave (km/s) = 3.52481 4.12420 3.83623
# Velocity P-wave (km/s) = 5.15429 6.92693 6.10528
#
# Compressibility (1/GPa) = 0.04045707
#
# Stress axis : x y z
#
# Youngs Moduli (GPa) = 75.75334 30.70506 156.76631
#
# Poissons Ratio (x) = -0.07407 0.44776
# Poissons Ratio (y) = -0.18275 0.84677
# Poissons Ratio (z) = 0.21637 0.16585
#
# Static dielectric constant tensor:
#      x y z
#    x 4.488990 0.000000 -0.371690 
#    y 0.000000 4.151160 0.000000 
#    z -0.371690 0.000000 5.251860 
# 
# 
# High freq. dielectric constant tensor:
#      x y z
#    x 1.993010 0.000000 -0.017450 
#    y 0.000000 1.954330 0.000000 
#    z -0.017450 0.000000 2.019360 
# 
# From -- ./inp_files/45402.got.cif
#   From: 2010.06.25/outbox.cif.g09.slc.cpg/sg15_23_cif.got.tgz:45402.got - 2010.06.28 07:06:18.
