data_PCOD8149556
_publ_section_title
;
Structure prediction by ZEFSAII (Michael W. Deem and Ramdas Pophale) SiO2 
 PCOD8149556
Probable space group: C 2/C
;
_chemical_formula_sum "Si O2"
_cell_formula_units_Z 60
_cell_length_a 20.913749
_cell_length_b 18.428761
_cell_length_c 8.730172
_cell_angle_alpha 90.000000
_cell_angle_beta 117.792857
_cell_angle_gamma 90.000000
_cell_volume 2976.575934
_symmetry_space_group_name_H-M "C 2/C"
_symmetry_group_IT_number 15
_symmetry_cell_setting 'monoclinic'
loop_
_space_group_symop_operation_xyz
x,y,z
-x,y,1/2-z
-x,-y,-z
x,-y,1/2+z
1/2+x,1/2+y,z
1/2-x,1/2+y,1/2-z
1/2-x,1/2-y,-z
1/2+x,1/2-y,1/2+z
loop_
_atom_site_type_symbol
_atom_site_label
_atom_site_fract_x
_atom_site_fract_y
_atom_site_fract_z
Si Si1 0.137472 0.277169 0.037862
Si Si2 0.580958 0.576731 0.125641
Si Si3 0.262562 0.208538 0.357457
Si Si4 0.257141 0.556784 0.260356
Si Si5 0.758184 0.406445 0.406917
Si Si6 0.480522 0.723203 0.394737
Si Si7 0.129842 0.796383 0.209824
Si Si8 0.500000 0.474984 0.250000
O O1 0.194887 0.220727 0.170793
O O2 0.175151 0.354927 0.064320
O O3 0.063566 0.283738 0.056401
O O4 0.115885 0.242779 0.853640
O O5 0.657739 0.552171 0.154313
O O6 0.576813 0.657605 0.188925
O O7 0.561482 0.524573 0.244034
O O8 0.530753 0.574619 0.919188
O O9 0.250000 0.250000 0.500000
O O10 0.271408 0.121253 0.384528
O O11 0.335211 0.238676 0.365297
O O12 0.228028 0.478660 0.176288
O O13 0.233688 0.573979 0.406624
O O14 0.680599 0.368068 0.282796
O O15 0.500000 0.756020 0.250000
O O16 0.550795 0.687570 0.553722
#
# Coordination Sequence:
#
# PCOD8149556 Si02
#       8
#     8   8   8   8   8   8   8   4
#     4  11  22  46  64  89 130 174 220 266 319 391
#     4  11  23  37  56  86 130 169 208 249 307 394
#     4  11  22  39  64  94 130 169 219 271 312 377
#     4  12  24  40  63  94 131 169 218 262 328 381
#     4  11  25  41  64  98 129 172 216 268 323 395
#     4  12  25  39  65  98 125 165 221 270 326 385
#     4  11  23  42  66  90 131 174 213 263 322 389
#     4  10  24  36  50  80 136 180 198 242 308 388
#
# _framework density 20.157389999999999
#
# number of rings (size 3 to 8) (size 9 to 14) (size 15 to 20)
#    0.000    0.800    4.667    2.800   11.200    0.000 
#    0.000    0.000    0.000    0.800    0.000    0.000 
#    0.000    0.000    0.000    0.000    0.000    0.000 
#
# Total GULP energy -371934.778621 kJ/mol
# GULP energy per Si atom -12397.825954 kJ/mol
# Density = 2.011151 g / cm^3
# Si number density = 20.157390 Si / 1000 Ang^3
#
#
#
# Elastic Constant Matrix: (Units=GPa)
#
#
# Indices 1 2 3 4 5 6 
#
# 1 121.6382 49.0319 40.4717 0.0000 -29.7051 0.0000
# 2 49.0319 139.0973 37.2138 0.0000 -12.6054 0.0000
# 3 40.4717 37.2138 74.4302 0.0000 -18.6935 0.0000
# 4 0.0000 0.0000 0.0000 -13.1793 0.0000 -27.1485
# 5 -29.7051 -12.6054 -18.6935 0.0000 31.1010 0.0000
# 6 0.0000 0.0000 0.0000 -27.1485 0.0000 -0.7439
#
#
#
# Elastic Compliance Matrix: (Units=1/GPa)
#
#
# Indices 1 2 3 4 5 6 
#
# 1 0.012599 -0.002768 -0.003211 0.000000 0.008981 0.000000
# 2 -0.002768 0.008935 -0.003200 0.000000 -0.000946 0.000000
# 3 -0.003211 -0.003200 0.018474 0.000000 0.006740 0.000000
# 4 0.000000 0.000000 0.000000 0.001023 0.000000 -0.037331
# 5 0.008981 -0.000946 0.006740 0.000000 0.044400 0.000000
# 6 0.000000 0.000000 0.000000 -0.037331 0.000000 0.018122
#
#
# Mechanical properties :
#
#
# Convention : Reuss Voigt Hill
#
# Bulk Modulus (GPa) = 46.18846 65.40008 55.79427
# Shear Modulus (GPa) = 38.72151 17.33211 28.02681
#
# Velocity S-wave (km/s) = 4.38763 2.93548 3.73285
# Velocity P-wave (km/s) = 6.97367 6.63359 6.80575
#
# Compressibility (1/GPa) = 0.02165043
#
# Stress axis : x y z
#
# Youngs Moduli (GPa) = 79.37444 111.91507 54.13001
#
# Poissons Ratio (x) = 0.30979 0.17380
# Poissons Ratio (y) = 0.21971 0.17321
# Poissons Ratio (z) = 0.25486 0.35811
#
# Static dielectric constant tensor:
#      x y z
#    x 3.930010 0.000000 -0.294050 
#    y 0.000000 3.719290 0.000000 
#    z -0.294050 0.000000 3.995580 
# 
# 
# High freq. dielectric constant tensor:
#      x y z
#    x 1.791730 0.000000 -0.022540 
#    y 0.000000 1.773820 0.000000 
#    z -0.022540 0.000000 1.782980 
# 
# From -- ./inp_files/57051.got.cif
#   From: 2010.06.25/outbox.cif.g09.slc.cpg/sg15_29_cif.got.tgz:57051.got - 2010.06.28 07:06:18.
