data_PCOD8149914
_publ_section_title
;
Structure prediction by ZEFSAII (Michael W. Deem and Ramdas Pophale) SiO2 
 PCOD8149914
Probable space group: C 2/C
;
_chemical_formula_sum "Si O2"
_cell_formula_units_Z 40
_cell_length_a 8.456887
_cell_length_b 25.621484
_cell_length_c 8.601060
_cell_angle_alpha 90.000000
_cell_angle_beta 102.123307
_cell_angle_gamma 90.000000
_cell_volume 1822.096869
_symmetry_space_group_name_H-M "C 2/C"
_symmetry_group_IT_number 15
_symmetry_cell_setting 'monoclinic'
loop_
_space_group_symop_operation_xyz
x,y,z
-x,y,1/2-z
-x,-y,-z
x,-y,1/2+z
1/2+x,1/2+y,z
1/2-x,1/2+y,1/2-z
1/2-x,1/2-y,-z
1/2+x,1/2-y,1/2+z
loop_
_atom_site_type_symbol
_atom_site_label
_atom_site_fract_x
_atom_site_fract_y
_atom_site_fract_z
Si Si1 0.670226 0.525873 0.503350
Si Si2 0.514204 0.157262 0.496655
Si Si3 0.362342 0.950853 0.329778
Si Si4 0.000000 0.098736 0.250000
Si Si5 0.240098 0.825221 0.703388
Si Si6 0.000000 0.738618 0.750000
O O1 0.500000 0.500000 0.500000
O O2 0.806583 0.485799 0.465478
O O3 0.717165 0.554720 0.674278
O O4 0.642081 0.567065 0.361740
O O5 0.567849 0.103845 0.592473
O O6 0.667938 0.182161 0.439552
O O7 0.363167 0.148318 0.351734
O O8 0.452087 0.201226 0.599635
O O9 0.500000 0.977983 0.250000
O O10 0.092907 0.134447 0.143371
O O11 0.162028 0.771409 0.746737
#
# Coordination Sequence:
#
# PCOD8149914 Si02
#       6
#     8   8   8   4   8   4
#     4  12  24  44  66  95 137 179 228 277 329 398
#     4  11  23  44  68 100 135 171 225 272 336 401
#     4  12  25  43  66  99 133 183 227 279 332 393
#     4  11  22  42  66  94 132 176 228 269 330 396
#     4  10  24  42  71  94 134 177 214 276 340 396
#     4  11  22  44  70 102 130 168 224 275 338 396
#
# _framework density 21.952728
#
# number of rings (size 3 to 8) (size 9 to 14) (size 15 to 20)
#    0.000    0.800    3.000    4.200    0.000    0.000 
#    0.000    0.000    4.400    0.000    0.000    0.000 
#    0.000    0.000    0.000    0.000    0.000    0.000 
#
# Total GULP energy -247853.376209 kJ/mol
# GULP energy per Si atom -12392.668810 kJ/mol
# Density = 2.190276 g / cm^3
# Si number density = 21.952728 Si / 1000 Ang^3
#
#
#
# Elastic Constant Matrix: (Units=GPa)
#
#
# Indices 1 2 3 4 5 6 
#
# 1 107.3190 34.7011 12.2070 0.0000 -21.7836 0.0000
# 2 34.7011 114.2908 35.0284 0.0000 -6.8118 0.0000
# 3 12.2070 35.0284 97.1367 0.0000 0.8170 0.0000
# 4 0.0000 0.0000 0.0000 22.4740 0.0000 -9.0196
# 5 -21.7836 -6.8118 0.8170 0.0000 46.6228 0.0000
# 6 0.0000 0.0000 0.0000 -9.0196 0.0000 26.7810
#
#
#
# Elastic Compliance Matrix: (Units=1/GPa)
#
#
# Indices 1 2 3 4 5 6 
#
# 1 0.011327 -0.003037 -0.000369 0.000000 0.004855 0.000000
# 2 -0.003037 0.010757 -0.003499 0.000000 0.000214 0.000000
# 3 -0.000369 -0.003499 0.011610 0.000000 -0.000887 0.000000
# 4 0.000000 0.000000 0.000000 0.051450 0.000000 0.017328
# 5 0.004855 0.000214 -0.000887 0.000000 0.023764 0.000000
# 6 0.000000 0.000000 0.000000 0.017328 0.000000 0.043176
#
#
# Mechanical properties :
#
#
# Convention : Reuss Voigt Hill
#
# Bulk Modulus (GPa) = 50.29064 53.62440 51.95752
# Shear Modulus (GPa) = 28.98164 34.96290 31.97227
#
# Velocity S-wave (km/s) = 3.63738 3.99513 3.82044
# Velocity P-wave (km/s) = 6.37173 6.76473 6.57117
#
# Compressibility (1/GPa) = 0.01988442
#
# Stress axis : x y z
#
# Youngs Moduli (GPa) = 88.28114 92.96415 86.12900
#
# Poissons Ratio (x) = 0.28230 0.03181
# Poissons Ratio (y) = 0.26808 0.30138
# Poissons Ratio (z) = 0.03260 0.32530
#
# Static dielectric constant tensor:
#      x y z
#    x 3.953110 0.000000 -0.500870 
#    y 0.000000 4.027630 0.000000 
#    z -0.500870 0.000000 3.447650 
# 
# 
# High freq. dielectric constant tensor:
#      x y z
#    x 1.883950 0.000000 -0.006460 
#    y 0.000000 1.855010 0.000000 
#    z -0.006460 0.000000 1.865780 
# 
# From -- ./inp_files/23554.got.cif
#   From: 2010.06.25/outbox.cif.g09.slc.cpg/sg15_12_cif.got.tgz:23554.got - 2010.06.28 07:06:18.
