data_PCOD8149836
_publ_section_title
;
Structure prediction by ZEFSAII (Michael W. Deem and Ramdas Pophale) SiO2 
 PCOD8149836
Probable space group: C 2/C
;
_chemical_formula_sum "Si O2"
_cell_formula_units_Z 36
_cell_length_a 8.587422
_cell_length_b 11.232866
_cell_length_c 25.027965
_cell_angle_alpha 90.000000
_cell_angle_beta 140.882718
_cell_angle_gamma 90.000000
_cell_volume 1523.162484
_symmetry_space_group_name_H-M "C 2/C"
_symmetry_group_IT_number 15
_symmetry_cell_setting 'monoclinic'
loop_
_space_group_symop_operation_xyz
x,y,z
-x,y,1/2-z
-x,-y,-z
x,-y,1/2+z
1/2+x,1/2+y,z
1/2-x,1/2+y,1/2-z
1/2-x,1/2-y,-z
1/2+x,1/2-y,1/2+z
loop_
_atom_site_type_symbol
_atom_site_label
_atom_site_fract_x
_atom_site_fract_y
_atom_site_fract_z
Si Si1 0.500000 0.142958 0.250000
Si Si2 0.319273 0.255141 0.656351
Si Si3 0.593984 0.373452 0.006637
Si Si4 0.028163 0.049844 0.377276
Si Si5 0.889406 0.225290 0.615759
O O1 0.738501 0.057079 0.315842
O O2 0.479206 0.230168 0.295217
O O3 0.500000 0.202742 0.750000
O O4 0.417675 0.382200 0.663052
O O5 0.319297 0.164574 0.605475
O O6 0.045528 0.274202 0.607160
O O7 0.676554 0.386891 0.966455
O O8 0.386993 0.272987 0.959951
O O9 0.500000 0.500000 0.000000
O O10 0.114518 0.916740 0.390151
#
# Coordination Sequence:
#
# PCOD8149836 Si02
#       5
#     4   8   8   8   8
#     4  10  24  42  66 106 144 178 236 290 348 408
#     4  12  25  46  72 104 138 183 235 289 347 411
#     4  11  25  49  72 102 145 187 230 288 350 415
#     4  11  25  44  71 104 140 191 231 290 348 415
#     4  11  25  45  71 104 141 185 235 286 348 414
#
# _framework density 23.635037000000001
#
# number of rings (size 3 to 8) (size 9 to 14) (size 15 to 20)
#    0.000    0.889    4.444    1.333    3.111    0.889 
#    8.000    0.000    0.000    0.000    0.000    0.000 
#    0.000    0.000    0.000    0.000    0.000    0.000 
#
# Total GULP energy -223235.333193 kJ/mol
# GULP energy per Si atom -12401.962955 kJ/mol
# Density = 2.358124 g / cm^3
# Si number density = 23.635037 Si / 1000 Ang^3
#
#
#
# Elastic Constant Matrix: (Units=GPa)
#
#
# Indices 1 2 3 4 5 6 
#
# 1 48.7492 46.1351 10.9211 0.0000 -12.8113 0.0000
# 2 46.1351 158.3455 60.3913 0.0000 1.0930 0.0000
# 3 10.9211 60.3913 120.9281 0.0001 -30.1521 0.0000
# 4 0.0000 0.0000 0.0001 26.9096 0.0000 -2.3653
# 5 -12.8113 1.0930 -30.1521 0.0000 38.2848 0.0000
# 6 0.0000 0.0000 0.0000 -2.3653 0.0000 33.1922
#
#
#
# Elastic Compliance Matrix: (Units=1/GPa)
#
#
# Indices 1 2 3 4 5 6 
#
# 1 0.037318 -0.014333 0.008715 0.000000 0.019761 0.000000
# 2 -0.014333 0.013859 -0.008612 0.000000 -0.011975 0.000000
# 3 0.008715 -0.008612 0.015644 0.000000 0.015483 0.000000
# 4 0.000000 0.000000 0.000000 0.037396 0.000000 0.002665
# 5 0.019761 -0.011975 0.015483 0.000000 0.045268 0.000000
# 6 0.000000 0.000000 0.000000 0.002665 0.000000 0.030317
#
#
# Mechanical properties :
#
#
# Convention : Reuss Voigt Hill
#
# Bulk Modulus (GPa) = 26.06917 62.54641 44.30779
# Shear Modulus (GPa) = 22.61932 33.71570 28.16751
#
# Velocity S-wave (km/s) = 3.09694 3.78102 3.45595
# Velocity P-wave (km/s) = 4.88281 6.75147 5.89170
#
# Compressibility (1/GPa) = 0.03835949
#
# Stress axis : x y z
#
# Youngs Moduli (GPa) = 26.79642 72.15700 63.92320
#
# Poissons Ratio (x) = 1.03423 -0.55708
# Poissons Ratio (y) = 0.38408 0.55053
# Poissons Ratio (z) = -0.23352 0.62144
#
# Static dielectric constant tensor:
#      x y z
#    x 4.437640 0.000000 -0.370250 
#    y 0.000000 4.018860 0.000000 
#    z -0.370250 0.000000 4.557240 
# 
# 
# High freq. dielectric constant tensor:
#      x y z
#    x 1.940120 0.000000 -0.024000 
#    y 0.000000 1.933890 0.000000 
#    z -0.024000 0.000000 1.943930 
# 
# From -- ./inp_files/187597.got.cif
#   From: 2010.06.25/outbox.cif.g09.slc.cpg/sg15_94_cif.got.tgz:187597.got - 2010.06.28 07:06:18.
