data_PCOD8149306
_publ_section_title
;
Structure prediction by ZEFSAII (Michael W. Deem and Ramdas Pophale) SiO2 
 PCOD8149306
Probable space group: C 2/C
;
_chemical_formula_sum "Si O2"
_cell_formula_units_Z 44
_cell_length_a 5.296317
_cell_length_b 26.546917
_cell_length_c 12.832346
_cell_angle_alpha 90.000000
_cell_angle_beta 90.000024
_cell_angle_gamma 90.000000
_cell_volume 1804.239240
_symmetry_space_group_name_H-M "C 2/C"
_symmetry_group_IT_number 15
_symmetry_cell_setting 'monoclinic'
loop_
_space_group_symop_operation_xyz
x,y,z
-x,y,1/2-z
-x,-y,-z
x,-y,1/2+z
1/2+x,1/2+y,z
1/2-x,1/2+y,1/2-z
1/2-x,1/2-y,-z
1/2+x,1/2-y,1/2+z
loop_
_atom_site_type_symbol
_atom_site_label
_atom_site_fract_x
_atom_site_fract_y
_atom_site_fract_z
Si Si1 0.750000 0.750000 0.187009
Si Si2 0.344501 0.410681 0.625064
Si Si3 0.000000 0.000000 0.250000
Si Si4 0.844501 0.089318 0.874936
Si Si5 0.653358 0.858510 0.117983
Si Si6 0.346642 0.858510 0.617982
O O1 0.500000 0.735101 0.250000
O O2 0.679154 0.798299 0.118481
O O3 0.820846 0.701701 0.118481
O O4 0.000000 0.764899 0.250000
O O5 0.321706 0.466274 0.674734
O O6 0.339965 0.413787 0.500000
O O7 0.607256 0.386917 0.668524
O O8 0.115177 0.375393 0.668497
O O9 0.178293 0.966274 0.174734
O O10 0.615177 0.124607 0.831503
O O11 0.107255 0.113082 0.831475
O O12 0.644021 0.876836 0.000000
#
# Coordination Sequence:
#
# PCOD8149306 Si02
#       6
#     8   8   4   8   8   8
#     4  12  25  38  67 104 134 168 218 272 325 404
#     4  10  24  43  67  97 132 174 224 273 328 398
#     4  12  26  42  72  96 136 174 226 282 344 378
#     4  10  24  43  67  97 132 174 224 273 328 398
#     4  10  23  45  66  93 134 176 215 267 330 397
#     4  10  23  45  66  93 134 176 215 267 330 397
#
# _framework density 24.387008000000002
#
# number of rings (size 3 to 8) (size 9 to 14) (size 15 to 20)
#    0.000    1.455    0.000    3.273    7.636    2.909 
#    0.000   12.727    0.000    0.000    0.000    0.000 
#    0.000    0.000    0.000    0.000    0.000    0.000 
#
# Total GULP energy -272837.678366 kJ/mol
# GULP energy per Si atom -12401.712653 kJ/mol
# Density = 2.433150 g / cm^3
# Si number density = 24.387008 Si / 1000 Ang^3
#
#
#
# Elastic Constant Matrix: (Units=GPa)
#
#
# Indices 1 2 3 4 5 6 
#
# 1 231.1121 90.8178 63.4147 0.0000 -8.5386 0.0000
# 2 90.8178 192.8824 28.3320 0.0000 -5.5973 0.0000
# 3 63.4147 28.3320 37.7403 0.0000 -8.7833 0.0000
# 4 0.0000 0.0000 0.0000 63.3202 0.0000 1.3249
# 5 -8.5386 -5.5973 -8.7833 0.0000 36.1673 0.0000
# 6 0.0000 0.0000 0.0000 1.3249 0.0000 48.5300
#
#
#
# Elastic Compliance Matrix: (Units=1/GPa)
#
#
# Indices 1 2 3 4 5 6 
#
# 1 0.008878 -0.002227 -0.013608 0.000000 -0.001553 0.000000
# 2 -0.002227 0.006386 -0.001002 0.000000 0.000219 0.000000
# 3 -0.013608 -0.001002 0.052287 0.000000 0.009330 0.000000
# 4 0.000000 0.000000 0.000000 0.015802 0.000000 -0.000431
# 5 -0.001553 0.000219 0.009330 0.000000 0.029582 0.000000
# 6 0.000000 0.000000 0.000000 -0.000431 0.000000 0.020618
#
#
# Mechanical properties :
#
#
# Convention : Reuss Voigt Hill
#
# Bulk Modulus (GPa) = 29.51815 91.87373 60.69594
# Shear Modulus (GPa) = 28.00812 48.21484 38.11148
#
# Velocity S-wave (km/s) = 3.39261 4.45125 3.95749
# Velocity P-wave (km/s) = 5.24182 8.01082 6.76941
#
# Compressibility (1/GPa) = 0.03387746
#
# Stress axis : x y z
#
# Youngs Moduli (GPa) = 112.63206 156.58218 19.12538
#
# Poissons Ratio (x) = 0.34864 0.26027
# Poissons Ratio (y) = 0.25078 0.01916
# Poissons Ratio (z) = 1.53274 0.15690
#
# Static dielectric constant tensor:
#      x y z
#    x 4.756260 0.000000 -0.040070 
#    y 0.000000 4.168340 0.000000 
#    z -0.040070 0.000000 4.309010 
# 
# 
# High freq. dielectric constant tensor:
#      x y z
#    x 1.982890 0.000000 0.001850 
#    y 0.000000 1.961110 0.000000 
#    z 0.001850 0.000000 2.003520 
# 
# From -- ./inp_files/129343.got.cif
#   From: 2010.06.25/outbox.cif.g09.slc.cpg/sg15_65_cif.got.tgz:129343.got - 2010.06.28 07:06:18.
