data_PCOD8149378
_publ_section_title
;
Structure prediction by ZEFSAII (Michael W. Deem and Ramdas Pophale) SiO2 
 PCOD8149378
Probable space group: C 2/C
;
_chemical_formula_sum "Si O2"
_cell_formula_units_Z 44
_cell_length_a 10.925286
_cell_length_b 25.138079
_cell_length_c 10.518826
_cell_angle_alpha 90.000000
_cell_angle_beta 140.807797
_cell_angle_gamma 90.000000
_cell_volume 1825.563367
_symmetry_space_group_name_H-M "C 2/C"
_symmetry_group_IT_number 15
_symmetry_cell_setting 'monoclinic'
loop_
_space_group_symop_operation_xyz
x,y,z
-x,y,1/2-z
-x,-y,-z
x,-y,1/2+z
1/2+x,1/2+y,z
1/2-x,1/2+y,1/2-z
1/2-x,1/2-y,-z
1/2+x,1/2-y,1/2+z
loop_
_atom_site_type_symbol
_atom_site_label
_atom_site_fract_x
_atom_site_fract_y
_atom_site_fract_z
Si Si1 0.089384 0.800457 0.085963
Si Si2 0.018323 0.307928 0.409797
Si Si3 0.500000 0.640709 0.750000
Si Si4 0.281908 0.953305 0.431983
Si Si5 0.231999 0.468075 0.798926
Si Si6 0.631210 0.622873 0.249396
O O1 0.304098 0.823631 0.283185
O O2 0.958841 0.818887 0.100408
O O3 0.100414 0.737206 0.071603
O O4 0.992391 0.824920 0.883084
O O5 0.156317 0.359723 0.528910
O O6 0.000000 0.287332 0.250000
O O7 0.313513 0.604593 0.633912
O O8 0.511129 0.949947 0.600977
O O9 0.229602 0.983992 0.523069
O O10 0.202362 0.984777 0.244078
O O11 0.354812 0.415913 0.860805
O O12 0.500000 0.593269 0.250000
#
# Coordination Sequence:
#
# PCOD8149378 Si02
#       6
#     8   8   4   8   8   8
#     4  12  25  43  68 100 138 182 229 283 355 401
#     4  12  24  45  69 100 140 178 235 300 331 414
#     4  12  26  44  66 102 136 184 224 286 340 432
#     4  10  23  45  72  98 144 173 237 284 347 414
#     4  10  23  46  70 103 135 188 222 292 349 414
#     4  12  24  43  72 104 137 184 236 283 356 408
#
# _framework density 24.102146999999999
#
# number of rings (size 3 to 8) (size 9 to 14) (size 15 to 20)
#    0.000    0.727    5.455    2.182    1.273    2.909 
#    6.545    0.000    0.000    0.000    0.000    0.000 
#    0.000    0.000    0.000    0.000    0.000    0.000 
#
# Total GULP energy -272742.280208 kJ/mol
# GULP energy per Si atom -12397.376373 kJ/mol
# Density = 2.404729 g / cm^3
# Si number density = 24.102147 Si / 1000 Ang^3
#
#
#
# Elastic Constant Matrix: (Units=GPa)
#
#
# Indices 1 2 3 4 5 6 
#
# 1 141.0189 58.6597 32.2649 0.0000 -17.9680 0.0000
# 2 58.6597 72.8439 13.3455 0.0000 -10.0946 0.0000
# 3 32.2649 13.3455 66.5864 0.0000 -7.2047 0.0000
# 4 0.0000 0.0000 0.0000 29.5941 0.0000 -5.8458
# 5 -17.9680 -10.0946 -7.2047 0.0000 49.0148 0.0000
# 6 0.0000 0.0000 0.0000 -5.8458 0.0000 45.3898
#
#
#
# Elastic Compliance Matrix: (Units=1/GPa)
#
#
# Indices 1 2 3 4 5 6 
#
# 1 0.011738 -0.008484 -0.003771 0.000000 0.002001 0.000000
# 2 -0.008484 0.020706 0.000087 0.000000 0.001167 0.000000
# 3 -0.003771 0.000087 0.016950 0.000000 0.001127 0.000000
# 4 0.000000 0.000000 0.000000 0.034673 0.000000 0.004465
# 5 0.002001 0.001167 0.001127 0.000000 0.021542 0.000000
# 6 0.000000 0.000000 0.000000 0.004465 0.000000 0.022606
#
#
# Mechanical properties :
#
#
# Convention : Reuss Voigt Hill
#
# Bulk Modulus (GPa) = 39.90669 54.33214 47.11941
# Shear Modulus (GPa) = 31.07462 36.54503 33.80983
#
# Velocity S-wave (km/s) = 3.59456 3.89814 3.74942
# Velocity P-wave (km/s) = 5.81559 6.54615 6.19165
#
# Compressibility (1/GPa) = 0.02505846
#
# Stress axis : x y z
#
# Youngs Moduli (GPa) = 85.19137 48.29519 58.99816
#
# Poissons Ratio (x) = 0.40976 0.22247
# Poissons Ratio (y) = 0.72280 -0.00516
# Poissons Ratio (z) = 0.32124 -0.00423
#
# Static dielectric constant tensor:
#      x y z
#    x 4.626570 0.000000 -0.000930 
#    y 0.000000 3.834310 0.000000 
#    z -0.000930 0.000000 4.184490 
# 
# 
# High freq. dielectric constant tensor:
#      x y z
#    x 1.977300 0.000000 0.003470 
#    y 0.000000 1.931080 0.000000 
#    z 0.003470 0.000000 1.956320 
# 
# From -- ./inp_files/91389.got.cif
#   From: 2010.06.25/outbox.cif.g09.slc.cpg/sg15_46_cif.got.tgz:91389.got - 2010.06.28 07:06:18.
