data_PCOD8149761
_publ_section_title
;
Structure prediction by ZEFSAII (Michael W. Deem and Ramdas Pophale) SiO2 
 PCOD8149761
Probable space group: C 2/C
;
_chemical_formula_sum "Si O2"
_cell_formula_units_Z 64
_cell_length_a 28.135726
_cell_length_b 13.772761
_cell_length_c 20.804489
_cell_angle_alpha 90.000000
_cell_angle_beta 160.558654
_cell_angle_gamma 90.000000
_cell_volume 2683.328963
_symmetry_space_group_name_H-M "C 2/C"
_symmetry_group_IT_number 15
_symmetry_cell_setting 'monoclinic'
loop_
_space_group_symop_operation_xyz
x,y,z
-x,y,1/2-z
-x,-y,-z
x,-y,1/2+z
1/2+x,1/2+y,z
1/2-x,1/2+y,1/2-z
1/2-x,1/2-y,-z
1/2+x,1/2-y,1/2+z
loop_
_atom_site_type_symbol
_atom_site_label
_atom_site_fract_x
_atom_site_fract_y
_atom_site_fract_z
Si Si1 0.398167 0.822210 0.440206
Si Si2 0.230634 0.420476 0.662453
Si Si3 0.878086 0.958430 0.050235
Si Si4 0.624168 0.297145 0.751797
Si Si5 0.496815 0.951745 0.815576
Si Si6 0.726870 0.894773 0.437389
Si Si7 0.369726 0.566292 0.918475
Si Si8 0.822059 0.673018 0.277005
O O1 0.291911 0.898118 0.269475
O O2 0.298355 0.746269 0.350464
O O3 0.521389 0.784122 0.546493
O O4 0.489165 0.872710 0.611751
O O5 0.289039 0.321933 0.703214
O O6 0.120688 0.467395 0.473092
O O7 0.355416 0.501632 0.834645
O O8 0.150922 0.398431 0.628320
O O9 0.000000 0.907948 0.250000
O O10 0.746643 0.884261 0.871429
O O11 0.840889 0.063257 0.033057
O O12 0.936833 0.991052 0.055346
O O13 0.626180 0.182735 0.770792
O O14 0.464626 0.336301 0.534601
O O15 0.693966 0.348831 0.901499
O O16 0.500000 0.899872 0.750000
O O17 0.351574 0.009658 0.638659
#
# Coordination Sequence:
#
# PCOD8149761 Si02
#       8
#     8   8   8   8   8   8   8   8
#     4  11  27  48  72 104 138 187 242 295 354 422
#     4  10  24  41  69 100 144 189 237 288 356 419
#     4  11  23  46  70  99 138 189 230 295 361 425
#     4  11  23  42  65 113 144 190 233 289 349 432
#     4  11  23  46  70  99 138 189 230 295 361 425
#     4  11  24  40  70 101 149 184 232 288 363 424
#     4  10  24  41  69 100 144 189 237 288 356 419
#     4  11  27  48  72 104 138 187 242 295 354 422
#
# _framework density 23.85097
#
# number of rings (size 3 to 8) (size 9 to 14) (size 15 to 20)
#    0.000    1.250    3.750    0.375    7.000    2.000 
#    4.500    1.250    0.000    0.000    0.000    0.000 
#    0.000    0.000    0.000    0.000    0.000    0.000 
#
# Total GULP energy -396475.055553 kJ/mol
# GULP energy per Si atom -12389.845486 kJ/mol
# Density = 2.379668 g / cm^3
# Si number density = 23.850970 Si / 1000 Ang^3
#
#
#
# Elastic Constant Matrix: (Units=GPa)
#
#
# Indices 1 2 3 4 5 6 
#
# 1 101.9457 26.5306 40.2866 0.0000 5.8722 -0.0005
# 2 26.5306 69.6358 15.4144 -0.0003 9.6111 -0.0007
# 3 40.2866 15.4144 90.9172 -0.0003 -5.0707 -0.0010
# 4 0.0000 -0.0003 -0.0003 40.4830 -0.0004 4.9248
# 5 5.8722 9.6111 -5.0707 -0.0004 35.8494 -0.0011
# 6 -0.0005 -0.0007 -0.0010 4.9248 -0.0011 29.7781
#
#
#
# Elastic Compliance Matrix: (Units=1/GPa)
#
#
# Indices 1 2 3 4 5 6 
#
# 1 0.012894 -0.003491 -0.005229 0.000000 -0.001916 0.000000
# 2 -0.003491 0.016585 -0.001493 0.000000 -0.004086 0.000000
# 3 -0.005229 -0.001493 0.013748 0.000000 0.003201 0.000000
# 4 0.000000 0.000000 0.000000 0.025209 0.000000 -0.004169
# 5 -0.001916 -0.004086 0.003201 0.000000 0.029756 0.000001
# 6 0.000000 0.000000 0.000000 -0.004169 0.000001 0.034271
#
#
# Mechanical properties :
#
#
# Convention : Reuss Voigt Hill
#
# Bulk Modulus (GPa) = 43.85590 47.44021 45.64805
# Shear Modulus (GPa) = 31.15493 33.23989 32.19741
#
# Velocity S-wave (km/s) = 3.61811 3.73721 3.67814
# Velocity P-wave (km/s) = 5.99013 6.20933 6.10071
#
# Compressibility (1/GPa) = 0.02280195
#
# Stress axis : x y z
#
# Youngs Moduli (GPa) = 77.55446 60.29631 72.74031
#
# Poissons Ratio (x) = 0.21048 0.38033
# Poissons Ratio (y) = 0.27072 0.10859
# Poissons Ratio (z) = 0.40550 0.09002
#
# Static dielectric constant tensor:
#      x y z
#    x 4.302910 0.000000 -0.149040 
#    y 0.000000 4.297500 0.000000 
#    z -0.149040 0.000000 4.454370 
# 
# 
# High freq. dielectric constant tensor:
#      x y z
#    x 1.941910 0.000000 -0.016740 
#    y 0.000000 1.933370 0.000000 
#    z -0.016740 0.000000 1.957360 
# 
# From -- ./inp_files/259467.got.cif
#   From: 2010.06.25/outbox.cif.g09.slc.cpg/sg15_130_cif.got.tgz:259467.got - 2010.06.28 07:06:18.
