data_PCOD8149041
_publ_section_title
;
Structure prediction by ZEFSAII (Michael W. Deem and Ramdas Pophale) SiO2 
 PCOD8149041
Probable space group: C 2/C
;
_chemical_formula_sum "Si O2"
_cell_formula_units_Z 44
_cell_length_a 21.869018
_cell_length_b 5.137214
_cell_length_c 16.571554
_cell_angle_alpha 90.000000
_cell_angle_beta 75.085566
_cell_angle_gamma 90.000000
_cell_volume 1799.025094
_symmetry_space_group_name_H-M "C 2/C"
_symmetry_group_IT_number 15
_symmetry_cell_setting 'monoclinic'
loop_
_space_group_symop_operation_xyz
x,y,z
-x,y,1/2-z
-x,-y,-z
x,-y,1/2+z
1/2+x,1/2+y,z
1/2-x,1/2+y,1/2-z
1/2-x,1/2-y,-z
1/2+x,1/2-y,1/2+z
loop_
_atom_site_type_symbol
_atom_site_label
_atom_site_fract_x
_atom_site_fract_y
_atom_site_fract_z
Si Si1 0.883286 0.315941 0.860897
Si Si2 0.011027 0.628541 0.617737
Si Si3 0.356534 0.264265 0.549144
Si Si4 0.500000 0.490966 0.250000
Si Si5 0.259536 0.831364 0.801275
Si Si6 0.067423 0.252907 0.939256
O O1 0.917071 0.586566 0.874810
O O2 0.828845 0.370002 0.815081
O O3 0.857614 0.179020 0.952217
O O4 0.938493 0.160261 0.798516
O O5 0.973665 0.823618 0.687516
O O6 0.015036 0.761725 0.528425
O O7 0.972970 0.349095 0.625797
O O8 0.285934 0.287433 0.606911
O O9 0.398877 0.476661 0.582806
O O10 0.380867 0.976328 0.560529
O O11 0.259381 0.587544 0.741365
#
# Coordination Sequence:
#
# PCOD8149041 Si02
#       6
#     8   8   8   4   8   8
#     4  11  27  47  73 107 149 195 243 298 376 433
#     4  10  24  41  68 110 150 189 232 305 355 448
#     4  11  24  48  77 107 147 197 241 300 361 447
#     4  12  24  42  72 104 150 188 242 300 366 436
#     4  12  30  50  75 108 144 194 253 314 359 426
#     4  10  23  43  74 108 147 186 243 286 374 428
#
# _framework density 24.457691000000001
#
# number of rings (size 3 to 8) (size 9 to 14) (size 15 to 20)
#    0.000    1.091    1.818    2.182    7.636    5.091 
#    0.000    4.545    0.000    0.000    0.000    0.000 
#    0.000    0.000    0.000    0.000    0.000    0.000 
#
# Total GULP energy -272773.046615 kJ/mol
# GULP energy per Si atom -12398.774846 kJ/mol
# Density = 2.440202 g / cm^3
# Si number density = 24.457691 Si / 1000 Ang^3
#
#
#
# Elastic Constant Matrix: (Units=GPa)
#
#
# Indices 1 2 3 4 5 6 
#
# 1 125.7709 5.2956 55.5882 0.0000 13.1179 0.0000
# 2 5.2956 68.7435 13.9130 0.0000 2.2402 0.0000
# 3 55.5882 13.9130 107.4240 0.0000 -18.6739 0.0000
# 4 0.0000 0.0000 0.0000 3.3225 0.0000 -10.3972
# 5 13.1179 2.2402 -18.6739 0.0000 39.9231 0.0000
# 6 0.0000 0.0000 0.0000 -10.3972 0.0000 27.0428
#
#
#
# Elastic Compliance Matrix: (Units=1/GPa)
#
#
# Indices 1 2 3 4 5 6 
#
# 1 0.012120 0.000876 -0.007713 0.000000 -0.007639 0.000000
# 2 0.000876 0.015135 -0.002842 0.000000 -0.002467 0.000000
# 3 -0.007713 -0.002842 0.015388 0.000000 0.009891 0.000000
# 4 0.000000 0.000000 0.000000 -1.481455 0.000000 -0.569581
# 5 -0.007639 -0.002467 0.009891 0.000000 0.032323 0.000000
# 6 0.000000 0.000000 0.000000 -0.569581 0.000000 -0.182011
#
#
# Mechanical properties :
#
#
# Convention : Reuss Voigt Hill
#
# Bulk Modulus (GPa) = 42.94762 50.17024 46.55893
# Shear Modulus (GPa) = -3.20230 29.20044 12.99907
#
# Velocity S-wave (km/s) = -1.14550 3.45906 2.30791
# Velocity P-wave (km/s) = 3.98102 6.04244 5.11662
#
# Compressibility (1/GPa) = 0.02328418
#
# Stress axis : x y z
#
# Youngs Moduli (GPa) = 82.50911 66.07206 64.98666
#
# Poissons Ratio (x) = -0.05790 0.50125
# Poissons Ratio (y) = -0.07231 0.18472
# Poissons Ratio (z) = 0.63640 0.18781
#
# Static dielectric constant tensor:
#      x y z
#    x 4.548010 0.000000 0.020180 
#    y 0.000000 4.433680 0.000000 
#    z 0.020180 0.000000 4.795840 
# 
# 
# High freq. dielectric constant tensor:
#      x y z
#    x 1.963810 0.000000 0.001960 
#    y 0.000000 1.977200 0.000000 
#    z 0.001960 0.000000 1.990240 
# 
# From -- ./inp_files/212888.got.cif
#   From: 2010.06.25/outbox.cif.g09.slc.cpg/sg15_107_cif.got.tgz:212888.got - 2010.06.28 07:06:18.
