data_PCOD8149321
_publ_section_title
;
Structure prediction by ZEFSAII (Michael W. Deem and Ramdas Pophale) SiO2 
 PCOD8149321
Probable space group: C 2/C
;
_chemical_formula_sum "Si O2"
_cell_formula_units_Z 44
_cell_length_a 11.509691
_cell_length_b 13.358787
_cell_length_c 26.860236
_cell_angle_alpha 90.000000
_cell_angle_beta 151.065761
_cell_angle_gamma 90.000000
_cell_volume 1998.072667
_symmetry_space_group_name_H-M "C 2/C"
_symmetry_group_IT_number 15
_symmetry_cell_setting 'monoclinic'
loop_
_space_group_symop_operation_xyz
x,y,z
-x,y,1/2-z
-x,-y,-z
x,-y,1/2+z
1/2+x,1/2+y,z
1/2-x,1/2+y,1/2-z
1/2-x,1/2-y,-z
1/2+x,1/2-y,1/2+z
loop_
_atom_site_type_symbol
_atom_site_label
_atom_site_fract_x
_atom_site_fract_y
_atom_site_fract_z
Si Si1 0.858418 0.305759 0.460786
Si Si2 0.500000 0.593842 0.750000
Si Si3 0.344737 0.705946 0.085906
Si Si4 0.311321 0.174820 0.723149
Si Si5 0.173169 0.979701 0.721730
Si Si6 0.067035 0.654913 0.407776
O O1 0.690081 0.339107 0.351841
O O2 0.770762 0.196419 0.446928
O O3 0.132805 0.301070 0.546503
O O4 0.833289 0.381124 0.500005
O O5 0.629704 0.521584 0.760277
O O6 0.544609 0.787210 0.174883
O O7 0.466859 0.596734 0.126439
O O8 0.250000 0.750000 0.000000
O O9 0.500000 0.168735 0.750000
O O10 0.101913 0.254311 0.635650
O O11 0.195323 0.066347 0.689166
O O12 0.431028 0.926967 0.824458
#
# Coordination Sequence:
#
# PCOD8149321 Si02
#       6
#     8   4   8   8   8   8
#     4  11  23  43  69  96 134 178 224 273 334 399
#     4  12  24  40  68 102 136 168 236 284 328 386
#     4  11  25  43  69  97 139 178 224 272 343 401
#     4  11  22  46  65  96 134 177 220 276 336 401
#     4  11  25  42  68 101 132 172 224 285 331 396
#     4  10  23  45  67  93 135 180 220 272 345 397
#
# _framework density 22.021221000000001
#
# number of rings (size 3 to 8) (size 9 to 14) (size 15 to 20)
#    0.000    1.091    3.636    2.182    5.091    5.818 
#    0.000    1.818    0.000    0.000    0.000    0.000 
#    0.000    0.000    0.000    0.000    0.000    0.000 
#
# Total GULP energy -272658.260628 kJ/mol
# GULP energy per Si atom -12393.557301 kJ/mol
# Density = 2.197110 g / cm^3
# Si number density = 22.021221 Si / 1000 Ang^3
#
#
#
# Elastic Constant Matrix: (Units=GPa)
#
#
# Indices 1 2 3 4 5 6 
#
# 1 62.0738 32.7554 6.5098 0.0002 -0.9249 0.0001
# 2 32.7554 93.0540 19.8230 0.0001 -1.6181 0.0001
# 3 6.5098 19.8230 83.9922 0.0013 -10.0115 0.0002
# 4 0.0002 0.0001 0.0013 16.0582 0.0002 0.4747
# 5 -0.9249 -1.6181 -10.0115 0.0002 43.0845 -0.0001
# 6 0.0001 0.0001 0.0002 0.4747 -0.0001 29.9250
#
#
#
# Elastic Compliance Matrix: (Units=1/GPa)
#
#
# Indices 1 2 3 4 5 6 
#
# 1 0.019787 -0.006992 0.000140 0.000000 0.000195 0.000000
# 2 -0.006992 0.013787 -0.002744 0.000000 -0.000270 0.000000
# 3 0.000140 -0.002744 0.012888 -0.000001 0.002895 0.000000
# 4 0.000000 0.000000 -0.000001 0.062303 0.000000 -0.000988
# 5 0.000195 -0.000270 0.002895 0.000000 0.023877 0.000000
# 6 0.000000 0.000000 0.000000 -0.000988 0.000000 0.033433
#
#
# Mechanical properties :
#
#
# Convention : Reuss Voigt Hill
#
# Bulk Modulus (GPa) = 36.67005 39.69959 38.18482
# Shear Modulus (GPa) = 25.72580 29.81566 27.77073
#
# Velocity S-wave (km/s) = 3.42164 3.68360 3.55503
# Velocity P-wave (km/s) = 5.68317 6.01323 5.85053
#
# Compressibility (1/GPa) = 0.02727021
#
# Stress axis : x y z
#
# Youngs Moduli (GPa) = 50.53698 72.52981 77.59306
#
# Poissons Ratio (x) = 0.50710 -0.01084
# Poissons Ratio (y) = 0.35334 0.21294
# Poissons Ratio (z) = -0.00706 0.19904
#
# Static dielectric constant tensor:
#      x y z
#    x 4.110780 0.000000 0.220940 
#    y 0.000000 3.907670 0.000000 
#    z 0.220940 0.000000 4.450800 
# 
# 
# High freq. dielectric constant tensor:
#      x y z
#    x 1.869100 0.000000 0.003180 
#    y 0.000000 1.846710 0.000000 
#    z 0.003180 0.000000 1.895050 
# 
# From -- ./inp_files/292952.got.cif
#   From: 2010.06.25/outbox.cif.g09.slc.cpg/sg15_147_cif.got.tgz:292952.got - 2010.06.28 07:06:18.
