data_PCOD8149077
_publ_section_title
;
Structure prediction by ZEFSAII (Michael W. Deem and Ramdas Pophale) SiO2 
 PCOD8149077
Probable space group: C 2/C
;
_chemical_formula_sum "Si O2"
_cell_formula_units_Z 64
_cell_length_a 17.115453
_cell_length_b 14.250376
_cell_length_c 17.237200
_cell_angle_alpha 90.000000
_cell_angle_beta 45.021110
_cell_angle_gamma 90.000000
_cell_volume 2973.900245
_symmetry_space_group_name_H-M "C 2/C"
_symmetry_group_IT_number 15
_symmetry_cell_setting 'monoclinic'
loop_
_space_group_symop_operation_xyz
x,y,z
-x,y,1/2-z
-x,-y,-z
x,-y,1/2+z
1/2+x,1/2+y,z
1/2-x,1/2+y,1/2-z
1/2-x,1/2-y,-z
1/2+x,1/2-y,1/2+z
loop_
_atom_site_type_symbol
_atom_site_label
_atom_site_fract_x
_atom_site_fract_y
_atom_site_fract_z
Si Si1 0.544251 0.709645 0.302065
Si Si2 0.344812 0.901898 0.324290
Si Si3 0.321907 0.335769 0.420138
Si Si4 0.942830 0.793024 0.186363
Si Si5 0.166336 0.500050 0.017771
Si Si6 0.432711 0.080027 0.181009
Si Si7 0.734277 0.882793 0.837403
Si Si8 0.371247 0.305948 0.059860
O O1 0.500000 0.672003 0.250000
O O2 0.580546 0.818642 0.264356
O O3 0.640422 0.644061 0.269059
O O4 0.458001 0.691571 0.430138
O O5 0.218351 0.888884 0.386368
O O6 0.351466 0.909474 0.413225
O O7 0.390478 0.004952 0.272476
O O8 0.250000 0.250000 0.500000
O O9 0.345452 0.333024 0.310238
O O10 0.439818 0.341145 0.379904
O O11 0.248758 0.424339 0.497570
O O12 0.951090 0.683050 0.203388
O O13 0.919725 0.812307 0.112390
O O14 0.232720 0.469199 0.895944
O O15 0.051414 0.544361 0.067397
O O16 0.337037 0.086797 0.185415
O O17 0.684705 0.793210 0.915189
#
# Coordination Sequence:
#
# PCOD8149077 Si02
#       8
#     8   8   8   8   8   8   8   8
#     4  11  22  43  68  92 135 175 216 269 334 401
#     4  11  24  39  68 100 129 170 223 276 327 390
#     4  11  23  42  69  95 131 175 220 272 332 400
#     4  10  24  44  65  96 132 177 218 270 338 398
#     4  12  23  40  67  96 127 168 223 278 329 385
#     4  11  22  41  66  94 129 162 221 280 320 392
#     4  10  24  41  61  97 127 169 218 270 328 393
#     4  10  23  44  65  95 135 177 215 269 342 397
#
# _framework density 21.520561000000001
#
# number of rings (size 3 to 8) (size 9 to 14) (size 15 to 20)
#    0.000    1.250    1.250    4.500    3.500    7.000 
#    6.750    1.250    0.000    0.000    0.000    0.000 
#    0.000    0.000    0.000    0.000    0.000    0.000 
#
# Total GULP energy -396570.274901 kJ/mol
# GULP energy per Si atom -12392.821091 kJ/mol
# Density = 2.147158 g / cm^3
# Si number density = 21.520561 Si / 1000 Ang^3
#
#
#
# Elastic Constant Matrix: (Units=GPa)
#
#
# Indices 1 2 3 4 5 6 
#
# 1 122.8374 24.7172 49.4881 0.0000 -9.0776 0.0000
# 2 24.7172 36.0034 6.8282 0.0000 -5.8309 0.0000
# 3 49.4881 6.8282 130.3433 0.0000 -5.7927 0.0000
# 4 0.0000 0.0000 0.0000 22.1523 0.0000 2.0195
# 5 -9.0776 -5.8309 -5.7927 0.0000 36.8829 0.0000
# 6 0.0000 0.0000 0.0000 2.0195 0.0000 30.6181
#
#
#
# Elastic Compliance Matrix: (Units=1/GPa)
#
#
# Indices 1 2 3 4 5 6 
#
# 1 0.011113 -0.006732 -0.003819 0.000000 0.001071 0.000000
# 2 -0.006732 0.032804 0.001001 0.000000 0.003686 0.000000
# 3 -0.003819 0.001001 0.009098 0.000000 0.000647 0.000000
# 4 0.000000 0.000000 0.000000 0.045415 0.000000 -0.002996
# 5 0.001071 0.003686 0.000647 0.000000 0.028061 0.000000
# 6 0.000000 0.000000 0.000000 -0.002996 0.000000 0.032858
#
#
# Mechanical properties :
#
#
# Convention : Reuss Voigt Hill
#
# Bulk Modulus (GPa) = 29.48452 50.13901 39.81176
# Shear Modulus (GPa) = 26.34991 31.80736 29.07864
#
# Velocity S-wave (km/s) = 3.50295 3.84865 3.67986
# Velocity P-wave (km/s) = 5.48555 6.56492 6.04936
#
# Compressibility (1/GPa) = 0.03391611
#
# Stress axis : x y z
#
# Youngs Moduli (GPa) = 89.98341 30.48435 109.90954
#
# Poissons Ratio (x) = 0.20521 0.41976
# Poissons Ratio (y) = 0.60574 -0.11004
# Poissons Ratio (z) = 0.34366 -0.03052
#
# Static dielectric constant tensor:
#      x y z
#    x 4.146710 0.000000 -0.236320 
#    y 0.000000 3.950570 0.000000 
#    z -0.236320 0.000000 3.984030 
# 
# 
# High freq. dielectric constant tensor:
#      x y z
#    x 1.852030 0.000000 -0.009770 
#    y 0.000000 1.840020 0.000000 
#    z -0.009770 0.000000 1.853820 
# 
# From -- ./inp_files/211369.got.cif
#   From: 2010.06.25/outbox.cif.g09.slc.cpg/sg15_106_cif.got.tgz:211369.got - 2010.06.28 07:06:18.
