data_PCOD8149034
_publ_section_title
;
Structure prediction by ZEFSAII (Michael W. Deem and Ramdas Pophale) SiO2 
 PCOD8149034
Probable space group: C 2/C
;
_chemical_formula_sum "Si O2"
_cell_formula_units_Z 32
_cell_length_a 9.225604
_cell_length_b 11.456134
_cell_length_c 14.758312
_cell_angle_alpha 90.000000
_cell_angle_beta 112.306939
_cell_angle_gamma 90.000000
_cell_volume 1443.072637
_symmetry_space_group_name_H-M "C 2/C"
_symmetry_group_IT_number 15
_symmetry_cell_setting 'monoclinic'
loop_
_space_group_symop_operation_xyz
x,y,z
-x,y,1/2-z
-x,-y,-z
x,-y,1/2+z
1/2+x,1/2+y,z
1/2-x,1/2+y,1/2-z
1/2-x,1/2-y,-z
1/2+x,1/2-y,1/2+z
loop_
_atom_site_type_symbol
_atom_site_label
_atom_site_fract_x
_atom_site_fract_y
_atom_site_fract_z
Si Si1 0.485441 0.249956 0.407120
Si Si2 0.670536 0.035616 0.068151
Si Si3 0.358189 0.464721 0.272693
Si Si4 0.281270 0.600154 0.433519
O O1 0.339449 0.173745 0.411401
O O2 0.409265 0.336127 0.315832
O O3 0.571908 0.316537 0.509679
O O4 0.617100 0.169361 0.390305
O O5 0.715986 0.958707 0.167205
O O6 0.500000 0.000000 0.000000
O O7 0.783711 0.002560 0.010841
O O8 0.500000 0.524912 0.250000
O O9 0.307937 0.545438 0.342802
#
# Coordination Sequence:
#
# PCOD8149034 Si02
#       4
#     8   8   8   8
#     4  10  23  43  73  90 133 177 210 272 341 370
#     4  10  24  42  67 100 128 170 225 263 323 396
#     4  12  25  41  68 100 131 172 222 265 325 396
#     4  10  23  45  68  97 133 167 220 277 319 391
#
# _framework density 22.174904999999999
#
# number of rings (size 3 to 8) (size 9 to 14) (size 15 to 20)
#    0.000    1.500    2.500    0.750    3.500    4.000 
#    0.000    0.000    0.000    0.000    0.000    0.000 
#    0.000    0.000    0.000    0.000    0.000    0.000 
#
# Total GULP energy -198337.812000 kJ/mol
# GULP energy per Si atom -12396.113250 kJ/mol
# Density = 2.212443 g / cm^3
# Si number density = 22.174905 Si / 1000 Ang^3
#
#
#
# Elastic Constant Matrix: (Units=GPa)
#
#
# Indices 1 2 3 4 5 6 
#
# 1 68.4912 65.9489 67.7123 0.0000 -9.8091 0.0000
# 2 65.9489 101.8719 70.3927 0.0000 0.4317 0.0000
# 3 67.7123 70.3927 185.2680 0.0000 -6.3878 0.0000
# 4 0.0000 0.0000 0.0000 33.3406 0.0000 14.7637
# 5 -9.8091 0.4317 -6.3878 0.0000 45.0811 0.0000
# 6 0.0000 0.0000 0.0000 14.7637 0.0000 36.4728
#
#
#
# Elastic Compliance Matrix: (Units=1/GPa)
#
#
# Indices 1 2 3 4 5 6 
#
# 1 0.049026 -0.026623 -0.007462 0.000000 0.009865 0.000000
# 2 -0.026623 0.027801 -0.001047 0.000000 -0.006207 0.000000
# 3 -0.007462 -0.001047 0.008509 0.000000 -0.000408 0.000000
# 4 0.000000 0.000000 0.000000 0.036544 0.000000 -0.014792
# 5 0.009865 -0.006207 -0.000408 0.000000 0.024330 0.000000
# 6 0.000000 0.000000 0.000000 -0.014792 0.000000 0.033405
#
#
# Mechanical properties :
#
#
# Convention : Reuss Voigt Hill
#
# Bulk Modulus (GPa) = 66.35412 84.85986 75.60699
# Shear Modulus (GPa) = 19.61530 33.08406 26.34968
#
# Velocity S-wave (km/s) = 2.97740 3.86678 3.45086
# Velocity P-wave (km/s) = 6.46590 7.63462 7.07444
#
# Compressibility (1/GPa) = 0.01507066
#
# Stress axis : x y z
#
# Youngs Moduli (GPa) = 20.39742 35.97010 117.52813
#
# Poissons Ratio (x) = 0.95764 0.87705
# Poissons Ratio (y) = 0.54304 0.12301
# Poissons Ratio (z) = 0.15222 0.03765
#
# Static dielectric constant tensor:
#      x y z
#    x 4.448540 0.000000 -0.048620 
#    y 0.000000 4.762280 0.000000 
#    z -0.048620 0.000000 4.267370 
# 
# 
# High freq. dielectric constant tensor:
#      x y z
#    x 1.862820 0.000000 0.006730 
#    y 0.000000 1.866310 0.000000 
#    z 0.006730 0.000000 1.888800 
# 
# From -- ./inp_files/131918.got.cif
#   From: 2010.06.25/outbox.cif.g09.slc.cpg/sg15_66_cif.got.tgz:131918.got - 2010.06.28 07:06:18.
