data_PCOD8149309
_publ_section_title
;
Structure prediction by ZEFSAII (Michael W. Deem and Ramdas Pophale) SiO2 
 PCOD8149309
Probable space group: C 2/C
;
_chemical_formula_sum "Si O2"
_cell_formula_units_Z 64
_cell_length_a 14.692963
_cell_length_b 14.502987
_cell_length_c 17.960349
_cell_angle_alpha 90.000000
_cell_angle_beta 128.349015
_cell_angle_gamma 90.000000
_cell_volume 3001.468981
_symmetry_space_group_name_H-M "C 2/C"
_symmetry_group_IT_number 15
_symmetry_cell_setting 'monoclinic'
loop_
_space_group_symop_operation_xyz
x,y,z
-x,y,1/2-z
-x,-y,-z
x,-y,1/2+z
1/2+x,1/2+y,z
1/2-x,1/2+y,1/2-z
1/2-x,1/2-y,-z
1/2+x,1/2-y,1/2+z
loop_
_atom_site_type_symbol
_atom_site_label
_atom_site_fract_x
_atom_site_fract_y
_atom_site_fract_z
Si Si1 0.232484 0.357516 0.005419
Si Si2 0.005709 0.597686 0.462051
Si Si3 0.014062 0.779654 0.972772
Si Si4 0.831846 0.074042 0.406718
Si Si5 0.744902 0.607471 0.288928
Si Si6 0.873114 0.078063 0.717281
Si Si7 0.813122 0.131153 0.842582
Si Si8 0.414273 0.767644 0.270608
O O1 0.273153 0.417684 0.956691
O O2 0.101458 0.396682 0.945890
O O3 0.250000 0.250000 0.000000
O O4 0.303145 0.374282 0.116311
O O5 0.043870 0.682413 0.534035
O O6 0.879832 0.620299 0.368439
O O7 0.000000 0.500000 0.500000
O O8 0.952924 0.871516 0.973940
O O9 0.003210 0.771098 0.878571
O O10 0.141827 0.792083 0.074522
O O11 0.765007 0.123222 0.304912
O O12 0.842481 0.966916 0.393739
O O13 0.698461 0.510694 0.293827
O O14 0.669860 0.683434 0.294634
O O15 0.877822 0.141326 0.794609
O O16 0.000000 0.053592 0.750000
O O17 0.674342 0.147048 0.757591
O O18 0.500000 0.800853 0.250000
#
# Coordination Sequence:
#
# PCOD8149309 Si02
#       8
#     8   8   8   8   8   8   8   8
#     4  12  25  42  68 106 141 183 247 299 359 440
#     4  12  24  43  70  97 143 192 230 297 370 430
#     4  11  23  44  72  96 143 181 239 298 359 417
#     4  10  24  43  67 103 140 183 235 300 352 427
#     4  10  23  45  66  96 138 188 237 293 365 425
#     4  11  24  43  71 100 139 184 241 295 361 431
#     4  11  24  45  69 104 141 191 234 294 366 421
#     4  11  25  43  68  99 138 185 242 299 353 430
#
# _framework density 21.322892
#
# number of rings (size 3 to 8) (size 9 to 14) (size 15 to 20)
#    0.000    1.000    3.750    2.250    3.500    5.000 
#    0.000    0.000    0.000    0.000    0.000    0.000 
#    0.000    0.000    0.000    0.000    0.000    0.000 
#
# Total GULP energy -396465.308770 kJ/mol
# GULP energy per Si atom -12389.540899 kJ/mol
# Density = 2.127436 g / cm^3
# Si number density = 21.322892 Si / 1000 Ang^3
#
#
#
# Elastic Constant Matrix: (Units=GPa)
#
#
# Indices 1 2 3 4 5 6 
#
# 1 149.0332 30.3490 64.3465 0.0000 -10.5953 0.0000
# 2 30.3490 111.3038 39.4009 0.0000 -10.4958 0.0000
# 3 64.3465 39.4009 114.5224 0.0000 -1.5753 0.0000
# 4 0.0000 0.0000 0.0000 32.2633 0.0000 0.7494
# 5 -10.5953 -10.4958 -1.5753 0.0000 31.5660 0.0000
# 6 0.0000 0.0000 0.0000 0.7494 0.0000 30.0852
#
#
#
# Elastic Compliance Matrix: (Units=1/GPa)
#
#
# Indices 1 2 3 4 5 6 
#
# 1 0.009123 -0.000496 -0.004919 0.000000 0.002652 0.000000
# 2 -0.000496 0.010597 -0.003323 0.000000 0.003191 0.000000
# 3 -0.004919 -0.003323 0.012610 0.000000 -0.002127 0.000000
# 4 0.000000 0.000000 0.000000 0.031013 0.000000 -0.000772
# 5 0.002652 0.003191 -0.002127 0.000000 0.033525 0.000000
# 6 0.000000 0.000000 0.000000 -0.000772 0.000000 0.033258
#
#
# Mechanical properties :
#
#
# Convention : Reuss Voigt Hill
#
# Bulk Modulus (GPa) = 67.32432 71.45026 69.38729
# Shear Modulus (GPa) = 32.77541 34.83377 33.80459
#
# Velocity S-wave (km/s) = 3.92484 4.04621 3.98599
# Velocity P-wave (km/s) = 7.22367 7.44382 7.33457
#
# Compressibility (1/GPa) = 0.01485347
#
# Stress axis : x y z
#
# Youngs Moduli (GPa) = 109.60981 94.36616 79.30405
#
# Poissons Ratio (x) = 0.04684 0.39008
# Poissons Ratio (y) = 0.05440 0.26353
# Poissons Ratio (z) = 0.53915 0.31359
#
# Static dielectric constant tensor:
#      x y z
#    x 3.845930 0.000000 -0.021520 
#    y 0.000000 3.928850 0.000000 
#    z -0.021520 0.000000 4.102910 
# 
# 
# High freq. dielectric constant tensor:
#      x y z
#    x 1.826680 0.000000 0.004190 
#    y 0.000000 1.845990 0.000000 
#    z 0.004190 0.000000 1.849650 
# 
# From -- ./inp_files/205755.got.cif
#   From: 2010.06.25/outbox.cif.g09.slc.cpg/sg15_103_cif.got.tgz:205755.got - 2010.06.28 07:06:18.
