data_PCOD8149593
_publ_section_title
;
Structure prediction by ZEFSAII (Michael W. Deem and Ramdas Pophale) SiO2 
 PCOD8149593
Probable space group: C 2/C
;
_chemical_formula_sum "Si O2"
_cell_formula_units_Z 52
_cell_length_a 13.435802
_cell_length_b 31.079628
_cell_length_c 8.673003
_cell_angle_alpha 90.000000
_cell_angle_beta 46.568299
_cell_angle_gamma 90.000000
_cell_volume 2630.036655
_symmetry_space_group_name_H-M "C 2/C"
_symmetry_group_IT_number 15
_symmetry_cell_setting 'monoclinic'
loop_
_space_group_symop_operation_xyz
x,y,z
-x,y,1/2-z
-x,-y,-z
x,-y,1/2+z
1/2+x,1/2+y,z
1/2-x,1/2+y,1/2-z
1/2-x,1/2-y,-z
1/2+x,1/2-y,1/2+z
loop_
_atom_site_type_symbol
_atom_site_label
_atom_site_fract_x
_atom_site_fract_y
_atom_site_fract_z
Si Si1 0.034707 0.955318 0.037208
Si Si2 0.902163 0.870962 0.206877
Si Si3 0.647548 0.946542 0.815208
Si Si4 0.360466 0.858782 0.826282
Si Si5 0.000000 0.489921 0.250000
Si Si6 0.969051 0.786047 0.962074
Si Si7 0.747431 0.272038 0.835648
O O1 0.000000 0.961012 0.250000
O O2 0.942574 0.915210 0.074811
O O3 0.190671 0.943952 0.839485
O O4 0.000000 0.000000 0.000000
O O5 0.744808 0.874281 0.429099
O O6 0.000000 0.863585 0.250000
O O7 0.917876 0.832423 0.071281
O O8 0.595917 0.899029 0.826280
O O9 0.608259 0.980552 0.724931
O O10 0.582144 0.959314 0.047196
O O11 0.500000 0.839983 0.750000
O O12 0.290557 0.821789 0.799249
O O13 0.096373 0.769492 0.926593
O O14 0.000000 0.789105 0.750000
O O15 0.848050 0.751978 0.112415
O O16 0.750000 0.250000 0.000000
#
# Coordination Sequence:
#
# PCOD8149593 Si02
#       7
#     8   8   8   8   4   8   8
#     4  11  22  37  64  92 124 165 221 272 321 392
#     4  11  21  43  66  91 126 179 222 266 330 399
#     4  11  21  41  61  92 127 171 216 266 325 398
#     4  12  23  40  69  96 124 168 231 271 313 401
#     4  10  24  38  64  88 134 174 204 268 342 380
#     4  12  25  43  66 100 139 171 212 283 336 385
#     4  12  23  44  71  96 126 178 226 258 327 406
#
# _framework density 19.771588000000001
#
# number of rings (size 3 to 8) (size 9 to 14) (size 15 to 20)
#    0.000    0.615    6.923    2.769    0.000    0.615 
#    1.385    3.077    0.000    0.000    0.000    0.000 
#    0.000    0.000    0.000    0.000    0.000    0.000 
#
# Total GULP energy -322494.820243 kJ/mol
# GULP energy per Si atom -12403.646932 kJ/mol
# Density = 1.972659 g / cm^3
# Si number density = 19.771588 Si / 1000 Ang^3
#
#
#
# Elastic Constant Matrix: (Units=GPa)
#
#
# Indices 1 2 3 4 5 6 
#
# 1 63.3074 19.5910 34.7639 0.0000 -7.0455 0.0000
# 2 19.5910 147.0712 64.5226 0.0000 5.8322 0.0000
# 3 34.7639 64.5226 131.7859 0.0000 0.3441 0.0000
# 4 0.0000 0.0000 0.0000 43.0997 0.0000 1.0412
# 5 -7.0455 5.8322 0.3441 0.0000 39.9003 0.0000
# 6 0.0000 0.0000 0.0000 1.0412 0.0000 28.6992
#
#
#
# Elastic Compliance Matrix: (Units=1/GPa)
#
#
# Indices 1 2 3 4 5 6 
#
# 1 0.018958 -0.000592 -0.004720 0.000000 0.003475 0.000000
# 2 -0.000592 0.008739 -0.004119 0.000000 -0.001346 0.000000
# 3 -0.004720 -0.004119 0.010850 0.000000 -0.000325 0.000000
# 4 0.000000 0.000000 0.000000 0.023222 0.000000 -0.000842
# 5 0.003475 -0.001346 -0.000325 0.000000 0.025876 0.000000
# 6 0.000000 0.000000 0.000000 -0.000842 0.000000 0.034875
#
#
# Mechanical properties :
#
#
# Convention : Reuss Voigt Hill
#
# Bulk Modulus (GPa) = 50.80020 64.43550 57.61785
# Shear Modulus (GPa) = 33.79670 37.22564 35.51117
#
# Velocity S-wave (km/s) = 4.13892 4.34381 4.24261
# Velocity P-wave (km/s) = 6.97067 7.60388 7.29415
#
# Compressibility (1/GPa) = 0.01968496
#
# Stress axis : x y z
#
# Youngs Moduli (GPa) = 52.74868 114.43398 92.16171
#
# Poissons Ratio (x) = 0.06779 0.43500
# Poissons Ratio (y) = 0.03125 0.37958
# Poissons Ratio (z) = 0.24897 0.47132
#
# Static dielectric constant tensor:
#      x y z
#    x 3.917500 0.000000 -0.107330 
#    y 0.000000 4.013930 0.000000 
#    z -0.107330 0.000000 3.783160 
# 
# 
# High freq. dielectric constant tensor:
#      x y z
#    x 1.758500 0.000000 -0.018600 
#    y 0.000000 1.790530 0.000000 
#    z -0.018600 0.000000 1.779030 
# 
# From -- ./inp_files/44763.got.cif
#   From: 2010.06.25/outbox.cif.g09.slc.cpg/sg15_23_cif.got.tgz:44763.got - 2010.06.28 07:06:18.
