data_PCOD8149811
_publ_section_title
;
Structure prediction by ZEFSAII (Michael W. Deem and Ramdas Pophale) SiO2 
 PCOD8149811
Probable space group: C 2/C
;
_chemical_formula_sum "Si O2"
_cell_formula_units_Z 28
_cell_length_a 31.227132
_cell_length_b 4.614285
_cell_length_c 8.711312
_cell_angle_alpha 90.000000
_cell_angle_beta 128.302377
_cell_angle_gamma 90.000000
_cell_volume 985.035247
_symmetry_space_group_name_H-M "C 2/C"
_symmetry_group_IT_number 15
_symmetry_cell_setting 'monoclinic'
loop_
_space_group_symop_operation_xyz
x,y,z
-x,y,1/2-z
-x,-y,-z
x,-y,1/2+z
1/2+x,1/2+y,z
1/2-x,1/2+y,1/2-z
1/2-x,1/2-y,-z
1/2+x,1/2-y,1/2+z
loop_
_atom_site_type_symbol
_atom_site_label
_atom_site_fract_x
_atom_site_fract_y
_atom_site_fract_z
Si Si1 0.645460 0.754606 0.338305
Si Si2 0.784982 0.594107 0.784473
Si Si3 0.000000 0.058928 0.750000
Si Si4 0.070855 0.254390 0.639415
O O1 0.664712 0.906008 0.538330
O O2 0.625051 0.425756 0.313422
O O3 0.697201 0.782794 0.340610
O O4 0.590973 0.918538 0.156113
O O5 0.767591 0.877099 0.847607
O O6 0.952622 0.856272 0.574422
O O7 0.975057 0.256691 0.829814
#
# Coordination Sequence:
#
# PCOD8149811 Si02
#       4
#     8   8   4   8
#     4  12  24  42  64  91 124 161 204 250 304 360
#     4  12  24  41  64  91 124 161 204 251 302 360
#     4  10  24  42  64  92 124 160 204 250 304 360
#     4  11  24  41  64  91 124 161 202 251 302 361
#
# _framework density 28.425381999999999
#
# number of rings (size 3 to 8) (size 9 to 14) (size 15 to 20)
#    0.000    0.571    0.000    8.571    0.000    6.857 
#    0.000    0.000    0.000    0.000    0.000    0.000 
#    0.000    0.000    0.000    0.000    0.000    0.000 
#
# Total GULP energy -173727.786865 kJ/mol
# GULP energy per Si atom -12409.127633 kJ/mol
# Density = 2.836068 g / cm^3
# Si number density = 28.425382 Si / 1000 Ang^3
#
#
#
# Elastic Constant Matrix: (Units=GPa)
#
#
# Indices 1 2 3 4 5 6 
#
# 1 93.5430 3.8263 4.8445 0.0000 11.4622 0.0000
# 2 3.8263 75.2800 -26.1970 0.0000 -0.7580 0.0000
# 3 4.8445 -26.1970 23.5073 0.0000 -4.9036 0.0000
# 4 0.0000 0.0000 0.0000 22.0300 0.0000 4.0272
# 5 11.4622 -0.7580 -4.9036 0.0000 37.5182 0.0000
# 6 0.0000 0.0000 0.0000 4.0272 0.0000 36.1450
#
#
#
# Elastic Compliance Matrix: (Units=1/GPa)
#
#
# Indices 1 2 3 4 5 6 
#
# 1 0.011707 -0.002952 -0.006641 0.000000 -0.004504 0.000000
# 2 -0.002952 0.022954 0.027216 0.000000 0.004923 0.000000
# 3 -0.006641 0.027216 0.076872 0.000000 0.012626 0.000000
# 4 0.000000 0.000000 0.000000 0.046336 0.000000 -0.005163
# 5 -0.004504 0.004923 0.012626 0.000000 0.029779 0.000000
# 6 0.000000 0.000000 0.000000 -0.005163 0.000000 0.028242
#
#
# Mechanical properties :
#
#
# Convention : Reuss Voigt Hill
#
# Bulk Modulus (GPa) = 6.81296 17.47532 12.14414
# Shear Modulus (GPa) = 21.77970 33.12908 27.45439
#
# Velocity S-wave (km/s) = 2.77105 3.41761 3.11117
# Velocity P-wave (km/s) = 3.55531 4.66203 4.14577
#
# Compressibility (1/GPa) = 0.14677898
#
# Stress axis : x y z
#
# Youngs Moduli (GPa) = 85.41991 43.56485 13.00859
#
# Poissons Ratio (x) = 0.12859 0.08640
# Poissons Ratio (y) = 0.25212 -0.35404
# Poissons Ratio (z) = 0.56731 -1.18565
#
# Static dielectric constant tensor:
#      x y z
#    x 4.966040 0.000000 0.257920 
#    y 0.000000 5.140920 0.000000 
#    z 0.257920 0.000000 4.850480 
# 
# 
# High freq. dielectric constant tensor:
#      x y z
#    x 2.158770 0.000000 0.021370 
#    y 0.000000 2.156690 0.000000 
#    z 0.021370 0.000000 2.150720 
# 
# From -- ./inp_files/59495.got.cif
#   From: 2010.06.25/outbox.cif.g09.slc.cpg/sg15_30_cif.got.tgz:59495.got - 2010.06.28 07:06:18.
