data_PCOD8149206
_publ_section_title
;
Structure prediction by ZEFSAII (Michael W. Deem and Ramdas Pophale) SiO2 
 PCOD8149206
Probable space group: C 2/C
;
_chemical_formula_sum "Si O2"
_cell_formula_units_Z 40
_cell_length_a 28.699560
_cell_length_b 5.111732
_cell_length_c 12.934286
_cell_angle_alpha 90.000000
_cell_angle_beta 62.710758
_cell_angle_gamma 90.000000
_cell_volume 1686.330070
_symmetry_space_group_name_H-M "C 2/C"
_symmetry_group_IT_number 15
_symmetry_cell_setting 'monoclinic'
loop_
_space_group_symop_operation_xyz
x,y,z
-x,y,1/2-z
-x,-y,-z
x,-y,1/2+z
1/2+x,1/2+y,z
1/2-x,1/2+y,1/2-z
1/2-x,1/2-y,-z
1/2+x,1/2-y,1/2+z
loop_
_atom_site_type_symbol
_atom_site_label
_atom_site_fract_x
_atom_site_fract_y
_atom_site_fract_z
Si Si1 0.125058 0.543055 0.789492
Si Si2 0.156894 0.789250 0.559154
Si Si3 0.280370 0.168047 0.188098
Si Si4 0.031176 0.749164 0.003648
Si Si5 0.406262 0.807138 0.874364
O O1 0.162667 0.719988 0.675771
O O2 0.162482 0.358764 0.818024
O O3 0.089229 0.737548 0.893599
O O4 0.086629 0.357997 0.756639
O O5 0.211117 0.757201 0.440156
O O6 0.116012 0.576220 0.552877
O O7 0.135961 0.079867 0.564498
O O8 0.249194 0.391567 0.280970
O O9 0.039719 0.758158 0.119863
O O10 0.000000 0.500000 0.000000
O O11 0.000000 0.000000 0.000000
#
# Coordination Sequence:
#
# PCOD8149206 Si02
#       5
#     8   8   8   8   8
#     4  10  26  47  73  97 150 188 227 303 353 416
#     4  10  23  44  70  97 138 188 231 281 365 409
#     4  12  27  43  73 106 141 186 246 295 356 428
#     4  12  27  45  73 107 140 186 240 291 358 426
#     4  10  23  45  71  96 140 187 230 283 359 419
#
# _framework density 23.720147999999998
#
# number of rings (size 3 to 8) (size 9 to 14) (size 15 to 20)
#    1.200    0.000    2.000    2.400    5.600    2.400 
#    0.000    0.000    0.000    0.000    0.000    0.000 
#    0.000    0.000    0.000    0.000    0.000    0.000 
#
# Total GULP energy -247852.857099 kJ/mol
# GULP energy per Si atom -12392.642855 kJ/mol
# Density = 2.366616 g / cm^3
# Si number density = 23.720148 Si / 1000 Ang^3
#
#
#
# Elastic Constant Matrix: (Units=GPa)
#
#
# Indices 1 2 3 4 5 6 
#
# 1 69.0977 30.4950 25.3767 0.0000 10.4769 0.0000
# 2 30.4950 131.8497 20.2641 0.0000 -1.8824 -0.0001
# 3 25.3767 20.2641 78.9743 0.0000 10.9707 0.0000
# 4 0.0000 0.0000 0.0000 39.5198 0.0000 -15.8488
# 5 10.4769 -1.8824 10.9707 0.0000 24.5235 0.0000
# 6 0.0000 -0.0001 0.0000 -15.8488 0.0000 41.9656
#
#
#
# Elastic Compliance Matrix: (Units=1/GPa)
#
#
# Indices 1 2 3 4 5 6 
#
# 1 0.018619 -0.003763 -0.004129 0.000000 -0.006396 0.000000
# 2 -0.003763 0.008717 -0.001433 0.000000 0.002918 0.000000
# 3 -0.004129 -0.001433 0.015063 0.000000 -0.005085 0.000000
# 4 0.000000 0.000000 0.000000 0.029820 0.000000 0.011262
# 5 -0.006396 0.002918 -0.005085 0.000000 0.046008 0.000000
# 6 0.000000 0.000000 0.000000 0.011262 0.000000 0.028082
#
#
# Mechanical properties :
#
#
# Convention : Reuss Voigt Hill
#
# Bulk Modulus (GPa) = 42.10597 48.02146 45.06371
# Shear Modulus (GPa) = 28.92256 34.78751 31.85504
#
# Velocity S-wave (km/s) = 3.49567 3.83375 3.66861
# Velocity P-wave (km/s) = 5.83803 6.31552 6.08147
#
# Compressibility (1/GPa) = 0.02374960
#
# Stress axis : x y z
#
# Youngs Moduli (GPa) = 53.70792 114.72355 66.38789
#
# Poissons Ratio (x) = 0.43172 0.27410
# Poissons Ratio (y) = 0.20211 0.09511
# Poissons Ratio (z) = 0.22175 0.16437
#
# Static dielectric constant tensor:
#      x y z
#    x 4.142500 0.000000 0.226070 
#    y 0.000000 4.004060 0.000000 
#    z 0.226070 0.000000 4.422140 
# 
# 
# High freq. dielectric constant tensor:
#      x y z
#    x 1.926970 0.000000 0.016010 
#    y 0.000000 1.941250 0.000000 
#    z 0.016010 0.000000 1.940420 
# 
# From -- ./inp_files/179585.got.cif
#   From: 2010.06.25/outbox.cif.g09.slc.cpg/sg15_90_cif.got.tgz:179585.got - 2010.06.28 07:06:18.
