data_PCOD8149330
_publ_section_title
;
Structure prediction by ZEFSAII (Michael W. Deem and Ramdas Pophale) SiO2 
 PCOD8149330
Probable space group: C 2/C
;
_chemical_formula_sum "Si O2"
_cell_formula_units_Z 60
_cell_length_a 9.086853
_cell_length_b 16.251066
_cell_length_c 22.025577
_cell_angle_alpha 90.000000
_cell_angle_beta 59.048477
_cell_angle_gamma 90.000000
_cell_volume 2789.387307
_symmetry_space_group_name_H-M "C 2/C"
_symmetry_group_IT_number 15
_symmetry_cell_setting 'monoclinic'
loop_
_space_group_symop_operation_xyz
x,y,z
-x,y,1/2-z
-x,-y,-z
x,-y,1/2+z
1/2+x,1/2+y,z
1/2-x,1/2+y,1/2-z
1/2-x,1/2-y,-z
1/2+x,1/2-y,1/2+z
loop_
_atom_site_type_symbol
_atom_site_label
_atom_site_fract_x
_atom_site_fract_y
_atom_site_fract_z
Si Si1 0.000000 0.472555 0.250000
Si Si2 0.692788 0.663802 0.393630
Si Si3 0.866129 0.434262 0.549844
Si Si4 0.510517 0.489917 0.569986
Si Si5 0.428578 0.101325 0.167781
Si Si6 0.200626 0.864414 0.346754
Si Si7 0.181986 0.750807 0.242290
Si Si8 0.611216 0.251724 0.476404
O O1 0.906376 0.531644 0.222720
O O2 0.128343 0.418067 0.181635
O O3 0.626830 0.577926 0.380053
O O4 0.880368 0.641811 0.381163
O O5 0.689265 0.732948 0.341000
O O6 0.561903 0.697411 0.472268
O O7 0.693247 0.454896 0.551025
O O8 0.938008 0.342710 0.523441
O O9 0.000000 0.500000 0.500000
O O10 0.849282 0.441394 0.625541
O O11 0.500000 0.500000 0.500000
O O12 0.466281 0.576695 0.611331
O O13 0.305396 0.175137 0.213821
O O14 0.217201 0.831928 0.274024
O O15 0.193392 0.792125 0.398375
O O16 0.000000 0.757827 0.250000
O O17 0.750000 0.250000 0.500000
#
# Coordination Sequence:
#
# PCOD8149330 Si02
#       8
#     4   8   8   8   8   8   8   8
#     4  12  26  42  74  98 138 196 230 286 356 430
#     4  11  22  43  79  95 147 189 228 290 363 415
#     4  12  28  42  71 109 141 177 238 295 345 426
#     4  12  23  46  71 104 144 187 229 294 361 418
#     4  11  22  47  69 102 138 188 235 284 357 421
#     4  12  26  43  72 103 139 186 240 289 356 424
#     4  10  23  45  68 100 139 182 232 289 354 417
#     4  12  26  45  69 106 139 184 239 289 346 426
#
# _framework density 21.510100999999999
#
# number of rings (size 3 to 8) (size 9 to 14) (size 15 to 20)
#    0.000    0.533    7.333    0.800    3.733    3.733 
#    0.000    1.333    0.000    0.000    0.000    0.000 
#    0.000    0.000    0.000    0.000    0.000    0.000 
#
# Total GULP energy -371866.923762 kJ/mol
# GULP energy per Si atom -12395.564125 kJ/mol
# Density = 2.146114 g / cm^3
# Si number density = 21.510101 Si / 1000 Ang^3
#
#
#
# Elastic Constant Matrix: (Units=GPa)
#
#
# Indices 1 2 3 4 5 6 
#
# 1 64.4168 18.8741 35.4227 0.0002 16.4066 -0.0001
# 2 18.8741 127.9561 34.3125 0.0001 4.3745 -0.0002
# 3 35.4227 34.3125 97.7201 0.0001 10.7185 -0.0001
# 4 0.0002 0.0001 0.0001 45.2071 -0.0001 -12.5441
# 5 16.4066 4.3745 10.7185 -0.0001 39.3413 0.0001
# 6 -0.0001 -0.0002 -0.0001 -12.5441 0.0001 14.6692
#
#
#
# Elastic Compliance Matrix: (Units=1/GPa)
#
#
# Indices 1 2 3 4 5 6 
#
# 1 0.021217 -0.001142 -0.006529 0.000000 -0.006942 0.000000
# 2 -0.001142 0.008690 -0.002663 0.000000 0.000235 0.000000
# 3 -0.006529 -0.002663 0.013611 0.000000 -0.000689 0.000000
# 4 0.000000 0.000000 0.000000 0.029002 0.000000 0.024801
# 5 -0.006942 0.000235 -0.000689 0.000000 0.028475 0.000000
# 6 0.000000 0.000000 0.000000 0.024801 0.000000 0.089378
#
#
# Mechanical properties :
#
#
# Convention : Reuss Voigt Hill
#
# Bulk Modulus (GPa) = 43.76310 51.92351 47.84331
# Shear Modulus (GPa) = 22.86703 33.27576 28.07140
#
# Velocity S-wave (km/s) = 3.26403 3.93744 3.61644
# Velocity P-wave (km/s) = 5.88173 6.69797 6.30307
#
# Compressibility (1/GPa) = 0.02285030
#
# Stress axis : x y z
#
# Youngs Moduli (GPa) = 47.13293 115.07900 73.47207
#
# Poissons Ratio (x) = 0.13136 0.47967
# Poissons Ratio (y) = 0.05380 0.19567
# Poissons Ratio (z) = 0.30771 0.30648
#
# Static dielectric constant tensor:
#      x y z
#    x 3.238660 0.000000 0.382080 
#    y 0.000000 4.254190 0.000000 
#    z 0.382080 0.000000 3.902740 
# 
# 
# High freq. dielectric constant tensor:
#      x y z
#    x 1.826180 0.000000 0.004480 
#    y 0.000000 1.862990 0.000000 
#    z 0.004480 0.000000 1.852890 
# 
# From -- ./inp_files/233043.got.cif
#   From: 2010.06.25/outbox.cif.g09.slc.cpg/sg15_117_cif.got.tgz:233043.got - 2010.06.28 07:06:18.
