data_PCOD8149676
_publ_section_title
;
Structure prediction by ZEFSAII (Michael W. Deem and Ramdas Pophale) SiO2 
 PCOD8149676
Probable space group: C 2/C
;
_chemical_formula_sum "Si O2"
_cell_formula_units_Z 56
_cell_length_a 8.341190
_cell_length_b 18.440892
_cell_length_c 21.286700
_cell_angle_alpha 90.000000
_cell_angle_beta 49.760192
_cell_angle_gamma 90.000000
_cell_volume 2499.427273
_symmetry_space_group_name_H-M "C 2/C"
_symmetry_group_IT_number 15
_symmetry_cell_setting 'monoclinic'
loop_
_space_group_symop_operation_xyz
x,y,z
-x,y,1/2-z
-x,-y,-z
x,-y,1/2+z
1/2+x,1/2+y,z
1/2-x,1/2+y,1/2-z
1/2-x,1/2-y,-z
1/2+x,1/2-y,1/2+z
loop_
_atom_site_type_symbol
_atom_site_label
_atom_site_fract_x
_atom_site_fract_y
_atom_site_fract_z
Si Si1 0.744106 0.663482 0.554332
Si Si2 0.522394 0.939608 0.413442
Si Si3 0.983909 0.323389 0.326737
Si Si4 0.869887 0.948691 0.843276
Si Si5 0.396060 0.519605 0.959860
Si Si6 0.335074 0.802098 0.603375
Si Si7 0.398473 0.246169 0.215481
O O1 0.619442 0.606882 0.540752
O O2 0.569937 0.704377 0.637787
O O3 0.906863 0.622843 0.557914
O O4 0.914993 0.713324 0.473159
O O5 0.437298 0.899592 0.372350
O O6 0.715513 0.992524 0.351395
O O7 0.338519 0.988865 0.487710
O O8 0.209151 0.293446 0.292412
O O9 0.000000 0.341540 0.250000
O O10 0.799191 0.265619 0.388859
O O11 0.752636 0.877622 0.901207
O O12 0.000000 0.923337 0.750000
O O13 0.000738 0.984484 0.869607
O O14 0.500000 0.500000 0.000000
O O15 0.309125 0.808858 0.686164
O O16 0.500000 0.205480 0.250000
#
# Coordination Sequence:
#
# PCOD8149676 Si02
#       7
#     8   8   8   8   8   8   8
#     4  11  22  44  70  91 131 184 222 269 344 407
#     4  11  22  43  67  95 131 177 226 270 336 411
#     4  10  24  40  66  96 139 173 224 279 339 404
#     4  11  23  44  71  95 136 183 220 275 354 408
#     4  11  25  43  68 103 135 168 233 289 326 404
#     4  11  23  47  62  97 140 182 219 274 346 412
#     4  11  23  42  65  99 130 171 228 281 326 401
#
# _framework density 22.405131000000001
#
# number of rings (size 3 to 8) (size 9 to 14) (size 15 to 20)
#    0.000    1.143    4.286    2.571    8.000    0.571 
#    5.143    0.714    0.000    0.000    0.000    0.000 
#    0.000    0.000    0.000    0.000    0.000    0.000 
#
# Total GULP energy -347000.812086 kJ/mol
# GULP energy per Si atom -12392.886146 kJ/mol
# Density = 2.235414 g / cm^3
# Si number density = 22.405131 Si / 1000 Ang^3
#
#
#
# Elastic Constant Matrix: (Units=GPa)
#
#
# Indices 1 2 3 4 5 6 
#
# 1 95.3192 23.8929 25.3746 0.0005 16.0146 0.0013
# 2 23.8929 75.0104 20.6712 0.0002 3.8523 0.0005
# 3 25.3746 20.6712 78.0905 0.0023 -11.5894 -0.0011
# 4 0.0005 0.0002 0.0023 33.8726 -0.0014 -1.2059
# 5 16.0146 3.8523 -11.5894 -0.0014 35.7967 0.0002
# 6 0.0013 0.0005 -0.0011 -1.2059 0.0002 24.3528
#
#
#
# Elastic Compliance Matrix: (Units=1/GPa)
#
#
# Indices 1 2 3 4 5 6 
#
# 1 0.013689 -0.002644 -0.004848 0.000000 -0.007409 -0.000001
# 2 -0.002644 0.015188 -0.003391 0.000000 -0.001550 0.000000
# 3 -0.004848 -0.003391 0.016445 -0.000001 0.007858 0.000001
# 4 0.000000 0.000000 -0.000001 0.029575 0.000001 0.001465
# 5 -0.007409 -0.001550 0.007858 0.000001 0.033961 0.000001
# 6 -0.000001 0.000000 0.000001 0.001465 0.000001 0.041135
#
#
# Mechanical properties :
#
#
# Convention : Reuss Voigt Hill
#
# Bulk Modulus (GPa) = 42.45245 43.14417 42.79831
# Shear Modulus (GPa) = 27.83799 30.70318 29.27059
#
# Velocity S-wave (km/s) = 3.52871 3.70586 3.61837
# Velocity P-wave (km/s) = 5.96583 6.13265 6.04982
#
# Compressibility (1/GPa) = 0.02355577
#
# Stress axis : x y z
#
# Youngs Moduli (GPa) = 73.05048 65.84255 60.80954
#
# Poissons Ratio (x) = 0.17408 0.29480
# Poissons Ratio (y) = 0.19314 0.20622
# Poissons Ratio (z) = 0.35414 0.22328
#
# Static dielectric constant tensor:
#      x y z
#    x 4.123180 0.000000 0.007640 
#    y 0.000000 4.069000 0.000000 
#    z 0.007640 0.000000 4.217720 
# 
# 
# High freq. dielectric constant tensor:
#      x y z
#    x 1.882360 0.000000 0.001400 
#    y 0.000000 1.874850 0.000000 
#    z 0.001400 0.000000 1.890090 
# 
# From -- ./inp_files/233755.got.cif
#   From: 2010.06.25/outbox.cif.g09.slc.cpg/sg15_117_cif.got.tgz:233755.got - 2010.06.28 07:06:18.
