data_PCOD8149080
_publ_section_title
;
Structure prediction by ZEFSAII (Michael W. Deem and Ramdas Pophale) SiO2 
 PCOD8149080
Probable space group: C 2/C
;
_chemical_formula_sum "Si O2"
_cell_formula_units_Z 56
_cell_length_a 26.911771
_cell_length_b 12.043088
_cell_length_c 8.872406
_cell_angle_alpha 90.000000
_cell_angle_beta 111.350879
_cell_angle_gamma 90.000000
_cell_volume 2678.199923
_symmetry_space_group_name_H-M "C 2/C"
_symmetry_group_IT_number 15
_symmetry_cell_setting 'monoclinic'
loop_
_space_group_symop_operation_xyz
x,y,z
-x,y,1/2-z
-x,-y,-z
x,-y,1/2+z
1/2+x,1/2+y,z
1/2-x,1/2+y,1/2-z
1/2-x,1/2-y,-z
1/2+x,1/2-y,1/2+z
loop_
_atom_site_type_symbol
_atom_site_label
_atom_site_fract_x
_atom_site_fract_y
_atom_site_fract_z
Si Si1 0.889901 0.131771 0.607406
Si Si2 0.234676 0.125060 0.990094
Si Si3 0.871250 0.426441 0.145827
Si Si4 0.446318 0.756506 0.097146
Si Si5 0.561447 0.526433 0.555552
Si Si6 0.442716 0.145020 0.264798
Si Si7 0.703479 0.992102 0.191919
O O1 0.827646 0.113624 0.556397
O O2 0.919533 0.053051 0.757184
O O3 0.907573 0.259481 0.645442
O O4 0.907907 0.083889 0.465864
O O5 0.251314 0.072935 0.848910
O O6 0.250000 0.250000 0.000000
O O7 0.267066 0.074765 0.163707
O O8 0.903298 0.313122 0.159165
O O9 0.910641 0.530973 0.211317
O O10 0.834247 0.410001 0.252333
O O11 0.834136 0.438512 0.959389
O O12 0.500000 0.753501 0.250000
O O13 0.427268 0.632175 0.039362
O O14 0.452560 0.828318 0.951162
O O15 0.500000 0.500000 0.500000
O O16 0.500000 0.133631 0.250000
#
# Coordination Sequence:
#
# PCOD8149080 Si02
#       7
#     8   8   8   8   8   8   8
#     4  11  22  42  66  92 128 174 216 270 329 383
#     4  11  24  45  70  96 133 175 229 282 336 393
#     4  11  22  42  65  93 135 173 215 272 334 389
#     4  11  24  39  61  96 135 170 219 265 321 404
#     4  11  23  42  65  94 133 170 215 267 327 399
#     4  11  24  40  66  96 133 176 214 259 333 407
#     4  10  23  44  65  98 130 172 226 278 329 397
#
# _framework density 20.909568
#
# number of rings (size 3 to 8) (size 9 to 14) (size 15 to 20)
#    0.000    1.143    1.429    6.000    4.000    1.143 
#    7.714    1.429    0.000    0.000    0.000    0.000 
#    0.000    0.000    0.000    0.000    0.000    0.000 
#
# Total GULP energy -347267.274023 kJ/mol
# GULP energy per Si atom -12402.402644 kJ/mol
# Density = 2.086198 g / cm^3
# Si number density = 20.909568 Si / 1000 Ang^3
#
#
#
# Elastic Constant Matrix: (Units=GPa)
#
#
# Indices 1 2 3 4 5 6 
#
# 1 117.8488 6.3792 11.8358 0.0000 -6.1726 0.0000
# 2 6.3792 77.5883 6.7580 0.0000 -12.5073 0.0000
# 3 11.8358 6.7580 59.5806 0.0000 -3.1898 0.0000
# 4 0.0000 0.0000 0.0000 24.0256 0.0000 -8.4541
# 5 -6.1726 -12.5073 -3.1898 0.0000 29.2604 0.0000
# 6 0.0000 0.0000 0.0000 -8.4541 0.0000 16.1248
#
#
#
# Elastic Compliance Matrix: (Units=1/GPa)
#
#
# Indices 1 2 3 4 5 6 
#
# 1 0.008746 -0.000332 -0.001618 0.000000 0.001527 0.000000
# 2 -0.000332 0.013950 -0.001208 0.000000 0.005761 0.000000
# 3 -0.001618 -0.001208 0.017297 0.000000 0.001028 0.000000
# 4 0.000000 0.000000 0.000000 0.051038 0.000000 0.026759
# 5 0.001527 0.005761 0.001028 0.000000 0.037073 0.000000
# 6 0.000000 0.000000 0.000000 0.026759 0.000000 0.076046
#
#
# Mechanical properties :
#
#
# Convention : Reuss Voigt Hill
#
# Bulk Modulus (GPa) = 29.69363 33.88484 31.78924
# Shear Modulus (GPa) = 22.55386 29.21847 25.88617
#
# Velocity S-wave (km/s) = 3.28783 3.74220 3.52235
# Velocity P-wave (km/s) = 5.35209 5.90870 5.63727
#
# Compressibility (1/GPa) = 0.03367725
#
# Stress axis : x y z
#
# Youngs Moduli (GPa) = 114.33948 71.68598 57.81203
#
# Poissons Ratio (x) = 0.02380 0.09354
# Poissons Ratio (y) = 0.03797 0.06983
# Poissons Ratio (z) = 0.18500 0.08659
#
# Static dielectric constant tensor:
#      x y z
#    x 3.913040 0.000000 -0.131640 
#    y 0.000000 4.236960 0.000000 
#    z -0.131640 0.000000 3.718770 
# 
# 
# High freq. dielectric constant tensor:
#      x y z
#    x 1.833080 0.000000 -0.000900 
#    y 0.000000 1.818110 0.000000 
#    z -0.000900 0.000000 1.834370 
# 
# From -- ./inp_files/65431.got.cif
#   From: 2010.06.25/outbox.cif.g09.slc.cpg/sg15_33_cif.got.tgz:65431.got - 2010.06.28 07:06:18.
