data_PCOD8149324
_publ_section_title
;
Structure prediction by ZEFSAII (Michael W. Deem and Ramdas Pophale) SiO2 
 PCOD8149324
Probable space group: C 2/C
;
_chemical_formula_sum "Si O2"
_cell_formula_units_Z 40
_cell_length_a 8.270596
_cell_length_b 11.200090
_cell_length_c 21.354692
_cell_angle_alpha 90.000000
_cell_angle_beta 123.909346
_cell_angle_gamma 90.000000
_cell_volume 1641.680124
_symmetry_space_group_name_H-M "C 2/C"
_symmetry_group_IT_number 15
_symmetry_cell_setting 'monoclinic'
loop_
_space_group_symop_operation_xyz
x,y,z
-x,y,1/2-z
-x,-y,-z
x,-y,1/2+z
1/2+x,1/2+y,z
1/2-x,1/2+y,1/2-z
1/2-x,1/2-y,-z
1/2+x,1/2-y,1/2+z
loop_
_atom_site_type_symbol
_atom_site_label
_atom_site_fract_x
_atom_site_fract_y
_atom_site_fract_z
Si Si1 0.492216 0.472814 0.854889
Si Si2 0.284517 0.118897 0.979243
Si Si3 0.105922 0.426664 0.710118
Si Si4 0.673114 0.807454 0.598163
Si Si5 0.253937 0.460870 0.413974
O O1 0.321670 0.484017 0.765749
O O2 0.609916 0.352160 0.867109
O O3 0.377861 0.454440 0.894948
O O4 0.648597 0.585708 0.889535
O O5 0.520187 0.116530 0.021191
O O6 0.214674 0.013372 0.010658
O O7 0.250000 0.250000 0.000000
O O8 0.115183 0.322915 0.659094
O O9 0.000000 0.375142 0.750000
O O10 0.973298 0.535074 0.655074
O O11 0.659619 0.670796 0.575133
#
# Coordination Sequence:
#
# PCOD8149324 Si02
#       5
#     8   8   8   8   8
#     4  11  22  40  67  99 133 174 229 273 338 396
#     4  11  23  44  68  99 141 180 221 278 335 401
#     4   9  22  43  65  97 133 175 224 278 341 401
#     4  11  23  43  69  96 135 175 227 279 335 407
#     4  10  23  45  67  95 139 179 222 276 340 397
#
# _framework density 24.365282000000001
#
# number of rings (size 3 to 8) (size 9 to 14) (size 15 to 20)
#    0.000    1.600    2.000    1.800    0.000    5.600 
#    7.200    4.000    0.000    0.000    0.000    0.000 
#    0.000    0.000    0.000    0.000    0.000    0.000 
#
# Total GULP energy -247763.965099 kJ/mol
# GULP energy per Si atom -12388.198255 kJ/mol
# Density = 2.430983 g / cm^3
# Si number density = 24.365282 Si / 1000 Ang^3
#
#
#
# Elastic Constant Matrix: (Units=GPa)
#
#
# Indices 1 2 3 4 5 6 
#
# 1 103.1817 40.8394 46.3671 0.0000 25.9601 0.0000
# 2 40.8394 118.1920 58.6653 0.0000 -10.0722 0.0000
# 3 46.3671 58.6653 125.3236 0.0000 47.4032 0.0000
# 4 0.0000 0.0000 0.0000 24.6899 0.0000 -0.2230
# 5 25.9601 -10.0722 47.4032 0.0000 45.0742 0.0000
# 6 0.0000 0.0000 0.0000 -0.2230 0.0000 39.5038
#
#
#
# Elastic Compliance Matrix: (Units=1/GPa)
#
#
# Indices 1 2 3 4 5 6 
#
# 1 0.014881 -0.008279 0.003838 0.000000 -0.014457 0.000000
# 2 -0.008279 0.023695 -0.019653 0.000000 0.030732 0.000000
# 3 0.003838 -0.019653 0.030316 0.000000 -0.038484 0.000000
# 4 0.000000 0.000000 0.000000 0.040505 0.000000 0.000229
# 5 -0.014457 0.030732 -0.038484 0.000000 0.077852 0.000000
# 6 0.000000 0.000000 0.000000 0.000229 0.000000 0.025315
#
#
# Mechanical properties :
#
#
# Convention : Reuss Voigt Hill
#
# Bulk Modulus (GPa) = 48.29969 70.93788 59.61879
# Shear Modulus (GPa) = 18.68088 35.24194 26.96141
#
# Velocity S-wave (km/s) = 2.77194 3.80728 3.33009
# Velocity P-wave (km/s) = 5.48735 6.96453 6.26960
#
# Compressibility (1/GPa) = 0.02070407
#
# Stress axis : x y z
#
# Youngs Moduli (GPa) = 67.19952 42.20233 32.98623
#
# Poissons Ratio (x) = 0.34939 -0.12661
# Poissons Ratio (y) = 0.55635 0.64828
# Poissons Ratio (z) = -0.25792 0.82941
#
# Static dielectric constant tensor:
#      x y z
#    x 4.797430 0.000000 0.485090 
#    y 0.000000 3.874540 0.000000 
#    z 0.485090 0.000000 4.831180 
# 
# 
# High freq. dielectric constant tensor:
#      x y z
#    x 1.987280 0.000000 0.035870 
#    y 0.000000 1.930200 0.000000 
#    z 0.035870 0.000000 1.978100 
# 
# From -- ./inp_files/263348.got.cif
#   From: 2010.06.25/outbox.cif.g09.slc.cpg/sg15_132_cif.got.tgz:263348.got - 2010.06.28 07:06:18.
