data_PCOD8149843
_publ_section_title
;
Structure prediction by ZEFSAII (Michael W. Deem and Ramdas Pophale) SiO2 
 PCOD8149843
Probable space group: C 2/C
;
_chemical_formula_sum "Si O2"
_cell_formula_units_Z 44
_cell_length_a 10.505970
_cell_length_b 25.846176
_cell_length_c 9.400927
_cell_angle_alpha 90.000000
_cell_angle_beta 53.958199
_cell_angle_gamma 90.000000
_cell_volume 2064.098412
_symmetry_space_group_name_H-M "C 2/C"
_symmetry_group_IT_number 15
_symmetry_cell_setting 'monoclinic'
loop_
_space_group_symop_operation_xyz
x,y,z
-x,y,1/2-z
-x,-y,-z
x,-y,1/2+z
1/2+x,1/2+y,z
1/2-x,1/2+y,1/2-z
1/2-x,1/2-y,-z
1/2+x,1/2-y,1/2+z
loop_
_atom_site_type_symbol
_atom_site_label
_atom_site_fract_x
_atom_site_fract_y
_atom_site_fract_z
Si Si1 0.500000 0.238172 0.750000
Si Si2 0.676835 0.609940 0.649013
Si Si3 0.175531 0.301493 0.613331
Si Si4 0.114413 0.999884 0.058108
Si Si5 0.784576 0.685180 0.093293
Si Si6 0.312265 0.906134 0.372272
O O1 0.343997 0.270413 0.835471
O O2 0.542856 0.203168 0.582075
O O3 0.500000 0.633042 0.750000
O O4 0.801009 0.650499 0.506452
O O5 0.680078 0.556344 0.559592
O O6 0.729257 0.603816 0.776609
O O7 0.250000 0.250000 0.500000
O O8 0.225805 0.324576 0.732717
O O9 0.000000 0.283933 0.750000
O O10 0.267660 0.035578 0.943874
O O11 0.000000 0.023989 0.250000
O O12 0.000000 0.000000 0.000000
O O13 0.738055 0.633944 0.035229
O O14 0.500000 0.901866 0.250000
#
# Coordination Sequence:
#
# PCOD8149843 Si02
#       6
#     4   8   8   8   8   8
#     4  10  24  42  66  92 140 180 240 280 336 414
#     4  11  26  47  70 102 145 185 239 294 357 428
#     4  12  27  44  69 103 145 189 236 292 358 423
#     4  11  24  48  73 101 138 189 238 290 361 434
#     4  11  25  42  69  99 136 188 237 285 350 415
#     4  12  26  44  72 105 142 182 237 299 352 420
#
# _framework density 21.316814999999998
#
# number of rings (size 3 to 8) (size 9 to 14) (size 15 to 20)
#    0.000    0.727    4.545    2.727   11.455    1.455 
#    0.000    0.000    0.000    0.000    0.000    0.000 
#    0.000    0.000    0.000    0.000    0.000    0.000 
#
# Total GULP energy -272553.819573 kJ/mol
# GULP energy per Si atom -12388.809981 kJ/mol
# Density = 2.126830 g / cm^3
# Si number density = 21.316815 Si / 1000 Ang^3
#
#
#
# Elastic Constant Matrix: (Units=GPa)
#
#
# Indices 1 2 3 4 5 6 
#
# 1 112.7774 40.4431 46.1148 0.0000 11.5633 0.0000
# 2 40.4431 140.2240 65.8037 0.0000 7.0768 0.0000
# 3 46.1148 65.8037 132.5374 0.0000 9.7587 0.0000
# 4 0.0000 0.0000 0.0000 38.5490 0.0000 -1.3853
# 5 11.5633 7.0768 9.7587 0.0000 51.9227 0.0000
# 6 0.0000 0.0000 0.0000 -1.3853 0.0000 28.9474
#
#
#
# Elastic Compliance Matrix: (Units=1/GPa)
#
#
# Indices 1 2 3 4 5 6 
#
# 1 0.010790 -0.001726 -0.002776 0.000000 -0.001646 0.000000
# 2 -0.001726 0.009582 -0.004146 0.000000 -0.000142 0.000000
# 3 -0.002776 -0.004146 0.010630 0.000000 -0.000814 0.000000
# 4 0.000000 0.000000 0.000000 0.025986 0.000000 0.001244
# 5 -0.001646 -0.000142 -0.000814 0.000000 0.019798 0.000000
# 6 0.000000 0.000000 0.000000 0.001244 0.000000 0.034605
#
#
# Mechanical properties :
#
#
# Convention : Reuss Voigt Hill
#
# Bulk Modulus (GPa) = 72.96880 76.69579 74.83230
# Shear Modulus (GPa) = 37.52167 39.42897 38.47532
#
# Velocity S-wave (km/s) = 4.20001 4.30544 4.25305
# Velocity P-wave (km/s) = 7.60428 7.79569 7.70058
#
# Compressibility (1/GPa) = 0.01370449
#
# Stress axis : x y z
#
# Youngs Moduli (GPa) = 92.67895 104.35871 94.07736
#
# Poissons Ratio (x) = 0.18015 0.26116
# Poissons Ratio (y) = 0.15999 0.39009
# Poissons Ratio (z) = 0.25727 0.43272
#
# Static dielectric constant tensor:
#      x y z
#    x 3.914540 0.000000 0.067800 
#    y 0.000000 4.135060 0.000000 
#    z 0.067800 0.000000 4.410920 
# 
# 
# High freq. dielectric constant tensor:
#      x y z
#    x 1.836190 0.000000 0.006340 
#    y 0.000000 1.844000 0.000000 
#    z 0.006340 0.000000 1.855770 
# 
# From -- ./inp_files/34010.got.cif
#   From: 2010.06.25/outbox.cif.g09.slc.cpg/sg15_18_cif.got.tgz:34010.got - 2010.06.28 07:06:18.
