data_PCOD8149857
_publ_section_title
;
Structure prediction by ZEFSAII (Michael W. Deem and Ramdas Pophale) SiO2 
 PCOD8149857
Probable space group: C 2/C
;
_chemical_formula_sum "Si O2"
_cell_formula_units_Z 56
_cell_length_a 15.440459
_cell_length_b 16.634564
_cell_length_c 11.418209
_cell_angle_alpha 90.000000
_cell_angle_beta 116.982962
_cell_angle_gamma 90.000000
_cell_volume 2613.462542
_symmetry_space_group_name_H-M "C 2/C"
_symmetry_group_IT_number 15
_symmetry_cell_setting 'monoclinic'
loop_
_space_group_symop_operation_xyz
x,y,z
-x,y,1/2-z
-x,-y,-z
x,-y,1/2+z
1/2+x,1/2+y,z
1/2-x,1/2+y,1/2-z
1/2-x,1/2-y,-z
1/2+x,1/2-y,1/2+z
loop_
_atom_site_type_symbol
_atom_site_label
_atom_site_fract_x
_atom_site_fract_y
_atom_site_fract_z
Si Si1 0.691352 0.601607 0.505382
Si Si2 0.775687 0.929625 0.999378
Si Si3 0.033811 0.773969 0.891612
Si Si4 0.332830 0.298246 0.865955
Si Si5 0.339833 0.143618 0.406563
Si Si6 0.597799 0.020537 0.237316
Si Si7 0.711663 0.120252 0.702410
O O1 0.658249 0.507990 0.490212
O O2 0.608011 0.655858 0.397896
O O3 0.791896 0.605283 0.493030
O O4 0.710581 0.636570 0.647243
O O5 0.822004 0.846366 0.981364
O O6 0.673546 0.942519 0.874081
O O7 0.765433 0.927884 0.132762
O O8 0.000000 0.730363 0.750000
O O9 0.941735 0.817867 0.892466
O O10 0.085732 0.713040 0.011305
O O11 0.249779 0.324512 0.725126
O O12 0.328512 0.202072 0.879356
O O13 0.405912 0.079486 0.377548
O O14 0.500000 0.014845 0.250000
O O15 0.625013 0.932467 0.205228
#
# Coordination Sequence:
#
# PCOD8149857 Si02
#       7
#     8   8   8   8   8   8   8
#     4  11  22  43  69  95 133 176 223 276 334 383
#     4  10  24  43  67  93 136 183 216 272 340 392
#     4  12  24  39  71 104 130 178 230 275 329 399
#     4  11  24  42  68 100 133 175 225 274 332 396
#     4  11  22  46  65  96 142 171 223 284 330 392
#     4  10  24  42  67 100 135 176 223 276 333 402
#     4  11  22  43  67  93 135 177 215 272 335 399
#
# _framework density 21.427510999999999
#
# number of rings (size 3 to 8) (size 9 to 14) (size 15 to 20)
#    0.000    1.143    4.286    1.714    2.000    4.000 
#    0.000    0.714    0.000    0.000    0.000    0.000 
#    0.000    0.000    0.000    0.000    0.000    0.000 
#
# Total GULP energy -347154.225518 kJ/mol
# GULP energy per Si atom -12398.365197 kJ/mol
# Density = 2.137874 g / cm^3
# Si number density = 21.427511 Si / 1000 Ang^3
#
#
#
# Elastic Constant Matrix: (Units=GPa)
#
#
# Indices 1 2 3 4 5 6 
#
# 1 115.4658 51.2644 35.6682 0.0000 -8.7129 0.0000
# 2 51.2644 127.0561 29.2926 0.0000 0.6577 0.0000
# 3 35.6682 29.2926 87.8499 0.0000 -14.3909 0.0000
# 4 0.0000 0.0000 0.0000 23.9828 0.0000 -10.2511
# 5 -8.7129 0.6577 -14.3909 0.0000 33.0538 0.0000
# 6 0.0000 0.0000 0.0000 -10.2511 0.0000 28.2767
#
#
#
# Elastic Compliance Matrix: (Units=1/GPa)
#
#
# Indices 1 2 3 4 5 6 
#
# 1 0.011489 -0.003939 -0.003060 0.000000 0.001774 0.000000
# 2 -0.003939 0.009948 -0.002068 0.000000 -0.002136 0.000000
# 3 -0.003060 -0.002068 0.014203 0.000000 0.005418 0.000000
# 4 0.000000 0.000000 0.000000 0.049342 0.000000 0.017888
# 5 0.001774 -0.002136 0.005418 0.000000 0.033123 0.000000
# 6 0.000000 0.000000 0.000000 0.017888 0.000000 0.041850
#
#
# Mechanical properties :
#
#
# Convention : Reuss Voigt Hill
#
# Bulk Modulus (GPa) = 57.12767 62.53580 59.83174
# Shear Modulus (GPa) = 27.18532 31.33911 29.26221
#
# Velocity S-wave (km/s) = 3.56576 3.82850 3.69946
# Velocity P-wave (km/s) = 6.60845 6.98508 6.79938
#
# Compressibility (1/GPa) = 0.01750465
#
# Stress axis : x y z
#
# Youngs Moduli (GPa) = 87.04187 100.52679 70.40977
#
# Poissons Ratio (x) = 0.39598 0.21549
# Poissons Ratio (y) = 0.34286 0.14558
# Poissons Ratio (z) = 0.26639 0.20785
#
# Static dielectric constant tensor:
#      x y z
#    x 3.791390 0.000000 -0.151830 
#    y 0.000000 3.975450 0.000000 
#    z -0.151830 0.000000 3.861830 
# 
# 
# High freq. dielectric constant tensor:
#      x y z
#    x 1.828310 0.000000 -0.013780 
#    y 0.000000 1.850990 0.000000 
#    z -0.013780 0.000000 1.842000 
# 
# From -- ./inp_files/98832.got.cif
#   From: 2010.06.25/outbox.cif.g09.slc.cpg/sg15_50_cif.got.tgz:98832.got - 2010.06.28 07:06:18.
