data_PCOD8149638
_publ_section_title
;
Structure prediction by ZEFSAII (Michael W. Deem and Ramdas Pophale) SiO2 
 PCOD8149638
Probable space group: C 2/C
;
_chemical_formula_sum "Si O2"
_cell_formula_units_Z 60
_cell_length_a 27.642527
_cell_length_b 22.694682
_cell_length_c 8.955321
_cell_angle_alpha 90.000000
_cell_angle_beta 150.464804
_cell_angle_gamma 90.000000
_cell_volume 2769.446767
_symmetry_space_group_name_H-M "C 2/C"
_symmetry_group_IT_number 15
_symmetry_cell_setting 'monoclinic'
loop_
_space_group_symop_operation_xyz
x,y,z
-x,y,1/2-z
-x,-y,-z
x,-y,1/2+z
1/2+x,1/2+y,z
1/2-x,1/2+y,1/2-z
1/2-x,1/2-y,-z
1/2+x,1/2-y,1/2+z
loop_
_atom_site_type_symbol
_atom_site_label
_atom_site_fract_x
_atom_site_fract_y
_atom_site_fract_z
Si Si1 0.113288 0.730923 0.249658
Si Si2 0.779646 0.005010 0.673826
Si Si3 0.558566 0.857605 0.166762
Si Si4 0.027158 0.836666 0.658735
Si Si5 0.000000 0.560748 0.250000
Si Si6 0.317776 0.756183 0.896547
Si Si7 0.086078 0.953904 0.714123
Si Si8 0.643834 0.960085 0.554593
O O1 0.203055 0.741135 0.604814
O O2 0.152016 0.721604 0.186763
O O3 0.047430 0.673891 0.108275
O O4 0.052971 0.790337 0.109425
O O5 0.707368 0.044607 0.377241
O O6 0.850411 0.965002 0.762642
O O7 0.716820 0.961642 0.609266
O O8 0.844491 0.047366 0.952730
O O9 0.645009 0.808154 0.392464
O O10 0.577174 0.901641 0.357380
O O11 0.560060 0.897837 0.023690
O O12 0.032815 0.890827 0.559266
O O13 0.000000 0.860562 0.750000
O O14 0.132177 0.805675 0.935911
O O15 0.077676 0.519097 0.373321
O O16 0.000000 0.000000 0.500000
#
# Coordination Sequence:
#
# PCOD8149638 Si02
#       8
#     8   8   8   8   4   8   8   8
#     4   9  20  38  66  98 124 172 223 273 334 402
#     4  10  24  40  62  95 131 175 226 261 342 408
#     4  11  23  40  67  92 136 176 221 285 342 402
#     4   9  18  35  59  92 127 165 220 272 325 394
#     4  12  26  42  64  98 140 178 226 274 352 422
#     4   9  20  38  63  98 127 166 226 275 331 398
#     4  11  22  40  65  95 134 177 219 281 332 395
#     4  11  24  43  63  97 134 176 219 278 339 415
#
# _framework density 21.664975999999999
#
# number of rings (size 3 to 8) (size 9 to 14) (size 15 to 20)
#    0.000    1.867    1.333    2.800    1.867    7.467 
#    0.000    0.667   14.667    0.000    0.000    0.000 
#    0.000    0.000    0.000    0.000    0.000    0.000 
#
# Total GULP energy -371942.516718 kJ/mol
# GULP energy per Si atom -12398.083891 kJ/mol
# Density = 2.161567 g / cm^3
# Si number density = 21.664976 Si / 1000 Ang^3
#
#
#
# Elastic Constant Matrix: (Units=GPa)
#
#
# Indices 1 2 3 4 5 6 
#
# 1 85.8203 42.1396 38.9279 0.0000 9.2048 0.0000
# 2 42.1396 128.9628 47.5833 0.0000 12.4523 0.0000
# 3 38.9279 47.5833 141.1130 0.0000 17.1484 0.0000
# 4 0.0000 0.0000 0.0000 14.1028 0.0000 1.9978
# 5 9.2048 12.4523 17.1484 0.0000 32.7542 0.0000
# 6 0.0000 0.0000 0.0000 1.9978 0.0000 24.4312
#
#
#
# Elastic Compliance Matrix: (Units=1/GPa)
#
#
# Indices 1 2 3 4 5 6 
#
# 1 0.014842 -0.003734 -0.002671 0.000000 -0.001353 0.000000
# 2 -0.003734 0.009910 -0.002116 0.000000 -0.001611 0.000000
# 3 -0.002671 -0.002116 0.008915 0.000000 -0.003112 0.000000
# 4 0.000000 0.000000 0.000000 0.071739 0.000000 -0.005866
# 5 -0.001353 -0.001611 -0.003112 0.000000 0.033152 0.000000
# 6 0.000000 0.000000 0.000000 -0.005866 0.000000 0.041411
#
#
# Mechanical properties :
#
#
# Convention : Reuss Voigt Hill
#
# Bulk Modulus (GPa) = 60.14552 68.13307 64.13930
# Shear Modulus (GPa) = 24.68479 29.40733 27.04606
#
# Velocity S-wave (km/s) = 3.37914 3.68824 3.53707
# Velocity P-wave (km/s) = 6.56100 7.04658 6.80812
#
# Compressibility (1/GPa) = 0.01662634
#
# Stress axis : x y z
#
# Youngs Moduli (GPa) = 67.37517 100.90350 112.16885
#
# Poissons Ratio (x) = 0.37674 0.29960
# Poissons Ratio (y) = 0.25155 0.23736
# Poissons Ratio (z) = 0.17996 0.21352
#
# Static dielectric constant tensor:
#      x y z
#    x 3.658800 0.000000 0.003610 
#    y 0.000000 3.774370 0.000000 
#    z 0.003610 0.000000 4.005530 
# 
# 
# High freq. dielectric constant tensor:
#      x y z
#    x 1.826160 0.000000 0.010550 
#    y 0.000000 1.849400 0.000000 
#    z 0.010550 0.000000 1.865760 
# 
# From -- ./inp_files/67740.got.cif
#   From: 2010.06.25/outbox.cif.g09.slc.cpg/sg15_34_cif.got.tgz:67740.got - 2010.06.28 07:06:18.
