data_PCOD8149602
_publ_section_title
;
Structure prediction by ZEFSAII (Michael W. Deem and Ramdas Pophale) SiO2 
 PCOD8149602
Probable space group: C 2/C
;
_chemical_formula_sum "Si O2"
_cell_formula_units_Z 48
_cell_length_a 14.505979
_cell_length_b 19.674697
_cell_length_c 11.534899
_cell_angle_alpha 90.000000
_cell_angle_beta 141.750599
_cell_angle_gamma 90.000000
_cell_volume 2038.072802
_symmetry_space_group_name_H-M "C 2/C"
_symmetry_group_IT_number 15
_symmetry_cell_setting 'monoclinic'
loop_
_space_group_symop_operation_xyz
x,y,z
-x,y,1/2-z
-x,-y,-z
x,-y,1/2+z
1/2+x,1/2+y,z
1/2-x,1/2+y,1/2-z
1/2-x,1/2-y,-z
1/2+x,1/2-y,1/2+z
loop_
_atom_site_type_symbol
_atom_site_label
_atom_site_fract_x
_atom_site_fract_y
_atom_site_fract_z
Si Si1 0.757695 0.683911 0.857079
Si Si2 0.744188 0.976289 0.151315
Si Si3 0.000000 0.250224 0.250000
Si Si4 0.246228 0.708020 0.154801
Si Si5 0.500000 0.449801 0.250000
Si Si6 0.500000 0.748547 0.750000
Si Si7 0.500000 0.951715 0.750000
Si Si8 0.745498 0.411634 0.655564
O O1 0.758958 0.604213 0.829840
O O2 0.745348 0.720664 0.721195
O O3 0.616516 0.700917 0.797583
O O4 0.911694 0.704717 0.071109
O O5 0.887280 0.996543 0.213805
O O6 0.750585 0.014845 0.279292
O O7 0.594070 0.998015 0.933106
O O8 0.098933 0.298216 0.430706
O O9 0.107942 0.202032 0.281346
O O10 0.247015 0.647300 0.245256
O O11 0.595284 0.403108 0.432618
O O12 0.383214 0.903762 0.703340
#
# Coordination Sequence:
#
# PCOD8149602 Si02
#       8
#     8   8   4   8   4   4   4   8
#     4  11  24  39  69 100 140 178 223 278 346 405
#     4  11  24  44  68 102 139 182 226 286 341 410
#     4  10  26  52  62 104 134 182 234 280 328 426
#     4  11  26  46  72  94 141 179 235 275 345 399
#     4  10  25  45  67 106 142 167 238 280 345 407
#     4  10  24  38  66 108 140 172 214 292 346 400
#     4  10  25  45  67 106 142 167 238 280 345 407
#     4  11  26  47  72 101 138 185 224 288 341 406
#
# _framework density 23.551662
#
# number of rings (size 3 to 8) (size 9 to 14) (size 15 to 20)
#    0.000    1.333    0.000    3.000   18.667    1.333 
#   12.000    0.000    0.000    0.000    0.000    0.000 
#    0.000    0.000    0.000    0.000    0.000    0.000 
#
# Total GULP energy -297654.872149 kJ/mol
# GULP energy per Si atom -12402.286340 kJ/mol
# Density = 2.349806 g / cm^3
# Si number density = 23.551662 Si / 1000 Ang^3
#
#
#
# Elastic Constant Matrix: (Units=GPa)
#
#
# Indices 1 2 3 4 5 6 
#
# 1 82.1012 34.1798 86.4836 0.0000 -8.5584 0.0000
# 2 34.1798 122.0010 55.6666 0.0000 -17.1715 0.0000
# 3 86.4836 55.6666 210.3498 0.0000 5.0836 0.0000
# 4 0.0000 0.0000 0.0000 27.8156 0.0000 -13.0706
# 5 -8.5584 -17.1715 5.0836 0.0000 46.3918 0.0000
# 6 0.0000 0.0000 0.0000 -13.0706 0.0000 32.4266
#
#
#
# Elastic Compliance Matrix: (Units=1/GPa)
#
#
# Indices 1 2 3 4 5 6 
#
# 1 0.022937 -0.001615 -0.009115 0.000000 0.004632 0.000000
# 2 -0.001615 0.010128 -0.002105 0.000000 0.003681 0.000000
# 3 -0.009115 -0.002105 0.009142 0.000000 -0.003463 0.000000
# 4 0.000000 0.000000 0.000000 0.044352 0.000000 0.017877
# 5 0.004632 0.003681 -0.003463 0.000000 0.024152 0.000000
# 6 0.000000 0.000000 0.000000 0.017877 0.000000 0.038045
#
#
# Mechanical properties :
#
#
# Convention : Reuss Voigt Hill
#
# Bulk Modulus (GPa) = 60.47138 85.23469 72.85303
# Shear Modulus (GPa) = 27.78738 37.20160 32.49449
#
# Velocity S-wave (km/s) = 3.43862 3.97870 3.71848
# Velocity P-wave (km/s) = 6.44184 7.57468 7.03111
#
# Compressibility (1/GPa) = 0.01653675
#
# Stress axis : x y z
#
# Youngs Moduli (GPa) = 43.59833 98.73774 109.38236
#
# Poissons Ratio (x) = 0.15947 0.99700
# Poissons Ratio (y) = 0.07041 0.23027
# Poissons Ratio (z) = 0.39739 0.20786
#
# Static dielectric constant tensor:
#      x y z
#    x 4.608140 0.000000 0.033900 
#    y 0.000000 3.784830 0.000000 
#    z 0.033900 0.000000 4.827260 
# 
# 
# High freq. dielectric constant tensor:
#      x y z
#    x 1.951350 0.000000 0.006390 
#    y 0.000000 1.897020 0.000000 
#    z 0.006390 0.000000 1.960550 
# 
# From -- ./inp_files/100110.got.cif
#   From: 2010.06.25/outbox.cif.g09.slc.cpg/sg15_51_cif.got.tgz:100110.got - 2010.06.28 07:06:18.
