data_PCOD8149878
_publ_section_title
;
Structure prediction by ZEFSAII (Michael W. Deem and Ramdas Pophale) SiO2 
 PCOD8149878
Probable space group: C 2/C
;
_chemical_formula_sum "Si O2"
_cell_formula_units_Z 44
_cell_length_a 22.820703
_cell_length_b 11.354563
_cell_length_c 7.453617
_cell_angle_alpha 90.000000
_cell_angle_beta 91.970764
_cell_angle_gamma 90.000000
_cell_volume 1930.232204
_symmetry_space_group_name_H-M "C 2/C"
_symmetry_group_IT_number 15
_symmetry_cell_setting 'monoclinic'
loop_
_space_group_symop_operation_xyz
x,y,z
-x,y,1/2-z
-x,-y,-z
x,-y,1/2+z
1/2+x,1/2+y,z
1/2-x,1/2+y,1/2-z
1/2-x,1/2-y,-z
1/2+x,1/2-y,1/2+z
loop_
_atom_site_type_symbol
_atom_site_label
_atom_site_fract_x
_atom_site_fract_y
_atom_site_fract_z
Si Si1 0.942576 0.341436 0.531526
Si Si2 0.822647 0.705668 0.839108
Si Si3 0.151509 0.145996 0.489993
Si Si4 0.000000 0.488661 0.250000
Si Si5 0.513922 0.368061 0.955553
Si Si6 0.702773 0.602342 0.872947
O O1 0.881364 0.349538 0.424033
O O2 0.991968 0.403056 0.415671
O O3 0.943664 0.422461 0.711090
O O4 0.968499 0.210321 0.569765
O O5 0.828325 0.745106 0.632228
O O6 0.772985 0.604591 0.848440
O O7 0.809372 0.821645 0.952804
O O8 0.081922 0.151589 0.499854
O O9 0.174236 0.162491 0.694637
O O10 0.176802 0.026811 0.403075
O O11 0.500000 0.338140 0.750000
O O12 0.500000 0.500000 0.000000
#
# Coordination Sequence:
#
# PCOD8149878 Si02
#       6
#     8   8   8   4   8   8
#     4  11  23  46  65 100 133 175 227 275 343 409
#     4  11  24  45  65  95 134 173 230 277 328 412
#     4  12  22  44  67  95 137 170 223 280 345 403
#     4  10  24  42  68  94 134 178 220 272 336 414
#     4  12  24  40  69 103 136 171 222 286 351 409
#     4  11  25  41  66  96 130 178 223 274 337 405
#
# _framework density 22.795183999999999
#
# number of rings (size 3 to 8) (size 9 to 14) (size 15 to 20)
#    0.000    0.727    4.545    2.727    3.818    1.455 
#    0.000    0.000    0.000    0.000    0.000    0.000 
#    0.000    0.000    0.000    0.000    0.000    0.000 
#
# Total GULP energy -272697.698119 kJ/mol
# GULP energy per Si atom -12395.349914 kJ/mol
# Density = 2.274330 g / cm^3
# Si number density = 22.795184 Si / 1000 Ang^3
#
#
#
# Elastic Constant Matrix: (Units=GPa)
#
#
# Indices 1 2 3 4 5 6 
#
# 1 130.5604 15.1592 16.6775 0.0000 27.5865 0.0000
# 2 15.1592 52.4947 -9.8103 0.0000 9.6178 0.0000
# 3 16.6775 -9.8103 66.6625 0.0000 14.6501 0.0000
# 4 0.0000 0.0000 0.0000 34.0728 0.0000 8.6238
# 5 27.5865 9.6178 14.6501 0.0000 37.3031 0.0000
# 6 0.0000 0.0000 0.0000 8.6238 0.0000 -29.2710
#
#
#
# Elastic Compliance Matrix: (Units=1/GPa)
#
#
# Indices 1 2 3 4 5 6 
#
# 1 0.009282 -0.001847 -0.001303 0.000000 -0.005876 0.000000
# 2 -0.001847 0.021652 0.005007 0.000000 -0.006183 0.000000
# 3 -0.001303 0.005007 0.017660 0.000000 -0.007263 0.000000
# 4 0.000000 0.000000 0.000000 0.027312 0.000000 0.008047
# 5 -0.005876 -0.006183 -0.007263 0.000000 0.035600 0.000000
# 6 0.000000 0.000000 0.000000 0.008047 0.000000 -0.031793
#
#
# Mechanical properties :
#
#
# Convention : Reuss Voigt Hill
#
# Bulk Modulus (GPa) = 19.11744 32.64115 25.87930
# Shear Modulus (GPa) = 53.51401 23.60039 38.55720
#
# Velocity S-wave (km/s) = 4.85046 3.22113 4.11720
# Velocity P-wave (km/s) = 6.30667 5.30893 5.82919
#
# Compressibility (1/GPa) = 0.05230827
#
# Stress axis : x y z
#
# Youngs Moduli (GPa) = 107.73823 46.18616 56.62539
#
# Poissons Ratio (x) = 0.08531 0.07376
# Poissons Ratio (y) = 0.19901 -0.28353
# Poissons Ratio (z) = 0.14033 -0.23126
#
# Static dielectric constant tensor:
#      x y z
#    x 4.248380 0.000000 0.088450 
#    y 0.000000 4.119450 0.000000 
#    z 0.088450 0.000000 4.549540 
# 
# 
# High freq. dielectric constant tensor:
#      x y z
#    x 1.896370 0.000000 0.011180 
#    y 0.000000 1.897950 0.000000 
#    z 0.011180 0.000000 1.916060 
# 
# From -- ./inp_files/54474.got.cif
#   From: 2010.06.25/outbox.cif.g09.slc.cpg/sg15_28_cif.got.tgz:54474.got - 2010.06.28 07:06:18.
