data_PCOD8149916
_publ_section_title
;
Structure prediction by ZEFSAII (Michael W. Deem and Ramdas Pophale) SiO2 
 PCOD8149916
Probable space group: C 2/C
;
_chemical_formula_sum "Si O2"
_cell_formula_units_Z 60
_cell_length_a 8.592435
_cell_length_b 22.992093
_cell_length_c 20.692488
_cell_angle_alpha 90.000000
_cell_angle_beta 40.902476
_cell_angle_gamma 90.000000
_cell_volume 2676.692943
_symmetry_space_group_name_H-M "C 2/C"
_symmetry_group_IT_number 15
_symmetry_cell_setting 'monoclinic'
loop_
_space_group_symop_operation_xyz
x,y,z
-x,y,1/2-z
-x,-y,-z
x,-y,1/2+z
1/2+x,1/2+y,z
1/2-x,1/2+y,1/2-z
1/2-x,1/2-y,-z
1/2+x,1/2-y,1/2+z
loop_
_atom_site_type_symbol
_atom_site_label
_atom_site_fract_x
_atom_site_fract_y
_atom_site_fract_z
Si Si1 0.000000 0.915220 0.250000
Si Si2 0.736664 0.980862 0.764066
Si Si3 0.379881 0.665999 0.904365
Si Si4 0.101589 0.295971 0.609291
Si Si5 0.622312 0.356213 0.773671
Si Si6 0.246806 0.997452 0.387490
Si Si7 0.204096 0.369390 0.143041
Si Si8 0.592242 0.694350 0.034322
O O1 0.814203 0.958358 0.273202
O O2 0.855853 0.872647 0.345874
O O3 0.799352 0.979443 0.669000
O O4 0.452770 0.967775 0.861536
O O5 0.872329 0.924351 0.747193
O O6 0.494387 0.729584 0.856778
O O7 0.549193 0.628366 0.896485
O O8 0.143284 0.680230 0.022088
O O9 0.343407 0.295574 0.575337
O O10 0.888084 0.333408 0.706011
O O11 0.500000 0.324940 0.750000
O O12 0.456282 0.343231 0.886863
O O13 0.370421 0.934913 0.346816
O O14 0.000000 0.000000 0.500000
O O15 0.000000 0.338337 0.250000
O O16 0.225062 0.340033 0.067543
O O17 0.750000 0.750000 0.000000
#
# Coordination Sequence:
#
# PCOD8149916 Si02
#       8
#     4   8   8   8   8   8   8   8
#     4  12  22  46  70 108 148 190 242 304 366 428
#     4  11  25  45  68 104 140 185 244 291 360 444
#     4  10  24  42  71  99 142 182 236 304 361 431
#     4  10  26  48  69 104 141 193 239 299 371 429
#     4  12  28  48  71 103 148 193 235 305 368 441
#     4  11  23  43  71  97 133 184 233 290 351 422
#     4  11  22  44  68 103 133 178 233 289 350 426
#     4  11  28  45  73 105 139 186 246 293 368 445
#
# _framework density 22.415718999999999
#
# number of rings (size 3 to 8) (size 9 to 14) (size 15 to 20)
#    0.000    1.067    3.333    1.200   16.800    1.067 
#    2.400    1.333    0.000    0.000    0.000    0.000 
#    0.000    0.000    0.000    0.000    0.000    0.000 
#
# Total GULP energy -371652.446380 kJ/mol
# GULP energy per Si atom -12388.414879 kJ/mol
# Density = 2.236470 g / cm^3
# Si number density = 22.415719 Si / 1000 Ang^3
#
#
#
# Elastic Constant Matrix: (Units=GPa)
#
#
# Indices 1 2 3 4 5 6 
#
# 1 109.3626 26.4101 51.9120 0.0000 2.0379 0.0000
# 2 26.4101 110.9262 45.2172 0.0000 4.2854 0.0000
# 3 51.9120 45.2172 172.3572 -0.0001 3.0806 0.0000
# 4 0.0000 0.0000 -0.0001 35.0898 0.0000 0.1667
# 5 2.0379 4.2854 3.0806 0.0000 31.4009 0.0000
# 6 0.0000 0.0000 0.0000 0.1667 0.0000 31.2084
#
#
#
# Elastic Compliance Matrix: (Units=1/GPa)
#
#
# Indices 1 2 3 4 5 6 
#
# 1 0.010862 -0.001394 -0.002902 0.000000 -0.000230 0.000000
# 2 -0.001394 0.010313 -0.002266 0.000000 -0.001095 0.000000
# 3 -0.002902 -0.002266 0.007274 0.000000 -0.000216 0.000000
# 4 0.000000 0.000000 0.000000 0.028499 0.000000 -0.000152
# 5 -0.000230 -0.001095 -0.000216 0.000000 0.032032 0.000000
# 6 0.000000 0.000000 0.000000 -0.000152 0.000000 0.032043
#
#
# Mechanical properties :
#
#
# Convention : Reuss Voigt Hill
#
# Bulk Modulus (GPa) = 65.25201 71.08053 68.16627
# Shear Modulus (GPa) = 35.90500 37.48027 36.69264
#
# Velocity S-wave (km/s) = 4.00656 4.09351 4.05027
# Velocity P-wave (km/s) = 7.11172 7.35673 7.23526
#
# Compressibility (1/GPa) = 0.01532520
#
# Stress axis : x y z
#
# Youngs Moduli (GPa) = 92.06166 96.96501 137.47237
#
# Poissons Ratio (x) = 0.13522 0.39890
# Poissons Ratio (y) = 0.12838 0.31151
# Poissons Ratio (z) = 0.26713 0.21972
#
# Static dielectric constant tensor:
#      x y z
#    x 3.922190 0.000000 0.141300 
#    y 0.000000 4.105520 0.000000 
#    z 0.141300 0.000000 3.924210 
# 
# 
# High freq. dielectric constant tensor:
#      x y z
#    x 1.883210 0.000000 0.005730 
#    y 0.000000 1.889520 0.000000 
#    z 0.005730 0.000000 1.886730 
# 
# From -- ./inp_files/234569.got.cif
#   From: 2010.06.25/outbox.cif.g09.slc.cpg/sg15_118_cif.got.tgz:234569.got - 2010.06.28 07:06:18.
