data_PCOD8149119
_publ_section_title
;
Structure prediction by ZEFSAII (Michael W. Deem and Ramdas Pophale) SiO2 
 PCOD8149119
Probable space group: C 2/C
;
_chemical_formula_sum "Si O2"
_cell_formula_units_Z 48
_cell_length_a 10.772016
_cell_length_b 8.923708
_cell_length_c 23.986969
_cell_angle_alpha 90.000000
_cell_angle_beta 98.762294
_cell_angle_gamma 90.000000
_cell_volume 2278.868084
_symmetry_space_group_name_H-M "C 2/C"
_symmetry_group_IT_number 15
_symmetry_cell_setting 'monoclinic'
loop_
_space_group_symop_operation_xyz
x,y,z
-x,y,1/2-z
-x,-y,-z
x,-y,1/2+z
1/2+x,1/2+y,z
1/2-x,1/2+y,1/2-z
1/2-x,1/2-y,-z
1/2+x,1/2-y,1/2+z
loop_
_atom_site_type_symbol
_atom_site_label
_atom_site_fract_x
_atom_site_fract_y
_atom_site_fract_z
Si Si1 0.038388 0.629750 0.544485
Si Si2 0.135078 0.930972 0.506862
Si Si3 0.248275 0.031919 0.399118
Si Si4 0.137931 0.961436 0.774676
Si Si5 0.136927 0.611860 0.777024
Si Si6 0.297554 0.139635 0.593806
O O1 0.121051 0.754097 0.517934
O O2 0.120651 0.555584 0.599912
O O3 0.000000 0.500000 0.500000
O O4 0.915067 0.696678 0.564700
O O5 0.189487 0.959831 0.450043
O O6 0.221583 0.006455 0.559971
O O7 0.000000 0.000000 0.500000
O O8 0.283448 0.208264 0.406935
O O9 0.156113 0.004001 0.341222
O O10 0.249271 0.034404 0.747385
O O11 0.000000 0.026739 0.750000
O O12 0.142412 0.786045 0.762227
O O13 0.156343 0.579866 0.843594
O O14 0.000000 0.546638 0.750000
#
# Coordination Sequence:
#
# PCOD8149119 Si02
#       6
#     8   8   8   8   8   8
#     4  12  24  42  63  95 131 165 211 260 319 391
#     4  12  24  40  66  96 130 170 209 257 330 386
#     4  11  23  43  64  94 132 168 212 268 316 385
#     4  10  24  44  66  95 128 169 221 268 319 380
#     4  10  23  44  67  93 129 171 217 271 321 378
#     4  11  24  42  65  93 131 170 212 266 321 384
#
# _framework density 21.063089000000002
#
# number of rings (size 3 to 8) (size 9 to 14) (size 15 to 20)
#    0.000    1.000    3.333    3.000    2.333    3.333 
#    0.000    0.000    0.000    0.000    0.000    0.000 
#    0.000    0.000    0.000    0.000    0.000    0.000 
#
# Total GULP energy -297609.403223 kJ/mol
# GULP energy per Si atom -12400.391801 kJ/mol
# Density = 2.101515 g / cm^3
# Si number density = 21.063089 Si / 1000 Ang^3
#
#
#
# Elastic Constant Matrix: (Units=GPa)
#
#
# Indices 1 2 3 4 5 6 
#
# 1 125.6476 42.0768 57.2599 0.0000 17.2909 0.0000
# 2 42.0768 96.1350 59.3674 0.0000 9.6303 0.0000
# 3 57.2599 59.3674 147.8063 0.0000 9.9517 0.0000
# 4 0.0000 0.0000 0.0000 24.3111 0.0000 0.9045
# 5 17.2909 9.6303 9.9517 0.0000 36.4535 0.0000
# 6 0.0000 0.0000 0.0000 0.9045 0.0000 40.7964
#
#
#
# Elastic Compliance Matrix: (Units=1/GPa)
#
#
# Indices 1 2 3 4 5 6 
#
# 1 0.010594 -0.002517 -0.002852 0.000000 -0.003582 0.000000
# 2 -0.002517 0.014603 -0.004799 0.000000 -0.001354 0.000000
# 3 -0.002852 -0.004799 0.009802 0.000000 -0.000055 0.000000
# 4 0.000000 0.000000 0.000000 0.041167 0.000000 -0.000913
# 5 -0.003582 -0.001354 -0.000055 0.000000 0.029504 0.000000
# 6 0.000000 0.000000 0.000000 -0.000913 0.000000 0.024532
#
#
# Mechanical properties :
#
#
# Convention : Reuss Voigt Hill
#
# Bulk Modulus (GPa) = 68.20019 76.33301 72.26660
# Shear Modulus (GPa) = 32.16957 34.37119 33.27038
#
# Velocity S-wave (km/s) = 3.91230 4.04396 3.97868
# Velocity P-wave (km/s) = 7.27031 7.62389 7.44920
#
# Compressibility (1/GPa) = 0.01466272
#
# Stress axis : x y z
#
# Youngs Moduli (GPa) = 94.39077 68.47925 102.02123
#
# Poissons Ratio (x) = 0.17235 0.29098
# Poissons Ratio (y) = 0.23757 0.48962
# Poissons Ratio (z) = 0.26922 0.32865
#
# Static dielectric constant tensor:
#      x y z
#    x 3.926660 0.000000 0.074430 
#    y 0.000000 3.891070 0.000000 
#    z 0.074430 0.000000 3.990870 
# 
# 
# High freq. dielectric constant tensor:
#      x y z
#    x 1.838710 0.000000 0.009850 
#    y 0.000000 1.825530 0.000000 
#    z 0.009850 0.000000 1.832600 
# 
# From -- ./inp_files/267629.got.cif
#   From: 2010.06.25/outbox.cif.g09.slc.cpg/sg15_134_cif.got.tgz:267629.got - 2010.06.28 07:06:18.
