data_PCOD8149295
_publ_section_title
;
Structure prediction by ZEFSAII (Michael W. Deem and Ramdas Pophale) SiO2 
 PCOD8149295
Probable space group: C 2/C
;
_chemical_formula_sum "Si O2"
_cell_formula_units_Z 48
_cell_length_a 10.775861
_cell_length_b 8.927255
_cell_length_c 24.713418
_cell_angle_alpha 90.000000
_cell_angle_beta 106.193983
_cell_angle_gamma 90.000000
_cell_volume 2283.074360
_symmetry_space_group_name_H-M "C 2/C"
_symmetry_group_IT_number 15
_symmetry_cell_setting 'monoclinic'
loop_
_space_group_symop_operation_xyz
x,y,z
-x,y,1/2-z
-x,-y,-z
x,-y,1/2+z
1/2+x,1/2+y,z
1/2-x,1/2+y,1/2-z
1/2-x,1/2-y,-z
1/2+x,1/2-y,1/2+z
loop_
_atom_site_type_symbol
_atom_site_label
_atom_site_fract_x
_atom_site_fract_y
_atom_site_fract_z
Si Si1 0.004930 0.871723 0.545052
Si Si2 0.705141 0.861103 0.906088
Si Si3 0.344604 0.531481 0.601024
Si Si4 0.127869 0.430114 0.493145
Si Si5 0.146327 0.960150 0.274889
Si Si6 0.145157 0.389395 0.777200
O O1 0.148053 0.805613 0.566229
O O2 0.897324 0.746365 0.518428
O O3 0.000000 0.000000 0.500000
O O4 0.975612 0.946007 0.600107
O O5 0.627064 0.707528 0.906905
O O6 0.683154 0.923411 0.843470
O O7 0.663837 0.992839 0.940839
O O8 0.237183 0.457747 0.550222
O O9 0.307635 0.504299 0.658623
O O10 0.000000 0.500000 0.500000
O O11 0.147524 0.784721 0.262912
O O12 0.000000 0.022714 0.250000
O O13 0.249241 0.033559 0.247760
O O14 0.000000 0.453344 0.750000
#
# Coordination Sequence:
#
# PCOD8149295 Si02
#       6
#     8   8   8   8   8   8
#     4  12  24  41  62  93 128 163 209 253 318 383
#     4  11  24  43  63  91 131 165 207 265 313 376
#     4  11  23  42  65  93 129 166 208 263 312 376
#     4  12  24  40  64  95 127 166 207 253 323 380
#     4  10  23  45  65  94 128 166 216 262 314 372
#     4  10  24  42  66  94 124 168 215 263 315 374
#
# _framework density 21.024283
#
# number of rings (size 3 to 8) (size 9 to 14) (size 15 to 20)
#    0.000    1.000    3.333    3.000    2.333    2.000 
#    3.000    0.000    0.000    0.000    0.000    0.000 
#    0.000    0.000    0.000    0.000    0.000    0.000 
#
# Total GULP energy -297610.010878 kJ/mol
# GULP energy per Si atom -12400.417120 kJ/mol
# Density = 2.097643 g / cm^3
# Si number density = 21.024283 Si / 1000 Ang^3
#
#
#
# Elastic Constant Matrix: (Units=GPa)
#
#
# Indices 1 2 3 4 5 6 
#
# 1 132.5486 52.4869 58.9515 0.0000 -19.6950 0.0000
# 2 52.4869 113.1900 61.1754 0.0000 -15.6739 0.0000
# 3 58.9515 61.1754 146.1636 0.0000 -6.5368 0.0000
# 4 0.0000 0.0000 0.0000 27.9948 0.0000 -11.2148
# 5 -19.6950 -15.6739 -6.5368 0.0000 24.7745 0.0000
# 6 0.0000 0.0000 0.0000 -11.2148 0.0000 40.7975
#
#
#
# Elastic Compliance Matrix: (Units=1/GPa)
#
#
# Indices 1 2 3 4 5 6 
#
# 1 0.010810 -0.002517 -0.003029 0.000000 0.006202 0.000000
# 2 -0.002517 0.012970 -0.004185 0.000000 0.005101 0.000000
# 3 -0.003029 -0.004185 0.009704 0.000000 -0.002496 0.000000
# 4 0.000000 0.000000 0.000000 0.040141 0.000000 0.011034
# 5 0.006202 0.005101 -0.002496 0.000000 0.047863 0.000000
# 6 0.000000 0.000000 0.000000 0.011034 0.000000 0.027545
#
#
# Mechanical properties :
#
#
# Convention : Reuss Voigt Hill
#
# Bulk Modulus (GPa) = 71.32133 81.90331 76.61232
# Shear Modulus (GPa) = 28.87369 33.33259 31.10314
#
# Velocity S-wave (km/s) = 3.70989 3.98607 3.85046
# Velocity P-wave (km/s) = 7.23519 7.76055 7.50247
#
# Compressibility (1/GPa) = 0.01402105
#
# Stress axis : x y z
#
# Youngs Moduli (GPa) = 92.50965 77.10094 103.05524
#
# Poissons Ratio (x) = 0.19403 0.31217
# Poissons Ratio (y) = 0.23280 0.43133
# Poissons Ratio (z) = 0.28023 0.32270
#
# Static dielectric constant tensor:
#      x y z
#    x 4.084420 0.000000 0.098040 
#    y 0.000000 3.898240 0.000000 
#    z 0.098040 0.000000 3.951380 
# 
# 
# High freq. dielectric constant tensor:
#      x y z
#    x 1.839260 0.000000 -0.003730 
#    y 0.000000 1.823870 0.000000 
#    z -0.003730 0.000000 1.829720 
# 
# From -- ./inp_files/267630.got.cif
#   From: 2010.06.25/outbox.cif.g09.slc.cpg/sg15_134_cif.got.tgz:267630.got - 2010.06.28 07:06:18.
