data_PCOD8149918
_publ_section_title
;
Structure prediction by ZEFSAII (Michael W. Deem and Ramdas Pophale) SiO2 
 PCOD8149918
Probable space group: C 2/C
;
_chemical_formula_sum "Si O2"
_cell_formula_units_Z 40
_cell_length_a 8.953336
_cell_length_b 17.813284
_cell_length_c 14.225208
_cell_angle_alpha 90.000000
_cell_angle_beta 55.301879
_cell_angle_gamma 90.000000
_cell_volume 1865.285333
_symmetry_space_group_name_H-M "C 2/C"
_symmetry_group_IT_number 15
_symmetry_cell_setting 'monoclinic'
loop_
_space_group_symop_operation_xyz
x,y,z
-x,y,1/2-z
-x,-y,-z
x,-y,1/2+z
1/2+x,1/2+y,z
1/2-x,1/2+y,1/2-z
1/2-x,1/2-y,-z
1/2+x,1/2-y,1/2+z
loop_
_atom_site_type_symbol
_atom_site_label
_atom_site_fract_x
_atom_site_fract_y
_atom_site_fract_z
Si Si1 0.118167 0.012808 0.864125
Si Si2 0.030578 0.143494 0.342948
Si Si3 0.179212 0.273371 0.424580
Si Si4 0.500000 0.624015 0.750000
Si Si5 0.155232 0.670299 0.522542
Si Si6 0.000000 0.409443 0.250000
O O1 0.012790 0.073517 0.838632
O O2 0.323341 0.038613 0.807409
O O3 0.142710 0.933701 0.800809
O O4 0.000000 0.000000 0.000000
O O5 0.129197 0.202045 0.376703
O O6 0.000000 0.178629 0.250000
O O7 0.826252 0.115619 0.447446
O O8 0.250000 0.250000 0.500000
O O9 0.325216 0.323276 0.318382
O O10 0.992564 0.321127 0.508823
O O11 0.250000 0.750000 0.500000
O O12 0.026389 0.646053 0.653682
#
# Coordination Sequence:
#
# PCOD8149918 Si02
#       6
#     8   8   8   4   8   4
#     4  12  25  48  72 106 148 197 250 311 380 462
#     4  11  25  47  71 103 150 191 248 311 377 458
#     4  11  26  43  72 110 142 191 248 315 371 450
#     4  12  26  45  73 106 152 188 246 312 380 441
#     4  10  24  42  72 102 140 189 249 298 381 445
#     4  12  24  47  75 104 140 202 242 308 380 455
#
# _framework density 21.44444
#
# number of rings (size 3 to 8) (size 9 to 14) (size 15 to 20)
#    0.000    0.800    5.000    1.200   11.200    0.800 
#    3.600    3.000    0.000    0.000    0.000    0.000 
#    0.000    0.000    0.000    0.000    0.000    0.000 
#
# Total GULP energy -247790.744534 kJ/mol
# GULP energy per Si atom -12389.537227 kJ/mol
# Density = 2.139563 g / cm^3
# Si number density = 21.444440 Si / 1000 Ang^3
#
#
#
# Elastic Constant Matrix: (Units=GPa)
#
#
# Indices 1 2 3 4 5 6 
#
# 1 187.3865 72.9299 72.1293 0.0000 -4.4318 0.0000
# 2 72.9299 120.3194 48.9433 0.0000 -0.8797 0.0000
# 3 72.1293 48.9433 129.1990 0.0000 1.9152 0.0000
# 4 0.0000 0.0000 0.0000 40.7685 0.0000 -1.1830
# 5 -4.4318 -0.8797 1.9152 0.0000 49.2971 0.0000
# 6 0.0000 0.0000 0.0000 -1.1830 0.0000 35.6758
#
#
#
# Elastic Compliance Matrix: (Units=1/GPa)
#
#
# Indices 1 2 3 4 5 6 
#
# 1 0.007923 -0.003538 -0.003094 0.000000 0.000769 0.000000
# 2 -0.003538 0.011410 -0.002347 0.000000 -0.000023 0.000000
# 3 -0.003094 -0.002347 0.010367 0.000000 -0.000723 0.000000
# 4 0.000000 0.000000 0.000000 0.024552 0.000000 0.000814
# 5 0.000769 -0.000023 -0.000723 0.000000 0.020382 0.000000
# 6 0.000000 0.000000 0.000000 0.000814 0.000000 0.028057
#
#
# Mechanical properties :
#
#
# Convention : Reuss Voigt Hill
#
# Bulk Modulus (GPa) = 85.16491 91.65665 88.41078
# Shear Modulus (GPa) = 40.13998 41.34177 40.74088
#
# Velocity S-wave (km/s) = 4.33114 4.39550 4.36344
# Velocity P-wave (km/s) = 8.05060 8.28220 8.16722
#
# Compressibility (1/GPa) = 0.01174192
#
# Stress axis : x y z
#
# Youngs Moduli (GPa) = 126.21831 87.64087 96.45769
#
# Poissons Ratio (x) = 0.31007 0.29847
# Poissons Ratio (y) = 0.44656 0.22638
# Poissons Ratio (z) = 0.39055 0.20568
#
# Static dielectric constant tensor:
#      x y z
#    x 4.473670 0.000000 -0.379570 
#    y 0.000000 4.242830 0.000000 
#    z -0.379570 0.000000 4.193820 
# 
# 
# High freq. dielectric constant tensor:
#      x y z
#    x 1.866070 0.000000 -0.007950 
#    y 0.000000 1.845860 0.000000 
#    z -0.007950 0.000000 1.838150 
# 
# From -- ./inp_files/134236.got.cif
#   From: 2010.06.25/outbox.cif.g09.slc.cpg/sg15_68_cif.got.tgz:134236.got - 2010.06.28 07:06:18.
