data_PCOD8149126
_publ_section_title
;
Structure prediction by ZEFSAII (Michael W. Deem and Ramdas Pophale) SiO2 
 PCOD8149126
Probable space group: C 2/C
;
_chemical_formula_sum "Si O2"
_cell_formula_units_Z 48
_cell_length_a 22.411787
_cell_length_b 9.701046
_cell_length_c 23.850141
_cell_angle_alpha 90.000000
_cell_angle_beta 25.782507
_cell_angle_gamma 90.000000
_cell_volume 2255.441303
_symmetry_space_group_name_H-M "C 2/C"
_symmetry_group_IT_number 15
_symmetry_cell_setting 'monoclinic'
loop_
_space_group_symop_operation_xyz
x,y,z
-x,y,1/2-z
-x,-y,-z
x,-y,1/2+z
1/2+x,1/2+y,z
1/2-x,1/2+y,1/2-z
1/2-x,1/2-y,-z
1/2+x,1/2-y,1/2+z
loop_
_atom_site_type_symbol
_atom_site_label
_atom_site_fract_x
_atom_site_fract_y
_atom_site_fract_z
Si Si1 0.158624 0.026222 0.871013
Si Si2 0.108746 0.834105 0.520369
Si Si3 0.354279 0.542047 0.742648
Si Si4 0.152479 0.467129 0.120905
Si Si5 0.632112 0.147793 0.244842
Si Si6 0.120422 0.527242 0.524159
O O1 0.234152 0.890782 0.831662
O O2 0.175078 0.151194 0.901708
O O3 0.210470 0.062468 0.764793
O O4 0.000000 0.000000 0.000000
O O5 0.054838 0.680722 0.577631
O O6 0.232238 0.858091 0.459494
O O7 0.986816 0.943768 0.632161
O O8 0.394819 0.689975 0.733311
O O9 0.236905 0.476287 0.879353
O O10 0.151515 0.597372 0.164233
O O11 0.000000 0.398300 0.250000
O O12 0.184712 0.513584 0.030097
O O13 0.502923 0.076720 0.384819
#
# Coordination Sequence:
#
# PCOD8149126 Si02
#       6
#     8   8   8   8   8   8
#     4   9  22  42  67  89 135 171 215 272 326 378
#     4  10  23  44  67  96 133 172 222 275 322 391
#     4  11  26  41  68 102 130 177 221 267 336 389
#     4   9  21  44  68  90 134 170 215 276 326 378
#     4  10  24  44  65  95 138 171 216 276 329 393
#     4  11  25  41  69  99 128 176 225 265 333 393
#
# _framework density 21.281866000000001
#
# number of rings (size 3 to 8) (size 9 to 14) (size 15 to 20)
#    0.000    2.000    0.000    0.500   16.333    3.333 
#    6.000    0.000    0.000    0.000    0.000    0.000 
#    0.000    0.000    0.000    0.000    0.000    0.000 
#
# Total GULP energy -297523.458302 kJ/mol
# GULP energy per Si atom -12396.810763 kJ/mol
# Density = 2.123343 g / cm^3
# Si number density = 21.281866 Si / 1000 Ang^3
#
#
#
# Elastic Constant Matrix: (Units=GPa)
#
#
# Indices 1 2 3 4 5 6 
#
# 1 126.9968 26.8518 56.3873 -0.0004 4.6570 0.0001
# 2 26.8518 140.7496 35.3144 -0.0007 -5.8175 0.0004
# 3 56.3873 35.3144 112.5022 -0.0008 6.4389 0.0002
# 4 -0.0004 -0.0007 -0.0008 33.4418 0.0001 -3.1977
# 5 4.6570 -5.8175 6.4389 0.0001 46.8657 -0.0001
# 6 0.0001 0.0004 0.0002 -3.1977 -0.0001 17.7406
#
#
#
# Elastic Compliance Matrix: (Units=1/GPa)
#
#
# Indices 1 2 3 4 5 6 
#
# 1 0.010204 -0.000747 -0.004855 0.000000 -0.000440 0.000000
# 2 -0.000747 0.007846 -0.002166 0.000000 0.001346 0.000000
# 3 -0.004855 -0.002166 0.012085 0.000000 -0.001447 0.000000
# 4 0.000000 0.000000 0.000000 0.030427 0.000000 0.005484
# 5 -0.000440 0.001346 -0.001447 0.000000 0.021747 0.000000
# 6 0.000000 0.000000 0.000000 0.005484 0.000000 0.057356
#
#
# Mechanical properties :
#
#
# Convention : Reuss Voigt Hill
#
# Bulk Modulus (GPa) = 68.49152 68.59507 68.54330
# Shear Modulus (GPa) = 31.23711 37.05597 34.14654
#
# Velocity S-wave (km/s) = 3.83532 4.17729 4.00995
# Velocity P-wave (km/s) = 7.20179 7.45440 7.32918
#
# Compressibility (1/GPa) = 0.01460035
#
# Stress axis : x y z
#
# Youngs Moduli (GPa) = 98.00354 127.44899 82.75048
#
# Poissons Ratio (x) = 0.09517 0.40172
# Poissons Ratio (y) = 0.07319 0.17921
# Poissons Ratio (z) = 0.47577 0.27601
#
# Static dielectric constant tensor:
#      x y z
#    x 4.502540 0.000000 0.250840 
#    y 0.000000 3.549150 0.000000 
#    z 0.250840 0.000000 3.922130 
# 
# 
# High freq. dielectric constant tensor:
#      x y z
#    x 1.849690 0.000000 0.004370 
#    y 0.000000 1.814320 0.000000 
#    z 0.004370 0.000000 1.839360 
# 
# From -- ./inp_files/303219.got.cif
#   From: 2010.06.25/outbox.cif.g09.slc.cpg/sg15_152_cif.got.tgz:303219.got - 2010.06.28 07:06:18.
