data_PCOD8149536
_publ_section_title
;
Structure prediction by ZEFSAII (Michael W. Deem and Ramdas Pophale) SiO2 
 PCOD8149536
Probable space group: C 2/C
;
_chemical_formula_sum "Si O2"
_cell_formula_units_Z 32
_cell_length_a 10.007767
_cell_length_b 7.437590
_cell_length_c 25.206004
_cell_angle_alpha 90.000000
_cell_angle_beta 42.717588
_cell_angle_gamma 90.000000
_cell_volume 1272.769638
_symmetry_space_group_name_H-M "C 2/C"
_symmetry_group_IT_number 15
_symmetry_cell_setting 'monoclinic'
loop_
_space_group_symop_operation_xyz
x,y,z
-x,y,1/2-z
-x,-y,-z
x,-y,1/2+z
1/2+x,1/2+y,z
1/2-x,1/2+y,1/2-z
1/2-x,1/2-y,-z
1/2+x,1/2-y,1/2+z
loop_
_atom_site_type_symbol
_atom_site_label
_atom_site_fract_x
_atom_site_fract_y
_atom_site_fract_z
Si Si1 0.174835 0.046774 0.517922
Si Si2 0.615007 0.235821 0.610150
Si Si3 0.229143 0.854726 0.331027
Si Si4 0.667430 0.780455 0.738663
O O1 0.250000 0.250000 0.500000
O O2 0.939278 0.062021 0.581635
O O3 0.272433 0.946034 0.439729
O O4 0.216737 0.916100 0.556557
O O5 0.628776 0.256619 0.670453
O O6 0.387142 0.216961 0.659023
O O7 0.126424 0.741014 0.313619
O O8 0.352602 0.007141 0.264775
O O9 0.500000 0.685119 0.750000
#
# Coordination Sequence:
#
# PCOD8149536 Si02
#       4
#     8   8   8   8
#     4  10  24  44  74 109 140 189 235 295 363 428
#     4  10  23  49  71 104 147 185 239 300 353 427
#     4  11  25  45  71 105 144 190 238 297 358 425
#     4  11  25  44  70 102 144 191 239 298 357 421
#
# _framework density 25.142019999999999
#
# number of rings (size 3 to 8) (size 9 to 14) (size 15 to 20)
#    0.000    1.500    0.000    3.000    7.000    5.000 
#    0.000    0.000    0.000    0.000    0.000    0.000 
#    0.000    0.000    0.000    0.000    0.000    0.000 
#
# Total GULP energy -198226.007868 kJ/mol
# GULP energy per Si atom -12389.125492 kJ/mol
# Density = 2.508480 g / cm^3
# Si number density = 25.142020 Si / 1000 Ang^3
#
#
#
# Elastic Constant Matrix: (Units=GPa)
#
#
# Indices 1 2 3 4 5 6 
#
# 1 225.3001 56.5666 70.6482 0.0000 16.5615 0.0000
# 2 56.5666 154.7397 43.4473 0.0000 11.5024 -0.0001
# 3 70.6482 43.4473 96.9123 -0.0001 7.4067 0.0000
# 4 0.0000 0.0000 -0.0001 42.2106 0.0000 1.7565
# 5 16.5615 11.5024 7.4067 0.0000 35.9199 0.0000
# 6 0.0000 -0.0001 0.0000 1.7565 0.0000 23.6728
#
#
#
# Elastic Compliance Matrix: (Units=1/GPa)
#
#
# Indices 1 2 3 4 5 6 
#
# 1 0.006005 -0.001004 -0.003800 0.000000 -0.001663 0.000000
# 2 -0.001004 0.007666 -0.002593 0.000000 -0.001457 0.000000
# 3 -0.003800 -0.002593 0.014279 0.000000 -0.000362 0.000000
# 4 0.000000 0.000000 0.000000 0.023764 0.000000 -0.001763
# 5 -0.001663 -0.001457 -0.000362 0.000000 0.029148 0.000000
# 6 0.000000 0.000000 0.000000 -0.001763 0.000000 0.042373
#
#
# Mechanical properties :
#
#
# Convention : Reuss Voigt Hill
#
# Bulk Modulus (GPa) = 76.01965 90.91959 83.46962
# Shear Modulus (GPa) = 35.10877 40.77999 37.94438
#
# Velocity S-wave (km/s) = 3.74092 4.03176 3.88906
# Velocity P-wave (km/s) = 6.99722 7.61015 7.31011
#
# Compressibility (1/GPa) = 0.01315449
#
# Stress axis : x y z
#
# Youngs Moduli (GPa) = 166.54168 130.44481 70.03356
#
# Poissons Ratio (x) = 0.13103 0.26611
# Poissons Ratio (y) = 0.16729 0.18161
# Poissons Ratio (z) = 0.63282 0.33827
#
# Static dielectric constant tensor:
#      x y z
#    x 4.676190 0.000000 0.021690 
#    y 0.000000 4.433700 0.000000 
#    z 0.021690 0.000000 4.720740 
# 
# 
# High freq. dielectric constant tensor:
#      x y z
#    x 1.998400 0.000000 -0.003730 
#    y 0.000000 1.988400 0.000000 
#    z -0.003730 0.000000 2.019740 
# 
# From -- ./inp_files/286974.got.cif
#   From: 2010.06.25/outbox.cif.g09.slc.cpg/sg15_144_cif.got.tgz:286974.got - 2010.06.28 07:06:18.
