data_PCOD8149867
_publ_section_title
;
Structure prediction by ZEFSAII (Michael W. Deem and Ramdas Pophale) SiO2 
 PCOD8149867
Probable space group: C 2/C
;
_chemical_formula_sum "Si O2"
_cell_formula_units_Z 44
_cell_length_a 24.100018
_cell_length_b 8.321792
_cell_length_c 23.868055
_cell_angle_alpha 90.000000
_cell_angle_beta 23.945553
_cell_angle_gamma 90.000000
_cell_volume 1942.837263
_symmetry_space_group_name_H-M "C 2/C"
_symmetry_group_IT_number 15
_symmetry_cell_setting 'monoclinic'
loop_
_space_group_symop_operation_xyz
x,y,z
-x,y,1/2-z
-x,-y,-z
x,-y,1/2+z
1/2+x,1/2+y,z
1/2-x,1/2+y,1/2-z
1/2-x,1/2-y,-z
1/2+x,1/2-y,1/2+z
loop_
_atom_site_type_symbol
_atom_site_label
_atom_site_fract_x
_atom_site_fract_y
_atom_site_fract_z
Si Si1 0.414927 0.333829 0.277862
Si Si2 0.500000 0.356398 0.750000
Si Si3 0.091539 0.695227 0.559525
Si Si4 0.848295 0.564837 0.630829
Si Si5 0.692571 0.266460 0.726976
Si Si6 0.621814 0.179602 0.012190
O O1 0.500000 0.248294 0.250000
O O2 0.404655 0.526753 0.299186
O O3 0.261950 0.266408 0.413983
O O4 0.500699 0.298683 0.142430
O O5 0.592208 0.246363 0.624288
O O6 0.223067 0.772618 0.407524
O O7 0.082603 0.503276 0.563453
O O8 0.965155 0.773882 0.643354
O O9 0.742477 0.434601 0.705592
O O10 0.784129 0.632675 0.746892
O O11 0.858891 0.700314 0.572395
O O12 0.000000 0.500000 0.500000
#
# Coordination Sequence:
#
# PCOD8149867 Si02
#       6
#     8   4   8   8   8   8
#     4  10  25  44  66 101 129 176 228 280 333 410
#     4  10  24  42  68 100 134 174 236 268 352 386
#     4  11  25  44  69 101 138 180 223 289 333 410
#     4  11  24  45  69 105 137 179 224 282 334 407
#     4  11  24  45  69 102 140 176 232 274 345 396
#     4  11  24  44  69  96 140 172 231 276 344 397
#
# _framework density 22.647290999999999
#
# number of rings (size 3 to 8) (size 9 to 14) (size 15 to 20)
#    0.545    0.727    3.636    2.727    3.818    6.545 
#    0.000    0.000    0.000    0.000    0.000    0.000 
#    0.000    0.000    0.000    0.000    0.000    0.000 
#
# Total GULP energy -272737.368118 kJ/mol
# GULP energy per Si atom -12397.153096 kJ/mol
# Density = 2.259574 g / cm^3
# Si number density = 22.647291 Si / 1000 Ang^3
#
#
#
# Elastic Constant Matrix: (Units=GPa)
#
#
# Indices 1 2 3 4 5 6 
#
# 1 94.5558 32.7262 38.3224 -0.0008 20.8339 0.0003
# 2 32.7262 50.1259 33.6446 -0.0064 22.0566 0.0036
# 3 38.3224 33.6446 109.8320 -0.0021 19.1926 0.0006
# 4 -0.0008 -0.0064 -0.0021 33.6305 0.0003 13.1022
# 5 20.8339 22.0566 19.1926 0.0003 62.5569 0.0001
# 6 0.0003 0.0036 0.0006 13.1022 0.0001 40.4965
#
#
#
# Elastic Compliance Matrix: (Units=1/GPa)
#
#
# Indices 1 2 3 4 5 6 
#
# 1 0.014383 -0.006958 -0.002619 -0.000002 -0.001533 0.000001
# 2 -0.006958 0.031615 -0.006038 0.000008 -0.006977 -0.000005
# 3 -0.002619 -0.006038 0.011986 -0.000001 -0.000676 0.000001
# 4 -0.000002 0.000008 -0.000001 0.034024 -0.000002 -0.011008
# 5 -0.001533 -0.006977 -0.000676 -0.000002 0.019164 0.000001
# 6 0.000001 -0.000005 0.000001 -0.011008 0.000001 0.028255
#
#
# Mechanical properties :
#
#
# Convention : Reuss Voigt Hill
#
# Bulk Modulus (GPa) = 37.37564 51.54448 44.46006
# Shear Modulus (GPa) = 27.84356 37.32482 32.58419
#
# Velocity S-wave (km/s) = 3.51015 4.06407 3.79722
# Velocity P-wave (km/s) = 5.74172 6.69562 6.23693
#
# Compressibility (1/GPa) = 0.02675540
#
# Stress axis : x y z
#
# Youngs Moduli (GPa) = 69.52497 31.63053 83.42783
#
# Poissons Ratio (x) = 0.22008 0.21852
# Poissons Ratio (y) = 0.48374 0.50370
# Poissons Ratio (z) = 0.18211 0.19097
#
# Static dielectric constant tensor:
#      x y z
#    x 4.453950 0.000000 0.264710 
#    y 0.000000 3.773950 0.000010 
#    z 0.264710 0.000010 4.189270 
# 
# 
# High freq. dielectric constant tensor:
#      x y z
#    x 1.911650 0.000000 0.003410 
#    y 0.000000 1.863270 0.000000 
#    z 0.003410 0.000000 1.898030 
# 
# From -- ./inp_files/303153.got.cif
#   From: 2010.06.25/outbox.cif.g09.slc.cpg/sg15_152_cif.got.tgz:303153.got - 2010.06.28 07:06:18.
