data_PCOD8149356
_publ_section_title
;
Structure prediction by ZEFSAII (Michael W. Deem and Ramdas Pophale) SiO2 
 PCOD8149356
Probable space group: C 2/C
;
_chemical_formula_sum "Si O2"
_cell_formula_units_Z 40
_cell_length_a 6.097211
_cell_length_b 13.778365
_cell_length_c 21.102936
_cell_angle_alpha 90.000000
_cell_angle_beta 106.153969
_cell_angle_gamma 90.000000
_cell_volume 1702.852692
_symmetry_space_group_name_H-M "C 2/C"
_symmetry_group_IT_number 15
_symmetry_cell_setting 'monoclinic'
loop_
_space_group_symop_operation_xyz
x,y,z
-x,y,1/2-z
-x,-y,-z
x,-y,1/2+z
1/2+x,1/2+y,z
1/2-x,1/2+y,1/2-z
1/2-x,1/2-y,-z
1/2+x,1/2-y,1/2+z
loop_
_atom_site_type_symbol
_atom_site_label
_atom_site_fract_x
_atom_site_fract_y
_atom_site_fract_z
Si Si1 0.296662 0.847347 0.428363
Si Si2 0.409928 0.394998 0.309685
Si Si3 0.952246 0.351739 0.572336
Si Si4 0.286892 0.101104 0.191755
Si Si5 0.891529 0.245303 0.140609
O O1 0.380622 0.901557 0.499580
O O2 0.520639 0.817322 0.407137
O O3 0.125354 0.914540 0.373969
O O4 0.150310 0.754758 0.434695
O O5 0.500000 0.355791 0.250000
O O6 0.289668 0.497427 0.288553
O O7 0.233427 0.312690 0.318060
O O8 0.224707 0.337185 0.598347
O O9 0.855796 0.413378 0.623438
O O10 0.500000 0.137241 0.250000
O O11 0.100042 0.185066 0.187676
#
# Coordination Sequence:
#
# PCOD8149356 Si02
#       5
#     8   8   8   8   8
#     4   9  20  41  70 103 134 174 225 277 343 416
#     4  11  27  45  67 100 139 178 231 285 337 409
#     4   9  20  41  70 103 134 174 225 277 343 416
#     4  11  27  45  67 100 139 178 231 285 337 409
#     4  10  23  45  70  96 135 181 220 286 347 405
#
# _framework density 23.489993999999999
#
# number of rings (size 3 to 8) (size 9 to 14) (size 15 to 20)
#    0.000    2.000    0.000    0.600    5.600   11.200 
#    0.000    2.000    0.000    0.000    0.000    0.000 
#    0.000    0.000    0.000    0.000    0.000    0.000 
#
# Total GULP energy -247988.434275 kJ/mol
# GULP energy per Si atom -12399.421714 kJ/mol
# Density = 2.343653 g / cm^3
# Si number density = 23.489994 Si / 1000 Ang^3
#
#
#
# Elastic Constant Matrix: (Units=GPa)
#
#
# Indices 1 2 3 4 5 6 
#
# 1 157.1345 40.3404 78.5941 0.0000 2.7326 0.0000
# 2 40.3404 65.9618 40.9406 0.0000 1.0324 0.0000
# 3 78.5941 40.9406 171.7847 0.0000 6.6720 0.0000
# 4 0.0000 0.0000 0.0000 43.0699 0.0000 4.2946
# 5 2.7326 1.0324 6.6720 0.0000 23.2351 0.0000
# 6 0.0000 0.0000 0.0000 4.2946 0.0000 34.1213
#
#
#
# Elastic Compliance Matrix: (Units=1/GPa)
#
#
# Indices 1 2 3 4 5 6 
#
# 1 0.008860 -0.003406 -0.003243 0.000000 0.000041 0.000000
# 2 -0.003406 0.019106 -0.003011 0.000000 0.000416 0.000000
# 3 -0.003243 -0.003011 0.008093 0.000000 -0.001809 0.000000
# 4 0.000000 0.000000 0.000000 0.023513 0.000000 -0.002959
# 5 0.000041 0.000416 -0.001809 0.000000 0.043534 0.000000
# 6 0.000000 0.000000 0.000000 -0.002959 0.000000 0.029680
#
#
# Mechanical properties :
#
#
# Convention : Reuss Voigt Hill
#
# Bulk Modulus (GPa) = 59.74633 79.40346 69.57489
# Shear Modulus (GPa) = 31.70849 35.75234 33.73041
#
# Velocity S-wave (km/s) = 3.67805 3.90555 3.79350
# Velocity P-wave (km/s) = 6.59753 7.36303 6.99076
#
# Compressibility (1/GPa) = 0.01673743
#
# Stress axis : x y z
#
# Youngs Moduli (GPa) = 112.86774 52.34008 123.56299
#
# Poissons Ratio (x) = 0.17827 0.40076
# Poissons Ratio (y) = 0.38443 0.37208
# Poissons Ratio (z) = 0.36607 0.15761
#
# Static dielectric constant tensor:
#      x y z
#    x 4.634550 0.000000 0.222280 
#    y 0.000000 3.701510 0.000000 
#    z 0.222280 0.000000 4.790140 
# 
# 
# High freq. dielectric constant tensor:
#      x y z
#    x 1.946320 0.000000 0.002980 
#    y 0.000000 1.900780 0.000000 
#    z 0.002980 0.000000 1.940170 
# 
# From -- ./inp_files/260216.got.cif
#   From: 2010.06.25/outbox.cif.g09.slc.cpg/sg15_131_cif.got.tgz:260216.got - 2010.06.28 07:06:18.
