data_PCOD8149543
_publ_section_title
;
Structure prediction by ZEFSAII (Michael W. Deem and Ramdas Pophale) SiO2 
 PCOD8149543
Probable space group: C 2/C
;
_chemical_formula_sum "Si O2"
_cell_formula_units_Z 48
_cell_length_a 19.849154
_cell_length_b 11.040300
_cell_length_c 10.005981
_cell_angle_alpha 90.000000
_cell_angle_beta 116.600406
_cell_angle_gamma 90.000000
_cell_volume 1960.620086
_symmetry_space_group_name_H-M "C 2/C"
_symmetry_group_IT_number 15
_symmetry_cell_setting 'monoclinic'
loop_
_space_group_symop_operation_xyz
x,y,z
-x,y,1/2-z
-x,-y,-z
x,-y,1/2+z
1/2+x,1/2+y,z
1/2-x,1/2+y,1/2-z
1/2-x,1/2-y,-z
1/2+x,1/2-y,1/2+z
loop_
_atom_site_type_symbol
_atom_site_label
_atom_site_fract_x
_atom_site_fract_y
_atom_site_fract_z
Si Si1 0.750901 0.553556 0.252487
Si Si2 0.661092 0.277668 0.520868
Si Si3 0.836977 0.489206 0.577611
Si Si4 0.000000 0.837859 0.750000
Si Si5 0.496648 0.740453 0.964511
Si Si6 0.000000 0.436359 0.750000
Si Si7 0.891909 0.043321 0.746543
O O1 0.731044 0.687548 0.179135
O O2 0.796996 0.571364 0.430384
O O3 0.802810 0.479582 0.192641
O O4 0.671267 0.485137 0.198907
O O5 0.680457 0.151636 0.467929
O O6 0.586124 0.268329 0.540625
O O7 0.651792 0.385263 0.406840
O O8 0.926875 0.516967 0.651897
O O9 0.976323 0.751393 0.603798
O O10 0.071887 0.919956 0.776473
O O11 0.472332 0.855347 0.852626
O O12 0.459551 0.620813 0.869576
#
# Coordination Sequence:
#
# PCOD8149543 Si02
#       7
#     8   8   8   4   8   4   8
#     4  12  25  39  66 104 134 179 216 277 341 401
#     4  11  21  43  68  95 139 184 220 263 338 418
#     4  11  26  47  70  95 129 180 236 275 335 399
#     4  12  21  30  58 109 144 158 216 287 342 395
#     4  11  20  36  64 101 129 182 218 270 336 395
#     4  10  23  50  74  83 122 194 242 259 326 413
#     4  12  20  35  65  99 143 174 215 269 341 414
#
# _framework density 24.482050999999998
#
# number of rings (size 3 to 8) (size 9 to 14) (size 15 to 20)
#    0.000    0.667    8.333    2.000    0.000    0.667 
#    0.000    4.167    0.000    0.000    0.000    0.000 
#    0.000    0.000    0.000    0.000    0.000    0.000 
#
# Total GULP energy -297594.348429 kJ/mol
# GULP energy per Si atom -12399.764518 kJ/mol
# Density = 2.442633 g / cm^3
# Si number density = 24.482051 Si / 1000 Ang^3
#
#
#
# Elastic Constant Matrix: (Units=GPa)
#
#
# Indices 1 2 3 4 5 6 
#
# 1 122.5690 23.6117 42.3880 0.0000 -4.3883 0.0000
# 2 23.6117 25.4976 10.1021 0.0000 3.0231 0.0000
# 3 42.3880 10.1021 128.5615 0.0000 -9.5216 0.0000
# 4 0.0000 0.0000 0.0000 20.6023 0.0000 6.3488
# 5 -4.3883 3.0231 -9.5216 0.0000 48.7830 0.0000
# 6 0.0000 0.0000 0.0000 6.3488 0.0000 23.1848
#
#
#
# Elastic Compliance Matrix: (Units=1/GPa)
#
#
# Indices 1 2 3 4 5 6 
#
# 1 0.010923 -0.009120 -0.002811 0.000000 0.000999 0.000000
# 2 -0.009120 0.048585 -0.001110 0.000000 -0.004048 0.000000
# 3 -0.002811 -0.001110 0.008908 0.000000 0.001555 0.000000
# 4 0.000000 0.000000 0.000000 0.053012 0.000000 -0.014516
# 5 0.000999 -0.004048 0.001555 0.000000 0.021143 0.000000
# 6 0.000000 0.000000 0.000000 -0.014516 0.000000 0.047107
#
#
# Mechanical properties :
#
#
# Convention : Reuss Voigt Hill
#
# Bulk Modulus (GPa) = 23.62242 47.64798 35.63520
# Shear Modulus (GPa) = 21.75124 31.88244 26.81684
#
# Velocity S-wave (km/s) = 2.98393 3.61262 3.31322
# Velocity P-wave (km/s) = 4.64130 6.07504 5.40591
#
# Compressibility (1/GPa) = 0.04233267
#
# Stress axis : x y z
#
# Youngs Moduli (GPa) = 91.54580 20.58245 112.26422
#
# Poissons Ratio (x) = 0.18772 0.31557
# Poissons Ratio (y) = 0.83493 0.12466
# Poissons Ratio (z) = 0.25733 0.02286
#
# Static dielectric constant tensor:
#      x y z
#    x 4.621890 0.000000 0.006360 
#    y 0.000000 4.043950 0.000000 
#    z 0.006360 0.000000 4.728110 
# 
# 
# High freq. dielectric constant tensor:
#      x y z
#    x 1.993440 0.000000 -0.000800 
#    y 0.000000 1.932630 0.000000 
#    z -0.000800 0.000000 1.980090 
# 
# From -- ./inp_files/55461.got.cif
#   From: 2010.06.25/outbox.cif.g09.slc.cpg/sg15_28_cif.got.tgz:55461.got - 2010.06.28 07:06:18.
