data_PCOD8149057
_publ_section_title
;
Structure prediction by ZEFSAII (Michael W. Deem and Ramdas Pophale) SiO2 
 PCOD8149057
Probable space group: C 2/C
;
_chemical_formula_sum "Si O2"
_cell_formula_units_Z 48
_cell_length_a 11.760714
_cell_length_b 8.764858
_cell_length_c 22.838313
_cell_angle_alpha 90.000000
_cell_angle_beta 75.879609
_cell_angle_gamma 90.000000
_cell_volume 2283.064442
_symmetry_space_group_name_H-M "C 2/C"
_symmetry_group_IT_number 15
_symmetry_cell_setting 'monoclinic'
loop_
_space_group_symop_operation_xyz
x,y,z
-x,y,1/2-z
-x,-y,-z
x,-y,1/2+z
1/2+x,1/2+y,z
1/2-x,1/2+y,1/2-z
1/2-x,1/2-y,-z
1/2+x,1/2-y,1/2+z
loop_
_atom_site_type_symbol
_atom_site_label
_atom_site_fract_x
_atom_site_fract_y
_atom_site_fract_z
Si Si1 0.807978 0.997742 0.820830
Si Si2 0.621797 0.116664 0.426221
Si Si3 0.296803 0.564815 0.626419
Si Si4 0.787232 0.714531 0.751239
Si Si5 0.101431 0.580085 0.562920
Si Si6 0.980091 0.166225 0.151949
O O1 0.722596 0.993989 0.887625
O O2 0.754290 0.881976 0.778833
O O3 0.939510 0.953652 0.822461
O O4 0.804097 0.161449 0.788426
O O5 0.628021 0.286295 0.399714
O O6 0.641546 0.122237 0.492913
O O7 0.495826 0.050704 0.424918
O O8 0.215546 0.599827 0.693136
O O9 0.212865 0.514929 0.583844
O O10 0.384005 0.425824 0.627174
O O11 0.917189 0.721034 0.706227
O O12 0.059659 0.736692 0.598279
#
# Coordination Sequence:
#
# PCOD8149057 Si02
#       6
#     8   8   8   8   8   8
#     4  11  23  41  67  91 129 164 208 258 314 377
#     4  10  23  44  63  94 124 170 212 259 312 368
#     4  11  25  40  64  97 124 166 211 259 318 370
#     4  11  22  39  63  95 123 163 208 250 317 373
#     4  11  23  44  67  87 130 168 213 260 310 373
#     4  12  24  40  67  93 128 168 205 263 317 371
#
# _framework density 21.024374000000002
#
# number of rings (size 3 to 8) (size 9 to 14) (size 15 to 20)
#    0.000    1.000    6.667    1.000    0.000    2.000 
#    0.000    3.333    0.000    0.000    0.000    0.000 
#    0.000    0.000    0.000    0.000    0.000    0.000 
#
# Total GULP energy -297581.087523 kJ/mol
# GULP energy per Si atom -12399.211980 kJ/mol
# Density = 2.097652 g / cm^3
# Si number density = 21.024374 Si / 1000 Ang^3
#
#
#
# Elastic Constant Matrix: (Units=GPa)
#
#
# Indices 1 2 3 4 5 6 
#
# 1 132.4906 58.8672 52.7542 0.0000 24.4416 0.0000
# 2 58.8672 52.2182 36.2372 0.0000 15.8093 0.0000
# 3 52.7542 36.2372 135.4481 0.0000 4.4640 0.0000
# 4 0.0000 0.0000 0.0000 25.7473 0.0000 2.8045
# 5 24.4416 15.8093 4.4640 0.0000 27.6266 0.0000
# 6 0.0000 0.0000 0.0000 2.8045 0.0000 39.0636
#
#
#
# Elastic Compliance Matrix: (Units=1/GPa)
#
#
# Indices 1 2 3 4 5 6 
#
# 1 0.016011 -0.015057 -0.002036 0.000000 -0.005220 0.000000
# 2 -0.015057 0.042936 -0.005280 0.000000 -0.010396 0.000000
# 3 -0.002036 -0.005280 0.009480 0.000000 0.003291 0.000000
# 4 0.000000 0.000000 0.000000 0.039145 0.000000 -0.002810
# 5 -0.005220 -0.010396 0.003291 0.000000 0.046233 0.000000
# 6 0.000000 0.000000 0.000000 -0.002810 0.000000 0.025801
#
#
# Mechanical properties :
#
#
# Convention : Reuss Voigt Hill
#
# Bulk Modulus (GPa) = 42.22611 68.43044 55.32828
# Shear Modulus (GPa) = 21.52898 29.97404 25.75151
#
# Velocity S-wave (km/s) = 3.20347 3.77991 3.50357
# Velocity P-wave (km/s) = 5.81472 7.18813 6.53759
#
# Compressibility (1/GPa) = 0.02368203
#
# Stress axis : x y z
#
# Youngs Moduli (GPa) = 62.45617 23.29048 105.48628
#
# Poissons Ratio (x) = 0.35068 0.21474
# Poissons Ratio (y) = 0.94039 0.55696
# Poissons Ratio (z) = 0.12715 0.12297
#
# Static dielectric constant tensor:
#      x y z
#    x 3.708860 0.000000 0.017070 
#    y 0.000000 3.718700 0.000000 
#    z 0.017070 0.000000 4.158250 
# 
# 
# High freq. dielectric constant tensor:
#      x y z
#    x 1.814880 0.000000 0.000580 
#    y 0.000000 1.807370 0.000000 
#    z 0.000580 0.000000 1.845310 
# 
# From -- ./inp_files/267626.got.cif
#   From: 2010.06.25/outbox.cif.g09.slc.cpg/sg15_134_cif.got.tgz:267626.got - 2010.06.28 07:06:18.
