data_PCOD8149146
_publ_section_title
;
Structure prediction by ZEFSAII (Michael W. Deem and Ramdas Pophale) SiO2 
 PCOD8149146
Probable space group: C 2/C
;
_chemical_formula_sum "Si O2"
_cell_formula_units_Z 28
_cell_length_a 19.569476
_cell_length_b 10.816555
_cell_length_c 15.470081
_cell_angle_alpha 90.000000
_cell_angle_beta 158.335583
_cell_angle_gamma 90.000000
_cell_volume 1208.889890
_symmetry_space_group_name_H-M "C 2/C"
_symmetry_group_IT_number 15
_symmetry_cell_setting 'monoclinic'
loop_
_space_group_symop_operation_xyz
x,y,z
-x,y,1/2-z
-x,-y,-z
x,-y,1/2+z
1/2+x,1/2+y,z
1/2-x,1/2+y,1/2-z
1/2-x,1/2-y,-z
1/2+x,1/2-y,1/2+z
loop_
_atom_site_type_symbol
_atom_site_label
_atom_site_fract_x
_atom_site_fract_y
_atom_site_fract_z
Si Si1 0.830769 0.882161 0.613473
Si Si2 0.000000 0.559573 0.250000
Si Si3 0.145883 0.868635 0.659683
Si Si4 0.242841 0.375793 0.185323
O O1 0.750000 0.750000 0.500000
O O2 0.899104 0.879096 0.791915
O O3 0.000000 0.917450 0.750000
O O4 0.664801 0.978610 0.403612
O O5 0.084006 0.643083 0.426211
O O6 0.242856 0.739440 0.751087
O O7 0.945525 0.876098 0.377540
O O8 0.275771 0.988573 0.788864
#
# Coordination Sequence:
#
# PCOD8149146 Si02
#       4
#     8   4   8   8
#     4  11  21  40  69 100 134 178 233 283 331 403
#     4  10  24  44  66 100 136 182 228 278 346 410
#     4  10  23  44  68 103 135 179 229 282 343 408
#     4  10  23  45  68  98 141 176 232 277 342 413
#
# _framework density 23.161745
#
# number of rings (size 3 to 8) (size 9 to 14) (size 15 to 20)
#    0.000    1.714    1.429    1.714    4.000    2.286 
#   15.429    0.000    0.000    0.000    0.000    2.000 
#    0.000    0.000    0.000    0.000    0.000    0.000 
#
# Total GULP energy -173475.780157 kJ/mol
# GULP energy per Si atom -12391.127154 kJ/mol
# Density = 2.310903 g / cm^3
# Si number density = 23.161745 Si / 1000 Ang^3
#
#
#
# Elastic Constant Matrix: (Units=GPa)
#
#
# Indices 1 2 3 4 5 6 
#
# 1 70.2739 63.2679 31.8312 0.0000 10.1963 -0.0001
# 2 63.2679 181.6420 33.6989 -0.0001 2.5588 0.0000
# 3 31.8312 33.6989 133.3580 -0.0009 -3.7396 -0.0001
# 4 0.0000 -0.0001 -0.0009 35.0115 -0.0004 -8.5112
# 5 10.1963 2.5588 -3.7396 -0.0004 38.2838 0.0000
# 6 -0.0001 0.0000 -0.0001 -8.5112 0.0000 17.6582
#
#
#
# Elastic Compliance Matrix: (Units=1/GPa)
#
#
# Indices 1 2 3 4 5 6 
#
# 1 0.023556 -0.007389 -0.003928 0.000000 -0.006164 0.000000
# 2 -0.007389 0.008105 -0.000245 0.000000 0.001402 0.000000
# 3 -0.003928 -0.000245 0.008551 0.000000 0.001898 0.000000
# 4 0.000000 0.000000 0.000000 0.032353 0.000000 0.015594
# 5 -0.006164 0.001402 0.001898 0.000000 0.027854 0.000000
# 6 0.000000 0.000000 0.000000 0.015594 0.000000 0.064147
#
#
# Mechanical properties :
#
#
# Convention : Reuss Voigt Hill
#
# Bulk Modulus (GPa) = 58.52256 71.43000 64.97628
# Shear Modulus (GPa) = 25.85486 35.28908 30.57197
#
# Velocity S-wave (km/s) = 3.34469 3.90756 3.63703
# Velocity P-wave (km/s) = 6.34332 7.15998 6.76399
#
# Compressibility (1/GPa) = 0.01708743
#
# Stress axis : x y z
#
# Youngs Moduli (GPa) = 42.45147 123.38360 116.94033
#
# Poissons Ratio (x) = 0.91172 0.45937
# Poissons Ratio (y) = 0.31369 0.02865
# Poissons Ratio (z) = 0.16676 0.03022
#
# Static dielectric constant tensor:
#      x y z
#    x 3.910100 0.000000 -0.114260 
#    y 0.000000 3.874600 0.000000 
#    z -0.114260 0.000000 4.404560 
# 
# 
# High freq. dielectric constant tensor:
#      x y z
#    x 1.874200 0.000000 -0.012030 
#    y 0.000000 1.928430 0.000000 
#    z -0.012030 0.000000 1.937180 
# 
# From -- ./inp_files/36341.got.cif
#   From: 2010.06.25/outbox.cif.g09.slc.cpg/sg15_19_cif.got.tgz:36341.got - 2010.06.28 07:06:18.
