data_PCOD8149788
_publ_section_title
;
Structure prediction by ZEFSAII (Michael W. Deem and Ramdas Pophale) SiO2 
 PCOD8149788
Probable space group: C 2/C
;
_chemical_formula_sum "Si O2"
_cell_formula_units_Z 56
_cell_length_a 26.291645
_cell_length_b 10.224767
_cell_length_c 13.004912
_cell_angle_alpha 90.000000
_cell_angle_beta 46.326349
_cell_angle_gamma 90.000000
_cell_volume 2528.645394
_symmetry_space_group_name_H-M "C 2/C"
_symmetry_group_IT_number 15
_symmetry_cell_setting 'monoclinic'
loop_
_space_group_symop_operation_xyz
x,y,z
-x,y,1/2-z
-x,-y,-z
x,-y,1/2+z
1/2+x,1/2+y,z
1/2-x,1/2+y,1/2-z
1/2-x,1/2-y,-z
1/2+x,1/2-y,1/2+z
loop_
_atom_site_type_symbol
_atom_site_label
_atom_site_fract_x
_atom_site_fract_y
_atom_site_fract_z
Si Si1 0.934862 0.037190 0.407113
Si Si2 0.894294 0.862731 0.171443
Si Si3 0.981925 0.746908 0.384210
Si Si4 0.218115 0.542920 0.082327
Si Si5 0.358833 0.157471 0.686440
Si Si6 0.654977 0.606938 0.145168
Si Si7 0.733214 0.218991 0.879225
O O1 0.937242 0.117548 0.507895
O O2 0.866387 0.091861 0.444012
O O3 0.000000 0.085194 0.250000
O O4 0.937774 0.880713 0.423845
O O5 0.816468 0.808612 0.263140
O O6 0.941966 0.765867 0.171236
O O7 0.891859 0.002825 0.228367
O O8 0.933471 0.654141 0.523269
O O9 0.000000 0.678219 0.250000
O O10 0.156460 0.484940 0.241397
O O11 0.271987 0.629812 0.077479
O O12 0.261734 0.423874 0.970056
O O13 0.191466 0.631216 0.022819
O O14 0.359223 0.254908 0.782357
O O15 0.298231 0.197635 0.689645
#
# Coordination Sequence:
#
# PCOD8149788 Si02
#       7
#     8   8   8   8   8   8   8
#     4  11  19  33  58  94 137 164 212 271 335 388
#     4  11  21  39  62  97 130 179 220 277 337 391
#     4  11  22  37  65  98 136 176 223 267 340 400
#     4  10  24  42  61  94 127 170 219 271 331 401
#     4  12  24  41  69  97 131 172 223 280 340 401
#     4  11  21  36  64 100 129 164 216 279 331 390
#     4  10  25  43  69  90 133 176 222 276 341 404
#
# _framework density 22.146243999999999
#
# number of rings (size 3 to 8) (size 9 to 14) (size 15 to 20)
#    0.000    1.143    4.286    3.429    8.000    0.000 
#    0.000    0.714    0.000    0.000    0.000    0.000 
#    0.000    0.000    0.000    0.000    0.000    0.000 
#
# Total GULP energy -347074.476419 kJ/mol
# GULP energy per Si atom -12395.517015 kJ/mol
# Density = 2.209584 g / cm^3
# Si number density = 22.146244 Si / 1000 Ang^3
#
#
#
# Elastic Constant Matrix: (Units=GPa)
#
#
# Indices 1 2 3 4 5 6 
#
# 1 75.4152 6.4519 21.0601 0.0000 -3.7234 0.0000
# 2 6.4519 61.8448 36.8838 0.0000 -2.2663 0.0000
# 3 21.0601 36.8838 149.0285 0.0000 2.6007 0.0000
# 4 0.0000 0.0000 0.0000 44.8169 0.0000 -0.8333
# 5 -3.7234 -2.2663 2.6007 0.0000 29.6232 0.0000
# 6 0.0000 0.0000 0.0000 -0.8333 0.0000 15.7632
#
#
#
# Elastic Compliance Matrix: (Units=1/GPa)
#
#
# Indices 1 2 3 4 5 6 
#
# 1 0.013916 -0.000222 -0.001945 0.000000 0.001903 0.000000
# 2 -0.000222 0.019077 -0.004722 0.000000 0.001846 0.000000
# 3 -0.001945 -0.004722 0.008177 0.000000 -0.001324 0.000000
# 4 0.000000 0.000000 0.000000 0.022335 0.000000 0.001181
# 5 0.001903 0.001846 -0.001324 0.000000 0.034254 0.000000
# 6 0.000000 0.000000 0.000000 0.001181 0.000000 0.063501
#
#
# Mechanical properties :
#
#
# Convention : Reuss Voigt Hill
#
# Bulk Modulus (GPa) = 36.50826 46.12002 41.31414
# Shear Modulus (GPa) = 27.14909 32.83349 29.99129
#
# Velocity S-wave (km/s) = 3.50508 3.85460 3.68399
# Velocity P-wave (km/s) = 5.73600 6.37817 6.06559
#
# Compressibility (1/GPa) = 0.02739106
#
# Stress axis : x y z
#
# Youngs Moduli (GPa) = 71.85986 52.42019 122.29770
#
# Poissons Ratio (x) = 0.01165 0.23784
# Poissons Ratio (y) = 0.01597 0.57751
# Poissons Ratio (z) = 0.13975 0.24754
#
# Static dielectric constant tensor:
#      x y z
#    x 4.340600 0.000000 -0.029040 
#    y 0.000000 3.691050 0.000000 
#    z -0.029040 0.000000 4.324540 
# 
# 
# High freq. dielectric constant tensor:
#      x y z
#    x 1.863990 0.000000 0.008660 
#    y 0.000000 1.831850 0.000000 
#    z 0.008660 0.000000 1.892320 
# 
# From -- ./inp_files/122635.got.cif
#   From: 2010.06.25/outbox.cif.g09.slc.cpg/sg15_62_cif.got.tgz:122635.got - 2010.06.28 07:06:18.
