data_PCOD8149887
_publ_section_title
;
Structure prediction by ZEFSAII (Michael W. Deem and Ramdas Pophale) SiO2 
 PCOD8149887
Probable space group: C 2/C
;
_chemical_formula_sum "Si O2"
_cell_formula_units_Z 56
_cell_length_a 16.307479
_cell_length_b 8.788680
_cell_length_c 27.478072
_cell_angle_alpha 90.000000
_cell_angle_beta 43.849956
_cell_angle_gamma 90.000000
_cell_volume 2728.269046
_symmetry_space_group_name_H-M "C 2/C"
_symmetry_group_IT_number 15
_symmetry_cell_setting 'monoclinic'
loop_
_space_group_symop_operation_xyz
x,y,z
-x,y,1/2-z
-x,-y,-z
x,-y,1/2+z
1/2+x,1/2+y,z
1/2-x,1/2+y,1/2-z
1/2-x,1/2-y,-z
1/2+x,1/2-y,1/2+z
loop_
_atom_site_type_symbol
_atom_site_label
_atom_site_fract_x
_atom_site_fract_y
_atom_site_fract_z
Si Si1 0.056799 0.664154 0.172664
Si Si2 0.288145 0.855547 0.547146
Si Si3 0.873330 0.739215 0.171449
Si Si4 0.790602 0.332307 0.095196
Si Si5 0.971389 0.829953 0.027574
Si Si6 0.590942 0.140071 0.603099
Si Si7 0.833220 0.382417 0.184570
O O1 0.182060 0.746810 0.117225
O O2 0.080136 0.490928 0.147786
O O3 0.000000 0.668698 0.250000
O O4 0.971707 0.750838 0.171391
O O5 0.378576 0.729072 0.527624
O O6 0.334559 0.918797 0.475466
O O7 0.157433 0.784034 0.598055
O O8 0.280109 0.989454 0.589230
O O9 0.841339 0.563867 0.175830
O O10 0.757554 0.834923 0.234862
O O11 0.918191 0.822494 0.104103
O O12 0.911955 0.272474 0.020753
O O13 0.788834 0.307460 0.153665
O O14 0.000000 0.000000 0.000000
O O15 0.460153 0.190642 0.642840
#
# Coordination Sequence:
#
# PCOD8149887 Si02
#       7
#     8   8   8   8   8   8   8
#     4  11  24  44  66 100 136 177 221 280 335 397
#     4  11  23  43  68 101 132 171 223 282 338 391
#     4  11  26  43  69 102 135 179 226 281 338 401
#     4  12  23  44  70  94 137 178 221 278 332 401
#     4  12  26  42  71 102 137 178 232 277 341 406
#     4  10  24  42  68  97 134 171 221 278 336 399
#     4  11  23  44  69  97 136 181 223 275 338 403
#
# _framework density 20.525835000000001
#
# number of rings (size 3 to 8) (size 9 to 14) (size 15 to 20)
#    0.000    0.857    4.286    3.000    2.000    8.000 
#    0.000    0.000    0.000    0.000    0.000    0.000 
#    0.000    0.000    0.000    0.000    0.000    0.000 
#
# Total GULP energy -347385.568931 kJ/mol
# GULP energy per Si atom -12406.627462 kJ/mol
# Density = 2.047912 g / cm^3
# Si number density = 20.525835 Si / 1000 Ang^3
#
#
#
# Elastic Constant Matrix: (Units=GPa)
#
#
# Indices 1 2 3 4 5 6 
#
# 1 114.0518 46.1641 42.0337 -0.0001 -17.8095 -0.0004
# 2 46.1641 75.7997 32.7187 -0.0005 -0.9182 -0.0013
# 3 42.0337 32.7187 126.7046 0.0001 -0.3217 0.0001
# 4 -0.0001 -0.0005 0.0001 35.3623 0.0000 0.6529
# 5 -17.8095 -0.9182 -0.3217 0.0000 29.3726 0.0001
# 6 -0.0004 -0.0013 0.0001 0.6529 0.0001 19.4597
#
#
#
# Elastic Compliance Matrix: (Units=1/GPa)
#
#
# Indices 1 2 3 4 5 6 
#
# 1 0.013997 -0.007236 -0.002754 0.000000 0.008231 0.000000
# 2 -0.007236 0.018594 -0.002411 0.000000 -0.003833 0.000001
# 3 -0.002754 -0.002411 0.009424 0.000000 -0.001642 0.000000
# 4 0.000000 0.000000 0.000000 0.028296 0.000000 -0.000949
# 5 0.008231 -0.003833 -0.001642 0.000000 0.038898 0.000000
# 6 0.000000 0.000001 0.000000 -0.000949 0.000000 0.051420
#
#
# Mechanical properties :
#
#
# Convention : Reuss Voigt Hill
#
# Bulk Modulus (GPa) = 58.09336 62.04323 60.06830
# Shear Modulus (GPa) = 26.15489 29.88157 28.01823
#
# Velocity S-wave (km/s) = 3.57353 3.81964 3.69863
# Velocity P-wave (km/s) = 6.73727 7.05304 6.89696
#
# Compressibility (1/GPa) = 0.01721367
#
# Stress axis : x y z
#
# Youngs Moduli (GPa) = 71.44340 53.78142 106.10854
#
# Poissons Ratio (x) = 0.38917 0.29222
# Poissons Ratio (y) = 0.51698 0.25579
# Poissons Ratio (z) = 0.19675 0.12965
#
# Static dielectric constant tensor:
#      x y z
#    x 3.990170 0.000000 -0.090590 
#    y 0.000000 3.540700 0.000000 
#    z -0.090590 0.000000 3.777850 
# 
# 
# High freq. dielectric constant tensor:
#      x y z
#    x 1.821740 0.000000 -0.001890 
#    y 0.000000 1.795810 0.000000 
#    z -0.001890 0.000000 1.813140 
# 
# From -- ./inp_files/315484.got.cif
#   From: 2010.06.25/outbox.cif.g09.slc.cpg/sg15_158_cif.got.tgz:315484.got - 2010.06.28 07:06:18.
