data_PCOD8149983
_publ_section_title
;
Structure prediction by ZEFSAII (Michael W. Deem and Ramdas Pophale) SiO2 
 PCOD8149983
Probable space group: C 2/C
;
_chemical_formula_sum "Si O2"
_cell_formula_units_Z 44
_cell_length_a 11.463612
_cell_length_b 14.691236
_cell_length_c 13.014009
_cell_angle_alpha 90.000000
_cell_angle_beta 79.399612
_cell_angle_gamma 90.000000
_cell_volume 2154.345331
_symmetry_space_group_name_H-M "C 2/C"
_symmetry_group_IT_number 15
_symmetry_cell_setting 'monoclinic'
loop_
_space_group_symop_operation_xyz
x,y,z
-x,y,1/2-z
-x,-y,-z
x,-y,1/2+z
1/2+x,1/2+y,z
1/2-x,1/2+y,1/2-z
1/2-x,1/2-y,-z
1/2+x,1/2-y,1/2+z
loop_
_atom_site_type_symbol
_atom_site_label
_atom_site_fract_x
_atom_site_fract_y
_atom_site_fract_z
Si Si1 0.746669 0.605791 0.496638
Si Si2 0.223729 0.456667 0.163248
Si Si3 0.000000 0.661559 0.750000
Si Si4 0.372781 0.518186 0.326602
Si Si5 0.912313 0.745561 0.565904
Si Si6 0.652016 0.326948 0.500811
O O1 0.806652 0.528448 0.419723
O O2 0.648474 0.566331 0.591963
O O3 0.858373 0.651454 0.534219
O O4 0.684376 0.675456 0.428835
O O5 0.269844 0.508028 0.257526
O O6 0.322924 0.388299 0.103005
O O7 0.102611 0.403115 0.193994
O O8 0.054035 0.731546 0.822084
O O9 0.500000 0.511972 0.250000
O O10 0.360874 0.612229 0.392801
O O11 0.031544 0.775512 0.488575
O O12 0.750000 0.250000 0.500000
#
# Coordination Sequence:
#
# PCOD8149983 Si02
#       6
#     8   8   4   8   8   8
#     4  10  24  43  67  94 134 165 216 271 321 381
#     4  11  24  42  64  97 128 172 217 263 325 385
#     4  12  24  40  68  90 132 174 216 260 324 392
#     4  11  23  42  68  95 129 173 220 263 325 390
#     4  11  23  43  65  96 125 173 210 271 321 376
#     4  11  24  40  66  96 131 169 215 270 320 384
#
# _framework density 20.423838
#
# number of rings (size 3 to 8) (size 9 to 14) (size 15 to 20)
#    0.000    1.091    3.636    2.182    3.818    5.091 
#    0.000    0.000    4.000    0.000    0.000    0.000 
#    0.000    0.000    0.000    0.000    0.000    0.000 
#
# Total GULP energy -272742.982186 kJ/mol
# GULP energy per Si atom -12397.408281 kJ/mol
# Density = 2.037735 g / cm^3
# Si number density = 20.423838 Si / 1000 Ang^3
#
#
#
# Elastic Constant Matrix: (Units=GPa)
#
#
# Indices 1 2 3 4 5 6 
#
# 1 105.8979 52.6542 54.5481 0.0000 1.6729 0.0000
# 2 52.6542 107.0672 51.9388 0.0000 -8.1440 0.0000
# 3 54.5481 51.9388 115.1516 0.0000 -3.1165 0.0000
# 4 0.0000 0.0000 0.0000 20.2510 0.0000 -15.7886
# 5 1.6729 -8.1440 -3.1165 0.0000 34.8850 0.0000
# 6 0.0000 0.0000 0.0000 -15.7886 0.0000 -6.7628
#
#
#
# Elastic Compliance Matrix: (Units=1/GPa)
#
#
# Indices 1 2 3 4 5 6 
#
# 1 0.014327 -0.004987 -0.004599 0.000000 -0.002262 0.000000
# 2 -0.004987 0.013881 -0.003814 0.000000 0.003139 0.000000
# 3 -0.004599 -0.003814 0.012595 0.000000 0.000455 0.000000
# 4 0.000000 0.000000 0.000000 0.017510 0.000000 -0.040878
# 5 -0.002262 0.003139 0.000455 0.000000 0.029548 0.000000
# 6 0.000000 0.000000 0.000000 -0.040878 0.000000 -0.052432
#
#
# Mechanical properties :
#
#
# Convention : Reuss Voigt Hill
#
# Bulk Modulus (GPa) = 71.40526 71.82210 71.61368
# Shear Modulus (GPa) = 74.74209 20.93967 47.84088
#
# Velocity S-wave (km/s) = 6.05599 3.20544 4.84509
# Velocity P-wave (km/s) = 9.16175 6.99585 8.15106
#
# Compressibility (1/GPa) = 0.01400457
#
# Stress axis : x y z
#
# Youngs Moduli (GPa) = 69.79678 72.03881 79.39562
#
# Poissons Ratio (x) = 0.35927 0.36512
# Poissons Ratio (y) = 0.34809 0.30279
# Poissons Ratio (z) = 0.32098 0.27474
#
# Static dielectric constant tensor:
#      x y z
#    x 3.737630 0.000000 -0.005160 
#    y 0.000000 4.093500 0.000000 
#    z -0.005160 0.000000 3.873010 
# 
# 
# High freq. dielectric constant tensor:
#      x y z
#    x 1.801280 0.000000 0.001460 
#    y 0.000000 1.815280 0.000000 
#    z 0.001460 0.000000 1.801050 
# 
# From -- ./inp_files/86092.got.cif
#   From: 2010.06.25/outbox.cif.g09.slc.cpg/sg15_44_cif.got.tgz:86092.got - 2010.06.28 07:06:18.
