data_PCOD8149796
_publ_section_title
;
Structure prediction by ZEFSAII (Michael W. Deem and Ramdas Pophale) SiO2 
 PCOD8149796
Probable space group: C 2/C
;
_chemical_formula_sum "Si O2"
_cell_formula_units_Z 48
_cell_length_a 25.748918
_cell_length_b 10.522782
_cell_length_c 7.629061
_cell_angle_alpha 90.000000
_cell_angle_beta 97.645477
_cell_angle_gamma 90.000000
_cell_volume 2048.720031
_symmetry_space_group_name_H-M "C 2/C"
_symmetry_group_IT_number 15
_symmetry_cell_setting 'monoclinic'
loop_
_space_group_symop_operation_xyz
x,y,z
-x,y,1/2-z
-x,-y,-z
x,-y,1/2+z
1/2+x,1/2+y,z
1/2-x,1/2+y,1/2-z
1/2-x,1/2-y,-z
1/2+x,1/2-y,1/2+z
loop_
_atom_site_type_symbol
_atom_site_label
_atom_site_fract_x
_atom_site_fract_y
_atom_site_fract_z
Si Si1 0.840725 0.466125 0.198746
Si Si2 0.441128 0.818341 0.208011
Si Si3 0.601486 0.634414 0.017139
Si Si4 0.399716 0.651888 0.886941
Si Si5 0.706957 0.245245 0.628692
Si Si6 0.697667 0.192506 0.129446
O O1 0.902740 0.441168 0.197618
O O2 0.822486 0.390409 0.367715
O O3 0.826943 0.614624 0.213081
O O4 0.806810 0.401319 0.033971
O O5 0.500000 0.870104 0.250000
O O6 0.430003 0.722456 0.362582
O O7 0.434177 0.748386 0.018289
O O8 0.586543 0.489254 0.045755
O O9 0.663850 0.646460 0.078091
O O10 0.586309 0.670022 0.811278
O O11 0.338183 0.681432 0.899417
O O12 0.750000 0.250000 0.500000
O O13 0.740659 0.276432 0.820802
#
# Coordination Sequence:
#
# PCOD8149796 Si02
#       6
#     8   8   8   8   8   8
#     4  10  24  42  62  95 131 171 221 272 308 393
#     4  10  24  46  69  93 126 171 221 277 333 379
#     4  11  23  41  65  93 138 161 218 269 320 390
#     4  11  23  42  65  99 129 169 212 271 326 393
#     4  11  22  38  63  94 127 178 212 257 322 385
#     4  11  23  40  65  92 136 174 214 258 327 379
#
# _framework density 23.429264
#
# number of rings (size 3 to 8) (size 9 to 14) (size 15 to 20)
#    0.000    1.333    3.333    1.500    4.667    2.667 
#    0.000    3.333    0.000    0.000    0.000    0.000 
#    0.000    0.000    0.000    0.000    0.000    0.000 
#
# Total GULP energy -297570.482386 kJ/mol
# GULP energy per Si atom -12398.770099 kJ/mol
# Density = 2.337594 g / cm^3
# Si number density = 23.429264 Si / 1000 Ang^3
#
#
#
# Elastic Constant Matrix: (Units=GPa)
#
#
# Indices 1 2 3 4 5 6 
#
# 1 131.6639 13.4456 12.4337 0.0000 21.4705 0.0000
# 2 13.4456 61.2595 -23.1612 0.0000 1.8181 0.0000
# 3 12.4337 -23.1612 95.9761 0.0000 -1.4872 0.0000
# 4 0.0000 0.0000 0.0000 24.7027 0.0000 -3.4810
# 5 21.4705 1.8181 -1.4872 0.0000 30.3066 0.0000
# 6 0.0000 0.0000 0.0000 -3.4810 0.0000 19.1050
#
#
#
# Elastic Compliance Matrix: (Units=1/GPa)
#
#
# Indices 1 2 3 4 5 6 
#
# 1 0.009067 -0.002512 -0.001879 0.000000 -0.006365 0.000000
# 2 -0.002512 0.018681 0.004848 0.000000 0.000897 0.000000
# 3 -0.001879 0.004848 0.011858 0.000000 0.001623 0.000000
# 4 0.000000 0.000000 0.000000 0.041548 0.000000 0.007570
# 5 -0.006365 0.000897 0.001623 0.000000 0.037531 0.000000
# 6 0.000000 0.000000 0.000000 0.007570 0.000000 0.053722
#
#
# Mechanical properties :
#
#
# Convention : Reuss Voigt Hill
#
# Bulk Modulus (GPa) = 24.67980 32.70397 28.69188
# Shear Modulus (GPa) = 27.02689 33.90161 30.46425
#
# Velocity S-wave (km/s) = 3.40008 3.80804 3.60983
# Velocity P-wave (km/s) = 5.09615 5.77268 5.44493
#
# Compressibility (1/GPa) = 0.04051897
#
# Stress axis : x y z
#
# Youngs Moduli (GPa) = 110.28970 53.52900 84.33338
#
# Poissons Ratio (x) = 0.13445 0.15850
# Poissons Ratio (y) = 0.27702 -0.40881
# Poissons Ratio (z) = 0.20728 -0.25948
#
# Static dielectric constant tensor:
#      x y z
#    x 9.346590 0.000000 5.642940 
#    y 0.000000 4.166110 0.000000 
#    z 5.642940 0.000000 10.818690 
# 
# 
# High freq. dielectric constant tensor:
#      x y z
#    x 1.904660 0.000000 -0.005060 
#    y 0.000000 1.914320 0.000000 
#    z -0.005060 0.000000 1.960420 
# 
# From -- ./inp_files/60666.got.cif
#   From: 2010.06.25/outbox.cif.g09.slc.cpg/sg15_31_cif.got.tgz:60666.got - 2010.06.28 07:06:18.
