data_PCOD8149384
_publ_section_title
;
Structure prediction by ZEFSAII (Michael W. Deem and Ramdas Pophale) SiO2 
 PCOD8149384
Probable space group: C 2/C
;
_chemical_formula_sum "Si O2"
_cell_formula_units_Z 52
_cell_length_a 10.440476
_cell_length_b 27.814615
_cell_length_c 8.510259
_cell_angle_alpha 90.000000
_cell_angle_beta 116.168297
_cell_angle_gamma 90.000000
_cell_volume 2218.052442
_symmetry_space_group_name_H-M "C 2/C"
_symmetry_group_IT_number 15
_symmetry_cell_setting 'monoclinic'
loop_
_space_group_symop_operation_xyz
x,y,z
-x,y,1/2-z
-x,-y,-z
x,-y,1/2+z
1/2+x,1/2+y,z
1/2-x,1/2+y,1/2-z
1/2-x,1/2-y,-z
1/2+x,1/2-y,1/2+z
loop_
_atom_site_type_symbol
_atom_site_label
_atom_site_fract_x
_atom_site_fract_y
_atom_site_fract_z
Si Si1 0.346142 0.762900 0.904600
Si Si2 0.569735 0.130132 0.046033
Si Si3 0.500000 0.629677 0.250000
Si Si4 0.665123 0.470867 0.330317
Si Si5 0.268259 0.434598 0.476450
Si Si6 0.782406 0.381826 0.542171
Si Si7 0.621681 0.699846 0.070295
O O1 0.418805 0.813479 0.981678
O O2 0.246876 0.763174 0.693853
O O3 0.250000 0.750000 0.000000
O O4 0.474146 0.725127 0.942967
O O5 0.652318 0.116568 0.249285
O O6 0.402992 0.118529 0.973600
O O7 0.630719 0.099109 0.933661
O O8 0.590561 0.596510 0.415207
O O9 0.604170 0.663942 0.208644
O O10 0.500000 0.484364 0.250000
O O11 0.723426 0.452607 0.196348
O O12 0.748772 0.519311 0.419746
O O13 0.688737 0.429533 0.472515
O O14 0.682939 0.334132 0.464435
#
# Coordination Sequence:
#
# PCOD8149384 Si02
#       7
#     8   8   4   8   8   8   8
#     4  11  20  40  66 106 134 188 241 297 358 428
#     4  10  23  45  73  93 139 190 236 294 356 425
#     4  12  20  42  70  98 136 190 230 286 362 420
#     4  12  26  42  70 111 143 183 236 294 355 438
#     4  12  24  42  73 104 140 188 238 290 363 433
#     4  10  23  47  67  98 141 188 235 296 358 415
#     4  11  22  41  73 100 143 188 242 299 359 428
#
# _framework density 23.443991
#
# number of rings (size 3 to 8) (size 9 to 14) (size 15 to 20)
#    0.000    0.923    5.385    2.308    0.000    1.846 
#   11.077    0.000    0.000    0.000    0.000    0.000 
#    0.000    0.000    0.000    0.000    0.000    0.000 
#
# Total GULP energy -322450.593506 kJ/mol
# GULP energy per Si atom -12401.945904 kJ/mol
# Density = 2.339063 g / cm^3
# Si number density = 23.443991 Si / 1000 Ang^3
#
#
#
# Elastic Constant Matrix: (Units=GPa)
#
#
# Indices 1 2 3 4 5 6 
#
# 1 128.9460 39.4878 19.3816 0.0000 -0.0760 0.0000
# 2 39.4878 126.4887 34.5416 0.0000 7.6977 0.0000
# 3 19.3816 34.5416 48.6566 0.0000 -3.4882 0.0000
# 4 0.0000 0.0000 0.0000 34.5422 0.0000 -9.5439
# 5 -0.0760 7.6977 -3.4882 0.0000 36.7487 0.0000
# 6 0.0000 0.0000 0.0000 -9.5439 0.0000 29.2310
#
#
#
# Elastic Compliance Matrix: (Units=1/GPa)
#
#
# Indices 1 2 3 4 5 6 
#
# 1 0.008719 -0.002231 -0.001867 0.000000 0.000308 0.000000
# 2 -0.002231 0.010658 -0.006885 0.000000 -0.002891 0.000000
# 3 -0.001867 -0.006885 0.026467 0.000000 0.003951 0.000000
# 4 0.000000 0.000000 0.000000 0.031821 0.000000 0.010389
# 5 0.000308 -0.002891 0.003951 0.000000 0.028193 0.000000
# 6 0.000000 0.000000 0.000000 0.010389 0.000000 0.037602
#
#
# Mechanical properties :
#
#
# Convention : Reuss Voigt Hill
#
# Bulk Modulus (GPa) = 41.87951 54.54595 48.21273
# Shear Modulus (GPa) = 28.83727 34.14971 31.49349
#
# Velocity S-wave (km/s) = 3.51101 3.82075 3.66915
# Velocity P-wave (km/s) = 5.85992 6.54073 6.20966
#
# Compressibility (1/GPa) = 0.02387802
#
# Stress axis : x y z
#
# Youngs Moduli (GPa) = 114.68945 93.82299 37.78280
#
# Poissons Ratio (x) = 0.20930 0.07056
# Poissons Ratio (y) = 0.25585 0.26014
# Poissons Ratio (z) = 0.21417 0.64598
#
# Static dielectric constant tensor:
#      x y z
#    x 4.795940 0.000000 0.051780 
#    y 0.000000 4.516150 0.000000 
#    z 0.051780 0.000000 3.876410 
# 
# 
# High freq. dielectric constant tensor:
#      x y z
#    x 1.943360 0.000000 -0.001090 
#    y 0.000000 1.941940 0.000000 
#    z -0.001090 0.000000 1.904140 
# 
# From -- ./inp_files/33723.got.cif
#   From: 2010.06.25/outbox.cif.g09.slc.cpg/sg15_17_cif.got.tgz:33723.got - 2010.06.28 07:06:18.
