data_PCOD8149663
_publ_section_title
;
Structure prediction by ZEFSAII (Michael W. Deem and Ramdas Pophale) SiO2 
 PCOD8149663
Probable space group: C 2/C
;
_chemical_formula_sum "Si O2"
_cell_formula_units_Z 36
_cell_length_a 5.109514
_cell_length_b 27.856472
_cell_length_c 11.535965
_cell_angle_alpha 90.000000
_cell_angle_beta 63.933702
_cell_angle_gamma 90.000000
_cell_volume 1474.940029
_symmetry_space_group_name_H-M "C 2/C"
_symmetry_group_IT_number 15
_symmetry_cell_setting 'monoclinic'
loop_
_space_group_symop_operation_xyz
x,y,z
-x,y,1/2-z
-x,-y,-z
x,-y,1/2+z
1/2+x,1/2+y,z
1/2-x,1/2+y,1/2-z
1/2-x,1/2-y,-z
1/2+x,1/2-y,1/2+z
loop_
_atom_site_type_symbol
_atom_site_label
_atom_site_fract_x
_atom_site_fract_y
_atom_site_fract_z
Si Si1 0.825398 0.411819 0.026294
Si Si2 0.185035 0.227666 0.825248
Si Si3 0.000000 0.456032 0.750000
Si Si4 0.500000 0.483467 0.250000
Si Si5 0.000000 0.819879 0.750000
Si Si6 0.640640 0.646323 0.993878
O O1 0.745165 0.455192 0.127667
O O2 0.510848 0.388254 0.067904
O O3 0.032734 0.372958 0.049831
O O4 0.974782 0.426399 0.875403
O O5 0.500000 0.203127 0.750000
O O6 0.215913 0.285728 0.830875
O O7 0.082346 0.201656 0.962658
O O8 0.000000 0.213485 0.750000
O O9 0.698022 0.485765 0.799912
O O10 0.958193 0.854631 0.649201
#
# Coordination Sequence:
#
# PCOD8149663 Si02
#       6
#     8   8   4   4   4   8
#     4  12  27  43  72 103 136 175 222 280 345 391
#     4  10  24  40  65  92 133 178 234 266 333 381
#     4  12  24  50  71 100 137 176 219 272 337 428
#     4  12  26  45  74 100 135 176 223 268 342 415
#     4  10  26  41  69  92 138 188 230 270 337 387
#     4  12  25  43  66 101 139 174 228 283 329 396
#
# _framework density 24.407775000000001
#
# number of rings (size 3 to 8) (size 9 to 14) (size 15 to 20)
#    0.667    0.000    0.000    7.333    7.778    0.889 
#    0.000    0.000    0.000    0.000    0.000    0.000 
#    0.000    0.000    0.000    0.000    0.000    0.000 
#
# Total GULP energy -223017.504353 kJ/mol
# GULP energy per Si atom -12389.861353 kJ/mol
# Density = 2.435222 g / cm^3
# Si number density = 24.407775 Si / 1000 Ang^3
#
#
#
# Elastic Constant Matrix: (Units=GPa)
#
#
# Indices 1 2 3 4 5 6 
#
# 1 166.5617 29.7855 13.7557 0.0000 18.9337 0.0000
# 2 29.7855 50.7698 -14.1097 0.0000 4.8394 0.0000
# 3 13.7557 -14.1097 52.6459 0.0000 3.3775 0.0000
# 4 0.0000 0.0000 0.0000 37.5783 0.0000 2.4787
# 5 18.9337 4.8394 3.3775 0.0000 30.5895 0.0000
# 6 0.0000 0.0000 0.0000 2.4787 0.0000 26.9828
#
#
#
# Elastic Compliance Matrix: (Units=1/GPa)
#
#
# Indices 1 2 3 4 5 6 
#
# 1 0.007544 -0.004940 -0.003067 0.000000 -0.003549 0.000000
# 2 -0.004940 0.025021 0.008112 0.000000 -0.001796 0.000000
# 3 -0.003067 0.008112 0.022087 0.000000 -0.001823 0.000000
# 4 0.000000 0.000000 0.000000 0.026773 0.000000 -0.002460
# 5 -0.003549 -0.001796 -0.001823 0.000000 0.035373 0.000000
# 6 0.000000 0.000000 0.000000 -0.002460 0.000000 0.037287
#
#
# Mechanical properties :
#
#
# Convention : Reuss Voigt Hill
#
# Bulk Modulus (GPa) = 18.22802 36.53783 27.38292
# Shear Modulus (GPa) = 29.04219 35.06652 32.05435
#
# Velocity S-wave (km/s) = 3.45320 3.79449 3.62786
# Velocity P-wave (km/s) = 4.83568 5.84806 5.36580
#
# Compressibility (1/GPa) = 0.05486059
#
# Stress axis : x y z
#
# Youngs Moduli (GPa) = 132.55622 39.96708 45.27474
#
# Poissons Ratio (x) = 0.19744 0.13888
# Poissons Ratio (y) = 0.65484 -0.36726
# Poissons Ratio (z) = 0.40661 -0.32421
#
# Static dielectric constant tensor:
#      x y z
#    x 4.258050 0.000000 0.209970 
#    y 0.000000 4.256360 0.000000 
#    z 0.209970 0.000000 4.171590 
# 
# 
# High freq. dielectric constant tensor:
#      x y z
#    x 1.979230 0.000000 0.016800 
#    y 0.000000 1.965230 0.000000 
#    z 0.016800 0.000000 1.968270 
# 
# From -- ./inp_files/73566.got.cif
#   From: 2010.06.25/outbox.cif.g09.slc.cpg/sg15_37_cif.got.tgz:73566.got - 2010.06.28 07:06:18.
