data_PCOD8149872
_publ_section_title
;
Structure prediction by ZEFSAII (Michael W. Deem and Ramdas Pophale) SiO2 
 PCOD8149872
Probable space group: C 2/C
;
_chemical_formula_sum "Si O2"
_cell_formula_units_Z 48
_cell_length_a 25.135329
_cell_length_b 8.526096
_cell_length_c 9.862353
_cell_angle_alpha 90.000000
_cell_angle_beta 110.773766
_cell_angle_gamma 90.000000
_cell_volume 1976.157031
_symmetry_space_group_name_H-M "C 2/C"
_symmetry_group_IT_number 15
_symmetry_cell_setting 'monoclinic'
loop_
_space_group_symop_operation_xyz
x,y,z
-x,y,1/2-z
-x,-y,-z
x,-y,1/2+z
1/2+x,1/2+y,z
1/2-x,1/2+y,1/2-z
1/2-x,1/2-y,-z
1/2+x,1/2-y,1/2+z
loop_
_atom_site_type_symbol
_atom_site_label
_atom_site_fract_x
_atom_site_fract_y
_atom_site_fract_z
Si Si1 0.554066 0.037370 0.958737
Si Si2 0.259491 0.065100 0.030085
Si Si3 0.828120 0.441556 0.339086
Si Si4 0.500000 0.297356 0.750000
Si Si5 0.145038 0.085635 0.050882
Si Si6 0.424473 0.445364 0.281378
Si Si7 0.500000 0.794395 0.750000
O O1 0.546010 0.202010 0.877721
O O2 0.553216 0.898933 0.847194
O O3 0.500000 0.000000 0.000000
O O4 0.613563 0.036781 0.089688
O O5 0.199841 0.999992 0.032845
O O6 0.308255 0.002584 0.175137
O O7 0.250000 0.250000 0.000000
O O8 0.279799 0.000583 0.902373
O O9 0.839644 0.253834 0.365581
O O10 0.539316 0.395852 0.684359
O O11 0.122969 0.963364 0.145458
O O12 0.099766 0.098813 0.889375
O O13 0.471356 0.307832 0.346968
#
# Coordination Sequence:
#
# PCOD8149872 Si02
#       7
#     8   8   8   4   8   8   4
#     4  11  24  41  70 103 144 188 241 291 360 425
#     4  10  25  48  73 107 141 187 238 298 358 423
#     4  11  24  47  74 105 144 185 242 297 356 424
#     4  10  26  40  62 110 140 190 236 296 358 424
#     4  11  24  46  72 104 137 192 237 297 355 423
#     4  11  24  44  71 101 147 186 240 291 358 427
#     4  10  24  42  68 104 144 194 236 290 358 430
#
# _framework density 24.289569
#
# number of rings (size 3 to 8) (size 9 to 14) (size 15 to 20)
#    0.000    1.333    1.667    2.000    9.333    1.333 
#    6.000    4.167    0.000    0.000    0.000    0.000 
#    0.000    0.000    0.000    0.000    0.000    0.000 
#
# Total GULP energy -297398.542942 kJ/mol
# GULP energy per Si atom -12391.605956 kJ/mol
# Density = 2.423429 g / cm^3
# Si number density = 24.289569 Si / 1000 Ang^3
#
#
#
# Elastic Constant Matrix: (Units=GPa)
#
#
# Indices 1 2 3 4 5 6 
#
# 1 129.8971 20.3180 -5.3341 0.0000 -13.5009 0.0000
# 2 20.3180 89.4429 27.4706 0.0000 5.9072 0.0000
# 3 -5.3341 27.4706 80.8323 0.0000 -0.2658 0.0000
# 4 0.0000 0.0000 0.0000 18.3229 0.0000 6.0057
# 5 -13.5009 5.9072 -0.2658 0.0000 48.3959 0.0000
# 6 0.0000 0.0000 0.0000 6.0057 0.0000 23.7196
#
#
#
# Elastic Compliance Matrix: (Units=1/GPa)
#
#
# Indices 1 2 3 4 5 6 
#
# 1 0.008430 -0.002529 0.001424 0.000000 0.002668 0.000000
# 2 -0.002529 0.013359 -0.004715 0.000000 -0.002362 0.000000
# 3 0.001424 -0.004715 0.014071 0.000000 0.001050 0.000000
# 4 0.000000 0.000000 0.000000 0.059516 0.000000 -0.015069
# 5 0.002668 -0.002362 0.001050 0.000000 0.021701 0.000000
# 6 0.000000 0.000000 0.000000 -0.015069 0.000000 0.045975
#
#
# Mechanical properties :
#
#
# Convention : Reuss Voigt Hill
#
# Bulk Modulus (GPa) = 41.28502 42.78682 42.03592
# Shear Modulus (GPa) = 27.35791 35.26885 31.31338
#
# Velocity S-wave (km/s) = 3.35972 3.81467 3.59440
# Velocity P-wave (km/s) = 5.66429 6.08735 5.87962
#
# Compressibility (1/GPa) = 0.02422186
#
# Stress axis : x y z
#
# Youngs Moduli (GPa) = 118.62801 74.85774 71.06839
#
# Poissons Ratio (x) = 0.18928 -0.10123
# Poissons Ratio (y) = 0.29996 0.33505
# Poissons Ratio (z) = -0.16897 0.35292
#
# Static dielectric constant tensor:
#      x y z
#    x 0.791770 0.000000 -1.710440 
#    y 0.000000 4.495290 0.000000 
#    z -1.710440 0.000000 3.834720 
# 
# 
# High freq. dielectric constant tensor:
#      x y z
#    x 1.982310 0.000000 -0.002240 
#    y 0.000000 1.958180 0.000000 
#    z -0.002240 0.000000 1.960420 
# 
# From -- ./inp_files/116816.got.cif
#   From: 2010.06.25/outbox.cif.g09.slc.cpg/sg15_59_cif.got.tgz:116816.got - 2010.06.28 07:06:18.
