data_PCOD8149051
_publ_section_title
;
Structure prediction by ZEFSAII (Michael W. Deem and Ramdas Pophale) SiO2 
 PCOD8149051
Probable space group: C 2/C
;
_chemical_formula_sum "Si O2"
_cell_formula_units_Z 32
_cell_length_a 19.503944
_cell_length_b 6.570523
_cell_length_c 13.268328
_cell_angle_alpha 90.000000
_cell_angle_beta 111.812726
_cell_angle_gamma 90.000000
_cell_volume 1578.611509
_symmetry_space_group_name_H-M "C 2/C"
_symmetry_group_IT_number 15
_symmetry_cell_setting 'monoclinic'
loop_
_space_group_symop_operation_xyz
x,y,z
-x,y,1/2-z
-x,-y,-z
x,-y,1/2+z
1/2+x,1/2+y,z
1/2-x,1/2+y,1/2-z
1/2-x,1/2-y,-z
1/2+x,1/2-y,1/2+z
loop_
_atom_site_type_symbol
_atom_site_label
_atom_site_fract_x
_atom_site_fract_y
_atom_site_fract_z
Si Si1 0.840943 0.958542 0.298184
Si Si2 0.269674 0.143786 0.406741
Si Si3 0.527375 0.834921 0.655259
Si Si4 0.104162 0.652451 0.562042
O O1 0.788756 0.808289 0.332087
O O2 0.918567 0.858077 0.311144
O O3 0.800345 0.016600 0.171920
O O4 0.853210 0.153461 0.374153
O O5 0.250000 0.250000 0.500000
O O6 0.338732 0.995020 0.464561
O O7 0.500000 0.894470 0.750000
O O8 0.458047 0.772979 0.548984
O O9 0.567896 0.034472 0.635821
#
# Coordination Sequence:
#
# PCOD8149051 Si02
#       4
#     8   8   8   8
#     4  11  23  43  63  94 129 163 213 263 310 381
#     4  11  25  40  67  97 127 169 209 262 320 372
#     4  10  24  41  65  92 123 168 209 258 314 375
#     4  10  23  44  62  92 130 158 214 262 310 377
#
# _framework density 20.270980000000002
#
# number of rings (size 3 to 8) (size 9 to 14) (size 15 to 20)
#    0.000    1.500    2.500    0.750    7.000    2.000 
#    0.000    0.000    0.000    0.000    0.000    0.000 
#    0.000    0.000    0.000    0.000    0.000    0.000 
#
# Total GULP energy -198506.947320 kJ/mol
# GULP energy per Si atom -12406.684207 kJ/mol
# Density = 2.022484 g / cm^3
# Si number density = 20.270980 Si / 1000 Ang^3
#
#
#
# Elastic Constant Matrix: (Units=GPa)
#
#
# Indices 1 2 3 4 5 6 
#
# 1 126.3438 49.2625 79.2768 0.0000 7.3273 0.0000
# 2 49.2625 89.0123 50.8481 0.0000 10.7621 0.0000
# 3 79.2768 50.8481 130.0247 0.0000 9.0106 0.0000
# 4 0.0000 0.0000 0.0000 37.4956 0.0000 14.8285
# 5 7.3273 10.7621 9.0106 0.0000 40.2115 0.0000
# 6 0.0000 0.0000 0.0000 14.8285 0.0000 20.9163
#
#
#
# Elastic Compliance Matrix: (Units=1/GPa)
#
#
# Indices 1 2 3 4 5 6 
#
# 1 0.013664 -0.003612 -0.006920 0.000000 0.000028 0.000000
# 2 -0.003612 0.015703 -0.003751 0.000000 -0.002704 0.000000
# 3 -0.006920 -0.003751 0.013429 0.000000 -0.000744 0.000000
# 4 0.000000 0.000000 0.000000 0.037060 0.000000 -0.026274
# 5 0.000028 -0.002704 -0.000744 0.000000 0.025754 0.000000
# 6 0.000000 0.000000 0.000000 -0.026274 0.000000 0.066436
#
#
# Mechanical properties :
#
#
# Convention : Reuss Voigt Hill
#
# Bulk Modulus (GPa) = 70.28142 78.23950 74.26046
# Shear Modulus (GPa) = 24.34781 30.79091 27.56936
#
# Velocity S-wave (km/s) = 3.46947 3.90162 3.69187
# Velocity P-wave (km/s) = 7.12712 7.67968 7.40855
#
# Compressibility (1/GPa) = 0.01422851
#
# Stress axis : x y z
#
# Youngs Moduli (GPa) = 73.18472 63.68061 74.46713
#
# Poissons Ratio (x) = 0.23003 0.51534
# Poissons Ratio (y) = 0.26436 0.27934
# Poissons Ratio (z) = 0.50646 0.23888
#
# Static dielectric constant tensor:
#      x y z
#    x 3.788240 0.000000 0.252110 
#    y 0.000000 3.743690 0.000000 
#    z 0.252110 0.000000 3.658930 
# 
# 
# High freq. dielectric constant tensor:
#      x y z
#    x 1.800610 0.000000 0.015340 
#    y 0.000000 1.799490 0.000000 
#    z 0.015340 0.000000 1.795510 
# 
# From -- ./inp_files/115314.got.cif
#   From: 2010.06.25/outbox.cif.g09.slc.cpg/sg15_58_cif.got.tgz:115314.got - 2010.06.28 07:06:18.
