data_PCOD8149816
_publ_section_title
;
Structure prediction by ZEFSAII (Michael W. Deem and Ramdas Pophale) SiO2 
 PCOD8149816
Probable space group: C 2/C
;
_chemical_formula_sum "Si O2"
_cell_formula_units_Z 40
_cell_length_a 12.312877
_cell_length_b 28.937306
_cell_length_c 5.276528
_cell_angle_alpha 90.000000
_cell_angle_beta 103.199448
_cell_angle_gamma 90.000000
_cell_volume 1830.366340
_symmetry_space_group_name_H-M "C 2/C"
_symmetry_group_IT_number 15
_symmetry_cell_setting 'monoclinic'
loop_
_space_group_symop_operation_xyz
x,y,z
-x,y,1/2-z
-x,-y,-z
x,-y,1/2+z
1/2+x,1/2+y,z
1/2-x,1/2+y,1/2-z
1/2-x,1/2-y,-z
1/2+x,1/2-y,1/2+z
loop_
_atom_site_type_symbol
_atom_site_label
_atom_site_fract_x
_atom_site_fract_y
_atom_site_fract_z
Si Si1 0.000000 0.912241 0.750000
Si Si2 0.070529 0.598351 0.047718
Si Si3 0.314527 0.718232 0.727237
Si Si4 0.276234 0.469593 0.644337
Si Si5 0.887026 0.696296 0.542129
Si Si6 0.000000 0.851744 0.250000
O O1 0.106213 0.944330 0.775250
O O2 0.982509 0.881570 0.491104
O O3 0.178223 0.567145 0.080145
O O4 0.000000 0.580455 0.250000
O O5 0.113121 0.650670 0.135037
O O6 0.000000 0.595525 0.750000
O O7 0.250000 0.750000 0.500000
O O8 0.225284 0.692317 0.853937
O O9 0.391012 0.679558 0.639183
O O10 0.394286 0.754007 0.914630
O O11 0.265820 0.499499 0.386921
O O12 0.000000 0.692649 0.750000
#
# Coordination Sequence:
#
# PCOD8149816 Si02
#       6
#     4   8   8   8   8   4
#     4  12  28  49  72 106 142 182 236 283 356 412
#     4  11  26  44  71 104 140 183 226 288 349 419
#     4  11  25  40  67  96 138 188 239 284 335 399
#     4  12  26  48  78 103 139 178 230 291 357 423
#     4  10  24  42  64  95 139 184 233 281 343 403
#     4  12  28  43  72 104 144 184 234 285 334 410
#
# _framework density 21.853548
#
# number of rings (size 3 to 8) (size 9 to 14) (size 15 to 20)
#    0.000    0.800    0.000    5.400   16.800    2.400 
#    0.000    0.000    0.000    0.000    0.000    0.000 
#    0.000    0.000    0.000    0.000    0.000    0.000 
#
# Total GULP energy -247987.775897 kJ/mol
# GULP energy per Si atom -12399.388795 kJ/mol
# Density = 2.180381 g / cm^3
# Si number density = 21.853548 Si / 1000 Ang^3
#
#
#
# Elastic Constant Matrix: (Units=GPa)
#
#
# Indices 1 2 3 4 5 6 
#
# 1 129.5078 74.0083 27.3138 0.0000 1.3433 0.0000
# 2 74.0083 119.3747 36.1892 0.0000 1.4420 0.0000
# 3 27.3138 36.1892 114.4384 0.0000 -8.2730 0.0000
# 4 0.0000 0.0000 0.0000 41.2533 0.0000 -4.3436
# 5 1.3433 1.4420 -8.2730 0.0000 30.5549 0.0000
# 6 0.0000 0.0000 0.0000 -4.3436 0.0000 68.8807
#
#
#
# Elastic Compliance Matrix: (Units=1/GPa)
#
#
# Indices 1 2 3 4 5 6 
#
# 1 0.011995 -0.007252 -0.000595 0.000000 -0.000346 0.000000
# 2 -0.007252 0.013697 -0.002677 0.000000 -0.001052 0.000000
# 3 -0.000595 -0.002677 0.009932 0.000000 0.002842 0.000000
# 4 0.000000 0.000000 0.000000 0.024402 0.000000 0.001539
# 5 -0.000346 -0.001052 0.002842 0.000000 0.033562 0.000000
# 6 0.000000 0.000000 0.000000 0.001539 0.000000 0.014615
#
#
# Mechanical properties :
#
#
# Convention : Reuss Voigt Hill
#
# Bulk Modulus (GPa) = 68.59846 70.92705 69.76276
# Shear Modulus (GPa) = 37.28311 43.19175 40.23743
#
# Velocity S-wave (km/s) = 4.13491 4.45052 4.29561
# Velocity P-wave (km/s) = 7.36579 7.67695 7.52298
#
# Compressibility (1/GPa) = 0.01457759
#
# Stress axis : x y z
#
# Youngs Moduli (GPa) = 83.37041 73.00835 100.68329
#
# Poissons Ratio (x) = 0.52945 0.05987
# Poissons Ratio (y) = 0.60459 0.26950
# Poissons Ratio (z) = 0.04957 0.19542
#
# Static dielectric constant tensor:
#      x y z
#    x 4.146510 0.000000 -0.025690 
#    y 0.000000 3.368120 0.000000 
#    z -0.025690 0.000000 4.123320 
# 
# 
# High freq. dielectric constant tensor:
#      x y z
#    x 1.883770 0.000000 -0.001610 
#    y 0.000000 1.877190 0.000000 
#    z -0.001610 0.000000 1.861190 
# 
# From -- ./inp_files/4989.got.cif
#   From: 2010.06.25/outbox.cif.g09.slc.cpg/sg15_3_cif.got.tgz:4989.got - 2010.06.28 07:06:18.
