data_PCOD8149702
_publ_section_title
;
Structure prediction by ZEFSAII (Michael W. Deem and Ramdas Pophale) SiO2 
 PCOD8149702
Probable space group: C 2/C
;
_chemical_formula_sum "Si O2"
_cell_formula_units_Z 52
_cell_length_a 12.970544
_cell_length_b 28.646702
_cell_length_c 8.622777
_cell_angle_alpha 90.000000
_cell_angle_beta 130.508659
_cell_angle_gamma 90.000000
_cell_volume 2435.955926
_symmetry_space_group_name_H-M "C 2/C"
_symmetry_group_IT_number 15
_symmetry_cell_setting 'monoclinic'
loop_
_space_group_symop_operation_xyz
x,y,z
-x,y,1/2-z
-x,-y,-z
x,-y,1/2+z
1/2+x,1/2+y,z
1/2-x,1/2+y,1/2-z
1/2-x,1/2-y,-z
1/2+x,1/2-y,1/2+z
loop_
_atom_site_type_symbol
_atom_site_label
_atom_site_fract_x
_atom_site_fract_y
_atom_site_fract_z
Si Si1 0.205580 0.698486 0.630622
Si Si2 0.547635 0.656519 0.462920
Si Si3 0.500000 0.516529 0.750000
Si Si4 0.290542 0.691125 0.370523
Si Si5 0.541226 0.148076 0.970502
Si Si6 0.641362 0.555595 0.605020
Si Si7 0.541545 0.951752 0.116781
O O1 0.245365 0.679042 0.500492
O O2 0.203499 0.753711 0.642264
O O3 0.056870 0.679583 0.521493
O O4 0.309700 0.679882 0.859345
O O5 0.500000 0.675932 0.250000
O O6 0.439004 0.669895 0.488218
O O7 0.566442 0.601232 0.469914
O O8 0.598389 0.548050 0.741327
O O9 0.401814 0.486985 0.544926
O O10 0.191310 0.667904 0.146362
O O11 0.500000 0.151575 0.750000
O O12 0.538295 0.093942 0.024463
O O13 0.801816 0.560620 0.752606
O O14 0.500000 0.959657 0.250000
O O15 0.500000 0.000000 0.000000
#
# Coordination Sequence:
#
# PCOD8149702 Si02
#       7
#     8   8   4   8   8   8   8
#     4  11  24  47  65  98 138 174 230 278 339 415
#     4  12  25  41  70  99 137 175 227 284 340 408
#     4  10  24  40  70  94 136 174 220 282 338 408
#     4  11  26  42  70  98 133 182 222 280 343 408
#     4  11  24  42  68 100 136 173 221 280 336 406
#     4  11  23  44  65 101 133 176 224 280 342 409
#     4  11  25  43  68  94 134 175 224 281 334 404
#
# _framework density 21.346855999999999
#
# number of rings (size 3 to 8) (size 9 to 14) (size 15 to 20)
#    0.000    0.923    2.308    3.692    4.308    9.846 
#    0.000    0.000    0.000    0.000    0.000    0.000 
#    0.000    0.000    0.000    0.000    0.000    0.000 
#
# Total GULP energy -322521.950077 kJ/mol
# GULP energy per Si atom -12404.690388 kJ/mol
# Density = 2.129827 g / cm^3
# Si number density = 21.346856 Si / 1000 Ang^3
#
#
#
# Elastic Constant Matrix: (Units=GPa)
#
#
# Indices 1 2 3 4 5 6 
#
# 1 105.6207 26.4728 7.5892 0.0000 -7.7961 0.0000
# 2 26.4728 104.6281 24.4553 0.0000 -4.3414 0.0000
# 3 7.5892 24.4553 71.0899 0.0000 -6.1318 0.0000
# 4 0.0000 0.0000 0.0000 28.7293 0.0000 10.2937
# 5 -7.7961 -4.3414 -6.1318 0.0000 33.5483 0.0000
# 6 0.0000 0.0000 0.0000 10.2937 0.0000 32.3606
#
#
#
# Elastic Compliance Matrix: (Units=1/GPa)
#
#
# Indices 1 2 3 4 5 6 
#
# 1 0.010248 -0.002494 -0.000059 0.000000 0.002048 0.000000
# 2 -0.002494 0.011017 -0.003506 0.000000 0.000205 0.000000
# 3 -0.000059 -0.003506 0.015483 0.000000 0.002362 0.000000
# 4 0.000000 0.000000 0.000000 0.039285 0.000000 -0.012496
# 5 0.002048 0.000205 0.002362 0.000000 0.030742 0.000000
# 6 0.000000 0.000000 0.000000 -0.012496 0.000000 0.034877
#
#
# Mechanical properties :
#
#
# Convention : Reuss Voigt Hill
#
# Bulk Modulus (GPa) = 40.60238 44.26369 42.43303
# Shear Modulus (GPa) = 30.86795 33.78240 32.32517
#
# Velocity S-wave (km/s) = 3.80678 3.98244 3.89560
# Velocity P-wave (km/s) = 6.19546 6.47510 6.33682
#
# Compressibility (1/GPa) = 0.02462910
#
# Stress axis : x y z
#
# Youngs Moduli (GPa) = 97.57610 90.77142 64.58768
#
# Poissons Ratio (x) = 0.22640 0.00384
# Poissons Ratio (y) = 0.24337 0.22643
# Poissons Ratio (z) = 0.00580 0.31823
#
# Static dielectric constant tensor:
#      x y z
#    x 4.052730 0.000000 -0.052360 
#    y 0.000000 4.097810 0.000000 
#    z -0.052360 0.000000 3.701740 
# 
# 
# High freq. dielectric constant tensor:
#      x y z
#    x 1.856180 0.000000 -0.001460 
#    y 0.000000 1.850100 0.000000 
#    z -0.001460 0.000000 1.835760 
# 
# From -- ./inp_files/34416.got.cif
#   From: 2010.06.25/outbox.cif.g09.slc.cpg/sg15_18_cif.got.tgz:34416.got - 2010.06.28 07:06:18.
