data_PCOD8149783
_publ_section_title
;
Structure prediction by ZEFSAII (Michael W. Deem and Ramdas Pophale) SiO2 
 PCOD8149783
Probable space group: C 2/C
;
_chemical_formula_sum "Si O2"
_cell_formula_units_Z 44
_cell_length_a 8.059294
_cell_length_b 12.230440
_cell_length_c 26.142658
_cell_angle_alpha 90.000000
_cell_angle_beta 131.605150
_cell_angle_gamma 90.000000
_cell_volume 1926.808318
_symmetry_space_group_name_H-M "C 2/C"
_symmetry_group_IT_number 15
_symmetry_cell_setting 'monoclinic'
loop_
_space_group_symop_operation_xyz
x,y,z
-x,y,1/2-z
-x,-y,-z
x,-y,1/2+z
1/2+x,1/2+y,z
1/2-x,1/2+y,1/2-z
1/2-x,1/2-y,-z
1/2+x,1/2-y,1/2+z
loop_
_atom_site_type_symbol
_atom_site_label
_atom_site_fract_x
_atom_site_fract_y
_atom_site_fract_z
Si Si1 0.634616 0.343487 0.515249
Si Si2 0.000000 0.755897 0.250000
Si Si3 0.787806 0.301439 0.903239
Si Si4 0.946409 0.380604 0.835657
Si Si5 0.744276 0.569113 0.494126
Si Si6 0.560583 0.120589 0.641023
O O1 0.552558 0.236996 0.464899
O O2 0.672260 0.443228 0.483743
O O3 0.412213 0.355913 0.503449
O O4 0.819378 0.334067 0.596475
O O5 0.107302 0.679707 0.228216
O O6 0.193335 0.831910 0.311565
O O7 0.764401 0.353166 0.842111
O O8 0.612052 0.204172 0.868873
O O9 0.735626 0.395716 0.933535
O O10 0.948837 0.510795 0.826315
O O11 0.989759 0.587185 0.568525
#
# Coordination Sequence:
#
# PCOD8149783 Si02
#       6
#     8   4   8   8   8   8
#     4   9  18  36  62  94 124 152 187 240 309 365
#     4  12  26  44  60  78 120 168 208 246 288 342
#     4  11  21  37  65  93 121 152 191 246 308 358
#     4  11  25  40  62  91 118 158 204 245 294 353
#     4   9  18  36  63  93 124 152 188 243 305 363
#     4  10  24  42  61  88 119 157 201 245 292 351
#
# _framework density 22.835692000000002
#
# number of rings (size 3 to 8) (size 9 to 14) (size 15 to 20)
#    0.000    1.818    0.000    6.000    0.000    8.000 
#    0.000    0.000    0.000    2.182    0.000    0.000 
#    0.000    0.000    0.000    0.000    0.000    0.000 
#
# Total GULP energy -272790.827628 kJ/mol
# GULP energy per Si atom -12399.583074 kJ/mol
# Density = 2.278372 g / cm^3
# Si number density = 22.835692 Si / 1000 Ang^3
#
#
#
# Elastic Constant Matrix: (Units=GPa)
#
#
# Indices 1 2 3 4 5 6 
#
# 1 93.8362 49.9309 51.4496 0.0000 -19.6044 0.0000
# 2 49.9309 71.1179 33.3429 0.0000 -18.4515 0.0000
# 3 51.4496 33.3429 59.6577 0.0000 -20.4808 0.0000
# 4 0.0000 0.0000 0.0000 26.4095 0.0000 4.3811
# 5 -19.6044 -18.4515 -20.4808 0.0000 44.0721 0.0000
# 6 0.0000 0.0000 0.0000 4.3811 0.0000 25.3891
#
#
#
# Elastic Compliance Matrix: (Units=1/GPa)
#
#
# Indices 1 2 3 4 5 6 
#
# 1 0.024450 -0.009945 -0.015733 0.000000 -0.000599 0.000000
# 2 -0.009945 0.023592 -0.003256 0.000000 0.003940 0.000000
# 3 -0.015733 -0.003256 0.034838 0.000000 0.007828 0.000000
# 4 0.000000 0.000000 0.000000 0.038981 0.000000 -0.006726
# 5 -0.000599 0.003940 0.007828 0.000000 0.027711 0.000000
# 6 0.000000 0.000000 0.000000 -0.006726 0.000000 0.040548
#
#
# Mechanical properties :
#
#
# Convention : Reuss Voigt Hill
#
# Bulk Modulus (GPa) = 39.98231 54.89538 47.43884
# Shear Modulus (GPa) = 19.50631 25.16671 22.33651
#
# Velocity S-wave (km/s) = 2.92585 3.32336 3.13092
# Velocity P-wave (km/s) = 5.38152 6.23039 5.82145
#
# Compressibility (1/GPa) = 0.02501106
#
# Stress axis : x y z
#
# Youngs Moduli (GPa) = 40.89976 42.38639 28.70394
#
# Poissons Ratio (x) = 0.42153 0.45161
# Poissons Ratio (y) = 0.40675 0.09347
# Poissons Ratio (z) = 0.64349 0.13803
#
# Static dielectric constant tensor:
#      x y z
#    x 4.200980 0.000000 0.167120 
#    y 0.000000 4.185720 0.000000 
#    z 0.167120 0.000000 3.909560 
# 
# 
# High freq. dielectric constant tensor:
#      x y z
#    x 1.911320 0.000000 0.006660 
#    y 0.000000 1.912990 0.000000 
#    z 0.006660 0.000000 1.877520 
# 
# From -- ./inp_files/288150.got.cif
#   From: 2010.06.25/outbox.cif.g09.slc.cpg/sg15_145_cif.got.tgz:288150.got - 2010.06.28 07:06:18.
