data_PCOD8149360
_publ_section_title
;
Structure prediction by ZEFSAII (Michael W. Deem and Ramdas Pophale) SiO2 
 PCOD8149360
Probable space group: C 2/C
;
_chemical_formula_sum "Si O2"
_cell_formula_units_Z 32
_cell_length_a 8.159165
_cell_length_b 20.098857
_cell_length_c 8.562580
_cell_angle_alpha 90.000000
_cell_angle_beta 72.325846
_cell_angle_gamma 90.000000
_cell_volume 1337.897364
_symmetry_space_group_name_H-M "C 2/C"
_symmetry_group_IT_number 15
_symmetry_cell_setting 'monoclinic'
loop_
_space_group_symop_operation_xyz
x,y,z
-x,y,1/2-z
-x,-y,-z
x,-y,1/2+z
1/2+x,1/2+y,z
1/2-x,1/2+y,1/2-z
1/2-x,1/2-y,-z
1/2+x,1/2-y,1/2+z
loop_
_atom_site_type_symbol
_atom_site_label
_atom_site_fract_x
_atom_site_fract_y
_atom_site_fract_z
Si Si1 0.802776 0.075282 0.254098
Si Si2 0.814209 0.449418 0.379612
Si Si3 0.133872 0.182839 0.851816
Si Si4 0.831756 0.783417 0.627603
O O1 0.676241 0.059480 0.436105
O O2 0.746498 0.145423 0.194006
O O3 0.000000 0.075835 0.250000
O O4 0.774511 0.019767 0.130653
O O5 0.695006 0.392390 0.342218
O O6 0.000000 0.444048 0.250000
O O7 0.295366 0.232495 0.780348
O O8 0.000000 0.189065 0.750000
O O9 0.035762 0.204145 0.040543
O O10 0.750000 0.750000 0.500000
#
# Coordination Sequence:
#
# PCOD8149360 Si02
#       4
#     8   8   8   8
#     4  12  26  48  75 106 142 193 241 292 357 427
#     4  12  28  45  73 106 149 187 241 295 356 423
#     4  10  23  45  71 103 140 191 235 295 357 424
#     4  10  24  43  73 104 142 185 237 294 357 420
#
# _framework density 23.918127999999999
#
# number of rings (size 3 to 8) (size 9 to 14) (size 15 to 20)
#    0.000    1.000    2.500    2.250   10.500    5.000 
#    0.000    0.000    0.000    0.000    0.000    0.000 
#    0.000    0.000    0.000    0.000    0.000    0.000 
#
# Total GULP energy -198403.815143 kJ/mol
# GULP energy per Si atom -12400.238446 kJ/mol
# Density = 2.386369 g / cm^3
# Si number density = 23.918128 Si / 1000 Ang^3
#
#
#
# Elastic Constant Matrix: (Units=GPa)
#
#
# Indices 1 2 3 4 5 6 
#
# 1 53.5938 19.7830 22.4403 0.0000 -1.6766 0.0000
# 2 19.7830 196.8039 76.8763 0.0000 13.9453 0.0000
# 3 22.4403 76.8763 149.8229 0.0000 -15.2591 0.0000
# 4 0.0000 0.0000 0.0000 49.5316 0.0000 3.7906
# 5 -1.6766 13.9453 -15.2591 0.0000 27.6918 0.0000
# 6 0.0000 0.0000 0.0000 3.7906 0.0000 35.1697
#
#
#
# Elastic Compliance Matrix: (Units=1/GPa)
#
#
# Indices 1 2 3 4 5 6 
#
# 1 0.020086 -0.001120 -0.002387 0.000000 0.000465 0.000000
# 2 -0.001120 0.007245 -0.004162 0.000000 -0.006010 0.000000
# 3 -0.002387 -0.004162 0.009923 0.000000 0.007420 0.000000
# 4 0.000000 0.000000 0.000000 0.020357 0.000000 -0.002194
# 5 0.000465 -0.006010 0.007420 0.000000 0.043255 0.000000
# 6 0.000000 0.000000 0.000000 -0.002194 0.000000 0.028670
#
#
# Mechanical properties :
#
#
# Convention : Reuss Voigt Hill
#
# Bulk Modulus (GPa) = 45.62479 70.93555 58.28017
# Shear Modulus (GPa) = 32.85589 41.22001 37.03795
#
# Velocity S-wave (km/s) = 3.71034 4.15586 3.93941
# Velocity P-wave (km/s) = 6.12146 7.26294 6.71650
#
# Compressibility (1/GPa) = 0.02191791
#
# Stress axis : x y z
#
# Youngs Moduli (GPa) = 49.78580 138.01762 100.77285
#
# Poissons Ratio (x) = 0.15455 0.24050
# Poissons Ratio (y) = 0.05575 0.41943
# Poissons Ratio (z) = 0.11882 0.57445
#
# Static dielectric constant tensor:
#      x y z
#    x 4.041080 0.000000 -0.467860 
#    y 0.000000 4.676780 0.000000 
#    z -0.467860 0.000000 5.446460 
# 
# 
# High freq. dielectric constant tensor:
#      x y z
#    x 1.926290 0.000000 -0.010830 
#    y 0.000000 1.966960 0.000000 
#    z -0.010830 0.000000 1.974680 
# 
# From -- ./inp_files/23021.got.cif
#   From: 2010.06.25/outbox.cif.g09.slc.cpg/sg15_12_cif.got.tgz:23021.got - 2010.06.28 07:06:18.
