data_PCOD8149444
_publ_section_title
;
Structure prediction by ZEFSAII (Michael W. Deem and Ramdas Pophale) SiO2 
 PCOD8149444
Probable space group: C 2/C
;
_chemical_formula_sum "Si O2"
_cell_formula_units_Z 48
_cell_length_a 9.264026
_cell_length_b 16.627960
_cell_length_c 19.456562
_cell_angle_alpha 90.000000
_cell_angle_beta 131.885616
_cell_angle_gamma 90.000000
_cell_volume 2231.297075
_symmetry_space_group_name_H-M "C 2/C"
_symmetry_group_IT_number 15
_symmetry_cell_setting 'monoclinic'
loop_
_space_group_symop_operation_xyz
x,y,z
-x,y,1/2-z
-x,-y,-z
x,-y,1/2+z
1/2+x,1/2+y,z
1/2-x,1/2+y,1/2-z
1/2-x,1/2-y,-z
1/2+x,1/2-y,1/2+z
loop_
_atom_site_type_symbol
_atom_site_label
_atom_site_fract_x
_atom_site_fract_y
_atom_site_fract_z
Si Si1 0.107456 0.939829 0.642553
Si Si2 0.000000 0.651945 0.250000
Si Si3 0.500000 0.500810 0.250000
Si Si4 0.736181 0.661135 0.526697
Si Si5 0.176576 0.121064 0.655967
Si Si6 0.845056 0.775824 0.101256
Si Si7 0.348411 0.120900 0.851992
O O1 0.317913 0.902246 0.708784
O O2 0.961428 0.885200 0.552792
O O3 0.138016 0.028871 0.621638
O O4 0.022520 0.941910 0.692163
O O5 0.970725 0.703202 0.171412
O O6 0.300399 0.450318 0.176854
O O7 0.750000 0.750000 0.500000
O O8 0.735514 0.673037 0.608859
O O9 0.921406 0.606303 0.562072
O O10 0.337125 0.135416 0.766170
O O11 0.976802 0.147804 0.627569
O O12 0.697864 0.801274 0.115431
O O13 0.750000 0.750000 0.000000
#
# Coordination Sequence:
#
# PCOD8149444 Si02
#       7
#     8   4   4   8   8   8   8
#     4  11  26  46  68 105 138 184 240 289 349 423
#     4  12  25  46  72 103 146 180 240 290 351 426
#     4  10  23  46  70  95 134 194 230 290 353 412
#     4  12  27  42  68 110 142 175 238 296 353 415
#     4  11  23  47  71  96 141 188 232 287 350 424
#     4  12  23  44  76 103 136 191 234 284 354 423
#     4  11  21  45  71  95 138 187 229 278 358 413
#
# _framework density 21.512152
#
# number of rings (size 3 to 8) (size 9 to 14) (size 15 to 20)
#    0.000    0.667    5.000    4.000    4.667    3.333 
#    0.000    0.000    0.000    0.000    0.000    0.000 
#    0.000    0.000    0.000    0.000    0.000    0.000 
#
# Total GULP energy -297491.363483 kJ/mol
# GULP energy per Si atom -12395.473478 kJ/mol
# Density = 2.146319 g / cm^3
# Si number density = 21.512152 Si / 1000 Ang^3
#
#
#
# Elastic Constant Matrix: (Units=GPa)
#
#
# Indices 1 2 3 4 5 6 
#
# 1 131.6763 43.4609 59.4320 0.0000 -0.2913 0.0000
# 2 43.4609 98.9214 56.0062 0.0000 -12.8491 0.0000
# 3 59.4320 56.0062 128.5246 0.0000 -1.9103 0.0000
# 4 0.0000 0.0000 0.0000 22.0944 0.0000 0.3058
# 5 -0.2913 -12.8491 -1.9103 0.0000 49.4802 0.0000
# 6 0.0000 0.0000 0.0000 0.3058 0.0000 31.2825
#
#
#
# Elastic Compliance Matrix: (Units=1/GPa)
#
#
# Indices 1 2 3 4 5 6 
#
# 1 0.010019 -0.002478 -0.003564 0.000000 -0.000722 0.000000
# 2 -0.002478 0.014580 -0.005155 0.000000 0.003573 0.000000
# 3 -0.003564 -0.005155 0.011661 0.000000 -0.000909 0.000000
# 4 0.000000 0.000000 0.000000 0.045267 0.000000 -0.000443
# 5 -0.000722 0.003573 -0.000909 0.000000 0.021098 0.000000
# 6 0.000000 0.000000 0.000000 -0.000443 0.000000 0.031971
#
#
# Mechanical properties :
#
#
# Convention : Reuss Voigt Hill
#
# Bulk Modulus (GPa) = 72.10982 75.21340 73.66161
# Shear Modulus (GPa) = 30.93825 33.91963 32.42894
#
# Velocity S-wave (km/s) = 3.79644 3.97516 3.88683
# Velocity P-wave (km/s) = 7.26709 7.49055 7.37966
#
# Compressibility (1/GPa) = 0.01386774
#
# Stress axis : x y z
#
# Youngs Moduli (GPa) = 99.80775 68.58678 85.75355
#
# Poissons Ratio (x) = 0.16995 0.30563
# Poissons Ratio (y) = 0.24731 0.44202
# Poissons Ratio (z) = 0.35572 0.35353
#
# Static dielectric constant tensor:
#      x y z
#    x 4.043700 0.000000 0.012820 
#    y 0.000000 4.484520 0.000000 
#    z 0.012820 0.000000 4.154250 
# 
# 
# High freq. dielectric constant tensor:
#      x y z
#    x 1.865230 0.000000 -0.000700 
#    y 0.000000 1.831040 0.000000 
#    z -0.000700 0.000000 1.850450 
# 
# From -- ./inp_files/232900.got.cif
#   From: 2010.06.25/outbox.cif.g09.slc.cpg/sg15_117_cif.got.tgz:232900.got - 2010.06.28 07:06:18.
