data_PCOD8149389
_publ_section_title
;
Structure prediction by ZEFSAII (Michael W. Deem and Ramdas Pophale) SiO2 
 PCOD8149389
Probable space group: C 2/C
;
_chemical_formula_sum "Si O2"
_cell_formula_units_Z 40
_cell_length_a 8.483453
_cell_length_b 24.022709
_cell_length_c 16.704943
_cell_angle_alpha 90.000000
_cell_angle_beta 149.201677
_cell_angle_gamma 90.000000
_cell_volume 1743.109345
_symmetry_space_group_name_H-M "C 2/C"
_symmetry_group_IT_number 15
_symmetry_cell_setting 'monoclinic'
loop_
_space_group_symop_operation_xyz
x,y,z
-x,y,1/2-z
-x,-y,-z
x,-y,1/2+z
1/2+x,1/2+y,z
1/2-x,1/2+y,1/2-z
1/2-x,1/2-y,-z
1/2+x,1/2-y,1/2+z
loop_
_atom_site_type_symbol
_atom_site_label
_atom_site_fract_x
_atom_site_fract_y
_atom_site_fract_z
Si Si1 0.296268 0.506443 0.335819
Si Si2 0.340008 0.704568 0.362623
Si Si3 0.930637 0.782086 0.372572
Si Si4 0.720346 0.397265 0.273612
Si Si5 0.915078 0.105529 0.123556
O O1 0.500000 0.500000 0.500000
O O2 0.232063 0.446784 0.268306
O O3 0.463148 0.543635 0.341473
O O4 0.000000 0.533112 0.250000
O O5 0.349394 0.749586 0.294002
O O6 0.602781 0.716224 0.545126
O O7 0.396652 0.643668 0.354592
O O8 0.000000 0.707139 0.250000
O O9 0.933357 0.844432 0.337799
O O10 0.250000 0.750000 0.500000
O O11 0.500000 0.415709 0.250000
O O12 0.053437 0.384233 0.455339
O O13 0.000000 0.121960 0.250000
#
# Coordination Sequence:
#
# PCOD8149389 Si02
#       5
#     8   8   8   8   8
#     4  12  26  49  76 106 146 193 248 311 373 436
#     4  10  23  45  74 104 148 191 243 300 367 435
#     4  10  23  45  76 108 145 196 240 302 367 434
#     4  12  28  47  73 105 153 191 245 306 368 440
#     4  12  29  46  72 113 145 196 248 304 373 436
#
# _framework density 22.947499000000001
#
# number of rings (size 3 to 8) (size 9 to 14) (size 15 to 20)
#    0.000    0.800    2.000    4.200   11.200    2.400 
#    0.000    0.000    0.000    0.000    0.000    0.000 
#    0.000    0.000    0.000    0.000    0.000    0.000 
#
# Total GULP energy -247895.601025 kJ/mol
# GULP energy per Si atom -12394.780051 kJ/mol
# Density = 2.289527 g / cm^3
# Si number density = 22.947499 Si / 1000 Ang^3
#
#
#
# Elastic Constant Matrix: (Units=GPa)
#
#
# Indices 1 2 3 4 5 6 
#
# 1 99.6316 33.5625 66.3259 -0.0004 -19.4535 0.0035
# 2 33.5625 105.8076 35.3662 -0.0222 -14.6626 -0.0090
# 3 66.3259 35.3662 139.6031 0.1246 -39.2332 0.0376
# 4 -0.0004 -0.0222 0.1246 27.7795 0.0127 -3.5959
# 5 -19.4535 -14.6626 -39.2332 0.0127 55.6397 -0.0008
# 6 0.0035 -0.0090 0.0376 -3.5959 -0.0008 39.3633
#
#
#
# Elastic Compliance Matrix: (Units=1/GPa)
#
#
# Indices 1 2 3 4 5 6 
#
# 1 0.015333 -0.002653 -0.006613 0.000029 -0.000001 0.000007
# 2 -0.002653 0.010838 -0.001176 0.000014 0.001099 0.000005
# 3 -0.006613 -0.001176 0.012304 -0.000061 0.006054 -0.000017
# 4 0.000029 0.000014 -0.000061 0.036429 -0.000038 0.003328
# 5 -0.000001 0.001099 0.006054 -0.000038 0.022531 -0.000009
# 6 0.000007 0.000005 -0.000017 0.003328 -0.000009 0.025708
#
#
# Mechanical properties :
#
#
# Convention : Reuss Voigt Hill
#
# Bulk Modulus (GPa) = 56.84874 68.39460 62.62167
# Shear Modulus (GPa) = 33.35730 38.54234 35.94982
#
# Velocity S-wave (km/s) = 3.81679 4.10272 3.96234
# Velocity P-wave (km/s) = 6.65215 7.23275 6.94851
#
# Compressibility (1/GPa) = 0.01759054
#
# Stress axis : x y z
#
# Youngs Moduli (GPa) = 65.21943 92.26583 81.27157
#
# Poissons Ratio (x) = 0.24482 0.53744
# Poissons Ratio (y) = 0.17306 0.09559
# Poissons Ratio (z) = 0.43129 0.10852
#
# Static dielectric constant tensor:
#      x y z
#    x 4.178940 0.000380 -0.509850 
#    y 0.000380 4.179380 -0.004150 
#    z -0.509850 -0.004150 4.564770 
# 
# 
# High freq. dielectric constant tensor:
#      x y z
#    x 1.914640 0.000000 -0.014420 
#    y 0.000000 1.908280 -0.000020 
#    z -0.014420 -0.000020 1.924640 
# 
# From -- ./inp_files/193438.got.cif
#   From: 2010.06.25/outbox.cif.g09.slc.cpg/sg15_97_cif.got.tgz:193438.got - 2010.06.28 07:06:18.
