data_PCOD8149776
_publ_section_title
;
Structure prediction by ZEFSAII (Michael W. Deem and Ramdas Pophale) SiO2 
 PCOD8149776
Probable space group: C 2/C
;
_chemical_formula_sum "Si O2"
_cell_formula_units_Z 44
_cell_length_a 11.753890
_cell_length_b 24.191341
_cell_length_c 8.847167
_cell_angle_alpha 90.000000
_cell_angle_beta 122.054181
_cell_angle_gamma 90.000000
_cell_volume 2132.108882
_symmetry_space_group_name_H-M "C 2/C"
_symmetry_group_IT_number 15
_symmetry_cell_setting 'monoclinic'
loop_
_space_group_symop_operation_xyz
x,y,z
-x,y,1/2-z
-x,-y,-z
x,-y,1/2+z
1/2+x,1/2+y,z
1/2-x,1/2+y,1/2-z
1/2-x,1/2-y,-z
1/2+x,1/2-y,1/2+z
loop_
_atom_site_type_symbol
_atom_site_label
_atom_site_fract_x
_atom_site_fract_y
_atom_site_fract_z
Si Si1 0.196873 0.840238 0.782464
Si Si2 0.084309 0.040666 0.663520
Si Si3 0.817304 0.458660 0.868912
Si Si4 0.500000 0.994332 0.250000
Si Si5 0.596705 0.658263 0.538330
Si Si6 0.146009 0.745525 0.291945
O O1 0.231585 0.904078 0.783314
O O2 0.313217 0.801799 0.798177
O O3 0.059954 0.829116 0.596017
O O4 0.180118 0.826857 0.947333
O O5 0.123040 0.094415 0.595118
O O6 0.000000 0.058927 0.750000
O O7 0.220040 0.011400 0.813664
O O8 0.000000 0.000000 0.500000
O O9 0.916501 0.465055 0.798228
O O10 0.902564 0.454865 0.083737
O O11 0.648159 0.695397 0.711577
O O12 0.250000 0.750000 0.500000
O O13 0.000000 0.729547 0.250000
#
# Coordination Sequence:
#
# PCOD8149776 Si02
#       6
#     8   8   8   4   8   8
#     4  11  24  44  71  95 139 172 227 283 349 414
#     4  12  23  39  72 104 133 170 224 287 349 397
#     4  11  23  42  63  95 133 179 222 275 339 406
#     4  10  24  42  58  90 140 180 224 264 336 426
#     4  11  24  45  69 103 134 177 227 286 348 414
#     4  12  26  48  71 100 134 180 233 286 343 407
#
# _framework density 20.636845000000001
#
# number of rings (size 3 to 8) (size 9 to 14) (size 15 to 20)
#    0.000    0.727    3.636    4.364    1.273    0.000 
#    6.545    0.000    0.000    0.000    0.000    0.000 
#    0.000    0.000    0.000    0.000    0.000    0.000 
#
# Total GULP energy -272982.249126 kJ/mol
# GULP energy per Si atom -12408.284051 kJ/mol
# Density = 2.058987 g / cm^3
# Si number density = 20.636845 Si / 1000 Ang^3
#
#
#
# Elastic Constant Matrix: (Units=GPa)
#
#
# Indices 1 2 3 4 5 6 
#
# 1 136.7174 53.0583 61.3109 0.0000 -0.1976 0.0000
# 2 53.0583 123.1568 50.5505 0.0000 -5.2476 0.0000
# 3 61.3109 50.5505 141.2875 0.0000 -6.6559 0.0000
# 4 0.0000 0.0000 0.0000 35.6007 0.0000 -0.9122
# 5 -0.1976 -5.2476 -6.6559 0.0000 27.8484 0.0000
# 6 0.0000 0.0000 0.0000 -0.9122 0.0000 35.4745
#
#
#
# Elastic Compliance Matrix: (Units=1/GPa)
#
#
# Indices 1 2 3 4 5 6 
#
# 1 0.009956 -0.002984 -0.003313 0.000000 -0.001284 0.000000
# 2 -0.002984 0.010439 -0.002375 0.000000 0.001378 0.000000
# 3 -0.003313 -0.002375 0.009450 0.000000 0.001787 0.000000
# 4 0.000000 0.000000 0.000000 0.028108 0.000000 0.000723
# 5 -0.001284 0.001378 0.001787 0.000000 0.036587 0.000000
# 6 0.000000 0.000000 0.000000 0.000723 0.000000 0.028208
#
#
# Mechanical properties :
#
#
# Convention : Reuss Voigt Hill
#
# Bulk Modulus (GPa) = 80.00046 81.22234 80.61140
# Shear Modulus (GPa) = 34.65994 35.53419 35.09706
#
# Velocity S-wave (km/s) = 4.10264 4.15406 4.12843
# Velocity P-wave (km/s) = 7.82893 7.90263 7.86587
#
# Compressibility (1/GPa) = 0.01249993
#
# Stress axis : x y z
#
# Youngs Moduli (GPa) = 100.43703 95.79531 105.82554
#
# Poissons Ratio (x) = 0.28587 0.35064
# Poissons Ratio (y) = 0.29972 0.25134
# Poissons Ratio (z) = 0.33278 0.22751
#
# Static dielectric constant tensor:
#      x y z
#    x 3.961520 0.000000 -0.099600 
#    y 0.000000 3.564960 0.000000 
#    z -0.099600 0.000000 3.977040 
# 
# 
# High freq. dielectric constant tensor:
#      x y z
#    x 1.825080 0.000000 -0.008820 
#    y 0.000000 1.798430 0.000000 
#    z -0.008820 0.000000 1.820290 
# 
# From -- ./inp_files/32461.got.cif
#   From: 2010.06.25/outbox.cif.g09.slc.cpg/sg15_17_cif.got.tgz:32461.got - 2010.06.28 07:06:18.
