data_PCOD8149412
_publ_section_title
;
Structure prediction by ZEFSAII (Michael W. Deem and Ramdas Pophale) SiO2 
 PCOD8149412
Probable space group: C 2/C
;
_chemical_formula_sum "Si O2"
_cell_formula_units_Z 48
_cell_length_a 8.469773
_cell_length_b 11.480351
_cell_length_c 20.584324
_cell_angle_alpha 90.000000
_cell_angle_beta 86.493102
_cell_angle_gamma 90.000000
_cell_volume 1997.788653
_symmetry_space_group_name_H-M "C 2/C"
_symmetry_group_IT_number 15
_symmetry_cell_setting 'monoclinic'
loop_
_space_group_symop_operation_xyz
x,y,z
-x,y,1/2-z
-x,-y,-z
x,-y,1/2+z
1/2+x,1/2+y,z
1/2-x,1/2+y,1/2-z
1/2-x,1/2-y,-z
1/2+x,1/2-y,1/2+z
loop_
_atom_site_type_symbol
_atom_site_label
_atom_site_fract_x
_atom_site_fract_y
_atom_site_fract_z
Si Si1 0.059314 0.840135 0.442930
Si Si2 0.676310 0.665089 0.720290
Si Si3 0.996999 0.908947 0.583617
Si Si4 0.216820 0.236005 0.159801
Si Si5 0.084643 0.521568 0.314200
Si Si6 0.352864 0.848438 0.890431
O O1 0.093964 0.871270 0.516898
O O2 0.224057 0.805635 0.404991
O O3 0.937638 0.733063 0.441194
O O4 0.984193 0.951996 0.406789
O O5 0.500000 0.625911 0.750000
O O6 0.800248 0.678702 0.778125
O O7 0.768346 0.565659 0.675728
O O8 0.665413 0.780959 0.677704
O O9 0.059910 0.836457 0.644322
O O10 0.814323 0.882307 0.575593
O O11 0.351910 0.152899 0.185006
O O12 0.000000 0.492071 0.250000
O O13 0.950061 0.529828 0.374641
#
# Coordination Sequence:
#
# PCOD8149412 Si02
#       6
#     8   8   8   8   8   8
#     4  10  23  46  65  96 134 172 231 275 318 393
#     4  12  24  44  66  97 135 173 219 274 339 400
#     4  11  25  41  71  96 129 181 221 272 336 387
#     4  11  23  43  66  98 135 172 218 276 328 398
#     4  11  24  41  64  95 134 168 212 268 330 402
#     4  11  23  45  65  99 134 170 217 278 326 399
#
# _framework density 24.026567
#
# number of rings (size 3 to 8) (size 9 to 14) (size 15 to 20)
#    0.000    1.000    5.000    2.000    4.667    0.000 
#    0.000    0.000    0.000   11.000    0.000    0.000 
#    0.000    0.000    0.000    0.000    0.000    0.000 
#
# Total GULP energy -297407.738060 kJ/mol
# GULP energy per Si atom -12391.989086 kJ/mol
# Density = 2.397188 g / cm^3
# Si number density = 24.026567 Si / 1000 Ang^3
#
#
#
# Elastic Constant Matrix: (Units=GPa)
#
#
# Indices 1 2 3 4 5 6 
#
# 1 75.9182 39.6501 10.0271 0.0000 0.2693 0.0000
# 2 39.6501 79.9343 26.5713 0.0000 -7.9926 0.0000
# 3 10.0271 26.5713 34.0420 0.0000 -4.7080 0.0000
# 4 0.0000 0.0000 0.0000 23.1385 0.0000 -12.1438
# 5 0.2693 -7.9926 -4.7080 0.0000 32.2018 0.0000
# 6 0.0000 0.0000 0.0000 -12.1438 0.0000 33.8016
#
#
#
# Elastic Compliance Matrix: (Units=1/GPa)
#
#
# Indices 1 2 3 4 5 6 
#
# 1 0.018067 -0.009881 0.002073 0.000000 -0.002301 0.000000
# 2 -0.009881 0.022468 -0.014130 0.000000 0.003593 0.000000
# 3 0.002073 -0.014130 0.040118 0.000000 0.002341 0.000000
# 4 0.000000 0.000000 0.000000 0.053260 0.000000 0.019135
# 5 -0.002301 0.003593 0.002341 0.000000 0.032308 0.000000
# 6 0.000000 0.000000 0.000000 0.019135 0.000000 0.036459
#
#
# Mechanical properties :
#
#
# Convention : Reuss Voigt Hill
#
# Bulk Modulus (GPa) = 27.19131 38.04353 32.61742
# Shear Modulus (GPa) = 19.31892 25.40478 22.36185
#
# Velocity S-wave (km/s) = 2.83868 3.25524 3.05407
# Velocity P-wave (km/s) = 4.69956 5.47696 5.10309
#
# Compressibility (1/GPa) = 0.03677646
#
# Stress axis : x y z
#
# Youngs Moduli (GPa) = 55.34957 44.50836 24.92675
#
# Poissons Ratio (x) = 0.43978 -0.05166
# Poissons Ratio (y) = 0.54690 0.35221
# Poissons Ratio (z) = -0.11472 0.62889
#
# Static dielectric constant tensor:
#      x y z
#    x 4.195170 0.000000 -0.189220 
#    y 0.000000 4.309450 0.000000 
#    z -0.189220 0.000000 4.046960 
# 
# 
# High freq. dielectric constant tensor:
#      x y z
#    x 1.951310 0.000000 -0.004340 
#    y 0.000000 1.955580 0.000000 
#    z -0.004340 0.000000 1.935350 
# 
# From -- ./inp_files/263096.got.cif
#   From: 2010.06.25/outbox.cif.g09.slc.cpg/sg15_132_cif.got.tgz:263096.got - 2010.06.28 07:06:18.
