data_PCOD8149736
_publ_section_title
;
Structure prediction by ZEFSAII (Michael W. Deem and Ramdas Pophale) SiO2 
 PCOD8149736
Probable space group: C 2/C
;
_chemical_formula_sum "Si O2"
_cell_formula_units_Z 40
_cell_length_a 18.104761
_cell_length_b 23.189674
_cell_length_c 9.124636
_cell_angle_alpha 90.000000
_cell_angle_beta 150.199014
_cell_angle_gamma 90.000000
_cell_volume 1903.924279
_symmetry_space_group_name_H-M "C 2/C"
_symmetry_group_IT_number 15
_symmetry_cell_setting 'monoclinic'
loop_
_space_group_symop_operation_xyz
x,y,z
-x,y,1/2-z
-x,-y,-z
x,-y,1/2+z
1/2+x,1/2+y,z
1/2-x,1/2+y,1/2-z
1/2-x,1/2-y,-z
1/2+x,1/2-y,1/2+z
loop_
_atom_site_type_symbol
_atom_site_label
_atom_site_fract_x
_atom_site_fract_y
_atom_site_fract_z
Si Si1 0.162615 0.132874 0.544018
Si Si2 0.647852 0.792275 0.921849
Si Si3 0.160604 0.970848 0.258983
Si Si4 0.674724 0.915710 0.440791
Si Si5 0.361011 0.896997 0.805338
O O1 0.159096 0.071832 0.620085
O O2 0.215915 0.119843 0.472892
O O3 0.257328 0.182109 0.782828
O O4 0.000000 0.159618 0.250000
O O5 0.500000 0.765587 0.750000
O O6 0.601889 0.843055 0.733650
O O7 0.750000 0.750000 0.000000
O O8 0.224160 0.935859 0.509460
O O9 0.272912 0.021713 0.416920
O O10 0.000000 0.000000 0.000000
O O11 0.673250 0.877232 0.586913
O O12 0.519520 0.929094 0.091207
#
# Coordination Sequence:
#
# PCOD8149736 Si02
#       5
#     8   8   8   8   8
#     4  11  23  42  66  99 137 176 220 279 328 404
#     4  11  25  50  73  96 128 174 229 289 355 405
#     4  11  22  37  62  97 145 179 219 259 329 396
#     4  11  21  39  64  95 137 175 221 260 327 393
#     4  10  24  41  64  95 134 176 220 273 326 405
#
# _framework density 21.009238
#
# number of rings (size 3 to 8) (size 9 to 14) (size 15 to 20)
#    0.000    1.200    4.000    1.800    0.000    3.200 
#    3.600    2.000    0.000    0.000    0.000    0.000 
#    0.000    0.000    0.000    0.000    0.000    0.000 
#
# Total GULP energy -247814.681055 kJ/mol
# GULP energy per Si atom -12390.734053 kJ/mol
# Density = 2.096142 g / cm^3
# Si number density = 21.009238 Si / 1000 Ang^3
#
#
#
# Elastic Constant Matrix: (Units=GPa)
#
#
# Indices 1 2 3 4 5 6 
#
# 1 145.3585 27.7018 52.5201 0.0000 13.2623 0.0000
# 2 27.7018 52.7450 23.5847 0.0000 11.5666 0.0000
# 3 52.5201 23.5847 131.4186 0.0000 16.2744 0.0000
# 4 0.0000 0.0000 0.0000 18.4251 0.0000 12.7397
# 5 13.2623 11.5666 16.2744 0.0000 40.5635 0.0000
# 6 0.0000 0.0000 0.0000 12.7397 0.0000 20.2439
#
#
#
# Elastic Compliance Matrix: (Units=1/GPa)
#
#
# Indices 1 2 3 4 5 6 
#
# 1 0.008536 -0.003072 -0.002760 0.000000 -0.000808 0.000000
# 2 -0.003072 0.022577 -0.002264 0.000000 -0.004525 0.000000
# 3 -0.002760 -0.002264 0.009394 0.000000 -0.002221 0.000000
# 4 0.000000 0.000000 0.000000 0.096081 0.000000 -0.060464
# 5 -0.000808 -0.004525 -0.002221 0.000000 0.027098 0.000000
# 6 0.000000 0.000000 0.000000 -0.060464 0.000000 0.087448
#
#
# Mechanical properties :
#
#
# Convention : Reuss Voigt Hill
#
# Bulk Modulus (GPa) = 41.12625 59.68171 50.40398
# Shear Modulus (GPa) = 18.15346 30.89421 24.52383
#
# Velocity S-wave (km/s) = 2.94270 3.83888 3.42027
# Velocity P-wave (km/s) = 5.58245 6.93674 6.29611
#
# Compressibility (1/GPa) = 0.02431537
#
# Stress axis : x y z
#
# Youngs Moduli (GPa) = 117.15276 44.29278 106.45596
#
# Poissons Ratio (x) = 0.13606 0.29382
# Poissons Ratio (y) = 0.35988 0.24098
# Poissons Ratio (z) = 0.32334 0.10027
#
# Static dielectric constant tensor:
#      x y z
#    x 4.117000 0.000000 0.018180 
#    y 0.000000 3.580580 0.000000 
#    z 0.018180 0.000000 4.163830 
# 
# 
# High freq. dielectric constant tensor:
#      x y z
#    x 1.836890 0.000000 -0.003600 
#    y 0.000000 1.787550 0.000000 
#    z -0.003600 0.000000 1.848630 
# 
# From -- ./inp_files/23474.got.cif
#   From: 2010.06.25/outbox.cif.g09.slc.cpg/sg15_12_cif.got.tgz:23474.got - 2010.06.28 07:06:18.
