data_PCOD8149546
_publ_section_title
;
Structure prediction by ZEFSAII (Michael W. Deem and Ramdas Pophale) SiO2 
 PCOD8149546
Probable space group: C 2/C
;
_chemical_formula_sum "Si O2"
_cell_formula_units_Z 44
_cell_length_a 15.293867
_cell_length_b 18.671447
_cell_length_c 14.089713
_cell_angle_alpha 90.000000
_cell_angle_beta 144.226416
_cell_angle_gamma 90.000000
_cell_volume 2352.036815
_symmetry_space_group_name_H-M "C 2/C"
_symmetry_group_IT_number 15
_symmetry_cell_setting 'monoclinic'
loop_
_space_group_symop_operation_xyz
x,y,z
-x,y,1/2-z
-x,-y,-z
x,-y,1/2+z
1/2+x,1/2+y,z
1/2-x,1/2+y,1/2-z
1/2-x,1/2-y,-z
1/2+x,1/2-y,1/2+z
loop_
_atom_site_type_symbol
_atom_site_label
_atom_site_fract_x
_atom_site_fract_y
_atom_site_fract_z
Si Si1 0.678291 0.979136 0.508825
Si Si2 0.175702 0.468473 0.296616
Si Si3 0.658821 0.881576 0.104916
Si Si4 0.694409 0.894639 0.699369
Si Si5 0.711298 0.278049 0.592194
Si Si6 0.500000 0.251123 0.250000
O O1 0.745339 0.961730 0.463671
O O2 0.501281 0.972898 0.352851
O O3 0.742723 0.918316 0.636171
O O4 0.717173 0.058960 0.580855
O O5 0.217687 0.402954 0.262680
O O6 0.238113 0.541766 0.308785
O O7 0.722984 0.805094 0.131315
O O8 0.480216 0.876282 0.948770
O O9 0.793949 0.826311 0.818005
O O10 0.569544 0.296403 0.399435
O O11 0.863929 0.298064 0.669070
#
# Coordination Sequence:
#
# PCOD8149546 Si02
#       6
#     8   8   8   8   8   4
#     4   8  15  27  47  72  98 125 163 203 241 275
#     4   8  15  27  47  72  98 125 163 203 241 275
#     4   9  17  29  47  74 100 124 157 206 242 283
#     4   9  17  29  47  74 100 124 157 206 242 283
#     4  11  20  34  47  76 100 126 163 196 245 294
#     4  10  24  30  48  74 102 134 152 192 252 296
#
# _framework density 18.707190000000001
#
# number of rings (size 3 to 8) (size 9 to 14) (size 15 to 20)
#    0.000    2.909    1.818    2.182    5.091    0.000 
#    0.000    0.909    0.000    4.364    0.000    0.000 
#    0.000    0.000    0.000    0.000    0.000    0.000 
#
# Total GULP energy -272545.501980 kJ/mol
# GULP energy per Si atom -12388.431908 kJ/mol
# Density = 1.866461 g / cm^3
# Si number density = 18.707190 Si / 1000 Ang^3
#
#
#
# Elastic Constant Matrix: (Units=GPa)
#
#
# Indices 1 2 3 4 5 6 
#
# 1 69.3951 33.8355 47.2963 0.0000 -39.3712 0.0000
# 2 33.8355 113.3433 55.5819 0.0000 -31.3520 0.0000
# 3 47.2963 55.5819 103.9685 0.0000 -39.5405 0.0000
# 4 0.0000 0.0000 0.0000 29.0395 0.0000 -6.4028
# 5 -39.3712 -31.3520 -39.5405 0.0000 45.6487 0.0000
# 6 0.0000 0.0000 0.0000 -6.4028 0.0000 12.1013
#
#
#
# Elastic Compliance Matrix: (Units=1/GPa)
#
#
# Indices 1 2 3 4 5 6 
#
# 1 0.030380 -0.000536 -0.005530 0.000000 0.021043 0.000000
# 2 -0.000536 0.012475 -0.004985 0.000000 0.003788 0.000000
# 3 -0.005530 -0.004985 0.017422 0.000000 0.006898 0.000000
# 4 0.000000 0.000000 0.000000 0.038984 0.000000 0.020626
# 5 0.021043 0.003788 0.006898 0.000000 0.048632 0.000000
# 6 0.000000 0.000000 0.000000 0.020626 0.000000 0.093549
#
#
# Mechanical properties :
#
#
# Convention : Reuss Voigt Hill
#
# Bulk Modulus (GPa) = 26.19553 62.23713 44.21633
# Shear Modulus (GPa) = 18.09832 27.35747 22.72790
#
# Velocity S-wave (km/s) = 3.11376 3.82829 3.48936
# Velocity P-wave (km/s) = 5.19237 7.27203 6.31835
#
# Compressibility (1/GPa) = 0.03817445
#
# Stress axis : x y z
#
# Youngs Moduli (GPa) = 32.91661 80.16043 57.39821
#
# Poissons Ratio (x) = 0.04298 0.31743
# Poissons Ratio (y) = 0.01765 0.28611
# Poissons Ratio (z) = 0.18204 0.39958
#
# Static dielectric constant tensor:
#      x y z
#    x 3.553140 0.000000 -0.633080 
#    y 0.000000 3.240360 0.000000 
#    z -0.633080 0.000000 3.580630 
# 
# 
# High freq. dielectric constant tensor:
#      x y z
#    x 1.700640 0.000000 -0.035040 
#    y 0.000000 1.703110 0.000000 
#    z -0.035040 0.000000 1.712280 
# 
# From -- ./inp_files/39362.got.cif
#   From: 2010.06.25/outbox.cif.g09.slc.cpg/sg15_20_cif.got.tgz:39362.got - 2010.06.28 07:06:18.
