data_PCOD8149083
_publ_section_title
;
Structure prediction by ZEFSAII (Michael W. Deem and Ramdas Pophale) SiO2 
 PCOD8149083
Probable space group: C 2/C
;
_chemical_formula_sum "Si O2"
_cell_formula_units_Z 56
_cell_length_a 19.950280
_cell_length_b 13.859107
_cell_length_c 17.718565
_cell_angle_alpha 90.000000
_cell_angle_beta 152.447539
_cell_angle_gamma 90.000000
_cell_volume 2266.112205
_symmetry_space_group_name_H-M "C 2/C"
_symmetry_group_IT_number 15
_symmetry_cell_setting 'monoclinic'
loop_
_space_group_symop_operation_xyz
x,y,z
-x,y,1/2-z
-x,-y,-z
x,-y,1/2+z
1/2+x,1/2+y,z
1/2-x,1/2+y,1/2-z
1/2-x,1/2-y,-z
1/2+x,1/2-y,1/2+z
loop_
_atom_site_type_symbol
_atom_site_label
_atom_site_fract_x
_atom_site_fract_y
_atom_site_fract_z
Si Si1 0.328087 0.997752 0.306158
Si Si2 0.496134 0.921123 0.639647
Si Si3 0.344183 0.777304 0.328714
Si Si4 0.588252 0.270422 0.177081
Si Si5 0.432369 0.461299 0.060391
Si Si6 0.718212 0.995368 0.970669
Si Si7 0.191170 0.903015 0.804245
O O1 0.322078 0.885747 0.277997
O O2 0.482125 0.046621 0.427926
O O3 0.298368 0.027257 0.362851
O O4 0.196099 0.049210 0.128787
O O5 0.559564 0.813231 0.710454
O O6 0.593328 0.000403 0.782235
O O7 0.336348 0.920460 0.517674
O O8 0.506037 0.752234 0.516054
O O9 0.255381 0.767857 0.318899
O O10 0.299347 0.706092 0.216129
O O11 0.542285 0.372255 0.165574
O O12 0.526316 0.557249 0.137179
O O13 0.367204 0.462839 0.080225
O O14 0.748680 0.093726 0.048936
#
# Coordination Sequence:
#
# PCOD8149083 Si02
#       7
#     8   8   8   8   8   8   8
#     4  11  22  43  70 100 139 183 235 307 356 425
#     4  10  23  44  65  98 141 183 233 294 357 426
#     4  12  25  38  72 111 134 184 242 303 368 415
#     4  12  23  43  70 108 140 183 243 298 365 434
#     4  11  23  45  67  96 144 187 235 287 364 440
#     4  10  24  44  64  93 144 189 227 281 362 431
#     4  12  22  42  67 101 138 180 242 301 354 428
#
# _framework density 24.711928
#
# number of rings (size 3 to 8) (size 9 to 14) (size 15 to 20)
#    0.000    0.857    4.286    3.429    2.000    1.714 
#    5.143    2.857    6.286    0.000    0.000    0.000 
#    0.000    0.000    0.000    0.000    0.000    0.000 
#
# Total GULP energy -347028.641780 kJ/mol
# GULP energy per Si atom -12393.880064 kJ/mol
# Density = 2.465568 g / cm^3
# Si number density = 24.711928 Si / 1000 Ang^3
#
#
#
# Elastic Constant Matrix: (Units=GPa)
#
#
# Indices 1 2 3 4 5 6 
#
# 1 158.3944 36.7259 16.3630 -0.0017 10.2777 -0.0006
# 2 36.7259 126.8727 -3.7436 -0.0018 -2.8761 -0.0011
# 3 16.3630 -3.7436 51.2431 -0.0030 -2.7088 -0.0017
# 4 -0.0017 -0.0018 -0.0030 26.2236 -0.0022 -2.6202
# 5 10.2777 -2.8761 -2.7088 -0.0022 50.7507 -0.0013
# 6 -0.0006 -0.0011 -0.0017 -2.6202 -0.0013 36.3711
#
#
#
# Elastic Compliance Matrix: (Units=1/GPa)
#
#
# Indices 1 2 3 4 5 6 
#
# 1 0.007198 -0.002198 -0.002550 0.000000 -0.001718 0.000000
# 2 -0.002198 0.008582 0.001382 0.000001 0.001005 0.000000
# 3 -0.002550 0.001382 0.020519 0.000003 0.001690 0.000001
# 4 0.000000 0.000001 0.000003 0.038410 0.000002 0.002767
# 5 -0.001718 0.001005 0.001690 0.000002 0.020199 0.000001
# 6 0.000000 0.000000 0.000001 0.002767 0.000001 0.027694
#
#
# Mechanical properties :
#
#
# Convention : Reuss Voigt Hill
#
# Bulk Modulus (GPa) = 33.82103 48.35565 41.08834
# Shear Modulus (GPa) = 35.92238 41.81342 38.86790
#
# Velocity S-wave (km/s) = 3.81681 4.11790 3.97021
# Velocity P-wave (km/s) = 5.75672 6.49766 6.13838
#
# Compressibility (1/GPa) = 0.02956740
#
# Stress axis : x y z
#
# Youngs Moduli (GPa) = 138.93069 116.52759 48.73460
#
# Poissons Ratio (x) = 0.25610 0.12426
# Poissons Ratio (y) = 0.30533 -0.06734
# Poissons Ratio (z) = 0.35425 -0.16102
#
# Static dielectric constant tensor:
#      x y z
#    x 4.921290 0.000000 0.186370 
#    y 0.000000 4.153710 0.000000 
#    z 0.186370 0.000000 4.456410 
# 
# 
# High freq. dielectric constant tensor:
#      x y z
#    x 2.001410 0.000000 0.016700 
#    y 0.000000 1.956350 0.000000 
#    z 0.016700 0.000000 1.998280 
# 
# From -- ./inp_files/215770.got.cif
#   From: 2010.06.25/outbox.cif.g09.slc.cpg/sg15_108_cif.got.tgz:215770.got - 2010.06.28 07:06:18.
