data_PCOD8149118
_publ_section_title
;
Structure prediction by ZEFSAII (Michael W. Deem and Ramdas Pophale) SiO2 
 PCOD8149118
Probable space group: C 2/C
;
_chemical_formula_sum "Si O2"
_cell_formula_units_Z 52
_cell_length_a 20.284648
_cell_length_b 22.548231
_cell_length_c 5.271981
_cell_angle_alpha 90.000000
_cell_angle_beta 92.432836
_cell_angle_gamma 90.000000
_cell_volume 2409.140714
_symmetry_space_group_name_H-M "C 2/C"
_symmetry_group_IT_number 15
_symmetry_cell_setting 'monoclinic'
loop_
_space_group_symop_operation_xyz
x,y,z
-x,y,1/2-z
-x,-y,-z
x,-y,1/2+z
1/2+x,1/2+y,z
1/2-x,1/2+y,1/2-z
1/2-x,1/2-y,-z
1/2+x,1/2-y,1/2+z
loop_
_atom_site_type_symbol
_atom_site_label
_atom_site_fract_x
_atom_site_fract_y
_atom_site_fract_z
Si Si1 0.416376 0.461315 0.497699
Si Si2 0.000000 0.863422 0.750000
Si Si3 0.733194 0.535704 0.495554
Si Si4 0.976175 0.639248 0.500816
Si Si5 0.188053 0.712845 0.412398
Si Si6 0.675300 0.144948 0.927234
Si Si7 0.049889 0.235674 0.956006
O O1 0.430522 0.492833 0.230937
O O2 0.464315 0.404804 0.534782
O O3 0.340825 0.438407 0.490488
O O4 0.056467 0.817175 0.662339
O O5 0.743231 0.484630 0.707302
O O6 0.788895 0.582619 0.571152
O O7 0.898367 0.642795 0.477295
O O8 0.000000 0.606334 0.250000
O O9 0.013912 0.702917 0.530904
O O10 0.000000 0.601793 0.750000
O O11 0.250000 0.750000 0.500000
O O12 0.210400 0.684828 0.147508
O O13 0.122736 0.752382 0.360355
O O14 0.174392 0.667560 0.639660
O O15 0.000000 0.205442 0.750000
#
# Coordination Sequence:
#
# PCOD8149118 Si02
#       7
#     8   4   8   8   8   8   8
#     4  10  24  44  62  86 122 164 213 267 321 372
#     4  12  24  36  66  90 122 168 218 262 308 372
#     4  10  23  44  67  93 124 162 218 272 322 381
#     4  11  19  39  62  88 124 168 202 235 308 389
#     4  12  26  40  62  98 137 165 217 262 310 398
#     4  12  22  42  69  92 123 178 205 259 331 377
#     4  11  23  40  59  93 134 168 206 256 310 376
#
# _framework density 21.584458000000001
#
# number of rings (size 3 to 8) (size 9 to 14) (size 15 to 20)
#    0.000    0.923    5.385    1.846    4.308    1.231 
#    0.000    0.000    0.000    2.769    0.000    0.000 
#    0.000    0.000    0.000    0.000    0.000    0.000 
#
# Total GULP energy -322108.200551 kJ/mol
# GULP energy per Si atom -12388.776944 kJ/mol
# Density = 2.153533 g / cm^3
# Si number density = 21.584458 Si / 1000 Ang^3
#
#
#
# Elastic Constant Matrix: (Units=GPa)
#
#
# Indices 1 2 3 4 5 6 
#
# 1 110.3998 26.0102 -16.3625 0.0000 15.6559 0.0000
# 2 26.0102 42.8040 -8.0946 0.0000 7.5216 0.0000
# 3 -16.3625 -8.0946 96.8065 0.0000 19.6602 0.0000
# 4 0.0000 0.0000 0.0000 19.9127 0.0000 10.7660
# 5 15.6559 7.5216 19.6602 0.0000 28.0145 0.0000
# 6 0.0000 0.0000 0.0000 10.7660 0.0000 18.2220
#
#
#
# Elastic Compliance Matrix: (Units=1/GPa)
#
#
# Indices 1 2 3 4 5 6 
#
# 1 0.011792 -0.005312 0.003030 0.000000 -0.007290 0.000000
# 2 -0.005312 0.028279 0.002806 0.000000 -0.006593 0.000000
# 3 0.003030 0.002806 0.013497 0.000000 -0.011918 0.000000
# 4 0.000000 0.000000 0.000000 0.073791 0.000000 -0.043597
# 5 -0.007290 -0.006593 -0.011918 0.000000 0.049904 0.000000
# 6 0.000000 0.000000 0.000000 -0.043597 0.000000 0.080637
#
#
# Mechanical properties :
#
#
# Convention : Reuss Voigt Hill
#
# Bulk Modulus (GPa) = 18.30972 28.12405 23.21689
# Shear Modulus (GPa) = 18.17796 29.79367 23.98581
#
# Velocity S-wave (km/s) = 2.90518 3.71931 3.33716
# Velocity P-wave (km/s) = 4.44462 5.61270 5.06246
#
# Compressibility (1/GPa) = 0.05461580
#
# Stress axis : x y z
#
# Youngs Moduli (GPa) = 84.80149 35.36169 74.09026
#
# Poissons Ratio (x) = 0.18783 -0.22446
# Poissons Ratio (y) = 0.45044 -0.20789
# Poissons Ratio (z) = -0.25691 -0.09922
#
# Static dielectric constant tensor:
#      x y z
#    x 4.058960 0.000000 0.138900 
#    y 0.000000 3.468280 0.000000 
#    z 0.138900 0.000000 5.810200 
# 
# 
# High freq. dielectric constant tensor:
#      x y z
#    x 1.858210 0.000000 0.006120 
#    y 0.000000 1.804340 0.000000 
#    z 0.006120 0.000000 1.876570 
# 
# From -- ./inp_files/13368.got.cif
#   From: 2010.06.25/outbox.cif.g09.slc.cpg/sg15_7_cif.got.tgz:13368.got - 2010.06.28 07:06:18.
