data_PCOD8149004
_publ_section_title
;
Structure prediction by ZEFSAII (Michael W. Deem and Ramdas Pophale) SiO2 
 PCOD8149004
Probable space group: C 2/C
;
_chemical_formula_sum "Si O2"
_cell_formula_units_Z 48
_cell_length_a 22.099647
_cell_length_b 6.933895
_cell_length_c 17.663255
_cell_angle_alpha 90.000000
_cell_angle_beta 127.786134
_cell_angle_gamma 90.000000
_cell_volume 2139.080562
_symmetry_space_group_name_H-M "C 2/C"
_symmetry_group_IT_number 15
_symmetry_cell_setting 'monoclinic'
loop_
_space_group_symop_operation_xyz
x,y,z
-x,y,1/2-z
-x,-y,-z
x,-y,1/2+z
1/2+x,1/2+y,z
1/2-x,1/2+y,1/2-z
1/2-x,1/2-y,-z
1/2+x,1/2-y,1/2+z
loop_
_atom_site_type_symbol
_atom_site_label
_atom_site_fract_x
_atom_site_fract_y
_atom_site_fract_z
Si Si1 0.242872 0.858055 0.144740
Si Si2 0.665892 0.538228 0.341422
Si Si3 0.329566 0.206847 0.263743
Si Si4 0.603477 0.548455 0.958505
Si Si5 0.004152 0.608796 0.083062
Si Si6 0.020632 0.772983 0.679792
O O1 0.267696 0.702155 0.098836
O O2 0.220799 0.733625 0.200540
O O3 0.314676 0.993584 0.219912
O O4 0.172993 0.993474 0.066064
O O5 0.698048 0.354483 0.321872
O O6 0.633485 0.458045 0.395336
O O7 0.605428 0.640331 0.237767
O O8 0.419073 0.235890 0.352551
O O9 0.570340 0.758429 0.957146
O O10 0.536234 0.392847 0.918167
O O11 0.010606 0.450498 0.153594
O O12 0.000000 0.500000 0.000000
O O13 0.000000 0.807349 0.750000
#
# Coordination Sequence:
#
# PCOD8149004 Si02
#       6
#     8   8   8   8   8   8
#     4  12  26  45  68 103 143 185 236 297 365 429
#     4  11  24  47  72 100 139 190 236 296 357 420
#     4  12  26  42  71  98 144 188 236 289 363 429
#     4  11  27  44  73 104 142 182 241 299 351 423
#     4  12  27  42  71 107 141 186 240 292 352 425
#     4  10  23  43  70  99 137 182 234 288 351 416
#
# _framework density 22.439547999999998
#
# number of rings (size 3 to 8) (size 9 to 14) (size 15 to 20)
#    0.000    0.667    5.000    1.500    7.000    3.333 
#    0.000    0.000    0.000    0.000    0.000    0.000 
#    0.000    0.000    0.000    0.000    0.000    0.000 
#
# Total GULP energy -297583.165239 kJ/mol
# GULP energy per Si atom -12399.298552 kJ/mol
# Density = 2.238847 g / cm^3
# Si number density = 22.439548 Si / 1000 Ang^3
#
#
#
# Elastic Constant Matrix: (Units=GPa)
#
#
# Indices 1 2 3 4 5 6 
#
# 1 93.1139 59.1934 15.4142 0.0000 -5.5207 0.0000
# 2 59.1934 132.7828 27.4391 -0.0001 -9.5255 -0.0002
# 3 15.4142 27.4391 69.1290 0.0000 -1.1937 0.0000
# 4 0.0000 -0.0001 0.0000 32.1651 -0.0001 5.4314
# 5 -5.5207 -9.5255 -1.1937 -0.0001 26.4735 0.0000
# 6 0.0000 -0.0002 0.0000 5.4314 0.0000 54.9976
#
#
#
# Elastic Compliance Matrix: (Units=1/GPa)
#
#
# Indices 1 2 3 4 5 6 
#
# 1 0.015038 -0.006491 -0.000763 0.000000 0.000766 0.000000
# 2 -0.006491 0.011220 -0.002962 0.000000 0.002550 0.000000
# 3 -0.000763 -0.002962 0.015803 0.000000 -0.000512 0.000000
# 4 0.000000 0.000000 0.000000 0.031617 0.000000 -0.003122
# 5 0.000766 0.002550 -0.000512 0.000000 0.038828 0.000000
# 6 0.000000 0.000000 0.000000 -0.003122 0.000000 0.018491
#
#
# Mechanical properties :
#
#
# Convention : Reuss Voigt Hill
#
# Bulk Modulus (GPa) = 46.23762 55.45767 50.84765
# Shear Modulus (GPa) = 31.51837 35.59252 33.55545
#
# Velocity S-wave (km/s) = 3.75185 3.98697 3.87120
# Velocity P-wave (km/s) = 6.27843 6.77956 6.53380
#
# Compressibility (1/GPa) = 0.02162741
#
# Stress axis : x y z
#
# Youngs Moduli (GPa) = 66.49956 89.12877 63.27995
#
# Poissons Ratio (x) = 0.57853 0.04831
# Poissons Ratio (y) = 0.43165 0.18744
# Poissons Ratio (z) = 0.05077 0.26400
#
# Static dielectric constant tensor:
#      x y z
#    x 4.007040 0.000000 0.179650 
#    y 0.000000 4.029700 0.000000 
#    z 0.179650 0.000000 3.982590 
# 
# 
# High freq. dielectric constant tensor:
#      x y z
#    x 1.888060 0.000000 0.006750 
#    y 0.000000 1.896290 0.000000 
#    z 0.006750 0.000000 1.877600 
# 
# From -- ./inp_files/254238.got.cif
#   From: 2010.06.25/outbox.cif.g09.slc.cpg/sg15_128_cif.got.tgz:254238.got - 2010.06.28 07:06:18.
