data_PCOD8149628
_publ_section_title
;
Structure prediction by ZEFSAII (Michael W. Deem and Ramdas Pophale) SiO2 
 PCOD8149628
Probable space group: C 2/C
;
_chemical_formula_sum "Si O2"
_cell_formula_units_Z 36
_cell_length_a 7.672446
_cell_length_b 11.477388
_cell_length_c 22.804059
_cell_angle_alpha 90.000000
_cell_angle_beta 117.610460
_cell_angle_gamma 90.000000
_cell_volume 1779.430790
_symmetry_space_group_name_H-M "C 2/C"
_symmetry_group_IT_number 15
_symmetry_cell_setting 'monoclinic'
loop_
_space_group_symop_operation_xyz
x,y,z
-x,y,1/2-z
-x,-y,-z
x,-y,1/2+z
1/2+x,1/2+y,z
1/2-x,1/2+y,1/2-z
1/2-x,1/2-y,-z
1/2+x,1/2-y,1/2+z
loop_
_atom_site_type_symbol
_atom_site_label
_atom_site_fract_x
_atom_site_fract_y
_atom_site_fract_z
Si Si1 0.776397 0.282893 0.355058
Si Si2 0.778066 0.092383 0.540990
Si Si3 0.408198 0.606049 0.133973
Si Si4 0.017106 0.315610 0.906074
Si Si5 0.000000 0.056463 0.750000
O O1 0.839848 0.369311 0.418085
O O2 0.611863 0.191956 0.355387
O O3 0.688961 0.360161 0.288366
O O4 0.966024 0.218675 0.360700
O O5 0.951107 0.189017 0.556948
O O6 0.631282 0.087257 0.462891
O O7 0.867244 0.964129 0.566986
O O8 0.529256 0.522792 0.196993
O O9 0.209849 0.650763 0.134350
#
# Coordination Sequence:
#
# PCOD8149628 Si02
#       5
#     8   8   8   8   4
#     4   9  21  40  55  82 114 146 187 233 272 331
#     4   8  19  40  54  90 121 129 185 243 263 344
#     4  11  21  37  61  79 110 159 181 223 292 323
#     4   9  19  40  58  86 118 138 183 236 276 336
#     4  10  24  40  50  84 118 136 206 240 246 336
#
# _framework density 20.231189000000001
#
# number of rings (size 3 to 8) (size 9 to 14) (size 15 to 20)
#    1.333    1.333    0.000    0.667    3.111    1.778 
#    8.000    2.222    0.000    0.000    0.000    0.000 
#    0.000    0.000    0.000    0.000    0.000    0.000 
#
# Total GULP energy -223023.302059 kJ/mol
# GULP energy per Si atom -12390.183448 kJ/mol
# Density = 2.018514 g / cm^3
# Si number density = 20.231189 Si / 1000 Ang^3
#
#
#
# Elastic Constant Matrix: (Units=GPa)
#
#
# Indices 1 2 3 4 5 6 
#
# 1 73.7031 28.0608 33.8353 0.0000 13.6644 0.0000
# 2 28.0608 65.1107 28.5608 0.0000 13.8692 0.0000
# 3 33.8353 28.5608 83.4260 0.0000 6.3795 0.0000
# 4 0.0000 0.0000 0.0000 28.6422 0.0000 4.8284
# 5 13.6644 13.8692 6.3795 0.0000 15.5360 0.0000
# 6 0.0000 0.0000 0.0000 4.8284 0.0000 30.3865
#
#
#
# Elastic Compliance Matrix: (Units=1/GPa)
#
#
# Indices 1 2 3 4 5 6 
#
# 1 0.019808 -0.003372 -0.005964 0.000000 -0.011962 0.000000
# 2 -0.003372 0.022191 -0.005102 0.000000 -0.014750 0.000000
# 3 -0.005964 -0.005102 0.015902 0.000000 0.003270 0.000000
# 4 0.000000 0.000000 0.000000 0.035874 0.000000 -0.005700
# 5 -0.011962 -0.014750 0.003270 0.000000 0.086712 0.000000
# 6 0.000000 0.000000 0.000000 -0.005700 0.000000 0.033815
#
#
# Mechanical properties :
#
#
# Convention : Reuss Voigt Hill
#
# Bulk Modulus (GPa) = 34.45321 44.79487 39.62404
# Shear Modulus (GPa) = 19.77426 23.69847 21.73637
#
# Velocity S-wave (km/s) = 3.12976 3.42626 3.28136
# Velocity P-wave (km/s) = 5.48883 6.15158 5.82963
#
# Compressibility (1/GPa) = 0.02902487
#
# Stress axis : x y z
#
# Youngs Moduli (GPa) = 50.48554 45.06234 62.88491
#
# Poissons Ratio (x) = 0.15196 0.37506
# Poissons Ratio (y) = 0.17025 0.32082
# Poissons Ratio (z) = 0.30111 0.22989
#
# Static dielectric constant tensor:
#      x y z
#    x 3.120520 0.000000 0.018420 
#    y 0.000000 3.620490 0.000000 
#    z 0.018420 0.000000 3.624330 
# 
# 
# High freq. dielectric constant tensor:
#      x y z
#    x 1.743720 0.000000 0.005850 
#    y 0.000000 1.788110 0.000000 
#    z 0.005850 0.000000 1.788170 
# 
# From -- ./inp_files/229637.got.cif
#   From: 2010.06.25/outbox.cif.g09.slc.cpg/sg15_115_cif.got.tgz:229637.got - 2010.06.28 07:06:18.
