data_PCOD8149487
_publ_section_title
;
Structure prediction by ZEFSAII (Michael W. Deem and Ramdas Pophale) SiO2 
 PCOD8149487
Probable space group: C 2/C
;
_chemical_formula_sum "Si O2"
_cell_formula_units_Z 56
_cell_length_a 26.238961
_cell_length_b 12.037524
_cell_length_c 7.631320
_cell_angle_alpha 90.000000
_cell_angle_beta 79.749000
_cell_angle_gamma 90.000000
_cell_volume 2371.893334
_symmetry_space_group_name_H-M "C 2/C"
_symmetry_group_IT_number 15
_symmetry_cell_setting 'monoclinic'
loop_
_space_group_symop_operation_xyz
x,y,z
-x,y,1/2-z
-x,-y,-z
x,-y,1/2+z
1/2+x,1/2+y,z
1/2-x,1/2+y,1/2-z
1/2-x,1/2-y,-z
1/2+x,1/2-y,1/2+z
loop_
_atom_site_type_symbol
_atom_site_label
_atom_site_fract_x
_atom_site_fract_y
_atom_site_fract_z
Si Si1 0.813668 0.201540 0.277513
Si Si2 0.355675 0.235017 0.384060
Si Si3 0.799120 0.356481 0.605532
Si Si4 0.382378 0.966898 0.068362
Si Si5 0.551277 0.388327 0.116755
Si Si6 0.076843 0.128292 0.211635
Si Si7 0.056981 0.366896 0.159543
O O1 0.810623 0.309433 0.404893
O O2 0.762094 0.127428 0.327976
O O3 0.861463 0.121757 0.298770
O O4 0.819661 0.242305 0.074666
O O5 0.320728 0.233561 0.231995
O O6 0.381738 0.113266 0.397547
O O7 0.399587 0.327637 0.327079
O O8 0.825925 0.475958 0.619977
O O9 0.398996 0.889772 0.220203
O O10 0.426215 0.062032 0.019076
O O11 0.500000 0.349227 0.250000
O O12 0.557980 0.521039 0.119678
O O13 0.546827 0.358252 0.915015
O O14 0.060600 0.236729 0.109673
O O15 0.000000 0.403784 0.250000
#
# Coordination Sequence:
#
# PCOD8149487 Si02
#       7
#     8   8   8   8   8   8   8
#     4  10  23  47  66 104 134 179 233 287 343 414
#     4  11  24  45  69 103 142 177 236 289 343 430
#     4  11  23  43  76  94 140 186 224 283 355 412
#     4  12  22  45  66 103 141 177 228 286 350 427
#     4  11  25  44  69  97 135 184 231 291 350 408
#     4  11  24  47  66 100 140 172 244 297 334 427
#     4  12  25  43  69  99 140 183 228 291 350 417
#
# _framework density 23.609832000000001
#
# number of rings (size 3 to 8) (size 9 to 14) (size 15 to 20)
#    0.000    0.857    5.714    1.714    2.000    1.714 
#    7.714    0.000    0.000    0.000    0.000    0.000 
#    0.000    0.000    0.000    0.000    0.000    0.000 
#
# Total GULP energy -347323.853393 kJ/mol
# GULP energy per Si atom -12404.423335 kJ/mol
# Density = 2.355610 g / cm^3
# Si number density = 23.609832 Si / 1000 Ang^3
#
#
#
# Elastic Constant Matrix: (Units=GPa)
#
#
# Indices 1 2 3 4 5 6 
#
# 1 106.9116 30.9849 31.7093 0.0000 -34.0021 0.0000
# 2 30.9849 98.0843 18.0982 0.0000 -16.9186 0.0000
# 3 31.7093 18.0982 74.6595 0.0000 -27.7781 0.0000
# 4 0.0000 0.0000 0.0000 27.0081 0.0000 -1.4846
# 5 -34.0021 -16.9186 -27.7781 0.0000 40.5773 0.0000
# 6 0.0000 0.0000 0.0000 -1.4846 0.0000 25.6513
#
#
#
# Elastic Compliance Matrix: (Units=1/GPa)
#
#
# Indices 1 2 3 4 5 6 
#
# 1 0.013447 -0.002357 -0.001762 0.000000 0.009079 0.000000
# 2 -0.002357 0.011491 -0.000989 0.000000 0.002140 0.000000
# 3 -0.001762 -0.000989 0.018354 0.000000 0.010676 0.000000
# 4 0.000000 0.000000 0.000000 0.037144 0.000000 0.002150
# 5 0.009079 0.002140 0.010676 0.000000 0.040453 0.000000
# 6 0.000000 0.000000 0.000000 0.002150 0.000000 0.039109
#
#
# Mechanical properties :
#
#
# Convention : Reuss Voigt Hill
#
# Bulk Modulus (GPa) = 30.23139 49.02669 39.62904
# Shear Modulus (GPa) = 27.58800 31.90486 29.74643
#
# Velocity S-wave (km/s) = 3.42204 3.68004 3.55338
# Velocity P-wave (km/s) = 5.33349 6.23437 5.80145
#
# Compressibility (1/GPa) = 0.03307820
#
# Stress axis : x y z
#
# Youngs Moduli (GPa) = 74.36871 87.02254 54.48299
#
# Poissons Ratio (x) = 0.20508 0.09599
# Poissons Ratio (y) = 0.17526 0.05386
# Poissons Ratio (z) = 0.13102 0.08603
#
# Static dielectric constant tensor:
#      x y z
#    x 4.264930 0.000000 -0.133770 
#    y 0.000000 4.208900 0.000000 
#    z -0.133770 0.000000 4.241070 
# 
# 
# High freq. dielectric constant tensor:
#      x y z
#    x 1.937230 0.000000 -0.008630 
#    y 0.000000 1.927600 0.000000 
#    z -0.008630 0.000000 1.941010 
# 
# From -- ./inp_files/65420.got.cif
#   From: 2010.06.25/outbox.cif.g09.slc.cpg/sg15_33_cif.got.tgz:65420.got - 2010.06.28 07:06:18.
