data_PCOD8149363
_publ_section_title
;
Structure prediction by ZEFSAII (Michael W. Deem and Ramdas Pophale) SiO2 
 PCOD8149363
Probable space group: C 2/C
;
_chemical_formula_sum "Si O2"
_cell_formula_units_Z 56
_cell_length_a 10.197327
_cell_length_b 11.472019
_cell_length_c 21.551221
_cell_angle_alpha 90.000000
_cell_angle_beta 99.294090
_cell_angle_gamma 90.000000
_cell_volume 2488.049857
_symmetry_space_group_name_H-M "C 2/C"
_symmetry_group_IT_number 15
_symmetry_cell_setting 'monoclinic'
loop_
_space_group_symop_operation_xyz
x,y,z
-x,y,1/2-z
-x,-y,-z
x,-y,1/2+z
1/2+x,1/2+y,z
1/2-x,1/2+y,1/2-z
1/2-x,1/2-y,-z
1/2+x,1/2-y,1/2+z
loop_
_atom_site_type_symbol
_atom_site_label
_atom_site_fract_x
_atom_site_fract_y
_atom_site_fract_z
Si Si1 0.368878 0.572850 0.504351
Si Si2 0.678950 0.101709 0.148435
Si Si3 0.881125 0.831123 0.284242
Si Si4 0.433117 0.498840 0.133604
Si Si5 0.603368 0.882705 0.202596
Si Si6 0.526144 0.733090 0.080571
Si Si7 0.126728 0.578871 0.002335
O O1 0.500000 0.500000 0.500000
O O2 0.369289 0.594318 0.579336
O O3 0.368976 0.696333 0.466364
O O4 0.240294 0.495813 0.476235
O O5 0.664929 0.229869 0.173758
O O6 0.822051 0.040811 0.174574
O O7 0.574614 0.012791 0.173177
O O8 0.668751 0.117455 0.074075
O O9 0.753293 0.871401 0.237163
O O10 0.000000 0.783261 0.250000
O O11 0.937962 0.943562 0.324687
O O12 0.468527 0.612776 0.098526
O O13 0.500000 0.854461 0.250000
O O14 0.593020 0.795291 0.144012
O O15 0.407024 0.809444 0.042444
O O16 0.000000 0.500000 0.000000
#
# Coordination Sequence:
#
# PCOD8149363 Si02
#       7
#     8   8   8   8   8   8   8
#     4   9  22  41  69 102 135 177 227 283 356 426
#     4  11  24  47  70 103 143 180 239 298 354 424
#     4  12  26  45  73  99 140 195 244 295 354 425
#     4  10  23  45  71 104 141 181 239 296 357 431
#     4  12  27  45  68 103 141 189 243 288 357 425
#     4  11  24  44  72 104 143 183 232 297 362 425
#     4  11  23  43  70 105 143 177 227 296 365 427
#
# _framework density 22.507587999999998
#
# number of rings (size 3 to 8) (size 9 to 14) (size 15 to 20)
#    0.000    1.143    2.857    2.143    2.000   12.000 
#    0.000    0.000    0.000    0.000    0.000    0.000 
#    0.000    0.000    0.000    0.000    0.000    0.000 
#
# Total GULP energy -347000.156660 kJ/mol
# GULP energy per Si atom -12392.862738 kJ/mol
# Density = 2.245636 g / cm^3
# Si number density = 22.507588 Si / 1000 Ang^3
#
#
#
# Elastic Constant Matrix: (Units=GPa)
#
#
# Indices 1 2 3 4 5 6 
#
# 1 142.2491 51.3518 59.0791 0.0000 7.0375 0.0000
# 2 51.3518 118.5300 69.6123 0.0000 11.7103 0.0000
# 3 59.0791 69.6123 129.5423 0.0000 16.8973 0.0000
# 4 0.0000 0.0000 0.0000 55.8260 0.0000 -8.0818
# 5 7.0375 11.7103 16.8973 0.0000 31.7495 0.0000
# 6 0.0000 0.0000 0.0000 -8.0818 0.0000 39.0407
#
#
#
# Elastic Compliance Matrix: (Units=1/GPa)
#
#
# Indices 1 2 3 4 5 6 
#
# 1 0.009049 -0.002200 -0.002997 0.000000 0.000401 0.000000
# 2 -0.002200 0.012898 -0.005771 0.000000 -0.001198 0.000000
# 3 -0.002997 -0.005771 0.012705 0.000000 -0.003969 0.000000
# 4 0.000000 0.000000 0.000000 0.018466 0.000000 0.003823
# 5 0.000401 -0.001198 -0.003969 0.000000 0.033962 0.000000
# 6 0.000000 0.000000 0.000000 0.003823 0.000000 0.026406
#
#
# Mechanical properties :
#
#
# Convention : Reuss Voigt Hill
#
# Bulk Modulus (GPa) = 78.64332 83.37865 81.01098
# Shear Modulus (GPa) = 35.80120 39.34180 37.57150
#
# Velocity S-wave (km/s) = 3.99259 4.18537 4.09012
# Velocity P-wave (km/s) = 7.50140 7.77699 7.64044
#
# Compressibility (1/GPa) = 0.01271564
#
# Stress axis : x y z
#
# Youngs Moduli (GPa) = 110.51005 77.53428 78.70725
#
# Poissons Ratio (x) = 0.17056 0.23589
# Poissons Ratio (y) = 0.24310 0.45424
# Poissons Ratio (z) = 0.33120 0.44747
#
# Static dielectric constant tensor:
#      x y z
#    x 5.626020 0.000000 -1.089740 
#    y 0.000000 3.593070 0.000000 
#    z -1.089740 0.000000 7.453880 
# 
# 
# High freq. dielectric constant tensor:
#      x y z
#    x 1.888830 0.000000 -0.007110 
#    y 0.000000 1.888820 0.000000 
#    z -0.007110 0.000000 1.898880 
# 
# From -- ./inp_files/237115.got.cif
#   From: 2010.06.25/outbox.cif.g09.slc.cpg/sg15_119_cif.got.tgz:237115.got - 2010.06.28 07:06:18.
