data_PCOD8149794
_publ_section_title
;
Structure prediction by ZEFSAII (Michael W. Deem and Ramdas Pophale) SiO2 
 PCOD8149794
Probable space group: C 2/C
;
_chemical_formula_sum "Si O2"
_cell_formula_units_Z 44
_cell_length_a 26.832086
_cell_length_b 9.164482
_cell_length_c 9.454469
_cell_angle_alpha 90.000000
_cell_angle_beta 120.261459
_cell_angle_gamma 90.000000
_cell_volume 2008.074803
_symmetry_space_group_name_H-M "C 2/C"
_symmetry_group_IT_number 15
_symmetry_cell_setting 'monoclinic'
loop_
_space_group_symop_operation_xyz
x,y,z
-x,y,1/2-z
-x,-y,-z
x,-y,1/2+z
1/2+x,1/2+y,z
1/2-x,1/2+y,1/2-z
1/2-x,1/2-y,-z
1/2+x,1/2-y,1/2+z
loop_
_atom_site_type_symbol
_atom_site_label
_atom_site_fract_x
_atom_site_fract_y
_atom_site_fract_z
Si Si1 0.731585 0.321693 0.830412
Si Si2 0.000000 0.537783 0.750000
Si Si3 0.406617 0.583588 0.728195
Si Si4 0.286286 0.664185 0.664883
Si Si5 0.102290 0.181133 0.095841
Si Si6 0.484971 0.816221 0.952952
O O1 0.733913 0.497131 0.840943
O O2 0.780252 0.259096 0.796762
O O3 0.668307 0.262569 0.691913
O O4 0.750000 0.250000 0.000000
O O5 0.962390 0.433588 0.802571
O O6 0.965839 0.639179 0.586390
O O7 0.351923 0.670554 0.709328
O O8 0.408061 0.586351 0.560723
O O9 0.406433 0.417069 0.776910
O O10 0.462170 0.658486 0.878225
O O11 0.250000 0.750000 0.500000
O O12 0.055473 0.311026 0.041469
#
# Coordination Sequence:
#
# PCOD8149794 Si02
#       6
#     8   4   8   8   8   8
#     4  11  25  44  69 100 132 178 224 278 333 395
#     4  10  24  42  62  90 146 170 204 274 312 410
#     4  11  24  42  71  95 130 170 218 277 322 394
#     4  11  23  46  65  98 135 172 226 276 325 399
#     4  11  24  43  70  96 129 167 224 272 325 395
#     4  11  23  46  64  97 133 170 221 262 340 380
#
# _framework density 21.911536999999999
#
# number of rings (size 3 to 8) (size 9 to 14) (size 15 to 20)
#    0.000    1.091    3.636    1.636   10.182    0.000 
#   19.636    0.000    0.000    0.000    0.000    0.000 
#    0.000    0.000    0.000    0.000    0.000    0.000 
#
# Total GULP energy -272625.089420 kJ/mol
# GULP energy per Si atom -12392.049519 kJ/mol
# Density = 2.186167 g / cm^3
# Si number density = 21.911537 Si / 1000 Ang^3
#
#
#
# Elastic Constant Matrix: (Units=GPa)
#
#
# Indices 1 2 3 4 5 6 
#
# 1 77.5171 25.9733 31.6535 0.0000 -4.1134 0.0000
# 2 25.9733 74.5344 25.2504 0.0000 -2.8589 0.0000
# 3 31.6535 25.2504 137.4539 0.0000 -30.7195 0.0000
# 4 0.0000 0.0000 0.0000 41.1252 0.0000 -9.5765
# 5 -4.1134 -2.8589 -30.7195 0.0000 45.8551 0.0000
# 6 0.0000 0.0000 0.0000 -9.5765 0.0000 27.3251
#
#
#
# Elastic Compliance Matrix: (Units=1/GPa)
#
#
# Indices 1 2 3 4 5 6 
#
# 1 0.015554 -0.004451 -0.002957 0.000000 -0.000863 0.000000
# 2 -0.004451 0.015622 -0.002018 0.000000 -0.000778 0.000000
# 3 -0.002957 -0.002018 0.009690 0.000000 0.006101 0.000000
# 4 0.000000 0.000000 0.000000 0.026477 0.000000 0.009279
# 5 -0.000863 -0.000778 0.006101 0.000000 0.025769 0.000000
# 6 0.000000 0.000000 0.000000 0.009279 0.000000 0.039848
#
#
# Mechanical properties :
#
#
# Convention : Reuss Voigt Hill
#
# Bulk Modulus (GPa) = 45.42944 50.58443 48.00694
# Shear Modulus (GPa) = 31.41677 36.63628 34.02653
#
# Velocity S-wave (km/s) = 3.79066 4.09346 3.94497
# Velocity P-wave (km/s) = 6.31957 6.74372 6.53509
#
# Compressibility (1/GPa) = 0.02201216
#
# Stress axis : x y z
#
# Youngs Moduli (GPa) = 64.29416 64.01318 103.19559
#
# Poissons Ratio (x) = 0.28495 0.30514
# Poissons Ratio (y) = 0.28620 0.20829
# Poissons Ratio (z) = 0.19011 0.12921
#
# Static dielectric constant tensor:
#      x y z
#    x 3.446900 0.000000 -0.241510 
#    y 0.000000 3.576080 0.000000 
#    z -0.241510 0.000000 4.071810 
# 
# 
# High freq. dielectric constant tensor:
#      x y z
#    x 1.850130 0.000000 -0.018340 
#    y 0.000000 1.857000 0.000000 
#    z -0.018340 0.000000 1.879440 
# 
# From -- ./inp_files/68490.got.cif
#   From: 2010.06.25/outbox.cif.g09.slc.cpg/sg15_35_cif.got.tgz:68490.got - 2010.06.28 07:06:18.
