data_PCOD8149028
_publ_section_title
;
Structure prediction by ZEFSAII (Michael W. Deem and Ramdas Pophale) SiO2 
 PCOD8149028
Probable space group: C 2/C
;
_chemical_formula_sum "Si O2"
_cell_formula_units_Z 48
_cell_length_a 20.266165
_cell_length_b 10.844140
_cell_length_c 15.094421
_cell_angle_alpha 90.000000
_cell_angle_beta 138.859735
_cell_angle_gamma 90.000000
_cell_volume 2182.459073
_symmetry_space_group_name_H-M "C 2/C"
_symmetry_group_IT_number 15
_symmetry_cell_setting 'monoclinic'
loop_
_space_group_symop_operation_xyz
x,y,z
-x,y,1/2-z
-x,-y,-z
x,-y,1/2+z
1/2+x,1/2+y,z
1/2-x,1/2+y,1/2-z
1/2-x,1/2-y,-z
1/2+x,1/2-y,1/2+z
loop_
_atom_site_type_symbol
_atom_site_label
_atom_site_fract_x
_atom_site_fract_y
_atom_site_fract_z
Si Si1 0.403241 0.174127 0.618667
Si Si2 0.239353 0.128224 0.594816
Si Si3 0.027609 0.457069 0.929520
Si Si4 0.374974 0.378502 0.033439
Si Si5 0.085455 0.211692 0.736410
Si Si6 0.279609 0.177390 0.832787
O O1 0.500000 0.254982 0.750000
O O2 0.334141 0.119723 0.626465
O O3 0.329770 0.251187 0.482438
O O4 0.467483 0.071160 0.631374
O O5 0.287838 0.137858 0.739772
O O6 0.167403 0.014661 0.499923
O O7 0.947764 0.353479 0.815541
O O8 0.140712 0.406998 0.036420
O O9 0.000000 0.500000 0.000000
O O10 0.367175 0.299909 0.117233
O O11 0.492417 0.381141 0.127543
O O12 0.311032 0.317500 0.888911
O O13 0.165897 0.159518 0.748736
#
# Coordination Sequence:
#
# PCOD8149028 Si02
#       6
#     8   8   8   8   8   8
#     4  11  26  43  69  96 137 177 226 274 354 414
#     4  11  26  45  65  99 139 181 221 284 346 410
#     4  11  24  43  72 104 134 175 228 289 339 409
#     4  10  24  43  68  99 132 177 231 281 340 408
#     4  10  23  43  72  98 133 175 234 281 344 401
#     4  11  24  41  68 101 133 173 227 281 340 403
#
# _framework density 21.993539999999999
#
# number of rings (size 3 to 8) (size 9 to 14) (size 15 to 20)
#    0.000    1.333    0.000    3.500   14.000    2.000 
#    0.000    0.000    0.000    0.000    0.000    0.000 
#    0.000    0.000    0.000    0.000    0.000    0.000 
#
# Total GULP energy -297455.550960 kJ/mol
# GULP energy per Si atom -12393.981290 kJ/mol
# Density = 2.194348 g / cm^3
# Si number density = 21.993540 Si / 1000 Ang^3
#
#
#
# Elastic Constant Matrix: (Units=GPa)
#
#
# Indices 1 2 3 4 5 6 
#
# 1 114.3146 46.8428 48.3902 0.0000 7.8779 0.0000
# 2 46.8428 90.1548 38.4534 0.0000 -2.1690 0.0000
# 3 48.3902 38.4534 107.2515 0.0000 -0.3749 0.0000
# 4 0.0000 0.0000 0.0000 9.5349 0.0000 8.8195
# 5 7.8779 -2.1690 -0.3749 0.0000 48.3990 0.0000
# 6 0.0000 0.0000 0.0000 8.8195 0.0000 25.3181
#
#
#
# Elastic Compliance Matrix: (Units=1/GPa)
#
#
# Indices 1 2 3 4 5 6 
#
# 1 0.012582 -0.004920 -0.003921 0.000000 -0.002299 0.000000
# 2 -0.004920 0.015033 -0.003165 0.000000 0.001450 0.000000
# 3 -0.003921 -0.003165 0.012230 0.000000 0.000591 0.000000
# 4 0.000000 0.000000 0.000000 0.154735 0.000000 -0.053902
# 5 -0.002299 0.001450 0.000591 0.000000 0.021105 0.000000
# 6 0.000000 0.000000 0.000000 -0.053902 0.000000 0.058274
#
#
# Mechanical properties :
#
#
# Convention : Reuss Voigt Hill
#
# Bulk Modulus (GPa) = 63.15923 64.34374 63.75149
# Shear Modulus (GPa) = 16.48807 28.51936 22.50372
#
# Velocity S-wave (km/s) = 2.74099 3.60490 3.20221
# Velocity P-wave (km/s) = 6.22872 6.82981 6.53618
#
# Compressibility (1/GPa) = 0.01583300
#
# Stress axis : x y z
#
# Youngs Moduli (GPa) = 79.47758 66.51852 81.76845
#
# Poissons Ratio (x) = 0.32730 0.32059
# Poissons Ratio (y) = 0.39107 0.25879
# Poissons Ratio (z) = 0.31161 0.21052
#
# Static dielectric constant tensor:
#      x y z
#    x 4.098600 0.000000 0.129710 
#    y 0.000000 3.841400 0.000000 
#    z 0.129710 0.000000 4.116050 
# 
# 
# High freq. dielectric constant tensor:
#      x y z
#    x 1.876210 0.000000 0.014070 
#    y 0.000000 1.847980 0.000000 
#    z 0.014070 0.000000 1.888610 
# 
# From -- ./inp_files/167907.got.cif
#   From: 2010.06.25/outbox.cif.g09.slc.cpg/sg15_84_cif.got.tgz:167907.got - 2010.06.28 07:06:18.
