data_PCOD8149164
_publ_section_title
;
Structure prediction by ZEFSAII (Michael W. Deem and Ramdas Pophale) SiO2 
 PCOD8149164
Probable space group: C 2/C
;
_chemical_formula_sum "Si O2"
_cell_formula_units_Z 48
_cell_length_a 21.144035
_cell_length_b 8.408036
_cell_length_c 12.930604
_cell_angle_alpha 90.000000
_cell_angle_beta 72.090289
_cell_angle_gamma 90.000000
_cell_volume 2187.405707
_symmetry_space_group_name_H-M "C 2/C"
_symmetry_group_IT_number 15
_symmetry_cell_setting 'monoclinic'
loop_
_space_group_symop_operation_xyz
x,y,z
-x,y,1/2-z
-x,-y,-z
x,-y,1/2+z
1/2+x,1/2+y,z
1/2-x,1/2+y,1/2-z
1/2-x,1/2-y,-z
1/2+x,1/2-y,1/2+z
loop_
_atom_site_type_symbol
_atom_site_label
_atom_site_fract_x
_atom_site_fract_y
_atom_site_fract_z
Si Si1 0.000000 0.708072 0.250000
Si Si2 0.033121 0.958757 0.378302
Si Si3 0.390461 0.968703 0.320846
Si Si4 0.000000 0.769295 0.750000
Si Si5 0.330012 0.417761 0.270927
Si Si6 0.806691 0.740193 0.713163
Si Si7 0.172321 0.736477 0.028526
O O1 0.015670 0.824950 0.145665
O O2 0.936290 0.606272 0.248459
O O3 0.108960 0.894912 0.340621
O O4 0.037490 0.123949 0.314190
O O5 0.000000 0.000000 0.500000
O O6 0.442100 0.834395 0.335166
O O7 0.341347 0.902904 0.258093
O O8 0.350107 0.054290 0.433873
O O9 0.270108 0.304838 0.265499
O O10 0.306952 0.601312 0.282709
O O11 0.355735 0.365522 0.373514
O O12 0.844936 0.770032 0.583708
O O13 0.250000 0.750000 0.000000
#
# Coordination Sequence:
#
# PCOD8149164 Si02
#       7
#     4   8   8   4   8   8   8
#     4  10  24  40  70  88 142 172 222 280 328 392
#     4  11  24  44  70  95 130 183 228 277 339 402
#     4  11  22  44  65  98 136 173 222 283 328 411
#     4  10  24  44  60  98 136 172 226 282 322 406
#     4  11  23  45  68  98 136 171 233 286 334 410
#     4  11  24  43  71  98 136 175 224 283 346 403
#     4  10  23  44  68  97 133 177 221 281 345 397
#
# _framework density 21.943802000000002
#
# number of rings (size 3 to 8) (size 9 to 14) (size 15 to 20)
#    0.000    1.333    3.333    2.000    2.333    1.333 
#    3.000    7.500    0.000    0.000    0.000    0.000 
#    0.000    0.000    0.000    0.000    0.000    0.000 
#
# Total GULP energy -297370.488150 kJ/mol
# GULP energy per Si atom -12390.437006 kJ/mol
# Density = 2.189386 g / cm^3
# Si number density = 21.943802 Si / 1000 Ang^3
#
#
#
# Elastic Constant Matrix: (Units=GPa)
#
#
# Indices 1 2 3 4 5 6 
#
# 1 96.1300 36.1354 32.9620 0.0000 -11.0905 0.0000
# 2 36.1354 132.2503 41.8640 0.0000 3.3989 0.0000
# 3 32.9620 41.8640 111.4281 0.0000 -9.0591 0.0000
# 4 0.0000 0.0000 0.0000 28.0004 0.0000 -2.1840
# 5 -11.0905 3.3989 -9.0591 0.0000 34.3286 0.0000
# 6 0.0000 0.0000 0.0000 -2.1840 0.0000 42.7452
#
#
#
# Elastic Compliance Matrix: (Units=1/GPa)
#
#
# Indices 1 2 3 4 5 6 
#
# 1 0.012715 -0.002811 -0.002400 0.000000 0.003753 0.000000
# 2 -0.002811 0.009306 -0.002875 0.000000 -0.002588 0.000000
# 3 -0.002400 -0.002875 0.010960 0.000000 0.002402 0.000000
# 4 0.000000 0.000000 0.000000 0.035857 0.000000 0.001832
# 5 0.003753 -0.002588 0.002402 0.000000 0.031233 0.000000
# 6 0.000000 0.000000 0.000000 0.001832 0.000000 0.023488
#
#
# Mechanical properties :
#
#
# Convention : Reuss Voigt Hill
#
# Bulk Modulus (GPa) = 59.49364 62.41457 60.95411
# Shear Modulus (GPa) = 34.40351 36.27132 35.33741
#
# Velocity S-wave (km/s) = 3.96384 4.07002 4.01728
# Velocity P-wave (km/s) = 6.93686 7.11276 7.02536
#
# Compressibility (1/GPa) = 0.01680852
#
# Stress axis : x y z
#
# Youngs Moduli (GPa) = 78.64636 107.45575 91.24173
#
# Poissons Ratio (x) = 0.30205 0.21899
# Poissons Ratio (y) = 0.22107 0.26235
# Poissons Ratio (z) = 0.18876 0.30897
#
# Static dielectric constant tensor:
#      x y z
#    x 3.760820 0.000000 0.149290 
#    y 0.000000 4.399330 0.000000 
#    z 0.149290 0.000000 3.958000 
# 
# 
# High freq. dielectric constant tensor:
#      x y z
#    x 1.883900 0.000000 -0.013290 
#    y 0.000000 1.876260 0.000000 
#    z -0.013290 0.000000 1.831000 
# 
# From -- ./inp_files/116328.got.cif
#   From: 2010.06.25/outbox.cif.g09.slc.cpg/sg15_59_cif.got.tgz:116328.got - 2010.06.28 07:06:18.
