data_PCOD8149468
_publ_section_title
;
Structure prediction by ZEFSAII (Michael W. Deem and Ramdas Pophale) SiO2 
 PCOD8149468
Probable space group: C 2/C
;
_chemical_formula_sum "Si O2"
_cell_formula_units_Z 64
_cell_length_a 16.585581
_cell_length_b 28.187225
_cell_length_c 10.863885
_cell_angle_alpha 90.000000
_cell_angle_beta 147.293508
_cell_angle_gamma 90.000000
_cell_volume 2744.301396
_symmetry_space_group_name_H-M "C 2/C"
_symmetry_group_IT_number 15
_symmetry_cell_setting 'monoclinic'
loop_
_space_group_symop_operation_xyz
x,y,z
-x,y,1/2-z
-x,-y,-z
x,-y,1/2+z
1/2+x,1/2+y,z
1/2-x,1/2+y,1/2-z
1/2-x,1/2-y,-z
1/2+x,1/2-y,1/2+z
loop_
_atom_site_type_symbol
_atom_site_label
_atom_site_fract_x
_atom_site_fract_y
_atom_site_fract_z
Si Si1 0.337468 0.796227 0.072490
Si Si2 0.537648 0.422105 0.663635
Si Si3 0.383839 0.339944 0.902275
Si Si4 0.664852 0.816541 0.800310
Si Si5 0.338701 0.976816 0.073135
Si Si6 0.267385 0.038793 0.750935
Si Si7 0.852912 0.352063 0.328848
Si Si8 0.828509 0.212919 0.745339
O O1 0.500000 0.776297 0.250000
O O2 0.366943 0.839131 0.205305
O O3 0.250000 0.750000 0.000000
O O4 0.248958 0.822589 0.853398
O O5 0.500000 0.399435 0.750000
O O6 0.527051 0.384105 0.540700
O O7 0.414061 0.463123 0.480503
O O8 0.705260 0.441232 0.873005
O O9 0.296905 0.351329 0.918863
O O10 0.505223 0.299496 0.085995
O O11 0.506827 0.842349 0.598173
O O12 0.667652 0.768817 0.718418
O O13 0.700824 0.799945 0.983263
O O14 0.500000 0.953225 0.250000
O O15 0.327237 0.990331 0.205690
O O16 0.327670 0.020062 0.959860
O O17 0.314970 0.093235 0.798580
O O18 0.717231 0.317802 0.195697
#
# Coordination Sequence:
#
# PCOD8149468 Si02
#       8
#     8   8   8   8   8   8   8   8
#     4  12  26  40  65 102 140 191 241 294 351 414
#     4  10  23  46  72  99 139 183 227 287 363 436
#     4  12  24  41  66  99 139 179 240 292 350 418
#     4  11  24  43  67  99 141 191 242 297 340 420
#     4  11  25  46  77 108 138 185 229 306 363 439
#     4  11  25  49  73 107 147 186 240 290 376 435
#     4  12  25  44  72 102 145 192 235 296 351 430
#     4  11  24  44  66  97 141 195 241 287 358 405
#
# _framework density 23.321054
#
# number of rings (size 3 to 8) (size 9 to 14) (size 15 to 20)
#    0.000    0.750    2.500    5.250    3.500    4.000 
#    2.250    0.000    0.000    0.000    0.000    0.000 
#    0.000    0.000    0.000    0.000    0.000    0.000 
#
# Total GULP energy -396622.024224 kJ/mol
# GULP energy per Si atom -12394.438257 kJ/mol
# Density = 2.326797 g / cm^3
# Si number density = 23.321054 Si / 1000 Ang^3
#
#
#
# Elastic Constant Matrix: (Units=GPa)
#
#
# Indices 1 2 3 4 5 6 
#
# 1 109.0468 47.0720 32.0729 0.0000 17.2067 0.0000
# 2 47.0720 84.9048 21.9974 0.0000 -2.6991 0.0000
# 3 32.0729 21.9974 122.3352 0.0000 24.0242 0.0000
# 4 0.0000 0.0000 0.0000 19.3237 0.0000 3.2198
# 5 17.2067 -2.6991 24.0242 0.0000 50.5960 0.0000
# 6 0.0000 0.0000 0.0000 3.2198 0.0000 33.1412
#
#
#
# Elastic Compliance Matrix: (Units=1/GPa)
#
#
# Indices 1 2 3 4 5 6 
#
# 1 0.013347 -0.007181 -0.001369 0.000000 -0.004272 0.000000
# 2 -0.007181 0.016383 -0.001891 0.000000 0.004214 0.000000
# 3 -0.001369 -0.001891 0.009707 0.000000 -0.004244 0.000000
# 4 0.000000 0.000000 0.000000 0.052601 0.000000 -0.005110
# 5 -0.004272 0.004214 -0.004244 0.000000 0.023457 0.000000
# 6 0.000000 0.000000 0.000000 -0.005110 0.000000 0.030670
#
#
# Mechanical properties :
#
#
# Convention : Reuss Voigt Hill
#
# Bulk Modulus (GPa) = 53.89315 57.61904 55.75610
# Shear Modulus (GPa) = 28.86313 34.95514 31.90914
#
# Velocity S-wave (km/s) = 3.52183 3.87572 3.70301
# Velocity P-wave (km/s) = 6.30057 6.69244 6.49946
#
# Compressibility (1/GPa) = 0.01855523
#
# Stress axis : x y z
#
# Youngs Moduli (GPa) = 74.92440 61.03985 103.02219
#
# Poissons Ratio (x) = 0.43831 0.14104
# Poissons Ratio (y) = 0.53801 0.19479
# Poissons Ratio (z) = 0.10258 0.11541
#
# Static dielectric constant tensor:
#      x y z
#    x 4.485040 0.000000 0.063000 
#    y 0.000000 3.917590 0.000000 
#    z 0.063000 0.000000 4.335950 
# 
# 
# High freq. dielectric constant tensor:
#      x y z
#    x 1.938890 0.000000 0.011650 
#    y 0.000000 1.886020 0.000000 
#    z 0.011650 0.000000 1.943270 
# 
# From -- ./inp_files/108657.got.cif
#   From: 2010.06.25/outbox.cif.g09.slc.cpg/sg15_55_cif.got.tgz:108657.got - 2010.06.28 07:06:18.
