data_PCOD8149060
_publ_section_title
;
Structure prediction by ZEFSAII (Michael W. Deem and Ramdas Pophale) SiO2 
 PCOD8149060
Probable space group: C 2/C
;
_chemical_formula_sum "Si O2"
_cell_formula_units_Z 64
_cell_length_a 27.589740
_cell_length_b 8.038306
_cell_length_c 14.594301
_cell_angle_alpha 90.000000
_cell_angle_beta 72.587636
_cell_angle_gamma 90.000000
_cell_volume 3088.330911
_symmetry_space_group_name_H-M "C 2/C"
_symmetry_group_IT_number 15
_symmetry_cell_setting 'monoclinic'
loop_
_space_group_symop_operation_xyz
x,y,z
-x,y,1/2-z
-x,-y,-z
x,-y,1/2+z
1/2+x,1/2+y,z
1/2-x,1/2+y,1/2-z
1/2-x,1/2-y,-z
1/2+x,1/2-y,1/2+z
loop_
_atom_site_type_symbol
_atom_site_label
_atom_site_fract_x
_atom_site_fract_y
_atom_site_fract_z
Si Si1 0.696204 0.601709 0.448473
Si Si2 0.188372 0.073474 0.770962
Si Si3 0.797034 0.585900 0.647358
Si Si4 0.120940 0.001794 0.138985
Si Si5 0.440868 0.829953 0.778181
Si Si6 0.895119 0.360592 0.409566
Si Si7 0.617922 0.128868 0.368091
Si Si8 0.718308 0.088016 0.511000
O O1 0.691067 0.572653 0.342584
O O2 0.689595 0.799839 0.449714
O O3 0.651088 0.513189 0.526979
O O4 0.752059 0.559258 0.453548
O O5 0.246132 0.144761 0.728024
O O6 0.164048 0.995354 0.693157
O O7 0.153492 0.215065 0.830880
O O8 0.848144 0.538155 0.674524
O O9 0.784226 0.419359 0.597997
O O10 0.084880 0.841942 0.172485
O O11 0.090750 0.178397 0.143772
O O12 0.500000 0.795771 0.750000
O O13 0.427498 0.868279 0.679629
O O14 0.428134 0.990521 0.847639
O O15 0.903582 0.364875 0.515518
O O16 0.837162 0.394997 0.413525
O O17 0.750000 0.250000 0.500000
#
# Coordination Sequence:
#
# PCOD8149060 Si02
#       8
#     8   8   8   8   8   8   8   8
#     4  12  22  36  60  92 139 176 221 256 329 404
#     4  11  22  35  58  94 136 177 216 264 315 407
#     4  11  22  33  57  93 132 183 216 262 319 395
#     4  11  23  44  67  97 135 173 224 277 337 402
#     4  11  28  49  72  98 129 172 236 299 341 393
#     4  11  23  44  71  96 138 178 217 280 343 406
#     4  10  23  44  63  97 135 172 227 276 333 408
#     4  11  20  36  58  91 138 176 211 256 324 403
#
# _framework density 20.723168000000001
#
# number of rings (size 3 to 8) (size 9 to 14) (size 15 to 20)
#    0.000    1.000    3.750    3.375    7.000    1.000 
#    0.000    0.625    0.000    0.000    0.000    0.000 
#    0.000    0.000    0.000    0.000    0.000    0.000 
#
# Total GULP energy -396453.517964 kJ/mol
# GULP energy per Si atom -12389.172436 kJ/mol
# Density = 2.067600 g / cm^3
# Si number density = 20.723168 Si / 1000 Ang^3
#
#
#
# Elastic Constant Matrix: (Units=GPa)
#
#
# Indices 1 2 3 4 5 6 
#
# 1 113.9735 37.0790 40.9300 0.0000 8.1537 0.0000
# 2 37.0790 86.2097 37.4442 0.0000 2.5250 0.0000
# 3 40.9300 37.4442 94.1770 0.0000 12.7809 0.0000
# 4 0.0000 0.0000 0.0000 32.7533 0.0000 -0.1645
# 5 8.1537 2.5250 12.7809 0.0000 26.1190 0.0000
# 6 0.0000 0.0000 0.0000 -0.1645 0.0000 20.9885
#
#
#
# Elastic Compliance Matrix: (Units=1/GPa)
#
#
# Indices 1 2 3 4 5 6 
#
# 1 0.011154 -0.003309 -0.003324 0.000000 -0.001536 0.000000
# 2 -0.003309 0.015055 -0.004810 0.000000 0.001931 0.000000
# 3 -0.003324 -0.004810 0.014751 0.000000 -0.005716 0.000000
# 4 0.000000 0.000000 0.000000 0.030532 0.000000 0.000239
# 5 -0.001536 0.001931 -0.005716 0.000000 0.041376 0.000000
# 6 0.000000 0.000000 0.000000 0.000239 0.000000 0.047647
#
#
# Mechanical properties :
#
#
# Convention : Reuss Voigt Hill
#
# Bulk Modulus (GPa) = 55.32385 58.36294 56.84339
# Shear Modulus (GPa) = 26.39567 27.89930 27.14749
#
# Velocity S-wave (km/s) = 3.57280 3.67316 3.62333
# Velocity P-wave (km/s) = 6.61623 6.79807 6.70776
#
# Compressibility (1/GPa) = 0.01807539
#
# Stress axis : x y z
#
# Youngs Moduli (GPa) = 89.65535 66.42172 67.79276
#
# Poissons Ratio (x) = 0.21977 0.22531
# Poissons Ratio (y) = 0.29665 0.32608
# Poissons Ratio (z) = 0.29798 0.31949
#
# Static dielectric constant tensor:
#      x y z
#    x 3.571850 0.000000 0.839570 
#    y 0.000000 5.195770 0.000000 
#    z 0.839570 0.000000 6.859960 
# 
# 
# High freq. dielectric constant tensor:
#      x y z
#    x 1.781290 0.000000 0.021970 
#    y 0.000000 1.831620 0.000000 
#    z 0.021970 0.000000 1.811480 
# 
# From -- ./inp_files/176558.got.cif
#   From: 2010.06.25/outbox.cif.g09.slc.cpg/sg15_89_cif.got.tgz:176558.got - 2010.06.28 07:06:18.
