data_PCOD8149050
_publ_section_title
;
Structure prediction by ZEFSAII (Michael W. Deem and Ramdas Pophale) SiO2 
 PCOD8149050
Probable space group: C 2/C
;
_chemical_formula_sum "Si O2"
_cell_formula_units_Z 48
_cell_length_a 28.417893
_cell_length_b 6.550392
_cell_length_c 13.347133
_cell_angle_alpha 90.000000
_cell_angle_beta 108.790481
_cell_angle_gamma 90.000000
_cell_volume 2352.127228
_symmetry_space_group_name_H-M "C 2/C"
_symmetry_group_IT_number 15
_symmetry_cell_setting 'monoclinic'
loop_
_space_group_symop_operation_xyz
x,y,z
-x,y,1/2-z
-x,-y,-z
x,-y,1/2+z
1/2+x,1/2+y,z
1/2-x,1/2+y,1/2-z
1/2-x,1/2-y,-z
1/2+x,1/2-y,1/2+z
loop_
_atom_site_type_symbol
_atom_site_label
_atom_site_fract_x
_atom_site_fract_y
_atom_site_fract_z
Si Si1 0.103686 0.971135 0.459937
Si Si2 0.430695 0.850462 0.954365
Si Si3 0.978146 0.652475 0.129366
Si Si4 0.271895 0.043908 0.968459
Si Si5 0.153958 0.654669 0.636504
Si Si6 0.676156 0.721796 0.373141
O O1 0.088582 0.127250 0.535576
O O2 0.131592 0.092212 0.391206
O O3 0.055223 0.856515 0.382470
O O4 0.139001 0.812247 0.539457
O O5 0.477062 0.810715 0.915315
O O6 0.387834 0.983049 0.871515
O O7 0.445729 0.963329 0.067584
O O8 0.000000 0.586421 0.250000
O O9 0.295020 0.064978 0.873028
O O10 0.227138 0.892798 0.922243
O O11 0.250000 0.250000 0.000000
O O12 0.315024 0.944609 0.069617
O O13 0.163701 0.761526 0.748189
#
# Coordination Sequence:
#
# PCOD8149050 Si02
#       6
#     8   8   8   8   8   8
#     4  11  23  43  64  96 128 162 217 262 314 386
#     4  10  23  44  62  91 132 159 216 263 312 378
#     4  10  24  41  65  93 124 170 208 262 317 375
#     4  11  24  45  61  95 133 163 220 265 308 389
#     4  11  25  41  67  95 128 171 210 267 321 377
#     4  11  26  41  68  95 126 174 209 264 325 376
#
# _framework density 20.407059
#
# number of rings (size 3 to 8) (size 9 to 14) (size 15 to 20)
#    0.000    1.333    3.333    0.500    7.000    2.000 
#    0.000    0.000    0.000    0.000    0.000    0.000 
#    0.000    0.000    0.000    0.000    0.000    0.000 
#
# Total GULP energy -297615.356097 kJ/mol
# GULP energy per Si atom -12400.639837 kJ/mol
# Density = 2.036061 g / cm^3
# Si number density = 20.407059 Si / 1000 Ang^3
#
#
#
# Elastic Constant Matrix: (Units=GPa)
#
#
# Indices 1 2 3 4 5 6 
#
# 1 120.8155 42.6288 31.4708 0.0000 -2.9998 0.0000
# 2 42.6288 86.0543 21.6419 0.0000 -3.1690 0.0000
# 3 31.4708 21.6419 102.8663 0.0000 -11.8709 0.0000
# 4 0.0000 0.0000 0.0000 -1.3371 0.0000 -16.5606
# 5 -2.9998 -3.1690 -11.8709 0.0000 24.2173 0.0000
# 6 0.0000 0.0000 0.0000 -16.5606 0.0000 36.0329
#
#
#
# Elastic Compliance Matrix: (Units=1/GPa)
#
#
# Indices 1 2 3 4 5 6 
#
# 1 0.010500 -0.004642 -0.002285 0.000000 -0.000427 0.000000
# 2 -0.004642 0.014325 -0.001530 0.000000 0.000549 0.000000
# 3 -0.002285 -0.001530 0.011327 0.000000 0.005069 0.000000
# 4 0.000000 0.000000 0.000000 -0.111753 0.000000 -0.051362
# 5 -0.000427 0.000549 0.005069 0.000000 0.043797 0.000000
# 6 0.000000 0.000000 0.000000 -0.051362 0.000000 0.004147
#
#
# Mechanical properties :
#
#
# Convention : Reuss Voigt Hill
#
# Bulk Modulus (GPa) = 51.98166 55.69102 53.83634
# Shear Modulus (GPa) = -1154.68002 26.04891 -564.31555
#
# Velocity S-wave (km/s) = -23.81286 3.57664 -16.64722
# Velocity P-wave (km/s) = 27.02854 6.66377 18.52210
#
# Compressibility (1/GPa) = 0.01923755
#
# Stress axis : x y z
#
# Youngs Moduli (GPa) = 95.24112 69.80648 88.28221
#
# Poissons Ratio (x) = 0.32407 0.20171
# Poissons Ratio (y) = 0.44214 0.13509
# Poissons Ratio (z) = 0.21761 0.10682
#
# Static dielectric constant tensor:
#      x y z
#    x 4.035030 0.000000 0.024430 
#    y 0.000000 3.983060 0.000000 
#    z 0.024430 0.000000 3.777100 
# 
# 
# High freq. dielectric constant tensor:
#      x y z
#    x 1.820610 0.000000 0.002130 
#    y 0.000000 1.807090 0.000000 
#    z 0.002130 0.000000 1.785790 
# 
# From -- ./inp_files/180229.got.cif
#   From: 2010.06.25/outbox.cif.g09.slc.cpg/sg15_91_cif.got.tgz:180229.got - 2010.06.28 07:06:18.
