data_PCOD8149091
_publ_section_title
;
Structure prediction by ZEFSAII (Michael W. Deem and Ramdas Pophale) SiO2 
 PCOD8149091
Probable space group: C 2/C
;
_chemical_formula_sum "Si O2"
_cell_formula_units_Z 40
_cell_length_a 7.359762
_cell_length_b 16.229589
_cell_length_c 22.116202
_cell_angle_alpha 90.000000
_cell_angle_beta 42.768285
_cell_angle_gamma 90.000000
_cell_volume 1793.800072
_symmetry_space_group_name_H-M "C 2/C"
_symmetry_group_IT_number 15
_symmetry_cell_setting 'monoclinic'
loop_
_space_group_symop_operation_xyz
x,y,z
-x,y,1/2-z
-x,-y,-z
x,-y,1/2+z
1/2+x,1/2+y,z
1/2-x,1/2+y,1/2-z
1/2-x,1/2-y,-z
1/2+x,1/2-y,1/2+z
loop_
_atom_site_type_symbol
_atom_site_label
_atom_site_fract_x
_atom_site_fract_y
_atom_site_fract_z
Si Si1 0.712523 0.077896 0.146478
Si Si2 0.612685 0.138758 0.381577
Si Si3 0.000000 0.006299 0.250000
Si Si4 0.782339 0.343464 0.512787
Si Si5 0.999419 0.585355 0.659158
Si Si6 0.500000 0.772709 0.250000
O O1 0.500000 0.104457 0.250000
O O2 0.639537 0.113615 0.097708
O O3 0.995721 0.114776 0.096221
O O4 0.710053 0.977944 0.139038
O O5 0.539978 0.158442 0.469059
O O6 0.736674 0.217046 0.316964
O O7 0.822338 0.063601 0.336604
O O8 0.798682 0.951488 0.259325
O O9 0.750000 0.250000 0.500000
O O10 0.935732 0.399846 0.426956
O O11 0.001136 0.673405 0.689686
#
# Coordination Sequence:
#
# PCOD8149091 Si02
#       6
#     8   8   4   8   8   4
#     4  11  24  44  70  93 129 180 217 262 329 389
#     4  10  23  44  66  92 130 175 218 263 327 389
#     4   9  22  42  66  95 124 176 216 261 318 392
#     4  12  25  43  65 101 135 166 219 277 322 380
#     4  11  23  41  66  97 130 169 222 270 321 384
#     4  11  20  40  64  93 128 168 216 273 318 388
#
# _framework density 22.299029000000001
#
# number of rings (size 3 to 8) (size 9 to 14) (size 15 to 20)
#    0.000    1.200    3.000    4.200    0.000    5.600 
#    3.600    0.000    0.000    0.000    0.000    0.000 
#    0.000    0.000    0.000    0.000    0.000    0.000 
#
# Total GULP energy -247950.523722 kJ/mol
# GULP energy per Si atom -12397.526186 kJ/mol
# Density = 2.224828 g / cm^3
# Si number density = 22.299029 Si / 1000 Ang^3
#
#
#
# Elastic Constant Matrix: (Units=GPa)
#
#
# Indices 1 2 3 4 5 6 
#
# 1 89.3971 19.9114 26.1050 -0.0014 24.3482 0.0019
# 2 19.9114 105.7645 9.3996 -0.0114 -3.3903 0.0011
# 3 26.1050 9.3996 69.9161 0.0075 22.5167 -0.0116
# 4 -0.0014 -0.0114 0.0075 21.8275 -0.0065 13.7322
# 5 24.3482 -3.3903 22.5167 -0.0065 41.7981 0.0006
# 6 0.0019 0.0011 -0.0116 13.7322 0.0006 32.7868
#
#
#
# Elastic Compliance Matrix: (Units=1/GPa)
#
#
# Indices 1 2 3 4 5 6 
#
# 1 0.014563 -0.002730 -0.002743 -0.000001 -0.007227 -0.000001
# 2 -0.002730 0.010191 -0.001366 0.000010 0.003153 -0.000005
# 3 -0.002743 -0.001366 0.018187 -0.000019 -0.008310 0.000015
# 4 -0.000001 0.000010 -0.000019 0.062205 0.000022 -0.026053
# 5 -0.007227 0.003153 -0.008310 0.000022 0.032867 -0.000012
# 6 -0.000001 -0.000005 0.000015 -0.026053 -0.000012 0.041412
#
#
# Mechanical properties :
#
#
# Convention : Reuss Voigt Hill
#
# Bulk Modulus (GPa) = 34.17198 41.76776 37.96987
# Shear Modulus (GPa) = 24.64775 33.25993 28.95384
#
# Velocity S-wave (km/s) = 3.32825 3.86624 3.60729
# Velocity P-wave (km/s) = 5.48884 6.22108 5.86640
#
# Compressibility (1/GPa) = 0.02926374
#
# Stress axis : x y z
#
# Youngs Moduli (GPa) = 68.66521 98.12252 54.98395
#
# Poissons Ratio (x) = 0.26784 0.15083
# Poissons Ratio (y) = 0.18743 0.07513
# Poissons Ratio (z) = 0.18836 0.13407
#
# Static dielectric constant tensor:
#      x y z
#    x 4.075510 0.000050 0.167020 
#    y 0.000050 4.232760 -0.000010 
#    z 0.167020 -0.000010 3.902050 
# 
# 
# High freq. dielectric constant tensor:
#      x y z
#    x 1.869890 0.000000 0.023710 
#    y 0.000000 1.893310 0.000000 
#    z 0.023710 0.000000 1.866450 
# 
# From -- ./inp_files/188722.got.cif
#   From: 2010.06.25/outbox.cif.g09.slc.cpg/sg15_95_cif.got.tgz:188722.got - 2010.06.28 07:06:18.
