data_PCOD8149957
_publ_section_title
;
Structure prediction by ZEFSAII (Michael W. Deem and Ramdas Pophale) SiO2 
 PCOD8149957
Probable space group: C 2/C
;
_chemical_formula_sum "Si O2"
_cell_formula_units_Z 48
_cell_length_a 9.161758
_cell_length_b 27.719309
_cell_length_c 12.736485
_cell_angle_alpha 90.000000
_cell_angle_beta 45.236738
_cell_angle_gamma 90.000000
_cell_volume 2296.586753
_symmetry_space_group_name_H-M "C 2/C"
_symmetry_group_IT_number 15
_symmetry_cell_setting 'monoclinic'
loop_
_space_group_symop_operation_xyz
x,y,z
-x,y,1/2-z
-x,-y,-z
x,-y,1/2+z
1/2+x,1/2+y,z
1/2-x,1/2+y,1/2-z
1/2-x,1/2-y,-z
1/2+x,1/2-y,1/2+z
loop_
_atom_site_type_symbol
_atom_site_label
_atom_site_fract_x
_atom_site_fract_y
_atom_site_fract_z
Si Si1 0.304069 0.104887 0.924482
Si Si2 0.633750 0.114738 0.087126
Si Si3 0.772020 0.792002 0.406298
Si Si4 0.919749 0.051454 0.072774
Si Si5 0.870730 0.452342 0.587412
Si Si6 0.417859 0.791445 0.408481
O O1 0.500000 0.098532 0.750000
O O2 0.304341 0.157137 0.979916
O O3 0.290267 0.062055 0.014755
O O4 0.088883 0.094500 0.975416
O O5 0.500000 0.137568 0.250000
O O6 0.753932 0.068974 0.072660
O O7 0.504173 0.092737 0.058308
O O8 0.764661 0.157209 0.969944
O O9 0.750000 0.750000 0.500000
O O10 0.600755 0.786400 0.401063
O O11 0.000000 0.787420 0.250000
O O12 0.820322 0.042097 0.237196
O O13 0.000000 0.000000 0.000000
O O14 0.000000 0.500000 0.500000
O O15 0.500000 0.788766 0.250000
O O16 0.250000 0.750000 0.500000
#
# Coordination Sequence:
#
# PCOD8149957 Si02
#       6
#     8   8   8   8   8   8
#     4  11  24  42  65  96 135 175 229 275 338 407
#     4  10  24  43  65  96 134 173 225 277 338 403
#     4  12  26  45  73 103 136 178 228 281 345 413
#     4  11  24  40  66 100 133 181 227 281 344 404
#     4  11  22  42  66  94 134 175 224 283 340 406
#     4  11  26  46  70 101 138 180 225 282 347 412
#
# _framework density 20.900580000000001
#
# number of rings (size 3 to 8) (size 9 to 14) (size 15 to 20)
#    0.000    1.000    1.667    4.000    7.000    4.000 
#    0.000    0.000    0.000    0.000    0.000    0.000 
#    0.000    0.000    0.000    0.000    0.000    0.000 
#
# Total GULP energy -297497.833481 kJ/mol
# GULP energy per Si atom -12395.743062 kJ/mol
# Density = 2.085301 g / cm^3
# Si number density = 20.900580 Si / 1000 Ang^3
#
#
#
# Elastic Constant Matrix: (Units=GPa)
#
#
# Indices 1 2 3 4 5 6 
#
# 1 100.1310 38.1224 35.5024 0.0000 -0.0947 0.0000
# 2 38.1224 140.6606 71.8995 0.0000 -0.0692 0.0000
# 3 35.5024 71.8995 144.0004 0.0000 -6.0918 0.0000
# 4 0.0000 0.0000 0.0000 45.3188 0.0000 -6.6104
# 5 -0.0947 -0.0692 -6.0918 0.0000 37.8320 0.0000
# 6 0.0000 0.0000 0.0000 -6.6104 0.0000 15.2425
#
#
#
# Elastic Compliance Matrix: (Units=1/GPa)
#
#
# Indices 1 2 3 4 5 6 
#
# 1 0.011443 -0.002221 -0.001723 0.000000 -0.000253 0.000000
# 2 -0.002221 0.009998 -0.004474 0.000000 -0.000708 0.000000
# 3 -0.001723 -0.004474 0.009669 0.000000 0.001544 0.000000
# 4 0.000000 0.000000 0.000000 0.023556 0.000000 0.010216
# 5 -0.000253 -0.000708 0.001544 0.000000 0.026679 0.000000
# 6 0.000000 0.000000 0.000000 0.010216 0.000000 0.070037
#
#
# Mechanical properties :
#
#
# Convention : Reuss Voigt Hill
#
# Bulk Modulus (GPa) = 70.06126 75.09341 72.57733
# Shear Modulus (GPa) = 28.90574 35.62984 32.26779
#
# Velocity S-wave (km/s) = 3.72292 4.13332 3.93347
# Velocity P-wave (km/s) = 7.21624 7.66720 7.44514
#
# Compressibility (1/GPa) = 0.01427322
#
# Stress axis : x y z
#
# Youngs Moduli (GPa) = 87.38889 100.02040 103.42678
#
# Poissons Ratio (x) = 0.22211 0.17822
# Poissons Ratio (y) = 0.19406 0.46278
# Poissons Ratio (z) = 0.15058 0.44753
#
# Static dielectric constant tensor:
#      x y z
#    x 4.507280 0.000000 -0.774830 
#    y 0.000000 4.373640 0.000000 
#    z -0.774830 0.000000 4.820210 
# 
# 
# High freq. dielectric constant tensor:
#      x y z
#    x 1.834630 0.000000 0.002170 
#    y 0.000000 1.831470 0.000000 
#    z 0.002170 0.000000 1.827050 
# 
# From -- ./inp_files/138873.got.cif
#   From: 2010.06.25/outbox.cif.g09.slc.cpg/sg15_70_cif.got.tgz:138873.got - 2010.06.28 07:06:18.
