data_PCOD8149228
_publ_section_title
;
Structure prediction by ZEFSAII (Michael W. Deem and Ramdas Pophale) SiO2 
 PCOD8149228
Probable space group: C 2/C
;
_chemical_formula_sum "Si O2"
_cell_formula_units_Z 40
_cell_length_a 16.945330
_cell_length_b 12.020864
_cell_length_c 8.593436
_cell_angle_alpha 90.000000
_cell_angle_beta 84.636118
_cell_angle_gamma 90.000000
_cell_volume 1742.796381
_symmetry_space_group_name_H-M "C 2/C"
_symmetry_group_IT_number 15
_symmetry_cell_setting 'monoclinic'
loop_
_space_group_symop_operation_xyz
x,y,z
-x,y,1/2-z
-x,-y,-z
x,-y,1/2+z
1/2+x,1/2+y,z
1/2-x,1/2+y,1/2-z
1/2-x,1/2-y,-z
1/2+x,1/2-y,1/2+z
loop_
_atom_site_type_symbol
_atom_site_label
_atom_site_fract_x
_atom_site_fract_y
_atom_site_fract_z
Si Si1 0.835303 0.894680 0.679129
Si Si2 0.382552 0.153651 0.579777
Si Si3 0.081220 0.058761 0.032457
Si Si4 0.458896 0.785873 0.595154
Si Si5 0.838974 0.553936 0.257898
O O1 0.837588 0.769514 0.614203
O O2 0.907173 0.919419 0.786194
O O3 0.751076 0.919838 0.774296
O O4 0.847057 0.979112 0.533786
O O5 0.476588 0.176261 0.545386
O O6 0.350491 0.092206 0.432407
O O7 0.362347 0.075937 0.731964
O O8 0.088078 0.177308 0.948632
O O9 0.000000 0.000000 0.000000
O O10 0.500000 0.756364 0.750000
O O11 0.395587 0.882889 0.626678
#
# Coordination Sequence:
#
# PCOD8149228 Si02
#       5
#     8   8   8   8   8
#     4  12  27  44  73 103 143 181 238 294 350 414
#     4  11  25  47  69 104 141 187 235 285 348 424
#     4  12  25  45  71 101 137 184 238 288 350 410
#     4  10  23  44  71  97 139 185 233 283 347 417
#     4  11  26  45  71 102 144 184 231 291 353 417
#
# _framework density 22.951620999999999
#
# number of rings (size 3 to 8) (size 9 to 14) (size 15 to 20)
#    0.000    0.800    2.000    4.200    8.400    0.800 
#    0.000    0.000    0.000    0.000    0.000    0.000 
#    0.000    0.000    0.000    0.000    0.000    0.000 
#
# Total GULP energy -248087.224377 kJ/mol
# GULP energy per Si atom -12404.361219 kJ/mol
# Density = 2.289938 g / cm^3
# Si number density = 22.951621 Si / 1000 Ang^3
#
#
#
# Elastic Constant Matrix: (Units=GPa)
#
#
# Indices 1 2 3 4 5 6 
#
# 1 93.2659 45.9692 27.0732 0.0000 -21.0881 0.0000
# 2 45.9692 183.9977 56.6845 0.0000 -12.3184 0.0000
# 3 27.0732 56.6845 92.2030 0.0000 -1.2666 0.0000
# 4 0.0000 0.0000 0.0000 45.4150 0.0000 -5.0660
# 5 -21.0881 -12.3184 -1.2666 0.0000 40.5476 0.0000
# 6 0.0000 0.0000 0.0000 -5.0660 0.0000 18.5008
#
#
#
# Elastic Compliance Matrix: (Units=1/GPa)
#
#
# Indices 1 2 3 4 5 6 
#
# 1 0.014091 -0.002263 -0.002656 0.000000 0.006558 0.000000
# 2 -0.002263 0.007219 -0.003761 0.000000 0.000899 0.000000
# 3 -0.002656 -0.003761 0.013909 0.000000 -0.002090 0.000000
# 4 0.000000 0.000000 0.000000 0.022713 0.000000 0.006219
# 5 0.006558 0.000899 -0.002090 0.000000 0.028281 0.000000
# 6 0.000000 0.000000 0.000000 0.006219 0.000000 0.055755
#
#
# Mechanical properties :
#
#
# Convention : Reuss Voigt Hill
#
# Bulk Modulus (GPa) = 55.99583 69.88004 62.93793
# Shear Modulus (GPa) = 30.25121 36.87533 33.56327
#
# Velocity S-wave (km/s) = 3.63442 4.01266 3.82822
# Velocity P-wave (km/s) = 6.48555 7.20981 6.85725
#
# Compressibility (1/GPa) = 0.01785847
#
# Stress axis : x y z
#
# Youngs Moduli (GPa) = 70.96532 138.51949 71.89464
#
# Poissons Ratio (x) = 0.31350 0.19096
# Poissons Ratio (y) = 0.16061 0.27042
# Poissons Ratio (z) = 0.18849 0.52102
#
# Static dielectric constant tensor:
#      x y z
#    x 4.069180 0.000000 -0.171720 
#    y 0.000000 4.379150 0.000000 
#    z -0.171720 0.000000 4.105760 
# 
# 
# High freq. dielectric constant tensor:
#      x y z
#    x 1.905180 0.000000 -0.007660 
#    y 0.000000 1.922500 0.000000 
#    z -0.007660 0.000000 1.905400 
# 
# From -- ./inp_files/46089.got.cif
#   From: 2010.06.25/outbox.cif.g09.slc.cpg/sg15_24_cif.got.tgz:46089.got - 2010.06.28 07:06:18.
