data_PCOD8149167
_publ_section_title
;
Structure prediction by ZEFSAII (Michael W. Deem and Ramdas Pophale) SiO2 
 PCOD8149167
Probable space group: C 2/C
;
_chemical_formula_sum "Si O2"
_cell_formula_units_Z 36
_cell_length_a 8.288714
_cell_length_b 23.826249
_cell_length_c 8.279115
_cell_angle_alpha 90.000000
_cell_angle_beta 72.282639
_cell_angle_gamma 90.000000
_cell_volume 1557.483064
_symmetry_space_group_name_H-M "C 2/C"
_symmetry_group_IT_number 15
_symmetry_cell_setting 'monoclinic'
loop_
_space_group_symop_operation_xyz
x,y,z
-x,y,1/2-z
-x,-y,-z
x,-y,1/2+z
1/2+x,1/2+y,z
1/2-x,1/2+y,1/2-z
1/2-x,1/2-y,-z
1/2+x,1/2-y,1/2+z
loop_
_atom_site_type_symbol
_atom_site_label
_atom_site_fract_x
_atom_site_fract_y
_atom_site_fract_z
Si Si1 0.552330 0.742054 0.059197
Si Si2 0.733144 0.952501 0.422990
Si Si3 0.500000 0.804329 0.750000
Si Si4 0.660951 0.365625 0.897527
Si Si5 0.500000 0.462380 0.750000
Si Si6 0.000000 0.495711 0.250000
O O1 0.500000 0.767787 0.250000
O O2 0.496902 0.676612 0.067302
O O3 0.750000 0.750000 0.000000
O O4 0.467546 0.769471 0.925683
O O5 0.802693 0.888732 0.431587
O O6 0.649755 0.955558 0.271410
O O7 0.882567 0.998179 0.397223
O O8 0.579063 0.963508 0.592774
O O9 0.329590 0.838873 0.769536
O O10 0.623475 0.423607 0.817135
#
# Coordination Sequence:
#
# PCOD8149167 Si02
#       6
#     8   8   4   8   4   4
#     4  12  26  53  79 109 148 193 253 321 379 450
#     4  11  24  45  70 105 149 193 241 299 355 448
#     4  12  27  51  76 110 150 189 260 325 372 450
#     4  12  25  46  76 107 147 199 242 306 387 434
#     4  12  24  45  70 107 153 191 242 296 362 452
#     4  10  23  44  68  97 153 190 242 293 350 422
#
# _framework density 23.114215999999999
#
# number of rings (size 3 to 8) (size 9 to 14) (size 15 to 20)
#    0.000    0.444    5.556    2.000    3.111    0.889 
#    2.000    0.000    0.000    0.000    0.000    0.000 
#    0.000    0.000    0.000    0.000    0.000    0.000 
#
# Total GULP energy -223100.749027 kJ/mol
# GULP energy per Si atom -12394.486057 kJ/mol
# Density = 2.306161 g / cm^3
# Si number density = 23.114216 Si / 1000 Ang^3
#
#
#
# Elastic Constant Matrix: (Units=GPa)
#
#
# Indices 1 2 3 4 5 6 
#
# 1 134.5836 49.8953 39.2049 0.0000 -11.7952 0.0000
# 2 49.8953 112.0341 41.1741 0.0000 -8.3924 0.0000
# 3 39.2049 41.1741 118.2739 0.0000 2.4013 0.0000
# 4 0.0000 0.0000 0.0000 35.5619 0.0000 10.3308
# 5 -11.7952 -8.3924 2.4013 0.0000 49.2190 0.0000
# 6 0.0000 0.0000 0.0000 10.3308 0.0000 30.5474
#
#
#
# Elastic Compliance Matrix: (Units=1/GPa)
#
#
# Indices 1 2 3 4 5 6 
#
# 1 0.009398 -0.003318 -0.001996 0.000000 0.001784 0.000000
# 2 -0.003318 0.011592 -0.002962 0.000000 0.001326 0.000000
# 3 -0.001996 -0.002962 0.010178 0.000000 -0.001480 0.000000
# 4 0.000000 0.000000 0.000000 0.031184 0.000000 -0.010546
# 5 0.001784 0.001326 -0.001480 0.000000 0.021043 0.000000
# 6 0.000000 0.000000 0.000000 -0.010546 0.000000 0.036303
#
#
# Mechanical properties :
#
#
# Convention : Reuss Voigt Hill
#
# Bulk Modulus (GPa) = 68.42720 69.49335 68.96027
# Shear Modulus (GPa) = 35.43010 38.70682 37.06846
#
# Velocity S-wave (km/s) = 3.91938 4.09661 4.00898
# Velocity P-wave (km/s) = 7.08169 7.24616 7.16439
#
# Compressibility (1/GPa) = 0.01461407
#
# Stress axis : x y z
#
# Youngs Moduli (GPa) = 106.40029 86.26843 98.25098
#
# Poissons Ratio (x) = 0.28627 0.19615
# Poissons Ratio (y) = 0.35307 0.29105
# Poissons Ratio (z) = 0.21242 0.25556
#
# Static dielectric constant tensor:
#      x y z
#    x 4.515740 0.000000 0.335200 
#    y 0.000000 4.136850 0.000000 
#    z 0.335200 0.000000 4.143000 
# 
# 
# High freq. dielectric constant tensor:
#      x y z
#    x 1.943780 0.000000 0.009270 
#    y 0.000000 1.895090 0.000000 
#    z 0.009270 0.000000 1.908420 
# 
# From -- ./inp_files/23355.got.cif
#   From: 2010.06.25/outbox.cif.g09.slc.cpg/sg15_12_cif.got.tgz:23355.got - 2010.06.28 07:06:18.
