data_PCOD8149155
_publ_section_title
;
Structure prediction by ZEFSAII (Michael W. Deem and Ramdas Pophale) SiO2 
 PCOD8149155
Probable space group: C 2/C
;
_chemical_formula_sum "Si O2"
_cell_formula_units_Z 36
_cell_length_a 15.025944
_cell_length_b 8.820164
_cell_length_c 19.624565
_cell_angle_alpha 90.000000
_cell_angle_beta 141.040059
_cell_angle_gamma 90.000000
_cell_volume 1635.366264
_symmetry_space_group_name_H-M "C 2/C"
_symmetry_group_IT_number 15
_symmetry_cell_setting 'monoclinic'
loop_
_space_group_symop_operation_xyz
x,y,z
-x,y,1/2-z
-x,-y,-z
x,-y,1/2+z
1/2+x,1/2+y,z
1/2-x,1/2+y,1/2-z
1/2-x,1/2-y,-z
1/2+x,1/2-y,1/2+z
loop_
_atom_site_type_symbol
_atom_site_label
_atom_site_fract_x
_atom_site_fract_y
_atom_site_fract_z
Si Si1 0.898022 0.079825 0.571427
Si Si2 0.080545 0.455464 0.116359
Si Si3 0.000000 0.093085 0.250000
Si Si4 0.415148 0.908503 0.630614
Si Si5 0.135862 0.138715 0.198322
O O1 0.746732 0.053292 0.445620
O O2 0.930005 0.257794 0.593450
O O3 0.889551 0.015790 0.643964
O O4 0.022937 0.989805 0.605488
O O5 0.134917 0.280941 0.146095
O O6 0.208906 0.569147 0.206998
O O7 0.974804 0.459782 0.117738
O O8 0.000000 0.500000 0.000000
O O9 0.090036 0.190660 0.248502
O O10 0.500000 0.892639 0.750000
#
# Coordination Sequence:
#
# PCOD8149155 Si02
#       5
#     8   8   4   8   8
#     4   9  20  40  67  94 136 176 223 279 334 407
#     4  12  27  43  68 102 139 177 228 290 339 399
#     4   8  18  42  70  90 128 184 216 274 326 412
#     4  11  22  38  66 101 132 179 228 276 342 409
#     4  10  23  44  68  94 138 177 224 278 343 398
#
# _framework density 22.013418999999999
#
# number of rings (size 3 to 8) (size 9 to 14) (size 15 to 20)
#    1.333    0.444    1.111    2.667    1.556    6.222 
#    0.000    3.333    0.000    0.000    0.000    0.000 
#    0.000    0.000    0.000    0.000    0.000    0.000 
#
# Total GULP energy -223063.903484 kJ/mol
# GULP energy per Si atom -12392.439082 kJ/mol
# Density = 2.196332 g / cm^3
# Si number density = 22.013419 Si / 1000 Ang^3
#
#
#
# Elastic Constant Matrix: (Units=GPa)
#
#
# Indices 1 2 3 4 5 6 
#
# 1 44.7023 7.8501 29.5017 0.0000 12.5772 0.0000
# 2 7.8501 108.1174 53.1861 0.0000 13.0123 0.0000
# 3 29.5017 53.1861 179.1092 0.0000 30.1608 0.0000
# 4 0.0000 0.0000 0.0000 32.2898 0.0000 3.5939
# 5 12.5772 13.0123 30.1608 0.0000 21.9485 0.0000
# 6 0.0000 0.0000 0.0000 3.5939 0.0000 27.9192
#
#
#
# Elastic Compliance Matrix: (Units=1/GPa)
#
#
# Indices 1 2 3 4 5 6 
#
# 1 0.027527 0.000826 -0.002655 0.000000 -0.012615 0.000000
# 2 0.000826 0.010972 -0.002887 0.000000 -0.003010 0.000000
# 3 -0.002655 -0.002887 0.008240 0.000000 -0.008090 0.000000
# 4 0.000000 0.000000 0.000000 0.031420 0.000000 -0.004044
# 5 -0.012615 -0.003010 -0.008090 0.000000 0.065692 0.000000
# 6 0.000000 0.000000 0.000000 -0.004044 0.000000 0.036338
#
#
# Mechanical properties :
#
#
# Convention : Reuss Voigt Hill
#
# Bulk Modulus (GPa) = 26.80550 57.00054 41.90302
# Shear Modulus (GPa) = 24.74555 32.52424 28.63490
#
# Velocity S-wave (km/s) = 3.35642 3.84796 3.61056
# Velocity P-wave (km/s) = 5.21766 6.75960 6.03805
#
# Compressibility (1/GPa) = 0.03730577
#
# Stress axis : x y z
#
# Youngs Moduli (GPa) = 36.32854 91.14242 121.35682
#
# Poissons Ratio (x) = -0.07525 0.32219
# Poissons Ratio (y) = -0.02999 0.35037
# Poissons Ratio (z) = 0.09645 0.26314
#
# Static dielectric constant tensor:
#      x y z
#    x 3.670490 0.000000 0.134340 
#    y 0.000000 3.775680 0.000000 
#    z 0.134340 0.000000 3.884000 
# 
# 
# High freq. dielectric constant tensor:
#      x y z
#    x 1.845630 0.000000 0.011780 
#    y 0.000000 1.858930 0.000000 
#    z 0.011780 0.000000 1.872040 
# 
# From -- ./inp_files/242890.got.cif
#   From: 2010.06.25/outbox.cif.g09.slc.cpg/sg15_122_cif.got.tgz:242890.got - 2010.06.28 07:06:18.
