data_PCOD8149484
_publ_section_title
;
Structure prediction by ZEFSAII (Michael W. Deem and Ramdas Pophale) SiO2 
 PCOD8149484
Probable space group: C 2/C
;
_chemical_formula_sum "Si O2"
_cell_formula_units_Z 40
_cell_length_a 16.208392
_cell_length_b 8.326563
_cell_length_c 14.770515
_cell_angle_alpha 90.000000
_cell_angle_beta 56.723749
_cell_angle_gamma 90.000000
_cell_volume 1666.578319
_symmetry_space_group_name_H-M "C 2/C"
_symmetry_group_IT_number 15
_symmetry_cell_setting 'monoclinic'
loop_
_space_group_symop_operation_xyz
x,y,z
-x,y,1/2-z
-x,-y,-z
x,-y,1/2+z
1/2+x,1/2+y,z
1/2-x,1/2+y,1/2-z
1/2-x,1/2-y,-z
1/2+x,1/2-y,1/2+z
loop_
_atom_site_type_symbol
_atom_site_label
_atom_site_fract_x
_atom_site_fract_y
_atom_site_fract_z
Si Si1 0.865307 0.875000 0.749999
Si Si2 0.309331 0.375000 0.131337
Si Si3 0.385323 0.874999 0.979355
Si Si4 0.170129 0.063618 0.561763
Si Si5 0.981891 0.313619 0.438238
O O1 0.787833 0.729385 0.793344
O O2 0.974830 0.817760 0.655991
O O3 0.831178 0.020614 0.706654
O O4 0.880821 0.932240 0.844007
O O5 0.294374 0.491680 0.054958
O O6 0.400666 0.258317 0.054959
O O7 0.406179 0.712813 0.908478
O O8 0.435343 0.037186 0.908478
O O9 0.267376 0.882169 0.057533
O O10 0.425091 0.867830 0.057533
#
# Coordination Sequence:
#
# PCOD8149484 Si02
#       5
#     8   8   8   8   8
#     4  12  26  45  78 109 150 202 244 300 390 429
#     4  12  27  47  72 109 149 199 244 315 362 446
#     4  10  23  46  77 103 149 190 246 316 356 430
#     4  11  24  49  74 109 149 192 246 314 362 443
#     4  11  24  49  74 109 149 192 246 314 362 443
#
# _framework density 24.001273000000001
#
# number of rings (size 3 to 8) (size 9 to 14) (size 15 to 20)
#    0.000    0.800    4.000    2.400    5.600    0.800 
#    0.000    2.000    0.000    0.000    0.000    0.000 
#    0.000    0.000    0.000    0.000    0.000    0.000 
#
# Total GULP energy -247972.351928 kJ/mol
# GULP energy per Si atom -12398.617596 kJ/mol
# Density = 2.394665 g / cm^3
# Si number density = 24.001273 Si / 1000 Ang^3
#
#
#
# Elastic Constant Matrix: (Units=GPa)
#
#
# Indices 1 2 3 4 5 6 
#
# 1 96.8437 49.8419 18.3073 0.0000 3.8456 0.0000
# 2 49.8419 176.4522 40.7889 0.0000 0.8491 -0.0001
# 3 18.3073 40.7889 87.3977 0.0000 -2.9589 0.0000
# 4 0.0000 0.0000 0.0000 22.7111 0.0000 3.5616
# 5 3.8456 0.8491 -2.9589 0.0000 19.3793 0.0000
# 6 0.0000 -0.0001 0.0000 3.5616 0.0000 60.7455
#
#
#
# Elastic Compliance Matrix: (Units=1/GPa)
#
#
# Indices 1 2 3 4 5 6 
#
# 1 0.012286 -0.003188 -0.001170 0.000000 -0.002477 0.000000
# 2 -0.003188 0.007190 -0.002691 0.000000 -0.000093 0.000000
# 3 -0.001170 -0.002691 0.013022 0.000000 0.002338 0.000000
# 4 0.000000 0.000000 0.000000 0.044440 0.000000 -0.002606
# 5 -0.002477 -0.000093 0.002338 0.000000 0.052454 0.000000
# 6 0.000000 0.000000 0.000000 -0.002606 0.000000 0.016615
#
#
# Mechanical properties :
#
#
# Convention : Reuss Voigt Hill
#
# Bulk Modulus (GPa) = 54.34494 64.28557 59.31525
# Shear Modulus (GPa) = 30.07722 37.35087 33.71405
#
# Velocity S-wave (km/s) = 3.54383 3.94915 3.75197
# Velocity P-wave (km/s) = 6.27986 6.90194 6.59824
#
# Compressibility (1/GPa) = 0.01840098
#
# Stress axis : x y z
#
# Youngs Moduli (GPa) = 81.39211 139.07553 76.79292
#
# Poissons Ratio (x) = 0.44340 0.08981
# Poissons Ratio (y) = 0.25949 0.20666
# Poissons Ratio (z) = 0.09519 0.37426
#
# Static dielectric constant tensor:
#      x y z
#    x 4.291210 0.000000 0.014790 
#    y 0.000000 4.831240 0.000000 
#    z 0.014790 0.000000 4.133310 
# 
# 
# High freq. dielectric constant tensor:
#      x y z
#    x 1.966500 0.000000 0.003530 
#    y 0.000000 1.973850 0.000000 
#    z 0.003530 0.000000 1.928780 
# 
# From -- ./inp_files/150582.got.cif
#   From: 2010.06.25/outbox.cif.g09.slc.cpg/sg15_76_cif.got.tgz:150582.got - 2010.06.28 07:06:18.
