data_PCOD8149434
_publ_section_title
;
Structure prediction by ZEFSAII (Michael W. Deem and Ramdas Pophale) SiO2 
 PCOD8149434
Probable space group: C 2/C
;
_chemical_formula_sum "Si O2"
_cell_formula_units_Z 60
_cell_length_a 13.606471
_cell_length_b 9.439918
_cell_length_c 22.166021
_cell_angle_alpha 90.000000
_cell_angle_beta 107.996339
_cell_angle_gamma 90.000000
_cell_volume 2707.801370
_symmetry_space_group_name_H-M "C 2/C"
_symmetry_group_IT_number 15
_symmetry_cell_setting 'monoclinic'
loop_
_space_group_symop_operation_xyz
x,y,z
-x,y,1/2-z
-x,-y,-z
x,-y,1/2+z
1/2+x,1/2+y,z
1/2-x,1/2+y,1/2-z
1/2-x,1/2-y,-z
1/2+x,1/2-y,1/2+z
loop_
_atom_site_type_symbol
_atom_site_label
_atom_site_fract_x
_atom_site_fract_y
_atom_site_fract_z
Si Si1 0.959932 0.812122 0.145794
Si Si2 0.345931 0.203052 0.753462
Si Si3 0.229209 0.743596 0.628699
Si Si4 0.943348 0.861977 0.466325
Si Si5 0.966152 0.379212 0.449724
Si Si6 0.493017 0.004317 0.669293
Si Si7 0.742103 0.066219 0.869184
Si Si8 0.000000 0.949669 0.750000
O O1 0.836723 0.807613 0.122106
O O2 0.999671 0.663929 0.182543
O O3 0.002574 0.818259 0.086219
O O4 0.992023 0.950223 0.189816
O O5 0.290811 0.193447 0.807121
O O6 0.252921 0.164386 0.689843
O O7 0.399419 0.351858 0.744146
O O8 0.434525 0.078849 0.765866
O O9 0.148796 0.684910 0.563449
O O10 0.216186 0.910348 0.633848
O O11 0.819351 0.871332 0.434157
O O12 0.954687 0.748110 0.522148
O O13 0.000000 0.000000 0.500000
O O14 0.000000 0.500000 0.500000
O O15 0.956762 0.445046 0.382616
O O16 0.378143 0.065511 0.636469
#
# Coordination Sequence:
#
# PCOD8149434 Si02
#       8
#     8   8   8   8   8   8   8   4
#     4  11  27  44  69 102 138 186 231 282 351 422
#     4  11  24  44  69 102 142 174 230 292 346 418
#     4  10  25  43  70  98 135 185 229 279 345 416
#     4  12  26  44  70 102 143 181 235 292 345 407
#     4  11  23  46  70  98 137 177 233 292 334 414
#     4  10  23  46  69 100 134 183 230 281 354 416
#     4  11  23  42  70  98 134 185 223 283 352 406
#     4  12  26  42  68 106 146 168 228 298 352 414
#
# _framework density 22.158199
#
# number of rings (size 3 to 8) (size 9 to 14) (size 15 to 20)
#    0.000    1.067    4.000    0.800    9.333    3.200 
#    0.000    0.000    0.000    0.000    0.000    0.000 
#    0.000    0.000    0.000    0.000    0.000    0.000 
#
# Total GULP energy -371700.791235 kJ/mol
# GULP energy per Si atom -12390.026375 kJ/mol
# Density = 2.210777 g / cm^3
# Si number density = 22.158199 Si / 1000 Ang^3
#
#
#
# Elastic Constant Matrix: (Units=GPa)
#
#
# Indices 1 2 3 4 5 6 
#
# 1 71.8644 24.0624 13.1102 0.0000 17.9270 0.0000
# 2 24.0624 138.0419 38.5689 0.0000 30.9890 0.0000
# 3 13.1102 38.5689 78.6420 0.0000 33.2070 0.0000
# 4 0.0000 0.0000 0.0000 48.2907 0.0000 3.6053
# 5 17.9270 30.9890 33.2070 0.0000 43.0206 0.0000
# 6 0.0000 0.0000 0.0000 3.6053 0.0000 31.4932
#
#
#
# Elastic Compliance Matrix: (Units=1/GPa)
#
#
# Indices 1 2 3 4 5 6 
#
# 1 0.015815 -0.001607 0.000661 0.000000 -0.005943 0.000000
# 2 -0.001607 0.009118 -0.002542 0.000000 -0.003936 0.000000
# 3 0.000661 -0.002542 0.019576 0.000000 -0.013555 0.000000
# 4 0.000000 0.000000 0.000000 0.020886 0.000000 -0.002391
# 5 -0.005943 -0.003936 -0.013555 0.000000 0.039019 0.000000
# 6 0.000000 0.000000 0.000000 -0.002391 0.000000 0.032027
#
#
# Mechanical properties :
#
#
# Convention : Reuss Voigt Hill
#
# Bulk Modulus (GPa) = 26.64307 48.89234 37.76771
# Shear Modulus (GPa) = 32.06593 38.74802 35.40697
#
# Velocity S-wave (km/s) = 3.80825 4.18628 4.00173
# Velocity P-wave (km/s) = 5.60242 6.74386 6.19947
#
# Compressibility (1/GPa) = 0.03753321
#
# Stress axis : x y z
#
# Youngs Moduli (GPa) = 63.23053 109.67067 51.08327
#
# Poissons Ratio (x) = 0.17629 -0.03378
# Poissons Ratio (y) = 0.10164 0.12984
# Poissons Ratio (z) = -0.04181 0.27876
#
# Static dielectric constant tensor:
#      x y z
#    x 3.988610 0.000000 0.114740 
#    y 0.000000 4.097450 0.000000 
#    z 0.114740 0.000000 3.850830 
# 
# 
# High freq. dielectric constant tensor:
#      x y z
#    x 1.872730 0.000000 0.009760 
#    y 0.000000 1.884630 0.000000 
#    z 0.009760 0.000000 1.878710 
# 
# From -- ./inp_files/273219.got.cif
#   From: 2010.06.25/outbox.cif.g09.slc.cpg/sg15_137_cif.got.tgz:273219.got - 2010.06.28 07:06:18.
