data_PCOD8149642
_publ_section_title
;
Structure prediction by ZEFSAII (Michael W. Deem and Ramdas Pophale) SiO2 
 PCOD8149642
Probable space group: C 2/C
;
_chemical_formula_sum "Si O2"
_cell_formula_units_Z 40
_cell_length_a 13.194060
_cell_length_b 18.443429
_cell_length_c 19.528120
_cell_angle_alpha 90.000000
_cell_angle_beta 158.064102
_cell_angle_gamma 90.000000
_cell_volume 1775.216917
_symmetry_space_group_name_H-M "C 2/C"
_symmetry_group_IT_number 15
_symmetry_cell_setting 'monoclinic'
loop_
_space_group_symop_operation_xyz
x,y,z
-x,y,1/2-z
-x,-y,-z
x,-y,1/2+z
1/2+x,1/2+y,z
1/2-x,1/2+y,1/2-z
1/2-x,1/2-y,-z
1/2+x,1/2-y,1/2+z
loop_
_atom_site_type_symbol
_atom_site_label
_atom_site_fract_x
_atom_site_fract_y
_atom_site_fract_z
Si Si1 0.270011 0.281099 0.379233
Si Si2 0.696237 0.576871 0.671267
Si Si3 0.173918 0.997501 0.791565
Si Si4 0.622544 0.064595 0.256151
Si Si5 0.218258 0.847670 0.756684
O O1 0.200639 0.341574 0.276977
O O2 0.365235 0.207554 0.400677
O O3 0.492507 0.303540 0.573664
O O4 0.000000 0.261394 0.250000
O O5 0.593794 0.558502 0.684262
O O6 0.448596 0.568615 0.463233
O O7 0.938626 0.519527 0.802216
O O8 0.087504 0.916468 0.714550
O O9 0.000000 0.017719 0.750000
O O10 0.500000 0.000000 0.000000
O O11 0.500000 0.091430 0.250000
O O12 0.547503 0.120407 0.148069
#
# Coordination Sequence:
#
# PCOD8149642 Si02
#       5
#     8   8   8   8   8
#     4  11  22  39  66  91 131 166 217 269 327 386
#     4   9  21  35  60  90 115 165 210 256 324 374
#     4  11  26  42  66  97 134 167 219 274 325 384
#     4   9  18  38  61  84 121 157 211 261 311 382
#     4  10  24  40  62  97 124 171 215 268 325 388
#
# _framework density 22.532456
#
# number of rings (size 3 to 8) (size 9 to 14) (size 15 to 20)
#    0.000    2.000    0.000    3.000   11.200    0.000 
#    0.000    5.000    0.000    0.000    0.000    0.000 
#    0.000    0.000    0.000    0.000    0.000    0.000 
#
# Total GULP energy -247780.291436 kJ/mol
# GULP energy per Si atom -12389.014572 kJ/mol
# Density = 2.248117 g / cm^3
# Si number density = 22.532456 Si / 1000 Ang^3
#
#
#
# Elastic Constant Matrix: (Units=GPa)
#
#
# Indices 1 2 3 4 5 6 
#
# 1 160.1322 55.6386 3.8588 0.1341 -7.0262 0.0649
# 2 55.6386 123.1013 15.4389 0.2321 -7.4330 0.0548
# 3 3.8588 15.4389 49.8967 0.1731 -8.4301 -0.0520
# 4 0.1341 0.2321 0.1731 28.4671 0.0504 -16.2467
# 5 -7.0262 -7.4330 -8.4301 0.0504 28.0078 0.0047
# 6 0.0649 0.0548 -0.0520 -16.2467 0.0047 36.9948
#
#
#
# Elastic Compliance Matrix: (Units=1/GPa)
#
#
# Indices 1 2 3 4 5 6 
#
# 1 0.007456 -0.003383 0.000668 -0.000024 0.001174 -0.000018
# 2 -0.003383 0.010049 -0.002676 -0.000079 0.001013 -0.000047
# 3 0.000668 -0.002676 0.021837 -0.000142 0.006030 -0.000029
# 4 -0.000024 -0.000079 -0.000142 0.046880 -0.000157 0.020588
# 5 0.001174 0.001013 0.006030 -0.000157 0.038083 -0.000069
# 6 -0.000018 -0.000047 -0.000029 0.020588 -0.000069 0.036072
#
#
# Mechanical properties :
#
#
# Convention : Reuss Voigt Hill
#
# Bulk Modulus (GPa) = 35.01310 53.66697 44.34004
# Shear Modulus (GPa) = 27.67342 35.90687 31.79015
#
# Velocity S-wave (km/s) = 3.50831 3.99628 3.76022
# Velocity P-wave (km/s) = 5.65541 6.72034 6.21074
#
# Compressibility (1/GPa) = 0.02856074
#
# Stress axis : x y z
#
# Youngs Moduli (GPa) = 134.12778 99.50985 45.79352
#
# Poissons Ratio (x) = 0.33661 -0.03061
# Poissons Ratio (y) = 0.45370 0.12256
# Poissons Ratio (z) = -0.08966 0.26633
#
# Static dielectric constant tensor:
#      x y z
#    x 4.109850 -0.000050 -0.366330 
#    y -0.000050 4.386000 -0.000430 
#    z -0.366330 -0.000430 3.838390 
# 
# 
# High freq. dielectric constant tensor:
#      x y z
#    x 1.894370 0.000000 -0.027130 
#    y 0.000000 1.887820 -0.000040 
#    z -0.027130 -0.000040 1.859420 
# 
# From -- ./inp_files/98526.got.cif
#   From: 2010.06.25/outbox.cif.g09.slc.cpg/sg15_50_cif.got.tgz:98526.got - 2010.06.28 07:06:18.
