data_PCOD8149472
_publ_section_title
;
Structure prediction by ZEFSAII (Michael W. Deem and Ramdas Pophale) SiO2 
 PCOD8149472
Probable space group: C 2/C
;
_chemical_formula_sum "Si O2"
_cell_formula_units_Z 40
_cell_length_a 8.232753
_cell_length_b 14.450200
_cell_length_c 21.274685
_cell_angle_alpha 90.000000
_cell_angle_beta 144.111767
_cell_angle_gamma 90.000000
_cell_volume 1483.652968
_symmetry_space_group_name_H-M "C 2/C"
_symmetry_group_IT_number 15
_symmetry_cell_setting 'monoclinic'
loop_
_space_group_symop_operation_xyz
x,y,z
-x,y,1/2-z
-x,-y,-z
x,-y,1/2+z
1/2+x,1/2+y,z
1/2-x,1/2+y,1/2-z
1/2-x,1/2-y,-z
1/2+x,1/2-y,1/2+z
loop_
_atom_site_type_symbol
_atom_site_label
_atom_site_fract_x
_atom_site_fract_y
_atom_site_fract_z
Si Si1 0.626256 0.677506 0.010236
Si Si2 0.571272 0.488139 0.402705
Si Si3 0.327933 0.119273 0.274830
Si Si4 0.132050 0.545736 0.624014
Si Si5 0.019160 0.697051 0.826843
O O1 0.855362 0.656729 0.136801
O O2 0.750000 0.750000 0.000000
O O3 0.535976 0.583987 0.947120
O O4 0.338797 0.713293 0.949913
O O5 0.292651 0.551000 0.316578
O O6 0.618186 0.439668 0.348378
O O7 0.835312 0.554575 0.496657
O O8 0.126204 0.204683 0.219075
O O9 0.339324 0.059828 0.342573
O O10 0.144454 0.624195 0.681356
O O11 0.000000 0.657060 0.750000
#
# Coordination Sequence:
#
# PCOD8149472 Si02
#       5
#     8   8   8   8   8
#     4  11  25  45  74 108 147 198 247 304 379 446
#     4  10  23  46  73  98 149 192 247 304 372 445
#     4  11  24  45  73 104 149 200 246 302 381 443
#     4  10  24  43  75 104 139 198 250 300 371 453
#     4  12  24  44  77 106 151 194 247 312 374 440
#
# _framework density 26.960481999999999
#
# number of rings (size 3 to 8) (size 9 to 14) (size 15 to 20)
#    0.000    1.200    2.000    3.000    5.600    4.000 
#    0.000    3.000    0.000    0.000    0.000    0.000 
#    0.000    0.000    0.000    0.000    0.000    0.000 
#
# Total GULP energy -247956.858521 kJ/mol
# GULP energy per Si atom -12397.842926 kJ/mol
# Density = 2.689912 g / cm^3
# Si number density = 26.960482 Si / 1000 Ang^3
#
#
#
# Elastic Constant Matrix: (Units=GPa)
#
#
# Indices 1 2 3 4 5 6 
#
# 1 70.5187 39.6380 45.5569 -0.0002 14.1071 0.0000
# 2 39.6380 141.6430 91.2301 0.0000 10.9277 -0.0002
# 3 45.5569 91.2301 180.3975 -0.0007 59.7590 -0.0009
# 4 -0.0002 0.0000 -0.0007 50.7510 -0.0001 7.7048
# 5 14.1071 10.9277 59.7590 -0.0001 48.4730 -0.0002
# 6 0.0000 -0.0002 -0.0009 7.7048 -0.0002 28.5157
#
#
#
# Elastic Compliance Matrix: (Units=1/GPa)
#
#
# Indices 1 2 3 4 5 6 
#
# 1 0.017888 -0.003454 -0.002204 0.000000 -0.001710 0.000000
# 2 -0.003454 0.012785 -0.008403 0.000000 0.008483 0.000000
# 3 -0.002204 -0.008403 0.016074 0.000000 -0.017281 0.000000
# 4 0.000000 0.000000 0.000000 0.020547 0.000000 -0.005552
# 5 -0.001710 0.008483 -0.017281 0.000000 0.040519 0.000000
# 6 0.000000 0.000000 0.000000 -0.005552 0.000000 0.036568
#
#
# Mechanical properties :
#
#
# Convention : Reuss Voigt Hill
#
# Bulk Modulus (GPa) = 53.69452 82.82323 68.25888
# Shear Modulus (GPa) = 27.97798 39.95688 33.96743
#
# Velocity S-wave (km/s) = 3.22489 3.85392 3.55335
# Velocity P-wave (km/s) = 5.81600 7.11270 6.49678
#
# Compressibility (1/GPa) = 0.01862387
#
# Stress axis : x y z
#
# Youngs Moduli (GPa) = 55.90256 78.21972 62.21304
#
# Poissons Ratio (x) = 0.27021 0.13711
# Poissons Ratio (y) = 0.19311 0.52277
# Poissons Ratio (z) = 0.12320 0.65728
#
# Static dielectric constant tensor:
#      x y z
#    x 4.590510 0.000000 0.271930 
#    y 0.000000 4.692550 0.000000 
#    z 0.271930 0.000000 5.829120 
# 
# 
# High freq. dielectric constant tensor:
#      x y z
#    x 2.059060 0.000000 0.019220 
#    y 0.000000 2.080000 0.000000 
#    z 0.019220 0.000000 2.122400 
# 
# From -- ./inp_files/264532.got.cif
#   From: 2010.06.25/outbox.cif.g09.slc.cpg/sg15_133_cif.got.tgz:264532.got - 2010.06.28 07:06:18.
