data_PCOD8149875
_publ_section_title
;
Structure prediction by ZEFSAII (Michael W. Deem and Ramdas Pophale) SiO2 
 PCOD8149875
Probable space group: C 2/C
;
_chemical_formula_sum "Si O2"
_cell_formula_units_Z 40
_cell_length_a 21.139300
_cell_length_b 20.761335
_cell_length_c 9.073783
_cell_angle_alpha 90.000000
_cell_angle_beta 152.599264
_cell_angle_gamma 90.000000
_cell_volume 1832.700257
_symmetry_space_group_name_H-M "C 2/C"
_symmetry_group_IT_number 15
_symmetry_cell_setting 'monoclinic'
loop_
_space_group_symop_operation_xyz
x,y,z
-x,y,1/2-z
-x,-y,-z
x,-y,1/2+z
1/2+x,1/2+y,z
1/2-x,1/2+y,1/2-z
1/2-x,1/2-y,-z
1/2+x,1/2-y,1/2+z
loop_
_atom_site_type_symbol
_atom_site_label
_atom_site_fract_x
_atom_site_fract_y
_atom_site_fract_z
Si Si1 0.739457 0.542435 0.668297
Si Si2 0.000000 0.035301 0.750000
Si Si3 0.500000 0.246686 0.250000
Si Si4 0.160001 0.566482 0.305201
Si Si5 0.206756 0.143086 0.164713
Si Si6 0.892682 0.641175 0.815121
O O1 0.585719 0.512689 0.317185
O O2 0.851162 0.493784 0.829180
O O3 0.768909 0.612859 0.661010
O O4 0.753065 0.545683 0.872416
O O5 0.884295 0.085270 0.446528
O O6 0.626503 0.291455 0.467233
O O7 0.541522 0.203899 0.475649
O O8 0.238264 0.623781 0.382267
O O9 0.008296 0.586927 0.037863
O O10 0.333060 0.159639 0.533230
#
# Coordination Sequence:
#
# PCOD8149875 Si02
#       6
#     8   4   4   8   8   8
#     4  11  22  39  66  96 138 166 212 265 327 386
#     4   9  22  40  60  96 126 169 210 262 316 385
#     4  11  24  46  68  92 132 169 226 266 312 389
#     4  11  23  41  65 100 131 170 212 266 326 387
#     4  10  24  42  68  90 129 176 217 265 321 375
#     4  12  23  43  65  98 129 173 214 270 324 380
#
# _framework density 21.825718999999999
#
# number of rings (size 3 to 8) (size 9 to 14) (size 15 to 20)
#    0.000    1.200    2.000    4.200    0.000   12.800 
#    0.000    0.000    0.000    0.000    0.000    0.000 
#    0.000    0.000    0.000    0.000    0.000    0.000 
#
# Total GULP energy -247871.866185 kJ/mol
# GULP energy per Si atom -12393.593309 kJ/mol
# Density = 2.177604 g / cm^3
# Si number density = 21.825719 Si / 1000 Ang^3
#
#
#
# Elastic Constant Matrix: (Units=GPa)
#
#
# Indices 1 2 3 4 5 6 
#
# 1 113.3416 55.9025 39.0520 0.0000 -7.9320 0.0000
# 2 55.9025 114.4385 39.2309 0.0000 4.1394 0.0000
# 3 39.0520 39.2309 87.6815 0.0000 -2.6719 0.0000
# 4 0.0000 0.0000 0.0000 19.6695 0.0000 25.5732
# 5 -7.9320 4.1394 -2.6719 0.0000 40.5260 0.0000
# 6 0.0000 0.0000 0.0000 25.5732 0.0000 11.6938
#
#
#
# Elastic Compliance Matrix: (Units=1/GPa)
#
#
# Indices 1 2 3 4 5 6 
#
# 1 0.012698 -0.005191 -0.003248 0.000000 0.002801 0.000000
# 2 -0.005191 0.012519 -0.003366 0.000000 -0.002517 0.000000
# 3 -0.003248 -0.003366 0.014377 0.000000 0.000656 0.000000
# 4 0.000000 0.000000 0.000000 -0.027581 0.000000 0.060318
# 5 0.002801 -0.002517 0.000656 0.000000 0.025524 0.000000
# 6 0.000000 0.000000 0.000000 0.060318 0.000000 -0.046393
#
#
# Mechanical properties :
#
#
# Convention : Reuss Voigt Hill
#
# Bulk Modulus (GPa) = 62.55739 64.87026 63.71382
# Shear Modulus (GPa) = 248.97345 26.46293 137.71819
#
# Velocity S-wave (km/s) = 10.69210 3.48582 7.95211
# Velocity P-wave (km/s) = 13.45929 6.78143 10.65693
#
# Compressibility (1/GPa) = 0.01598532
#
# Stress axis : x y z
#
# Youngs Moduli (GPa) = 78.75100 79.87826 69.55364
#
# Poissons Ratio (x) = 0.41465 0.22589
# Poissons Ratio (y) = 0.40880 0.23412
# Poissons Ratio (z) = 0.25576 0.26887
#
# Static dielectric constant tensor:
#      x y z
#    x 3.918790 0.000000 0.175850 
#    y 0.000000 4.003230 0.000000 
#    z 0.175850 0.000000 3.901810 
# 
# 
# High freq. dielectric constant tensor:
#      x y z
#    x 1.854480 0.000000 0.010720 
#    y 0.000000 1.855250 0.000000 
#    z 0.010720 0.000000 1.854530 
# 
# From -- ./inp_files/58710.got.cif
#   From: 2010.06.25/outbox.cif.g09.slc.cpg/sg15_30_cif.got.tgz:58710.got - 2010.06.28 07:06:18.
