data_PCOD8149107
_publ_section_title
;
Structure prediction by ZEFSAII (Michael W. Deem and Ramdas Pophale) SiO2 
 PCOD8149107
Probable space group: C 2/C
;
_chemical_formula_sum "Si O2"
_cell_formula_units_Z 28
_cell_length_a 12.892399
_cell_length_b 5.504358
_cell_length_c 22.857371
_cell_angle_alpha 90.000000
_cell_angle_beta 138.648801
_cell_angle_gamma 90.000000
_cell_volume 1071.650244
_symmetry_space_group_name_H-M "C 2/C"
_symmetry_group_IT_number 15
_symmetry_cell_setting 'monoclinic'
loop_
_space_group_symop_operation_xyz
x,y,z
-x,y,1/2-z
-x,-y,-z
x,-y,1/2+z
1/2+x,1/2+y,z
1/2-x,1/2+y,1/2-z
1/2-x,1/2-y,-z
1/2+x,1/2-y,1/2+z
loop_
_atom_site_type_symbol
_atom_site_label
_atom_site_fract_x
_atom_site_fract_y
_atom_site_fract_z
Si Si1 0.500000 0.960262 0.750000
Si Si2 0.680434 0.651550 0.634203
Si Si3 0.097388 0.153066 0.469608
Si Si4 0.580151 0.152080 0.406801
O O1 0.424424 0.799507 0.665412
O O2 0.366109 0.125299 0.724297
O O3 0.659148 0.736205 0.558486
O O4 0.590546 0.392052 0.605992
O O5 0.598956 0.847635 0.643065
O O6 0.139751 0.370323 0.442014
O O7 0.168167 0.882324 0.478338
#
# Coordination Sequence:
#
# PCOD8149107 Si02
#       4
#     4   8   8   8
#     4  12  26  42  70 108 134 186 214 280 356 396
#     4   9  23  43  69 100 132 176 228 279 330 396
#     4   9  21  46  72  87 139 177 225 280 323 391
#     4  10  23  44  66  99 133 176 223 278 328 403
#
# _framework density 26.127928000000001
#
# number of rings (size 3 to 8) (size 9 to 14) (size 15 to 20)
#    1.714    0.571    0.000    0.857    4.000    3.429 
#    5.143    0.000    0.000    0.000    0.000    0.000 
#    0.000    0.000    0.000    0.000    0.000    0.000 
#
# Total GULP energy -173514.162081 kJ/mol
# GULP energy per Si atom -12393.868720 kJ/mol
# Density = 2.606846 g / cm^3
# Si number density = 26.127928 Si / 1000 Ang^3
#
#
#
# Elastic Constant Matrix: (Units=GPa)
#
#
# Indices 1 2 3 4 5 6 
#
# 1 164.6668 71.6143 49.8870 0.0000 -3.1855 0.0004
# 2 71.6143 114.3868 54.6571 -0.0002 2.9606 0.0014
# 3 49.8870 54.6571 98.6328 0.0000 -10.9103 0.0000
# 4 0.0000 -0.0002 0.0000 21.6022 0.0000 10.4318
# 5 -3.1855 2.9606 -10.9103 0.0000 75.4357 -0.0002
# 6 0.0004 0.0014 0.0000 10.4318 -0.0002 60.8093
#
#
#
# Elastic Compliance Matrix: (Units=1/GPa)
#
#
# Indices 1 2 3 4 5 6 
#
# 1 0.008593 -0.004523 -0.001809 0.000000 0.000279 0.000000
# 2 -0.004523 0.014428 -0.005885 0.000000 -0.001608 0.000000
# 3 -0.001809 -0.005885 0.014565 0.000000 0.002261 0.000000
# 4 0.000000 0.000000 0.000000 0.050473 0.000000 -0.008659
# 5 0.000279 -0.001608 0.002261 0.000000 0.013658 0.000000
# 6 0.000000 0.000000 0.000000 -0.008659 0.000000 0.017930
#
#
# Mechanical properties :
#
#
# Convention : Reuss Voigt Hill
#
# Bulk Modulus (GPa) = 76.03797 81.11148 78.57472
# Shear Modulus (GPa) = 33.67767 45.00465 39.34116
#
# Velocity S-wave (km/s) = 3.59409 4.15477 3.88456
# Velocity P-wave (km/s) = 6.81093 7.35714 7.08930
#
# Compressibility (1/GPa) = 0.01315132
#
# Stress axis : x y z
#
# Youngs Moduli (GPa) = 116.36890 69.31123 68.65650
#
# Poissons Ratio (x) = 0.31348 0.12422
# Poissons Ratio (y) = 0.52631 0.40407
# Poissons Ratio (z) = 0.21055 0.40793
#
# Static dielectric constant tensor:
#      x y z
#    x 5.240240 0.000000 0.436060 
#    y 0.000000 4.194660 0.000000 
#    z 0.436060 0.000000 4.497540 
# 
# 
# High freq. dielectric constant tensor:
#      x y z
#    x 2.103640 0.000000 0.037110 
#    y 0.000000 2.018180 0.000000 
#    z 0.037110 0.000000 2.039930 
# 
# From -- ./inp_files/201611.got.cif
#   From: 2010.06.25/outbox.cif.g09.slc.cpg/sg15_101_cif.got.tgz:201611.got - 2010.06.28 07:06:18.
