data_PCOD8149940
_publ_section_title
;
Structure prediction by ZEFSAII (Michael W. Deem and Ramdas Pophale) SiO2 
 PCOD8149940
Probable space group: C 2/C
;
_chemical_formula_sum "Si O2"
_cell_formula_units_Z 48
_cell_length_a 16.532192
_cell_length_b 19.159425
_cell_length_c 12.577697
_cell_angle_alpha 90.000000
_cell_angle_beta 146.493359
_cell_angle_gamma 90.000000
_cell_volume 2199.275214
_symmetry_space_group_name_H-M "C 2/C"
_symmetry_group_IT_number 15
_symmetry_cell_setting 'monoclinic'
loop_
_space_group_symop_operation_xyz
x,y,z
-x,y,1/2-z
-x,-y,-z
x,-y,1/2+z
1/2+x,1/2+y,z
1/2-x,1/2+y,1/2-z
1/2-x,1/2-y,-z
1/2+x,1/2-y,1/2+z
loop_
_atom_site_type_symbol
_atom_site_label
_atom_site_fract_x
_atom_site_fract_y
_atom_site_fract_z
Si Si1 0.654171 0.888179 0.193707
Si Si2 0.241771 0.667417 0.012887
Si Si3 0.670904 0.139221 0.170511
Si Si4 0.000000 0.075461 0.250000
Si Si5 0.856821 0.008048 0.413249
Si Si6 0.500000 0.259626 0.250000
Si Si7 0.775287 0.785489 0.166486
O O1 0.660491 0.870953 0.326217
O O2 0.717422 0.962291 0.224390
O O3 0.762844 0.833262 0.255903
O O4 0.488977 0.887546 0.970173
O O5 0.250000 0.750000 0.000000
O O6 0.157538 0.655145 0.030504
O O7 0.398230 0.629402 0.204279
O O8 0.705327 0.206928 0.275079
O O9 0.799686 0.086875 0.347459
O O10 0.101203 0.022742 0.426538
O O11 0.000000 0.000000 0.500000
O O12 0.624853 0.209073 0.435006
O O13 0.417261 0.306731 0.249608
#
# Coordination Sequence:
#
# PCOD8149940 Si02
#       7
#     8   8   8   4   8   4   8
#     4  11  25  43  67 103 138 175 225 288 345 415
#     4  11  23  38  72 105 142 170 224 284 353 410
#     4  12  24  43  70 102 136 185 222 284 349 411
#     4  10  24  45  64 104 135 184 232 280 344 409
#     4  11  25  46  67  94 139 181 233 279 342 421
#     4  10  24  43  62 100 131 176 226 280 332 405
#     4  11  23  43  70  98 136 173 233 286 343 401
#
# _framework density 21.825372000000002
#
# number of rings (size 3 to 8) (size 9 to 14) (size 15 to 20)
#    0.000    1.000    5.000    1.000    4.667    0.667 
#    3.000    0.000    0.000    0.000    0.000    0.000 
#    0.000    0.000    0.000    0.000    0.000    0.000 
#
# Total GULP energy -297452.075668 kJ/mol
# GULP energy per Si atom -12393.836486 kJ/mol
# Density = 2.177570 g / cm^3
# Si number density = 21.825372 Si / 1000 Ang^3
#
#
#
# Elastic Constant Matrix: (Units=GPa)
#
#
# Indices 1 2 3 4 5 6 
#
# 1 129.3969 39.2729 40.6376 0.0000 15.5144 0.0000
# 2 39.2729 87.1460 36.4135 0.0000 2.9532 0.0000
# 3 40.6376 36.4135 86.4099 0.0000 15.7611 0.0000
# 4 0.0000 0.0000 0.0000 27.1353 0.0000 4.1154
# 5 15.5144 2.9532 15.7611 0.0000 37.0404 0.0000
# 6 0.0000 0.0000 0.0000 4.1154 0.0000 30.4950
#
#
#
# Elastic Compliance Matrix: (Units=1/GPa)
#
#
# Indices 1 2 3 4 5 6 
#
# 1 0.009907 -0.003194 -0.002822 0.000000 -0.002694 0.000000
# 2 -0.003194 0.015035 -0.005268 0.000000 0.002381 0.000000
# 3 -0.002822 -0.005268 0.016075 0.000000 -0.005238 0.000000
# 4 0.000000 0.000000 0.000000 0.037622 0.000000 -0.005077
# 5 -0.002694 0.002381 -0.005238 0.000000 0.030165 0.000000
# 6 0.000000 0.000000 0.000000 -0.005077 0.000000 0.033477
#
#
# Mechanical properties :
#
#
# Convention : Reuss Voigt Hill
#
# Bulk Modulus (GPa) = 54.20195 59.51118 56.85656
# Shear Modulus (GPa) = 29.23997 31.37607 30.30802
#
# Velocity S-wave (km/s) = 3.66419 3.79568 3.73052
# Velocity P-wave (km/s) = 6.54141 6.82171 6.68303
#
# Compressibility (1/GPa) = 0.01844952
#
# Stress axis : x y z
#
# Youngs Moduli (GPa) = 100.94080 66.51160 62.20835
#
# Poissons Ratio (x) = 0.21246 0.17552
# Poissons Ratio (y) = 0.32243 0.32770
# Poissons Ratio (z) = 0.28481 0.35037
#
# Static dielectric constant tensor:
#      x y z
#    x 4.193010 0.000000 0.140090 
#    y 0.000000 4.018370 0.000000 
#    z 0.140090 0.000000 4.094960 
# 
# 
# High freq. dielectric constant tensor:
#      x y z
#    x 1.867840 0.000000 0.011490 
#    y 0.000000 1.842830 0.000000 
#    z 0.011490 0.000000 1.867790 
# 
# From -- ./inp_files/163345.got.cif
#   From: 2010.06.25/outbox.cif.g09.slc.cpg/sg15_82_cif.got.tgz:163345.got - 2010.06.28 07:06:18.
