data_PCOD8149316
_publ_section_title
;
Structure prediction by ZEFSAII (Michael W. Deem and Ramdas Pophale) SiO2 
 PCOD8149316
Probable space group: C 2/C
;
_chemical_formula_sum "Si O2"
_cell_formula_units_Z 56
_cell_length_a 27.213733
_cell_length_b 9.283156
_cell_length_c 18.263164
_cell_angle_alpha 90.000000
_cell_angle_beta 148.308420
_cell_angle_gamma 90.000000
_cell_volume 2423.849910
_symmetry_space_group_name_H-M "C 2/C"
_symmetry_group_IT_number 15
_symmetry_cell_setting 'monoclinic'
loop_
_space_group_symop_operation_xyz
x,y,z
-x,y,1/2-z
-x,-y,-z
x,-y,1/2+z
1/2+x,1/2+y,z
1/2-x,1/2+y,1/2-z
1/2-x,1/2-y,-z
1/2+x,1/2-y,1/2+z
loop_
_atom_site_type_symbol
_atom_site_label
_atom_site_fract_x
_atom_site_fract_y
_atom_site_fract_z
Si Si1 0.673869 0.321912 0.636627
Si Si2 0.051493 0.720820 0.923666
Si Si3 0.325445 0.602673 0.522674
Si Si4 0.458933 0.932631 0.520145
Si Si5 0.150435 0.127372 0.669419
Si Si6 0.631803 0.214913 0.290083
Si Si7 0.644867 0.708043 0.394003
O O1 0.633081 0.375852 0.506272
O O2 0.608764 0.197796 0.587902
O O3 0.772832 0.245025 0.755649
O O4 0.680321 0.460435 0.698245
O O5 0.086361 0.562810 0.992528
O O6 0.125329 0.745932 0.952406
O O7 0.940525 0.729135 0.763041
O O8 0.064166 0.836349 0.005793
O O9 0.354733 0.736438 0.609623
O O10 0.213229 0.601936 0.372170
O O11 0.363007 0.463994 0.612692
O O12 0.537824 0.873163 0.673241
O O13 0.500000 0.000000 0.500000
O O14 0.125600 0.153618 0.723219
O O15 0.750000 0.750000 0.500000
#
# Coordination Sequence:
#
# PCOD8149316 Si02
#       7
#     8   8   8   8   8   8   8
#     4  11  26  43  75  99 150 191 241 308 369 450
#     4  11  25  44  72 107 147 187 256 293 375 446
#     4  10  23  45  67 102 138 193 236 301 368 440
#     4  12  26  44  69 103 144 189 242 311 368 434
#     4  11  23  46  70 106 137 190 241 301 368 444
#     4  10  24  43  71 100 145 181 249 292 371 447
#     4  11  25  44  75 104 152 190 241 312 371 446
#
# _framework density 23.103739999999998
#
# number of rings (size 3 to 8) (size 9 to 14) (size 15 to 20)
#    0.000    1.143    2.857    1.714    4.000   10.286 
#    0.000    0.000    0.000    0.000    0.000    0.000 
#    0.000    0.000    0.000    0.000    0.000    0.000 
#
# Total GULP energy -347039.948466 kJ/mol
# GULP energy per Si atom -12394.283874 kJ/mol
# Density = 2.305116 g / cm^3
# Si number density = 23.103740 Si / 1000 Ang^3
#
#
#
# Elastic Constant Matrix: (Units=GPa)
#
#
# Indices 1 2 3 4 5 6 
#
# 1 84.8810 17.1008 15.9240 0.0000 -0.1375 0.0000
# 2 17.1008 135.6607 13.0385 0.0000 3.9041 0.0000
# 3 15.9240 13.0385 78.7237 0.0000 3.5045 0.0000
# 4 0.0000 0.0000 0.0000 33.4927 0.0000 6.2352
# 5 -0.1375 3.9041 3.5045 0.0000 33.3483 0.0000
# 6 0.0000 0.0000 0.0000 6.2352 0.0000 33.6600
#
#
#
# Elastic Compliance Matrix: (Units=1/GPa)
#
#
# Indices 1 2 3 4 5 6 
#
# 1 0.012492 -0.001365 -0.002321 0.000000 0.000455 0.000000
# 2 -0.001365 0.007658 -0.000957 0.000000 -0.000802 0.000000
# 3 -0.002321 -0.000957 0.013389 0.000000 -0.001305 0.000000
# 4 0.000000 0.000000 0.000000 0.030924 0.000000 -0.005728
# 5 0.000455 -0.000802 -0.001305 0.000000 0.030219 0.000000
# 6 0.000000 0.000000 0.000000 -0.005728 0.000000 0.030770
#
#
# Mechanical properties :
#
#
# Convention : Reuss Voigt Hill
#
# Bulk Modulus (GPa) = 41.22977 43.48799 42.35888
# Shear Modulus (GPa) = 35.00856 36.98035 35.99446
#
# Velocity S-wave (km/s) = 3.89688 4.00512 3.95137
# Velocity P-wave (km/s) = 6.17509 6.34443 6.26033
#
# Compressibility (1/GPa) = 0.02425432
#
# Stress axis : x y z
#
# Youngs Moduli (GPa) = 80.04907 130.57587 74.68988
#
# Poissons Ratio (x) = 0.17820 0.17337
# Poissons Ratio (y) = 0.10925 0.07145
# Poissons Ratio (z) = 0.18581 0.12492
#
# Static dielectric constant tensor:
#      x y z
#    x 3.622160 0.000000 0.049680 
#    y 0.000000 3.948770 0.000000 
#    z 0.049680 0.000000 4.307040 
# 
# 
# High freq. dielectric constant tensor:
#      x y z
#    x 1.908240 0.000000 -0.007640 
#    y 0.000000 1.918320 0.000000 
#    z -0.007640 0.000000 1.918280 
# 
# From -- ./inp_files/259034.got.cif
#   From: 2010.06.25/outbox.cif.g09.slc.cpg/sg15_130_cif.got.tgz:259034.got - 2010.06.28 07:06:18.
