data_PCOD8149722
_publ_section_title
;
Structure prediction by ZEFSAII (Michael W. Deem and Ramdas Pophale) SiO2 
 PCOD8149722
Probable space group: C 2/C
;
_chemical_formula_sum "Si O2"
_cell_formula_units_Z 56
_cell_length_a 18.517816
_cell_length_b 15.509622
_cell_length_c 21.797490
_cell_angle_alpha 90.000000
_cell_angle_beta 153.450054
_cell_angle_gamma 90.000000
_cell_volume 2798.229925
_symmetry_space_group_name_H-M "C 2/C"
_symmetry_group_IT_number 15
_symmetry_cell_setting 'monoclinic'
loop_
_space_group_symop_operation_xyz
x,y,z
-x,y,1/2-z
-x,-y,-z
x,-y,1/2+z
1/2+x,1/2+y,z
1/2-x,1/2+y,1/2-z
1/2-x,1/2-y,-z
1/2+x,1/2-y,1/2+z
loop_
_atom_site_type_symbol
_atom_site_label
_atom_site_fract_x
_atom_site_fract_y
_atom_site_fract_z
Si Si1 0.500000 0.120413 0.250000
Si Si2 0.000000 0.908748 0.250000
Si Si3 0.633611 0.830464 0.180394
Si Si4 0.931367 0.293370 0.905970
Si Si5 0.686853 0.004684 0.472850
Si Si6 0.434014 0.259825 0.115361
Si Si7 0.106471 0.316633 0.390351
Si Si8 0.423661 0.017569 0.376800
O O1 0.653772 0.062589 0.386882
O O2 0.545764 0.183490 0.228487
O O3 0.151377 0.971358 0.368807
O O4 0.991465 0.850244 0.304892
O O5 0.789990 0.773574 0.313035
O O6 0.503538 0.809339 0.133508
O O7 0.687287 0.932706 0.221406
O O8 0.549986 0.804992 0.053233
O O9 0.847950 0.385797 0.823403
O O10 0.049109 0.251116 0.944318
O O11 0.695101 0.908282 0.455003
O O12 0.548625 0.021786 0.416570
O O13 0.250000 0.250000 0.000000
O O14 0.250000 0.250000 0.500000
O O15 0.000000 0.300484 0.250000
O O16 0.500000 0.000000 0.500000
#
# Coordination Sequence:
#
# PCOD8149722 Si02
#       8
#     4   4   8   8   8   8   8   8
#     4  11  20  36  57  84 120 164 207 238 316 365
#     4  11  24  36  59  98 130 158 219 250 304 381
#     4  10  24  41  62  93 119 165 212 253 321 375
#     4  11  22  39  64  87 129 167 204 256 308 375
#     4  11  22  40  61  90 123 163 203 261 312 376
#     4  11  23  35  61  94 134 163 211 248 306 373
#     4  11  24  44  69  90 122 162 215 274 320 367
#     4   9  20  39  62  80 121 166 205 237 320 379
#
# _framework density 20.012651999999999
#
# number of rings (size 3 to 8) (size 9 to 14) (size 15 to 20)
#    0.000    1.429    3.571    0.857    9.000    0.000 
#    0.000    0.714    0.000    0.000    0.000    0.000 
#    0.000    0.000    0.000    0.000    0.000    0.000 
#
# Total GULP energy -346920.121235 kJ/mol
# GULP energy per Si atom -12390.004330 kJ/mol
# Density = 1.996710 g / cm^3
# Si number density = 20.012652 Si / 1000 Ang^3
#
#
#
# Elastic Constant Matrix: (Units=GPa)
#
#
# Indices 1 2 3 4 5 6 
#
# 1 85.5682 18.6297 18.4868 -0.0028 -14.1507 -0.0002
# 2 18.6297 117.7478 44.0164 -0.0076 10.8406 -0.0023
# 3 18.4868 44.0164 96.6226 -0.0093 -5.7169 -0.0040
# 4 -0.0028 -0.0076 -0.0093 44.5987 -0.0028 -0.4023
# 5 -14.1507 10.8406 -5.7169 -0.0028 30.0323 -0.0008
# 6 -0.0002 -0.0023 -0.0040 -0.4023 -0.0008 22.4824
#
#
#
# Elastic Compliance Matrix: (Units=1/GPa)
#
#
# Indices 1 2 3 4 5 6 
#
# 1 0.013614 -0.002396 -0.001095 0.000001 0.007071 0.000000
# 2 -0.002396 0.011338 -0.005073 0.000000 -0.006187 0.000000
# 3 -0.001095 -0.005073 0.013095 0.000002 0.003808 0.000002
# 4 0.000001 0.000000 0.000002 0.022426 0.000003 0.000401
# 5 0.007071 -0.006187 0.003808 0.000003 0.039587 0.000002
# 6 0.000000 0.000000 0.000002 0.000401 0.000002 0.044486
#
#
# Mechanical properties :
#
#
# Convention : Reuss Voigt Hill
#
# Bulk Modulus (GPa) = 47.80033 51.35603 49.57818
# Shear Modulus (GPa) = 29.64784 34.00972 31.82878
#
# Velocity S-wave (km/s) = 3.85314 4.12686 3.99235
# Velocity P-wave (km/s) = 6.61306 6.95884 6.78815
#
# Compressibility (1/GPa) = 0.02092036
#
# Stress axis : x y z
#
# Youngs Moduli (GPa) = 73.45317 88.20247 76.36422
#
# Poissons Ratio (x) = 0.21130 0.08363
# Poissons Ratio (y) = 0.17597 0.38736
# Poissons Ratio (z) = 0.08044 0.44741
#
# Static dielectric constant tensor:
#      x y z
#    x 1.630610 -0.000100 1.135610 
#    y -0.000100 4.318350 0.000040 
#    z 1.135610 0.000040 2.570150 
# 
# 
# High freq. dielectric constant tensor:
#      x y z
#    x 1.774560 0.000000 -0.026510 
#    y 0.000000 1.804550 0.000000 
#    z -0.026510 0.000000 1.762290 
# 
# From -- ./inp_files/249307.got.cif
#   From: 2010.06.25/outbox.cif.g09.slc.cpg/sg15_125_cif.got.tgz:249307.got - 2010.06.28 07:06:18.
