data_PCOD8149300
_publ_section_title
;
Structure prediction by ZEFSAII (Michael W. Deem and Ramdas Pophale) SiO2 
 PCOD8149300
Probable space group: C 2/C
;
_chemical_formula_sum "Si O2"
_cell_formula_units_Z 56
_cell_length_a 22.113373
_cell_length_b 11.188704
_cell_length_c 10.348660
_cell_angle_alpha 90.000000
_cell_angle_beta 106.349637
_cell_angle_gamma 90.000000
_cell_volume 2456.924648
_symmetry_space_group_name_H-M "C 2/C"
_symmetry_group_IT_number 15
_symmetry_cell_setting 'monoclinic'
loop_
_space_group_symop_operation_xyz
x,y,z
-x,y,1/2-z
-x,-y,-z
x,-y,1/2+z
1/2+x,1/2+y,z
1/2-x,1/2+y,1/2-z
1/2-x,1/2-y,-z
1/2+x,1/2-y,1/2+z
loop_
_atom_site_type_symbol
_atom_site_label
_atom_site_fract_x
_atom_site_fract_y
_atom_site_fract_z
Si Si1 0.393272 0.221698 0.557011
Si Si2 0.851912 0.015808 0.011446
Si Si3 0.016812 0.371192 0.066058
Si Si4 0.549021 0.684492 0.878083
Si Si5 0.216824 0.912243 0.290914
Si Si6 0.360362 0.183240 0.247369
Si Si7 0.154232 0.581723 0.755368
O O1 0.390391 0.364294 0.565868
O O2 0.462556 0.167984 0.637642
O O3 0.382303 0.173400 0.407248
O O4 0.338180 0.167080 0.615054
O O5 0.903780 0.911608 0.030894
O O6 0.801645 0.990274 0.095113
O O7 0.815509 0.028238 0.854202
O O8 0.087493 0.379301 0.158157
O O9 0.012679 0.259933 0.963926
O O10 0.000000 0.500000 0.000000
O O11 0.500000 0.618705 0.750000
O O12 0.583629 0.781882 0.812254
O O13 0.196357 0.776161 0.300082
O O14 0.291683 0.900370 0.318957
O O15 0.339518 0.052787 0.189272
#
# Coordination Sequence:
#
# PCOD8149300 Si02
#       7
#     8   8   8   8   8   8   8
#     4  11  24  44  66 101 136 178 232 287 348 419
#     4  10  26  46  72 100 143 185 240 291 355 425
#     4  12  24  42  67 103 140 180 234 284 357 427
#     4  11  22  43  72  99 141 186 224 295 362 418
#     4  10  26  47  70 101 139 188 238 294 351 426
#     4  10  23  45  65  97 136 183 221 289 360 408
#     4  12  26  40  73  96 137 182 233 294 343 425
#
# _framework density 22.792719999999999
#
# number of rings (size 3 to 8) (size 9 to 14) (size 15 to 20)
#    0.000    1.143    2.857    1.286    6.000    2.857 
#    0.000    2.857    0.000    0.000    0.000    0.000 
#    0.000    0.000    0.000    0.000    0.000    0.000 
#
# Total GULP energy -347125.480212 kJ/mol
# GULP energy per Si atom -12397.338579 kJ/mol
# Density = 2.274084 g / cm^3
# Si number density = 22.792720 Si / 1000 Ang^3
#
#
#
# Elastic Constant Matrix: (Units=GPa)
#
#
# Indices 1 2 3 4 5 6 
#
# 1 121.4396 28.6355 5.4012 0.0000 -6.0591 0.0000
# 2 28.6355 111.6427 23.8501 0.0000 -9.1179 0.0000
# 3 5.4012 23.8501 50.1422 0.0000 -7.2135 0.0000
# 4 0.0000 0.0000 0.0000 27.8832 0.0000 -8.9507
# 5 -6.0591 -9.1179 -7.2135 0.0000 33.1583 0.0000
# 6 0.0000 0.0000 0.0000 -8.9507 0.0000 29.2594
#
#
#
# Elastic Compliance Matrix: (Units=1/GPa)
#
#
# Indices 1 2 3 4 5 6 
#
# 1 0.008801 -0.002227 0.000263 0.000000 0.001053 0.000000
# 2 -0.002227 0.010635 -0.004600 0.000000 0.001517 0.000000
# 3 0.000263 -0.004600 0.022637 0.000000 0.003708 0.000000
# 4 0.000000 0.000000 0.000000 0.039769 0.000000 0.012166
# 5 0.001053 0.001517 0.003708 0.000000 0.031574 0.000000
# 6 0.000000 0.000000 0.000000 0.012166 0.000000 0.037899
#
#
# Mechanical properties :
#
#
# Convention : Reuss Voigt Hill
#
# Bulk Modulus (GPa) = 34.55142 44.33310 39.44226
# Shear Modulus (GPa) = 28.72046 33.08270 30.90158
#
# Velocity S-wave (km/s) = 3.55360 3.81393 3.68607
# Velocity P-wave (km/s) = 5.65944 6.23599 5.95470
#
# Compressibility (1/GPa) = 0.02894237
#
# Stress axis : x y z
#
# Youngs Moduli (GPa) = 113.62830 94.02801 44.17632
#
# Poissons Ratio (x) = 0.20945 -0.01162
# Poissons Ratio (y) = 0.25311 0.20323
# Poissons Ratio (z) = -0.02988 0.43257
#
# Static dielectric constant tensor:
#      x y z
#    x 4.415370 0.000000 -0.214600 
#    y 0.000000 4.113010 0.000000 
#    z -0.214600 0.000000 4.149670 
# 
# 
# High freq. dielectric constant tensor:
#      x y z
#    x 1.914590 0.000000 -0.009270 
#    y 0.000000 1.903920 0.000000 
#    z -0.009270 0.000000 1.895950 
# 
# From -- ./inp_files/111680.got.cif
#   From: 2010.06.25/outbox.cif.g09.slc.cpg/sg15_56_cif.got.tgz:111680.got - 2010.06.28 07:06:18.
