data_PCOD8149270
_publ_section_title
;
Structure prediction by ZEFSAII (Michael W. Deem and Ramdas Pophale) SiO2 
 PCOD8149270
Probable space group: C 2/C
;
_chemical_formula_sum "Si O2"
_cell_formula_units_Z 40
_cell_length_a 18.711203
_cell_length_b 5.052097
_cell_length_c 18.827534
_cell_angle_alpha 90.000000
_cell_angle_beta 88.121242
_cell_angle_gamma 90.000000
_cell_volume 1778.825346
_symmetry_space_group_name_H-M "C 2/C"
_symmetry_group_IT_number 15
_symmetry_cell_setting 'monoclinic'
loop_
_space_group_symop_operation_xyz
x,y,z
-x,y,1/2-z
-x,-y,-z
x,-y,1/2+z
1/2+x,1/2+y,z
1/2-x,1/2+y,1/2-z
1/2-x,1/2-y,-z
1/2+x,1/2-y,1/2+z
loop_
_atom_site_type_symbol
_atom_site_label
_atom_site_fract_x
_atom_site_fract_y
_atom_site_fract_z
Si Si1 0.044210 0.639381 0.403717
Si Si2 0.184070 0.244118 0.181498
Si Si3 0.884798 0.241143 0.879971
Si Si4 0.823089 0.434575 0.162413
Si Si5 0.391574 0.340590 0.538943
O O1 0.070142 0.882400 0.450359
O O2 0.101468 0.594820 0.337363
O O3 0.045810 0.381434 0.454923
O O4 0.967482 0.679276 0.371258
O O5 0.165324 0.524370 0.147009
O O6 0.190117 0.271121 0.265873
O O7 0.259639 0.140918 0.148895
O O8 0.124754 0.021541 0.167029
O O9 0.860681 0.171954 0.960655
O O10 0.827596 0.223535 0.096843
#
# Coordination Sequence:
#
# PCOD8149270 Si02
#       5
#     8   8   8   8   8
#     4  10  23  45  72  98 136 183 222 280 349 420
#     4  12  27  44  68 101 140 183 223 293 329 421
#     4  12  25  44  73 106 135 167 244 286 341 390
#     4  10  28  46  69  92 146 185 228 260 377 390
#     4  10  23  44  74  99 135 184 221 284 345 423
#
# _framework density 22.486750000000001
#
# number of rings (size 3 to 8) (size 9 to 14) (size 15 to 20)
#    1.200    0.000    0.000    4.800    8.400    2.400 
#    0.000    0.000    0.000    0.000    0.000    0.000 
#    0.000    0.000    0.000    0.000    0.000    0.000 
#
# Total GULP energy -247964.690622 kJ/mol
# GULP energy per Si atom -12398.234531 kJ/mol
# Density = 2.243557 g / cm^3
# Si number density = 22.486750 Si / 1000 Ang^3
#
#
#
# Elastic Constant Matrix: (Units=GPa)
#
#
# Indices 1 2 3 4 5 6 
#
# 1 70.7768 0.5901 35.5049 0.0000 0.2486 0.0000
# 2 0.5901 113.0056 22.7141 0.0000 -3.7739 0.0000
# 3 35.5049 22.7141 60.5517 0.0000 5.6307 0.0000
# 4 0.0000 0.0000 0.0000 44.8904 0.0000 8.7521
# 5 0.2486 -3.7739 5.6307 0.0000 20.8483 0.0000
# 6 0.0000 0.0000 0.0000 8.7521 0.0000 32.9715
#
#
#
# Elastic Compliance Matrix: (Units=1/GPa)
#
#
# Indices 1 2 3 4 5 6 
#
# 1 0.020966 0.002777 -0.013703 0.000000 0.003953 0.000000
# 2 0.002777 0.010097 -0.005727 0.000000 0.003341 0.000000
# 3 -0.013703 -0.005727 0.027469 0.000000 -0.008292 0.000000
# 4 0.000000 0.000000 0.000000 0.023492 0.000000 -0.006236
# 5 0.003953 0.003341 -0.008292 0.000000 0.050763 0.000000
# 6 0.000000 0.000000 0.000000 -0.006236 0.000000 0.031984
#
#
# Mechanical properties :
#
#
# Convention : Reuss Voigt Hill
#
# Bulk Modulus (GPa) = 39.64041 40.21693 39.92867
# Shear Modulus (GPa) = 24.21483 32.11037 28.16260
#
# Velocity S-wave (km/s) = 3.28510 3.78295 3.54278
# Velocity P-wave (km/s) = 5.66178 6.08313 5.87623
#
# Compressibility (1/GPa) = 0.02522678
#
# Stress axis : x y z
#
# Youngs Moduli (GPa) = 47.69683 99.03686 36.40510
#
# Poissons Ratio (x) = -0.27500 0.49885
# Poissons Ratio (y) = -0.13244 0.20848
# Poissons Ratio (z) = 0.65357 0.56714
#
# Static dielectric constant tensor:
#      x y z
#    x 4.141910 0.000000 -0.056350 
#    y 0.000000 4.121280 0.000000 
#    z -0.056350 0.000000 3.846980 
# 
# 
# High freq. dielectric constant tensor:
#      x y z
#    x 1.887080 0.000000 -0.005210 
#    y 0.000000 1.903520 0.000000 
#    z -0.005210 0.000000 1.876640 
# 
# From -- ./inp_files/246310.got.cif
#   From: 2010.06.25/outbox.cif.g09.slc.cpg/sg15_124_cif.got.tgz:246310.got - 2010.06.28 07:06:18.
