data_PCOD8149998
_publ_section_title
;
Structure prediction by ZEFSAII (Michael W. Deem and Ramdas Pophale) SiO2 
 PCOD8149998
Probable space group: C 2/C
;
_chemical_formula_sum "Si O2"
_cell_formula_units_Z 36
_cell_length_a 5.043588
_cell_length_b 28.152109
_cell_length_c 10.559578
_cell_angle_alpha 90.000000
_cell_angle_beta 107.764040
_cell_angle_gamma 90.000000
_cell_volume 1427.843115
_symmetry_space_group_name_H-M "C 2/C"
_symmetry_group_IT_number 15
_symmetry_cell_setting 'monoclinic'
loop_
_space_group_symop_operation_xyz
x,y,z
-x,y,1/2-z
-x,-y,-z
x,-y,1/2+z
1/2+x,1/2+y,z
1/2-x,1/2+y,1/2-z
1/2-x,1/2-y,-z
1/2+x,1/2-y,1/2+z
loop_
_atom_site_type_symbol
_atom_site_label
_atom_site_fract_x
_atom_site_fract_y
_atom_site_fract_z
Si Si1 0.500000 0.360824 0.750000
Si Si2 0.268655 0.694129 0.992557
Si Si3 0.280965 0.353997 0.110639
Si Si4 0.281920 0.469508 0.333539
Si Si5 0.198060 0.929201 0.573685
O O1 0.705386 0.327974 0.862893
O O2 0.690347 0.395519 0.694170
O O3 0.250000 0.750000 0.000000
O O4 0.543094 0.680286 0.955494
O O5 0.987603 0.675347 0.881530
O O6 0.500000 0.371554 0.250000
O O7 0.155166 0.400069 0.019025
O O8 0.500000 0.476371 0.250000
O O9 0.392608 0.440223 0.469677
O O10 0.169424 0.520617 0.369746
O O11 0.000000 0.442330 0.250000
#
# Coordination Sequence:
#
# PCOD8149998 Si02
#       5
#     4   8   8   8   8
#     4  10  24  44  72 100 142 180 232 296 348 434
#     4  11  26  46  71 104 134 182 226 294 361 420
#     4  11  25  44  72  99 139 180 232 291 345 431
#     4  11  25  43  70  98 145 186 236 296 337 423
#     4  10  24  43  68 105 138 187 238 281 360 401
#
# _framework density 25.212854
#
# number of rings (size 3 to 8) (size 9 to 14) (size 15 to 20)
#    0.000    1.333    1.111    2.000    6.222   13.333 
#    0.000    0.000    0.000    0.000    0.000    0.000 
#    0.000    0.000    0.000    0.000    0.000    0.000 
#
# Total GULP energy -223096.094523 kJ/mol
# GULP energy per Si atom -12394.227474 kJ/mol
# Density = 2.515547 g / cm^3
# Si number density = 25.212854 Si / 1000 Ang^3
#
#
#
# Elastic Constant Matrix: (Units=GPa)
#
#
# Indices 1 2 3 4 5 6 
#
# 1 74.9354 -5.9703 0.0328 0.0000 14.4167 0.0000
# 2 -5.9703 81.2361 -2.0385 0.0000 -16.9521 0.0000
# 3 0.0328 -2.0385 109.6149 0.0000 -3.9090 0.0000
# 4 0.0000 0.0000 0.0000 38.3392 0.0000 1.5119
# 5 14.4167 -16.9521 -3.9090 0.0000 38.7640 0.0000
# 6 0.0000 0.0000 0.0000 1.5119 0.0000 6.9911
#
#
#
# Elastic Compliance Matrix: (Units=1/GPa)
#
#
# Indices 1 2 3 4 5 6 
#
# 1 0.014378 -0.000075 -0.000198 0.000000 -0.005400 0.000000
# 2 -0.000075 0.013570 0.000467 0.000000 0.006009 0.000000
# 3 -0.000198 0.000467 0.009174 0.000000 0.001203 0.000000
# 4 0.000000 0.000000 0.000000 0.026307 0.000000 -0.005689
# 5 -0.005400 0.006009 0.001203 0.000000 0.030555 0.000000
# 6 0.000000 0.000000 0.000000 -0.005689 0.000000 0.144269
#
#
# Mechanical properties :
#
#
# Convention : Reuss Voigt Hill
#
# Bulk Modulus (GPa) = 26.66042 27.75939 27.20991
# Shear Modulus (GPa) = 19.97043 35.06969 27.52006
#
# Velocity S-wave (km/s) = 2.81743 3.73358 3.30738
# Velocity P-wave (km/s) = 4.60228 5.44244 5.03990
#
# Compressibility (1/GPa) = 0.03750878
#
# Stress axis : x y z
#
# Youngs Moduli (GPa) = 69.55147 73.69194 108.99797
#
# Poissons Ratio (x) = 0.00554 0.02161
# Poissons Ratio (y) = 0.00523 -0.05087
# Poissons Ratio (z) = 0.01379 -0.03439
#
# Static dielectric constant tensor:
#      x y z
#    x 4.106160 0.000000 -0.055880 
#    y 0.000000 4.666420 0.000000 
#    z -0.055880 0.000000 4.974770 
# 
# 
# High freq. dielectric constant tensor:
#      x y z
#    x 1.981280 0.000000 0.006930 
#    y 0.000000 2.011010 0.000000 
#    z 0.006930 0.000000 2.028480 
# 
# From -- ./inp_files/73733.got.cif
#   From: 2010.06.25/outbox.cif.g09.slc.cpg/sg15_37_cif.got.tgz:73733.got - 2010.06.28 07:06:18.
