data_PCOD8149893
_publ_section_title
;
Structure prediction by ZEFSAII (Michael W. Deem and Ramdas Pophale) SiO2 
 PCOD8149893
Probable space group: C 2/C
;
_chemical_formula_sum "Si O2"
_cell_formula_units_Z 52
_cell_length_a 18.496331
_cell_length_b 15.255630
_cell_length_c 8.296734
_cell_angle_alpha 90.000000
_cell_angle_beta 75.521388
_cell_angle_gamma 90.000000
_cell_volume 2266.764424
_symmetry_space_group_name_H-M "C 2/C"
_symmetry_group_IT_number 15
_symmetry_cell_setting 'monoclinic'
loop_
_space_group_symop_operation_xyz
x,y,z
-x,y,1/2-z
-x,-y,-z
x,-y,1/2+z
1/2+x,1/2+y,z
1/2-x,1/2+y,1/2-z
1/2-x,1/2-y,-z
1/2+x,1/2-y,1/2+z
loop_
_atom_site_type_symbol
_atom_site_label
_atom_site_fract_x
_atom_site_fract_y
_atom_site_fract_z
Si Si1 0.838627 0.254138 0.916318
Si Si2 0.583255 0.411645 0.171375
Si Si3 0.375359 0.923565 0.089263
Si Si4 0.863364 0.074471 0.509237
Si Si5 0.200710 0.429549 0.057228
Si Si6 0.622990 0.770135 0.981332
Si Si7 0.500000 0.130783 0.750000
O O1 0.874698 0.162729 0.959327
O O2 0.867727 0.265535 0.716640
O O3 0.750000 0.250000 0.000000
O O4 0.875901 0.333899 0.990253
O O5 0.500000 0.376891 0.250000
O O6 0.575467 0.505041 0.086065
O O7 0.632942 0.425215 0.301373
O O8 0.304749 0.925847 0.246794
O O9 0.448651 0.929976 0.162724
O O10 0.363980 0.007340 0.979707
O O11 0.784816 0.038242 0.481670
O O12 0.874804 0.173597 0.440555
O O13 0.191899 0.330545 0.998361
O O14 0.547498 0.811643 0.096563
#
# Coordination Sequence:
#
# PCOD8149893 Si02
#       7
#     8   8   8   8   8   8   4
#     4  11  24  44  71 101 139 190 241 297 353 423
#     4  11  26  43  67 102 139 186 231 288 362 427
#     4  11  24  41  71  97 144 182 238 288 365 421
#     4  11  23  41  68  96 141 176 239 288 349 417
#     4  11  22  43  67 105 132 187 237 300 347 424
#     4  10  24  42  69 101 143 181 240 289 363 425
#     4  10  26  44  66 106 138 198 228 296 362 442
#
# _framework density 22.940187999999999
#
# number of rings (size 3 to 8) (size 9 to 14) (size 15 to 20)
#    0.000    1.231    0.000    5.538    5.385    7.385 
#    0.000    0.000    0.000    0.000    0.000    0.000 
#    0.000    0.000    0.000    0.000    0.000    0.000 
#
# Total GULP energy -322176.978291 kJ/mol
# GULP energy per Si atom -12391.422242 kJ/mol
# Density = 2.288797 g / cm^3
# Si number density = 22.940188 Si / 1000 Ang^3
#
#
#
# Elastic Constant Matrix: (Units=GPa)
#
#
# Indices 1 2 3 4 5 6 
#
# 1 127.7446 39.9871 30.4056 0.0000 -6.2475 0.0000
# 2 39.9871 173.3898 44.0880 0.0000 8.8631 0.0000
# 3 30.4056 44.0880 100.1653 0.0000 -7.0990 0.0000
# 4 0.0000 0.0000 0.0000 42.7041 0.0000 -0.2358
# 5 -6.2475 8.8631 -7.0990 0.0000 33.3392 0.0000
# 6 0.0000 0.0000 0.0000 -0.2358 0.0000 30.2956
#
#
#
# Elastic Compliance Matrix: (Units=1/GPa)
#
#
# Indices 1 2 3 4 5 6 
#
# 1 0.008871 -0.001666 -0.001838 0.000000 0.001714 0.000000
# 2 -0.001666 0.006997 -0.002770 0.000000 -0.002762 0.000000
# 3 -0.001838 -0.002770 0.011969 0.000000 0.002941 0.000000
# 4 0.000000 0.000000 0.000000 0.023418 0.000000 0.000182
# 5 0.001714 -0.002762 0.002941 0.000000 0.031676 0.000000
# 6 0.000000 0.000000 0.000000 0.000182 0.000000 0.033009
#
#
# Mechanical properties :
#
#
# Convention : Reuss Voigt Hill
#
# Bulk Modulus (GPa) = 65.40561 70.02902 67.71731
# Shear Modulus (GPa) = 37.42938 40.38905 38.90922
#
# Velocity S-wave (km/s) = 4.04370 4.20053 4.12286
# Velocity P-wave (km/s) = 7.09755 7.35656 7.22822
#
# Compressibility (1/GPa) = 0.01528921
#
# Stress axis : x y z
#
# Youngs Moduli (GPa) = 112.72760 142.91749 83.54946
#
# Poissons Ratio (x) = 0.23811 0.15357
# Poissons Ratio (y) = 0.18781 0.23141
# Poissons Ratio (z) = 0.20720 0.39585
#
# Static dielectric constant tensor:
#      x y z
#    x 4.021010 0.000000 -0.064550 
#    y 0.000000 4.533880 0.000000 
#    z -0.064550 0.000000 4.132970 
# 
# 
# High freq. dielectric constant tensor:
#      x y z
#    x 1.906490 0.000000 -0.002860 
#    y 0.000000 1.918490 0.000000 
#    z -0.002860 0.000000 1.904320 
# 
# From -- ./inp_files/48538.got.cif
#   From: 2010.06.25/outbox.cif.g09.slc.cpg/sg15_25_cif.got.tgz:48538.got - 2010.06.28 07:06:18.
