data_PCOD8149361
_publ_section_title
;
Structure prediction by ZEFSAII (Michael W. Deem and Ramdas Pophale) SiO2 
 PCOD8149361
Probable space group: C 2/C
;
_chemical_formula_sum "Si O2"
_cell_formula_units_Z 32
_cell_length_a 22.321442
_cell_length_b 5.025094
_cell_length_c 13.731399
_cell_angle_alpha 90.000000
_cell_angle_beta 51.159810
_cell_angle_gamma 90.000000
_cell_volume 1199.670414
_symmetry_space_group_name_H-M "C 2/C"
_symmetry_group_IT_number 15
_symmetry_cell_setting 'monoclinic'
loop_
_space_group_symop_operation_xyz
x,y,z
-x,y,1/2-z
-x,-y,-z
x,-y,1/2+z
1/2+x,1/2+y,z
1/2-x,1/2+y,1/2-z
1/2-x,1/2-y,-z
1/2+x,1/2-y,1/2+z
loop_
_atom_site_type_symbol
_atom_site_label
_atom_site_fract_x
_atom_site_fract_y
_atom_site_fract_z
Si Si1 0.218914 0.271731 0.834229
Si Si2 0.913858 0.085033 0.072792
Si Si3 0.086927 0.682831 0.128031
Si Si4 0.159274 0.181959 0.147478
O O1 0.270727 0.068740 0.716933
O O2 0.131165 0.179339 0.917623
O O3 0.249387 0.265531 0.917461
O O4 0.879535 0.204216 0.206126
O O5 0.908310 0.304423 0.993333
O O6 0.000000 0.000000 0.000000
O O7 0.117211 0.392174 0.122125
O O8 0.000000 0.735549 0.250000
O O9 0.144874 0.890120 0.119621
#
# Coordination Sequence:
#
# PCOD8149361 Si02
#       4
#     8   8   8   8
#     4  10  23  45  71 103 141 187 233 289 352 417
#     4  11  25  47  75 105 141 192 231 291 358 414
#     4  12  26  43  72 106 139 183 237 290 349 413
#     4  11  25  47  70 101 146 178 236 293 342 421
#
# _framework density 26.67399
#
# number of rings (size 3 to 8) (size 9 to 14) (size 15 to 20)
#    0.000    1.000    2.500    3.750    0.000    9.000 
#    0.000    0.000    0.000    0.000    0.000    0.000 
#    0.000    0.000    0.000    0.000    0.000    0.000 
#
# Total GULP energy -198476.315101 kJ/mol
# GULP energy per Si atom -12404.769694 kJ/mol
# Density = 2.661328 g / cm^3
# Si number density = 26.673990 Si / 1000 Ang^3
#
#
#
# Elastic Constant Matrix: (Units=GPa)
#
#
# Indices 1 2 3 4 5 6 
#
# 1 191.6550 24.7103 42.6136 0.0024 -9.6897 -0.0159
# 2 24.7103 83.9876 22.4178 -0.0333 3.4895 -0.0108
# 3 42.6136 22.4178 65.5541 -0.0101 19.1540 0.0045
# 4 0.0024 -0.0333 -0.0101 28.7696 0.0109 15.7990
# 5 -9.6897 3.4895 19.1540 0.0109 69.1682 -0.0004
# 6 -0.0159 -0.0108 0.0045 15.7990 -0.0004 47.4293
#
#
#
# Elastic Compliance Matrix: (Units=1/GPa)
#
#
# Indices 1 2 3 4 5 6 
#
# 1 0.006445 -0.000768 -0.004572 -0.000006 0.002208 0.000005
# 2 -0.000768 0.013219 -0.004130 0.000015 0.000369 -0.000002
# 3 -0.004572 -0.004130 0.021505 0.000010 -0.006387 -0.000008
# 4 -0.000006 0.000015 0.000010 0.042541 -0.000011 -0.014171
# 5 0.002208 0.000369 -0.006387 -0.000011 0.016517 0.000005
# 6 0.000005 -0.000002 -0.000008 -0.014171 0.000005 0.025804
#
#
# Mechanical properties :
#
#
# Convention : Reuss Voigt Hill
#
# Bulk Modulus (GPa) = 44.98234 57.85336 51.41785
# Shear Modulus (GPa) = 32.81267 45.83708 39.32487
#
# Velocity S-wave (km/s) = 3.51114 4.14988 3.84380
# Velocity P-wave (km/s) = 5.77389 6.68567 6.24644
#
# Compressibility (1/GPa) = 0.02223095
#
# Stress axis : x y z
#
# Youngs Moduli (GPa) = 155.16234 75.64718 46.50045
#
# Poissons Ratio (x) = 0.05806 0.21260
# Poissons Ratio (y) = 0.11909 0.19203
# Poissons Ratio (z) = 0.70941 0.31239
#
# Static dielectric constant tensor:
#      x y z
#    x 5.860990 -0.000050 -0.083550 
#    y -0.000050 4.571970 0.000070 
#    z -0.083550 0.000070 5.491680 
# 
# 
# High freq. dielectric constant tensor:
#      x y z
#    x 2.102010 0.000000 0.007290 
#    y 0.000000 2.066330 0.000010 
#    z 0.007290 0.000010 2.106980 
# 
# From -- ./inp_files/164953.got.cif
#   From: 2010.06.25/outbox.cif.g09.slc.cpg/sg15_83_cif.got.tgz:164953.got - 2010.06.28 07:06:18.
