data_PCOD8149989
_publ_section_title
;
Structure prediction by ZEFSAII (Michael W. Deem and Ramdas Pophale) SiO2 
 PCOD8149989
Probable space group: C 2/C
;
_chemical_formula_sum "Si O2"
_cell_formula_units_Z 48
_cell_length_a 19.886220
_cell_length_b 8.647365
_cell_length_c 18.617505
_cell_angle_alpha 90.000000
_cell_angle_beta 43.861330
_cell_angle_gamma 90.000000
_cell_volume 2218.388964
_symmetry_space_group_name_H-M "C 2/C"
_symmetry_group_IT_number 15
_symmetry_cell_setting 'monoclinic'
loop_
_space_group_symop_operation_xyz
x,y,z
-x,y,1/2-z
-x,-y,-z
x,-y,1/2+z
1/2+x,1/2+y,z
1/2-x,1/2+y,1/2-z
1/2-x,1/2-y,-z
1/2+x,1/2-y,1/2+z
loop_
_atom_site_type_symbol
_atom_site_label
_atom_site_fract_x
_atom_site_fract_y
_atom_site_fract_z
Si Si1 0.400196 0.723718 0.860760
Si Si2 0.774292 0.375045 0.842486
Si Si3 0.884771 0.640850 0.113691
Si Si4 0.100253 0.325409 0.480007
Si Si5 0.724667 0.291392 0.418112
Si Si6 0.604707 0.361729 0.640861
O O1 0.500000 0.782064 0.750000
O O2 0.314654 0.756327 0.870557
O O3 0.402233 0.541287 0.874444
O O4 0.386918 0.819356 0.944076
O O5 0.847583 0.402707 0.720835
O O6 0.673709 0.301858 0.889959
O O7 0.762417 0.534281 0.893940
O O8 0.876703 0.495832 0.066414
O O9 0.817690 0.770396 0.129056
O O10 0.991469 0.714393 0.038703
O O11 0.639099 0.267722 0.543313
O O12 0.813739 0.172412 0.361611
O O13 0.500000 0.302019 0.750000
#
# Coordination Sequence:
#
# PCOD8149989 Si02
#       6
#     8   8   8   8   8   8
#     4  11  22  44  71  96 127 172 223 268 324 388
#     4  12  24  42  70  97 129 174 220 269 326 384
#     4  11  26  44  64  97 137 173 216 266 327 394
#     4  11  24  44  67  96 131 175 216 269 324 388
#     4  11  25  42  65 101 131 168 216 270 328 384
#     4  10  24  43  67  99 129 170 216 272 328 382
#
# _framework density 21.637322000000001
#
# number of rings (size 3 to 8) (size 9 to 14) (size 15 to 20)
#    0.000    1.000    3.333    2.500    4.667    5.333 
#    0.000    0.000    0.000    0.000    0.000    0.000 
#    0.000    0.000    0.000    0.000    0.000    0.000 
#
# Total GULP energy -297656.898357 kJ/mol
# GULP energy per Si atom -12402.370765 kJ/mol
# Density = 2.158807 g / cm^3
# Si number density = 21.637322 Si / 1000 Ang^3
#
#
#
# Elastic Constant Matrix: (Units=GPa)
#
#
# Indices 1 2 3 4 5 6 
#
# 1 124.5450 31.6410 55.0884 0.0001 -4.6578 -0.0002
# 2 31.6410 60.2001 34.2230 0.0000 -5.5209 -0.0006
# 3 55.0884 34.2230 119.4684 0.0000 -6.6454 0.0001
# 4 0.0001 0.0000 0.0000 24.6862 0.0000 -5.5460
# 5 -4.6578 -5.5209 -6.6454 0.0000 28.7236 -0.0002
# 6 -0.0002 -0.0006 0.0001 -5.5460 -0.0002 30.1045
#
#
#
# Elastic Compliance Matrix: (Units=1/GPa)
#
#
# Indices 1 2 3 4 5 6 
#
# 1 0.010622 -0.003331 -0.003934 0.000000 0.000172 0.000000
# 2 -0.003331 0.021070 -0.004361 0.000000 0.002501 0.000000
# 3 -0.003934 -0.004361 0.011500 0.000000 0.001184 0.000000
# 4 0.000000 0.000000 0.000000 0.042257 0.000000 0.007785
# 5 0.000172 0.002501 0.001184 0.000000 0.035597 0.000000
# 6 0.000000 0.000000 0.000000 0.007785 0.000000 0.034652
#
#
# Mechanical properties :
#
#
# Convention : Reuss Voigt Hill
#
# Bulk Modulus (GPa) = 50.14939 60.67982 55.41460
# Shear Modulus (GPa) = 26.94014 28.92027 27.93020
#
# Velocity S-wave (km/s) = 3.53239 3.65991 3.59672
# Velocity P-wave (km/s) = 6.31385 6.77974 6.55093
#
# Compressibility (1/GPa) = 0.01994042
#
# Stress axis : x y z
#
# Youngs Moduli (GPa) = 94.14419 47.46024 86.95887
#
# Poissons Ratio (x) = 0.15807 0.34212
# Poissons Ratio (y) = 0.31355 0.37922
# Poissons Ratio (z) = 0.37039 0.20697
#
# Static dielectric constant tensor:
#      x y z
#    x 3.829430 0.000000 -0.167890 
#    y 0.000000 3.627500 0.000000 
#    z -0.167890 0.000000 4.186150 
# 
# 
# High freq. dielectric constant tensor:
#      x y z
#    x 1.850930 0.000000 -0.006450 
#    y 0.000000 1.838380 0.000000 
#    z -0.006450 0.000000 1.868250 
# 
# From -- ./inp_files/247262.got.cif
#   From: 2010.06.25/outbox.cif.g09.slc.cpg/sg15_124_cif.got.tgz:247262.got - 2010.06.28 07:06:18.
