data_PCOD8149720
_publ_section_title
;
Structure prediction by ZEFSAII (Michael W. Deem and Ramdas Pophale) SiO2 
 PCOD8149720
Probable space group: C 2/C
;
_chemical_formula_sum "Si O2"
_cell_formula_units_Z 40
_cell_length_a 15.419348
_cell_length_b 10.369385
_cell_length_c 14.034164
_cell_angle_alpha 90.000000
_cell_angle_beta 56.561405
_cell_angle_gamma 90.000000
_cell_volume 1872.491511
_symmetry_space_group_name_H-M "C 2/C"
_symmetry_group_IT_number 15
_symmetry_cell_setting 'monoclinic'
loop_
_space_group_symop_operation_xyz
x,y,z
-x,y,1/2-z
-x,-y,-z
x,-y,1/2+z
1/2+x,1/2+y,z
1/2-x,1/2+y,1/2-z
1/2-x,1/2-y,-z
1/2+x,1/2-y,1/2+z
loop_
_atom_site_type_symbol
_atom_site_label
_atom_site_fract_x
_atom_site_fract_y
_atom_site_fract_z
Si Si1 0.288861 0.660529 0.797117
Si Si2 0.767085 0.060706 0.449121
Si Si3 0.862449 0.789266 0.048747
Si Si4 0.444566 0.140187 0.531095
Si Si5 0.108766 0.380933 0.641110
O O1 0.320372 0.543673 0.847903
O O2 0.347351 0.647431 0.661655
O O3 0.323639 0.792559 0.828494
O O4 0.165867 0.645886 0.848278
O O5 0.854111 0.107294 0.469777
O O6 0.722384 0.175932 0.411528
O O7 0.674405 0.005300 0.570756
O O8 0.979213 0.739997 0.965515
O O9 0.421046 0.192025 0.438500
O O10 0.500000 0.000000 0.500000
O O11 0.000000 0.429686 0.750000
#
# Coordination Sequence:
#
# PCOD8149720 Si02
#       5
#     8   8   8   8   8
#     4  11  24  42  68  98 130 174 216 271 333 386
#     4  10  24  41  62 102 133 161 223 278 314 392
#     4  11  23  41  69  97 133 170 216 276 329 380
#     4  11  21  42  67  99 125 170 226 261 318 399
#     4  11  22  40  69  96 132 174 221 264 330 392
#
# _framework density 21.361912
#
# number of rings (size 3 to 8) (size 9 to 14) (size 15 to 20)
#    0.000    1.200    6.000    2.400    5.600    0.000 
#    0.000    9.000    0.000    0.000    0.000    0.000 
#    0.000    0.000    0.000    0.000    0.000    0.000 
#
# Total GULP energy -247914.590569 kJ/mol
# GULP energy per Si atom -12395.729528 kJ/mol
# Density = 2.131329 g / cm^3
# Si number density = 21.361912 Si / 1000 Ang^3
#
#
#
# Elastic Constant Matrix: (Units=GPa)
#
#
# Indices 1 2 3 4 5 6 
#
# 1 137.1277 50.9545 37.6472 0.0000 6.0237 0.0000
# 2 50.9545 91.6537 45.8757 0.0000 1.1268 0.0000
# 3 37.6472 45.8757 69.7657 0.0000 8.3023 0.0000
# 4 0.0000 0.0000 0.0000 21.6895 0.0000 8.3601
# 5 6.0237 1.1268 8.3023 0.0000 32.0927 0.0000
# 6 0.0000 0.0000 0.0000 8.3601 0.0000 49.6615
#
#
#
# Elastic Compliance Matrix: (Units=1/GPa)
#
#
# Indices 1 2 3 4 5 6 
#
# 1 0.009499 -0.004121 -0.002292 0.000000 -0.001045 0.000000
# 2 -0.004121 0.018213 -0.010078 0.000000 0.002741 0.000000
# 3 -0.002292 -0.010078 0.022806 0.000000 -0.005116 0.000000
# 4 0.000000 0.000000 0.000000 0.049305 0.000000 -0.008300
# 5 -0.001045 0.002741 -0.005116 0.000000 0.032583 0.000000
# 6 0.000000 0.000000 0.000000 -0.008300 0.000000 0.021534
#
#
# Mechanical properties :
#
#
# Convention : Reuss Voigt Hill
#
# Bulk Modulus (GPa) = 57.02633 63.05577 60.04105
# Shear Modulus (GPa) = 25.93815 31.62670 28.78243
#
# Velocity S-wave (km/s) = 3.48835 3.85192 3.67464
# Velocity P-wave (km/s) = 6.55577 7.02603 6.79497
#
# Compressibility (1/GPa) = 0.01753576
#
# Stress axis : x y z
#
# Youngs Moduli (GPa) = 105.27637 54.90716 43.84744
#
# Poissons Ratio (x) = 0.22627 0.10048
# Poissons Ratio (y) = 0.43384 0.44191
# Poissons Ratio (z) = 0.24125 0.55338
#
# Static dielectric constant tensor:
#      x y z
#    x 4.356340 0.000000 0.035970 
#    y 0.000000 3.750050 0.000000 
#    z 0.035970 0.000000 3.832420 
# 
# 
# High freq. dielectric constant tensor:
#      x y z
#    x 1.852760 0.000000 0.012960 
#    y 0.000000 1.822130 0.000000 
#    z 0.012960 0.000000 1.829210 
# 
# From -- ./inp_files/159118.got.cif
#   From: 2010.06.25/outbox.cif.g09.slc.cpg/sg15_80_cif.got.tgz:159118.got - 2010.06.28 07:06:18.
