data_PCOD8149130
_publ_section_title
;
Structure prediction by ZEFSAII (Michael W. Deem and Ramdas Pophale) SiO2 
 PCOD8149130
Probable space group: C 2/C
;
_chemical_formula_sum "Si O2"
_cell_formula_units_Z 32
_cell_length_a 26.471286
_cell_length_b 11.106449
_cell_length_c 13.835649
_cell_angle_alpha 90.000000
_cell_angle_beta 161.909694
_cell_angle_gamma 90.000000
_cell_volume 1263.086908
_symmetry_space_group_name_H-M "C 2/C"
_symmetry_group_IT_number 15
_symmetry_cell_setting 'monoclinic'
loop_
_space_group_symop_operation_xyz
x,y,z
-x,y,1/2-z
-x,-y,-z
x,-y,1/2+z
1/2+x,1/2+y,z
1/2-x,1/2+y,1/2-z
1/2-x,1/2-y,-z
1/2+x,1/2-y,1/2+z
loop_
_atom_site_type_symbol
_atom_site_label
_atom_site_fract_x
_atom_site_fract_y
_atom_site_fract_z
Si Si1 0.522438 0.872912 0.997178
Si Si2 0.852084 0.162913 0.766537
Si Si3 0.841241 0.239832 0.411180
Si Si4 0.210571 0.101723 0.376986
O O1 0.597420 0.866271 0.026294
O O2 0.660520 0.822926 0.323360
O O3 0.370158 0.776784 0.721689
O O4 0.500000 0.000000 0.000000
O O5 0.802067 0.225921 0.776285
O O6 0.739984 0.044865 0.535354
O O7 0.033496 0.108898 0.104846
O O8 0.782873 0.147603 0.221961
O O9 0.000000 0.179657 0.750000
#
# Coordination Sequence:
#
# PCOD8149130 Si02
#       4
#     8   8   8   8
#     4  11  25  44  69  97 137 176 226 280 341 408
#     4  10  23  44  67  96 138 170 227 278 339 404
#     4  11  24  42  66  99 130 176 228 274 341 407
#     4  10  24  45  65 100 133 180 224 280 348 400
#
# _framework density 25.334757
#
# number of rings (size 3 to 8) (size 9 to 14) (size 15 to 20)
#    0.000    1.500    0.000    4.500    3.500   15.000 
#    4.500    0.000    0.000    0.000    0.000    0.000 
#    0.000    0.000    0.000    0.000    0.000    0.000 
#
# Total GULP energy -198233.473301 kJ/mol
# GULP energy per Si atom -12389.592081 kJ/mol
# Density = 2.527709 g / cm^3
# Si number density = 25.334757 Si / 1000 Ang^3
#
#
#
# Elastic Constant Matrix: (Units=GPa)
#
#
# Indices 1 2 3 4 5 6 
#
# 1 169.9136 31.5900 26.3816 0.0000 22.8332 0.0000
# 2 31.5900 100.8671 14.9118 0.0000 18.4493 0.0000
# 3 26.3816 14.9118 71.9213 0.0000 -4.9565 0.0000
# 4 0.0000 0.0000 0.0000 39.2253 0.0000 -4.8816
# 5 22.8332 18.4493 -4.9565 0.0000 49.3061 0.0000
# 6 0.0000 0.0000 0.0000 -4.8816 0.0000 43.0396
#
#
#
# Elastic Compliance Matrix: (Units=1/GPa)
#
#
# Indices 1 2 3 4 5 6 
#
# 1 0.006903 -0.001251 -0.002478 0.000000 -0.002978 0.000000
# 2 -0.001251 0.011334 -0.002158 0.000000 -0.003879 0.000000
# 3 -0.002478 -0.002158 0.015503 0.000000 0.003514 0.000000
# 4 0.000000 0.000000 0.000000 0.025859 0.000000 0.002933
# 5 -0.002978 -0.003879 0.003514 0.000000 0.023465 0.000000
# 6 0.000000 0.000000 0.000000 0.002933 0.000000 0.023567
#
#
# Mechanical properties :
#
#
# Convention : Reuss Voigt Hill
#
# Bulk Modulus (GPa) = 45.52631 54.27430 49.90031
# Shear Modulus (GPa) = 39.76876 44.30211 42.03544
#
# Velocity S-wave (km/s) = 3.96628 4.18625 4.07775
# Velocity P-wave (km/s) = 6.24373 6.69594 6.47378
#
# Compressibility (1/GPa) = 0.02196532
#
# Stress axis : x y z
#
# Youngs Moduli (GPa) = 144.86929 88.22736 64.50498
#
# Poissons Ratio (x) = 0.11036 0.15984
# Poissons Ratio (y) = 0.18122 0.13923
# Poissons Ratio (z) = 0.35897 0.19044
#
# Static dielectric constant tensor:
#      x y z
#    x 3.892640 0.000000 1.234030 
#    y 0.000000 4.201390 0.000000 
#    z 1.234030 0.000000 1.155090 
# 
# 
# High freq. dielectric constant tensor:
#      x y z
#    x 1.993570 0.000000 -0.008110 
#    y 0.000000 2.042470 0.000000 
#    z -0.008110 0.000000 2.066210 
# 
# From -- ./inp_files/132050.got.cif
#   From: 2010.06.25/outbox.cif.g09.slc.cpg/sg15_67_cif.got.tgz:132050.got - 2010.06.28 07:06:18.
