data_PCOD8149902
_publ_section_title
;
Structure prediction by ZEFSAII (Michael W. Deem and Ramdas Pophale) SiO2 
 PCOD8149902
Probable space group: C 2/C
;
_chemical_formula_sum "Si O2"
_cell_formula_units_Z 36
_cell_length_a 5.135553
_cell_length_b 21.633739
_cell_length_c 14.310101
_cell_angle_alpha 90.000000
_cell_angle_beta 103.622186
_cell_angle_gamma 90.000000
_cell_volume 1545.146354
_symmetry_space_group_name_H-M "C 2/C"
_symmetry_group_IT_number 15
_symmetry_cell_setting 'monoclinic'
loop_
_space_group_symop_operation_xyz
x,y,z
-x,y,1/2-z
-x,-y,-z
x,-y,1/2+z
1/2+x,1/2+y,z
1/2-x,1/2+y,1/2-z
1/2-x,1/2-y,-z
1/2+x,1/2-y,1/2+z
loop_
_atom_site_type_symbol
_atom_site_label
_atom_site_fract_x
_atom_site_fract_y
_atom_site_fract_z
Si Si1 0.197993 0.874808 0.189150
Si Si2 0.506858 0.707677 0.505262
Si Si3 0.139513 0.084020 0.080946
Si Si4 0.000000 0.483103 0.750000
Si Si5 0.820109 0.024547 0.601943
O O1 0.500000 0.870438 0.250000
O O2 0.000000 0.848965 0.250000
O O3 0.132266 0.830060 0.100001
O O4 0.112802 0.945987 0.155425
O O5 0.250000 0.750000 0.500000
O O6 0.424845 0.656868 0.420091
O O7 0.750000 0.750000 0.500000
O O8 0.300367 0.065771 0.186543
O O9 0.291473 0.065672 0.995113
O O10 0.862821 0.044564 0.066035
O O11 0.129453 0.526390 0.677571
#
# Coordination Sequence:
#
# PCOD8149902 Si02
#       5
#     8   8   8   4   8
#     4  11  24  44  72 107 139 188 246 295 361 447
#     4  11  26  51  73  99 143 194 248 307 360 420
#     4  10  24  44  70 106 146 194 237 296 371 435
#     4  12  22  42  70 116 152 182 244 294 378 452
#     4  10  24  42  70 109 151 188 227 300 374 444
#
# _framework density 23.298763000000001
#
# number of rings (size 3 to 8) (size 9 to 14) (size 15 to 20)
#    0.000    1.333    0.000    4.000    9.333    0.000 
#    6.000    0.000    0.000    0.000    0.000    0.000 
#    0.000    0.000    0.000    0.000    0.000    0.000 
#
# Total GULP energy -223011.599142 kJ/mol
# GULP energy per Si atom -12389.533286 kJ/mol
# Density = 2.324573 g / cm^3
# Si number density = 23.298763 Si / 1000 Ang^3
#
#
#
# Elastic Constant Matrix: (Units=GPa)
#
#
# Indices 1 2 3 4 5 6 
#
# 1 158.3623 67.3031 39.4040 0.0000 -1.9223 0.0000
# 2 67.3031 180.0734 37.9662 0.0000 -0.6863 0.0000
# 3 39.4040 37.9662 112.8118 0.0000 -3.9500 0.0000
# 4 0.0000 0.0000 0.0000 28.3425 0.0000 0.1541
# 5 -1.9223 -0.6863 -3.9500 0.0000 49.0003 0.0000
# 6 0.0000 0.0000 0.0000 0.1541 0.0000 47.6912
#
#
#
# Elastic Compliance Matrix: (Units=1/GPa)
#
#
# Indices 1 2 3 4 5 6 
#
# 1 0.007866 -0.002541 -0.001888 0.000000 0.000121 0.000000
# 2 -0.002541 0.006799 -0.001405 0.000000 -0.000118 0.000000
# 3 -0.001888 -0.001405 0.010021 0.000000 0.000714 0.000000
# 4 0.000000 0.000000 0.000000 0.035283 0.000000 -0.000114
# 5 0.000121 -0.000118 0.000714 0.000000 0.020469 0.000000
# 6 0.000000 0.000000 0.000000 -0.000114 0.000000 0.020969
#
#
# Mechanical properties :
#
#
# Convention : Reuss Voigt Hill
#
# Bulk Modulus (GPa) = 76.81433 82.28823 79.55128
# Shear Modulus (GPa) = 42.58427 45.44507 44.01467
#
# Velocity S-wave (km/s) = 4.27986 4.42128 4.35114
# Velocity P-wave (km/s) = 7.58048 7.83958 7.71112
#
# Compressibility (1/GPa) = 0.01301840
#
# Stress axis : x y z
#
# Youngs Moduli (GPa) = 127.13015 147.08399 99.78575
#
# Poissons Ratio (x) = 0.37380 0.18839
# Poissons Ratio (y) = 0.32309 0.14015
# Poissons Ratio (z) = 0.24002 0.20659
#
# Static dielectric constant tensor:
#      x y z
#    x 4.174530 0.000000 0.076010 
#    y 0.000000 4.713970 0.000000 
#    z 0.076010 0.000000 4.688980 
# 
# 
# High freq. dielectric constant tensor:
#      x y z
#    x 1.926200 0.000000 0.009510 
#    y 0.000000 1.910100 0.000000 
#    z 0.009510 0.000000 1.943270 
# 
# From -- ./inp_files/128782.got.cif
#   From: 2010.06.25/outbox.cif.g09.slc.cpg/sg15_65_cif.got.tgz:128782.got - 2010.06.28 07:06:18.
