data_PCOD8149403
_publ_section_title
;
Structure prediction by ZEFSAII (Michael W. Deem and Ramdas Pophale) SiO2 
 PCOD8149403
Probable space group: C 2/C
;
_chemical_formula_sum "Si O2"
_cell_formula_units_Z 48
_cell_length_a 6.568500
_cell_length_b 28.090546
_cell_length_c 14.819545
_cell_angle_alpha 90.000000
_cell_angle_beta 56.710620
_cell_angle_gamma 90.000000
_cell_volume 2285.705711
_symmetry_space_group_name_H-M "C 2/C"
_symmetry_group_IT_number 15
_symmetry_cell_setting 'monoclinic'
loop_
_space_group_symop_operation_xyz
x,y,z
-x,y,1/2-z
-x,-y,-z
x,-y,1/2+z
1/2+x,1/2+y,z
1/2-x,1/2+y,1/2-z
1/2-x,1/2-y,-z
1/2+x,1/2-y,1/2+z
loop_
_atom_site_type_symbol
_atom_site_label
_atom_site_fract_x
_atom_site_fract_y
_atom_site_fract_z
Si Si1 0.371270 0.805001 0.872484
Si Si2 0.843451 0.958818 0.875219
Si Si3 0.012434 0.724492 0.522408
Si Si4 0.316879 0.935089 0.060151
Si Si5 0.485207 0.138927 0.860065
Si Si6 0.041346 0.891017 0.971533
O O1 0.500000 0.788967 0.750000
O O2 0.250558 0.856454 0.882230
O O3 0.173294 0.766605 0.945990
O O4 0.550290 0.803897 0.917123
O O5 0.000000 0.944179 0.750000
O O6 0.000890 0.937870 0.919928
O O7 0.812128 0.015189 0.887972
O O8 0.568347 0.938131 0.941339
O O9 0.250000 0.750000 0.500000
O O10 0.907689 0.686656 0.620827
O O11 0.368718 0.907804 0.141515
O O12 0.118901 0.906390 0.052187
O O13 0.500000 0.141669 0.750000
O O14 0.206929 0.138078 0.960290
#
# Coordination Sequence:
#
# PCOD8149403 Si02
#       6
#     8   8   8   8   8   8
#     4  11  26  41  69  97 131 175 211 270 329 382
#     4  10  24  41  66  95 127 173 212 266 327 384
#     4  11  24  46  62  97 136 166 223 266 314 395
#     4  10  23  46  61  95 134 161 221 269 314 399
#     4  11  25  41  69  95 128 175 214 269 330 383
#     4  11  23  43  65  97 128 167 217 270 321 389
#
# _framework density 21.000077999999998
#
# number of rings (size 3 to 8) (size 9 to 14) (size 15 to 20)
#    0.000    1.333    3.333    0.500    7.000    0.000 
#    0.000    0.000    0.000    0.000    0.000    0.000 
#    0.000    0.000    0.000    0.000    0.000    0.000 
#
# Total GULP energy -297532.996143 kJ/mol
# GULP energy per Si atom -12397.208173 kJ/mol
# Density = 2.095228 g / cm^3
# Si number density = 21.000078 Si / 1000 Ang^3
#
#
#
# Elastic Constant Matrix: (Units=GPa)
#
#
# Indices 1 2 3 4 5 6 
#
# 1 110.1366 41.5769 33.2304 0.0000 24.2392 0.0000
# 2 41.5769 112.0123 17.3966 0.0000 18.0006 0.0000
# 3 33.2304 17.3966 93.6031 0.0000 34.7331 0.0000
# 4 0.0000 0.0000 0.0000 22.9132 0.0000 9.8458
# 5 24.2392 18.0006 34.7331 0.0000 32.0259 0.0000
# 6 0.0000 0.0000 0.0000 9.8458 0.0000 21.9915
#
#
#
# Elastic Compliance Matrix: (Units=1/GPa)
#
#
# Indices 1 2 3 4 5 6 
#
# 1 0.012032 -0.003335 -0.001620 0.000000 -0.005476 0.000000
# 2 -0.003335 0.010746 0.000822 0.000000 -0.004408 0.000000
# 3 -0.001620 0.000822 0.018111 0.000000 -0.018877 0.000000
# 4 0.000000 0.000000 0.000000 0.054039 0.000000 -0.024194
# 5 -0.005476 -0.004408 -0.018877 0.000000 0.058320 0.000000
# 6 0.000000 0.000000 0.000000 -0.024194 0.000000 0.056304
#
#
# Mechanical properties :
#
#
# Convention : Reuss Voigt Hill
#
# Bulk Modulus (GPa) = 30.65243 55.57332 43.11287
# Shear Modulus (GPa) = 21.86355 30.28932 26.07644
#
# Velocity S-wave (km/s) = 3.23014 3.80194 3.52764
# Velocity P-wave (km/s) = 5.34226 6.76711 6.09646
#
# Compressibility (1/GPa) = 0.03262385
#
# Stress axis : x y z
#
# Youngs Moduli (GPa) = 83.10917 93.05803 55.21645
#
# Poissons Ratio (x) = 0.31032 0.08946
# Poissons Ratio (y) = 0.27714 -0.04540
# Poissons Ratio (z) = 0.13465 -0.07652
#
# Static dielectric constant tensor:
#      x y z
#    x 5.905110 0.000000 0.257570 
#    y 0.000000 3.984710 0.000000 
#    z 0.257570 0.000000 3.575320 
# 
# 
# High freq. dielectric constant tensor:
#      x y z
#    x 1.835660 0.000000 0.009140 
#    y 0.000000 1.837430 0.000000 
#    z 0.009140 0.000000 1.803570 
# 
# From -- ./inp_files/130574.got.cif
#   From: 2010.06.25/outbox.cif.g09.slc.cpg/sg15_66_cif.got.tgz:130574.got - 2010.06.28 07:06:18.
