data_PCOD8149181
_publ_section_title
;
Structure prediction by ZEFSAII (Michael W. Deem and Ramdas Pophale) SiO2 
 PCOD8149181
Probable space group: C 2/C
;
_chemical_formula_sum "Si O2"
_cell_formula_units_Z 48
_cell_length_a 8.652951
_cell_length_b 17.524719
_cell_length_c 25.993176
_cell_angle_alpha 90.000000
_cell_angle_beta 147.592485
_cell_angle_gamma 90.000000
_cell_volume 2112.461624
_symmetry_space_group_name_H-M "C 2/C"
_symmetry_group_IT_number 15
_symmetry_cell_setting 'monoclinic'
loop_
_space_group_symop_operation_xyz
x,y,z
-x,y,1/2-z
-x,-y,-z
x,-y,1/2+z
1/2+x,1/2+y,z
1/2-x,1/2+y,1/2-z
1/2-x,1/2-y,-z
1/2+x,1/2-y,1/2+z
loop_
_atom_site_type_symbol
_atom_site_label
_atom_site_fract_x
_atom_site_fract_y
_atom_site_fract_z
Si Si1 0.000000 0.546207 0.750000
Si Si2 0.549485 0.173983 0.384766
Si Si3 0.582318 0.331852 0.103408
Si Si4 0.022816 0.675342 0.884485
Si Si5 0.059577 0.835400 0.604599
Si Si6 0.798835 0.055589 0.264426
Si Si7 0.000000 0.938749 0.250000
O O1 0.296102 0.595926 0.831342
O O2 0.016901 0.493163 0.703817
O O3 0.427062 0.258930 0.360995
O O4 0.704998 0.164340 0.373915
O O5 0.289035 0.113571 0.306726
O O6 0.763155 0.151998 0.491652
O O7 0.811226 0.321500 0.122448
O O8 0.875872 0.757605 0.846971
O O9 0.784177 0.610658 0.821588
O O10 0.237730 0.661574 0.992259
O O11 0.079197 0.904086 0.650366
O O12 0.033230 0.995639 0.308319
#
# Coordination Sequence:
#
# PCOD8149181 Si02
#       7
#     4   8   8   8   8   8   4
#     4  12  24  42  64 100 134 178 220 276 344 398
#     4  10  23  44  69  99 130 176 227 279 335 404
#     4  10  24  43  69  98 131 176 229 276 335 403
#     4  10  24  45  66  96 133 179 228 277 328 404
#     4  10  23  44  69  95 133 177 227 277 336 400
#     4  12  26  42  66 102 138 178 220 277 345 404
#     4  12  28  42  64 100 142 182 224 278 342 396
#
# _framework density 22.722304999999999
#
# number of rings (size 3 to 8) (size 9 to 14) (size 15 to 20)
#    0.000    1.333    3.333    0.000    9.333    2.667 
#    0.000    0.000    0.000    0.000    0.000    0.000 
#    0.000    0.000    0.000    0.000    0.000    0.000 
#
# Total GULP energy -297457.631288 kJ/mol
# GULP energy per Si atom -12394.067970 kJ/mol
# Density = 2.267059 g / cm^3
# Si number density = 22.722305 Si / 1000 Ang^3
#
#
#
# Elastic Constant Matrix: (Units=GPa)
#
#
# Indices 1 2 3 4 5 6 
#
# 1 84.6159 56.5906 20.1454 -0.0001 -12.5687 0.0001
# 2 56.5906 139.2503 41.4748 0.0013 -11.3022 0.0003
# 3 20.1454 41.4748 60.0286 0.0097 -6.3076 0.0017
# 4 -0.0001 0.0013 0.0097 16.6939 0.0024 3.0597
# 5 -12.5687 -11.3022 -6.3076 0.0024 23.3230 0.0008
# 6 0.0001 0.0003 0.0017 3.0597 0.0008 56.0665
#
#
#
# Elastic Compliance Matrix: (Units=1/GPa)
#
#
# Indices 1 2 3 4 5 6 
#
# 1 0.017044 -0.006202 -0.000809 0.000000 0.005961 0.000000
# 2 -0.006202 0.011476 -0.005779 0.000002 0.000656 0.000000
# 3 -0.000809 -0.005779 0.021185 -0.000012 0.002493 0.000000
# 4 0.000000 0.000002 -0.000012 0.060507 -0.000008 -0.003302
# 5 0.005961 0.000656 0.002493 -0.000008 0.047081 0.000000
# 6 0.000000 0.000000 0.000000 -0.003302 0.000000 0.018016
#
#
# Mechanical properties :
#
#
# Convention : Reuss Voigt Hill
#
# Bulk Modulus (GPa) = 41.44860 57.81296 49.63078
# Shear Modulus (GPa) = 23.93151 30.26226 27.09689
#
# Velocity S-wave (km/s) = 3.24885 3.65338 3.45704
# Velocity P-wave (km/s) = 5.68809 6.57988 6.15017
#
# Compressibility (1/GPa) = 0.02412627
#
# Stress axis : x y z
#
# Youngs Moduli (GPa) = 58.67240 87.13696 47.20382
#
# Poissons Ratio (x) = 0.54041 0.03816
# Poissons Ratio (y) = 0.36388 0.27278
# Poissons Ratio (z) = 0.04744 0.50355
#
# Static dielectric constant tensor:
#      x y z
#    x 4.178830 0.000000 -0.021570 
#    y 0.000000 4.485270 -0.000010 
#    z -0.021570 -0.000010 4.047770 
# 
# 
# High freq. dielectric constant tensor:
#      x y z
#    x 1.907790 0.000000 -0.001810 
#    y 0.000000 1.913100 0.000000 
#    z -0.001810 0.000000 1.879430 
# 
# From -- ./inp_files/308855.got.cif
#   From: 2010.06.25/outbox.cif.g09.slc.cpg/sg15_155_cif.got.tgz:308855.got - 2010.06.28 07:06:18.
