data_PCOD8149263
_publ_section_title
;
Structure prediction by ZEFSAII (Michael W. Deem and Ramdas Pophale) SiO2 
 PCOD8149263
Probable space group: C 2/C
;
_chemical_formula_sum "Si O2"
_cell_formula_units_Z 32
_cell_length_a 14.206456
_cell_length_b 5.497023
_cell_length_c 17.472063
_cell_angle_alpha 90.000000
_cell_angle_beta 65.448072
_cell_angle_gamma 90.000000
_cell_volume 1241.082945
_symmetry_space_group_name_H-M "C 2/C"
_symmetry_group_IT_number 15
_symmetry_cell_setting 'monoclinic'
loop_
_space_group_symop_operation_xyz
x,y,z
-x,y,1/2-z
-x,-y,-z
x,-y,1/2+z
1/2+x,1/2+y,z
1/2-x,1/2+y,1/2-z
1/2-x,1/2-y,-z
1/2+x,1/2-y,1/2+z
loop_
_atom_site_type_symbol
_atom_site_label
_atom_site_fract_x
_atom_site_fract_y
_atom_site_fract_z
Si Si1 0.892536 0.939246 0.255164
Si Si2 0.662957 0.856974 0.591160
Si Si3 0.740089 0.135040 0.412117
Si Si4 0.534648 0.699266 0.928270
O O1 0.800024 0.122923 0.310237
O O2 0.000000 0.051990 0.250000
O O3 0.872384 0.682576 0.308022
O O4 0.897491 0.923374 0.162365
O O5 0.783007 0.378699 0.440128
O O6 0.736973 0.617183 0.547837
O O7 0.560248 0.850444 0.573518
O O8 0.616593 0.127262 0.442975
O O9 0.500000 0.500000 0.000000
#
# Coordination Sequence:
#
# PCOD8149263 Si02
#       4
#     8   8   8   8
#     4   8  20  43  65  98 131 181 227 278 329 410
#     4   9  23  45  70  96 135 180 233 273 334 415
#     4  10  23  44  73  94 135 182 231 275 341 404
#     4  11  24  44  71 108 141 178 230 291 351 405
#
# _framework density 25.783932
#
# number of rings (size 3 to 8) (size 9 to 14) (size 15 to 20)
#    1.500    1.000    0.000    0.000    3.500    7.000 
#    0.000    2.500    0.000    0.000    0.000    0.000 
#    0.000    0.000    0.000    0.000    0.000    0.000 
#
# Total GULP energy -198297.388954 kJ/mol
# GULP energy per Si atom -12393.586810 kJ/mol
# Density = 2.572525 g / cm^3
# Si number density = 25.783932 Si / 1000 Ang^3
#
#
#
# Elastic Constant Matrix: (Units=GPa)
#
#
# Indices 1 2 3 4 5 6 
#
# 1 192.3840 68.1384 39.8398 -0.0012 -22.6778 -0.0011
# 2 68.1384 138.1278 103.4208 -0.0026 -3.0655 -0.0028
# 3 39.8398 103.4208 198.5793 -0.0002 7.9374 -0.0002
# 4 -0.0012 -0.0026 -0.0002 50.5274 -0.0002 -5.1610
# 5 -22.6778 -3.0655 7.9374 -0.0002 31.7415 -0.0003
# 6 -0.0011 -0.0028 -0.0002 -5.1610 -0.0003 4.5053
#
#
#
# Elastic Compliance Matrix: (Units=1/GPa)
#
#
# Indices 1 2 3 4 5 6 
#
# 1 0.006922 -0.003505 0.000255 0.000000 0.004543 0.000000
# 2 -0.003505 0.013879 -0.006544 0.000002 0.000473 0.000009
# 3 0.000255 -0.006544 0.008496 -0.000001 -0.002574 -0.000005
# 4 0.000000 0.000002 -0.000001 0.022414 0.000001 0.025676
# 5 0.004543 0.000473 -0.002574 0.000001 0.035440 0.000005
# 6 0.000000 0.000009 -0.000005 0.025676 0.000005 0.251371
#
#
# Mechanical properties :
#
#
# Convention : Reuss Voigt Hill
#
# Bulk Modulus (GPa) = 102.99659 105.76543 104.38101
# Shear Modulus (GPa) = 13.83722 38.53433 26.18577
#
# Velocity S-wave (km/s) = 2.31911 3.87008 3.19028
# Velocity P-wave (km/s) = 6.87050 7.81531 7.35808
#
# Compressibility (1/GPa) = 0.00970906
#
# Stress axis : x y z
#
# Youngs Moduli (GPa) = 144.46774 72.05366 117.70873
#
# Poissons Ratio (x) = 0.25252 -0.03001
# Poissons Ratio (y) = 0.50631 0.77026
# Poissons Ratio (z) = -0.03683 0.47150
#
# Static dielectric constant tensor:
#      x y z
#    x 4.607550 0.000090 -0.220320 
#    y 0.000090 5.256700 -0.000050 
#    z -0.220320 -0.000050 5.208370 
# 
# 
# High freq. dielectric constant tensor:
#      x y z
#    x 2.026280 0.000000 -0.011190 
#    y 0.000000 2.010990 0.000000 
#    z -0.011190 0.000000 2.094860 
# 
# From -- ./inp_files/93805.got.cif
#   From: 2010.06.25/outbox.cif.g09.slc.cpg/sg15_47_cif.got.tgz:93805.got - 2010.06.28 07:06:18.
