data_PCOD8149523
_publ_section_title
;
Structure prediction by ZEFSAII (Michael W. Deem and Ramdas Pophale) SiO2 
 PCOD8149523
Probable space group: C 2/C
;
_chemical_formula_sum "Si O2"
_cell_formula_units_Z 64
_cell_length_a 13.579581
_cell_length_b 14.209850
_cell_length_c 17.195164
_cell_angle_alpha 90.000000
_cell_angle_beta 57.028434
_cell_angle_gamma 90.000000
_cell_volume 2783.642613
_symmetry_space_group_name_H-M "C 2/C"
_symmetry_group_IT_number 15
_symmetry_cell_setting 'monoclinic'
loop_
_space_group_symop_operation_xyz
x,y,z
-x,y,1/2-z
-x,-y,-z
x,-y,1/2+z
1/2+x,1/2+y,z
1/2-x,1/2+y,1/2-z
1/2-x,1/2-y,-z
1/2+x,1/2-y,1/2+z
loop_
_atom_site_type_symbol
_atom_site_label
_atom_site_fract_x
_atom_site_fract_y
_atom_site_fract_z
Si Si1 0.674162 0.544718 0.610301
Si Si2 0.953815 0.118821 0.410326
Si Si3 0.524898 0.719405 0.653264
Si Si4 0.397571 0.943966 0.464976
Si Si5 0.561156 0.104435 0.385551
Si Si6 0.657275 0.370199 0.376315
Si Si7 0.306627 0.546858 0.230651
Si Si8 0.120662 0.292834 0.154231
O O1 0.583519 0.485268 0.597847
O O2 0.641600 0.653901 0.607231
O O3 0.804611 0.525668 0.524359
O O4 0.663475 0.513442 0.704746
O O5 0.927031 0.134326 0.512261
O O6 0.882795 0.193119 0.387834
O O7 0.092749 0.124613 0.331644
O O8 0.500000 0.753843 0.750000
O O9 0.531947 0.816253 0.601438
O O10 0.415996 0.661208 0.666626
O O11 0.423867 0.879527 0.528573
O O12 0.351832 0.876176 0.417960
O O13 0.513677 0.999421 0.388735
O O14 0.687574 0.107628 0.289035
O O15 0.703159 0.475616 0.338505
O O16 0.767265 0.297848 0.337092
O O17 0.000000 0.313164 0.250000
#
# Coordination Sequence:
#
# PCOD8149523 Si02
#       8
#     8   8   8   8   8   8   8   8
#     4  11  22  44  72  96 146 188 236 294 369 420
#     4  12  24  42  69 108 142 184 239 298 361 429
#     4  12  25  45  67 104 142 189 237 300 350 427
#     4  10  23  48  69 102 141 192 233 303 361 430
#     4  10  25  45  73  98 142 188 243 288 368 430
#     4  12  25  42  70 103 143 183 238 304 352 426
#     4  11  23  44  71 101 140 191 237 293 364 433
#     4  12  26  42  72 106 145 180 239 295 367 428
#
# _framework density 22.991455999999999
#
# number of rings (size 3 to 8) (size 9 to 14) (size 15 to 20)
#    0.000    0.750    3.750    3.375    5.250    2.000 
#    0.000    1.250    0.000    0.000    0.000    0.000 
#    0.000    0.000    0.000    0.000    0.000    0.000 
#
# Total GULP energy -396799.795358 kJ/mol
# GULP energy per Si atom -12399.993605 kJ/mol
# Density = 2.293913 g / cm^3
# Si number density = 22.991456 Si / 1000 Ang^3
#
#
#
# Elastic Constant Matrix: (Units=GPa)
#
#
# Indices 1 2 3 4 5 6 
#
# 1 85.7235 28.5587 38.9874 0.0000 1.4758 0.0000
# 2 28.5587 96.7622 34.5311 0.0000 4.9515 0.0000
# 3 38.9874 34.5311 102.8286 0.0000 -9.6928 0.0000
# 4 0.0000 0.0000 0.0000 19.7713 0.0000 2.2326
# 5 1.4758 4.9515 -9.6928 0.0000 30.1068 0.0000
# 6 0.0000 0.0000 0.0000 2.2326 0.0000 50.7077
#
#
#
# Elastic Compliance Matrix: (Units=1/GPa)
#
#
# Indices 1 2 3 4 5 6 
#
# 1 0.014780 -0.002500 -0.004944 0.000000 -0.001905 0.000000
# 2 -0.002500 0.012492 -0.003536 0.000000 -0.003070 0.000000
# 3 -0.004944 -0.003536 0.013267 0.000000 0.005095 0.000000
# 4 0.000000 0.000000 0.000000 0.050831 0.000000 -0.002238
# 5 -0.001905 -0.003070 0.005095 0.000000 0.035454 0.000000
# 6 0.000000 0.000000 0.000000 -0.002238 0.000000 0.019819
#
#
# Mechanical properties :
#
#
# Convention : Reuss Voigt Hill
#
# Bulk Modulus (GPa) = 53.82747 54.38542 54.10645
# Shear Modulus (GPa) = 28.60484 32.33297 30.46890
#
# Velocity S-wave (km/s) = 3.53108 3.75414 3.64432
# Velocity P-wave (km/s) = 6.33147 6.51900 6.42592
#
# Compressibility (1/GPa) = 0.01857788
#
# Stress axis : x y z
#
# Youngs Moduli (GPa) = 67.66103 80.05334 75.37472
#
# Poissons Ratio (x) = 0.20017 0.37262
# Poissons Ratio (y) = 0.16918 0.26654
# Poissons Ratio (z) = 0.33448 0.28309
#
# Static dielectric constant tensor:
#      x y z
#    x 4.181760 0.000000 0.012300 
#    y 0.000000 4.010350 0.000000 
#    z 0.012300 0.000000 4.127820 
# 
# 
# High freq. dielectric constant tensor:
#      x y z
#    x 1.911400 0.000000 0.000890 
#    y 0.000000 1.903000 0.000000 
#    z 0.000890 0.000000 1.907520 
# 
# From -- ./inp_files/205712.got.cif
#   From: 2010.06.25/outbox.cif.g09.slc.cpg/sg15_103_cif.got.tgz:205712.got - 2010.06.28 07:06:18.
