data_PCOD8149758
_publ_section_title
;
Structure prediction by ZEFSAII (Michael W. Deem and Ramdas Pophale) SiO2 
 PCOD8149758
Probable space group: C 2/C
;
_chemical_formula_sum "Si O2"
_cell_formula_units_Z 60
_cell_length_a 9.631334
_cell_length_b 22.828754
_cell_length_c 13.472164
_cell_angle_alpha 90.000000
_cell_angle_beta 74.283611
_cell_angle_gamma 90.000000
_cell_volume 2851.401172
_symmetry_space_group_name_H-M "C 2/C"
_symmetry_group_IT_number 15
_symmetry_cell_setting 'monoclinic'
loop_
_space_group_symop_operation_xyz
x,y,z
-x,y,1/2-z
-x,-y,-z
x,-y,1/2+z
1/2+x,1/2+y,z
1/2-x,1/2+y,1/2-z
1/2-x,1/2-y,-z
1/2+x,1/2-y,1/2+z
loop_
_atom_site_type_symbol
_atom_site_label
_atom_site_fract_x
_atom_site_fract_y
_atom_site_fract_z
Si Si1 0.929831 0.558402 0.911154
Si Si2 0.209866 0.637875 0.868485
Si Si3 0.406501 0.372549 0.516411
Si Si4 0.905729 0.442069 0.640026
Si Si5 0.269182 0.733538 0.110154
Si Si6 0.386906 0.537962 0.192145
Si Si7 0.155402 0.089089 0.841814
Si Si8 0.000000 0.664063 0.250000
O O1 0.814271 0.581924 0.856235
O O2 0.066486 0.600728 0.882223
O O3 0.971220 0.491939 0.871949
O O4 0.859312 0.560309 0.034083
O O5 0.180460 0.706253 0.847847
O O6 0.332398 0.617645 0.768369
O O7 0.271431 0.626975 0.966754
O O8 0.395290 0.315249 0.589370
O O9 0.393511 0.428437 0.587966
O O10 0.558722 0.369773 0.430715
O O11 0.770995 0.461091 0.731247
O O12 0.960516 0.378371 0.665188
O O13 0.128233 0.706698 0.190871
O O14 0.250000 0.750000 0.000000
O O15 0.500000 0.563425 0.250000
O O16 0.428101 0.472036 0.154492
#
# Coordination Sequence:
#
# PCOD8149758 Si02
#       8
#     8   8   8   8   8   8   8   4
#     4  11  25  42  67 100 140 174 219 280 341 411
#     4  11  24  44  67 100 132 175 230 277 336 396
#     4  11  24  44  66  98 132 175 231 275 331 403
#     4  11  23  39  69  98 136 171 223 275 341 394
#     4  10  24  41  68  98 133 172 231 284 322 399
#     4  12  24  41  63 101 141 174 220 276 350 409
#     4  12  25  41  68  95 137 178 215 273 349 409
#     4  12  22  44  74 104 130 182 236 282 336 406
#
# _framework density 21.042287999999999
#
# number of rings (size 3 to 8) (size 9 to 14) (size 15 to 20)
#    0.000    0.800    2.667    5.200    7.467    0.000 
#    0.000    2.000    0.000    0.000    0.000    0.000 
#    0.000    0.000    0.000    0.000    0.000    0.000 
#
# Total GULP energy -372029.545717 kJ/mol
# GULP energy per Si atom -12400.984857 kJ/mol
# Density = 2.099439 g / cm^3
# Si number density = 21.042288 Si / 1000 Ang^3
#
#
#
# Elastic Constant Matrix: (Units=GPa)
#
#
# Indices 1 2 3 4 5 6 
#
# 1 65.2284 20.1403 24.3434 0.0000 -0.7805 0.0000
# 2 20.1403 135.8298 40.0196 0.0000 -6.9502 0.0000
# 3 24.3434 40.0196 111.0501 0.0000 -9.3524 0.0000
# 4 0.0000 0.0000 0.0000 37.8357 0.0000 1.3608
# 5 -0.7805 -6.9502 -9.3524 0.0000 33.6076 0.0000
# 6 0.0000 0.0000 0.0000 1.3608 0.0000 13.6534
#
#
#
# Elastic Compliance Matrix: (Units=1/GPa)
#
#
# Indices 1 2 3 4 5 6 
#
# 1 0.017022 -0.001618 -0.003218 0.000000 -0.000835 0.000000
# 2 -0.001618 0.008417 -0.002596 0.000000 0.000981 0.000000
# 3 -0.003218 -0.002596 0.010849 0.000000 0.002407 0.000000
# 4 0.000000 0.000000 0.000000 0.026525 0.000000 -0.002644
# 5 -0.000835 0.000981 0.002407 0.000000 0.030609 0.000000
# 6 0.000000 0.000000 0.000000 -0.002644 0.000000 0.073505
#
#
# Mechanical properties :
#
#
# Convention : Reuss Voigt Hill
#
# Bulk Modulus (GPa) = 46.68114 53.45722 50.06918
# Shear Modulus (GPa) = 26.46449 32.19301 29.32875
#
# Velocity S-wave (km/s) = 3.55023 3.91566 3.73741
# Velocity P-wave (km/s) = 6.24805 6.77518 6.51694
#
# Compressibility (1/GPa) = 0.02142193
#
# Stress axis : x y z
#
# Youngs Moduli (GPa) = 58.74899 118.80504 92.17668
#
# Poissons Ratio (x) = 0.19227 0.29666
# Poissons Ratio (y) = 0.09508 0.23929
# Poissons Ratio (z) = 0.18908 0.30841
#
# Static dielectric constant tensor:
#      x y z
#    x 3.575150 0.000000 -0.065760 
#    y 0.000000 4.397570 0.000000 
#    z -0.065760 0.000000 4.211680 
# 
# 
# High freq. dielectric constant tensor:
#      x y z
#    x 1.804000 0.000000 -0.009880 
#    y 0.000000 1.828310 0.000000 
#    z -0.009880 0.000000 1.849810 
# 
# From -- ./inp_files/137797.got.cif
#   From: 2010.06.25/outbox.cif.g09.slc.cpg/sg15_69_cif.got.tgz:137797.got - 2010.06.28 07:06:18.
