data_PCOD8149221
_publ_section_title
;
Structure prediction by ZEFSAII (Michael W. Deem and Ramdas Pophale) SiO2 
 PCOD8149221
Probable space group: C 2/C
;
_chemical_formula_sum "Si O2"
_cell_formula_units_Z 36
_cell_length_a 7.564984
_cell_length_b 26.095233
_cell_length_c 7.669676
_cell_angle_alpha 90.000000
_cell_angle_beta 82.634600
_cell_angle_gamma 90.000000
_cell_volume 1501.577930
_symmetry_space_group_name_H-M "C 2/C"
_symmetry_group_IT_number 15
_symmetry_cell_setting 'monoclinic'
loop_
_space_group_symop_operation_xyz
x,y,z
-x,y,1/2-z
-x,-y,-z
x,-y,1/2+z
1/2+x,1/2+y,z
1/2-x,1/2+y,1/2-z
1/2-x,1/2-y,-z
1/2+x,1/2-y,1/2+z
loop_
_atom_site_type_symbol
_atom_site_label
_atom_site_fract_x
_atom_site_fract_y
_atom_site_fract_z
Si Si1 0.302551 0.976084 0.701979
Si Si2 0.112320 0.112908 0.399782
Si Si3 0.792960 0.923440 0.144461
Si Si4 0.500000 0.843276 0.250000
Si Si5 0.621260 0.204164 0.068136
O O1 0.500000 0.983395 0.750000
O O2 0.197354 0.941685 0.851237
O O3 0.298582 0.948900 0.514886
O O4 0.203528 0.031537 0.710490
O O5 0.265121 0.153597 0.413055
O O6 0.000000 0.133711 0.250000
O O7 0.985892 0.102022 0.582691
O O8 0.675749 0.877607 0.234081
O O9 0.491776 0.807252 0.421638
O O10 0.500000 0.218555 0.250000
O O11 0.750000 0.250000 0.000000
#
# Coordination Sequence:
#
# PCOD8149221 Si02
#       5
#     8   8   8   4   8
#     4  11  21  39  65 102 149 197 245 295 364 432
#     4  10  23  44  71 102 151 193 251 303 371 436
#     4  11  24  40  67 106 147 200 242 304 352 449
#     4  12  28  50  76 110 150 196 254 300 388 444
#     4  12  30  53  82 110 145 193 249 321 383 448
#
# _framework density 23.974782000000001
#
# number of rings (size 3 to 8) (size 9 to 14) (size 15 to 20)
#    0.000    0.889    1.111    6.000    7.778    0.889 
#    0.000    0.000    0.000    0.000    0.000    0.000 
#    0.000    0.000    0.000    0.000    0.000    0.000 
#
# Total GULP energy -223255.749638 kJ/mol
# GULP energy per Si atom -12403.097202 kJ/mol
# Density = 2.392021 g / cm^3
# Si number density = 23.974782 Si / 1000 Ang^3
#
#
#
# Elastic Constant Matrix: (Units=GPa)
#
#
# Indices 1 2 3 4 5 6 
#
# 1 76.1009 22.7620 26.5912 0.0000 -25.7186 0.0000
# 2 22.7620 98.2304 42.6021 0.0000 -6.1922 0.0000
# 3 26.5912 42.6021 153.9725 0.0000 -18.0850 0.0000
# 4 0.0000 0.0000 0.0000 27.8749 0.0000 -14.5604
# 5 -25.7186 -6.1922 -18.0850 0.0000 40.8354 0.0000
# 6 0.0000 0.0000 0.0000 -14.5604 0.0000 29.4652
#
#
#
# Elastic Compliance Matrix: (Units=1/GPa)
#
#
# Indices 1 2 3 4 5 6 
#
# 1 0.017916 -0.003050 -0.001033 0.000000 0.010364 0.000000
# 2 -0.003050 0.012093 -0.002985 0.000000 -0.001409 0.000000
# 3 -0.001033 -0.002985 0.007774 0.000000 0.002340 0.000000
# 4 0.000000 0.000000 0.000000 0.048356 0.000000 0.023896
# 5 0.010364 -0.001409 0.002340 0.000000 0.031838 0.000000
# 6 0.000000 0.000000 0.000000 0.023896 0.000000 0.045747
#
#
# Mechanical properties :
#
#
# Convention : Reuss Voigt Hill
#
# Bulk Modulus (GPa) = 42.28879 56.91271 49.60075
# Shear Modulus (GPa) = 26.91912 35.39166 31.15539
#
# Velocity S-wave (km/s) = 3.35447 3.84631 3.60878
# Velocity P-wave (km/s) = 5.71668 6.59663 6.17236
#
# Compressibility (1/GPa) = 0.02364693
#
# Stress axis : x y z
#
# Youngs Moduli (GPa) = 55.81538 82.69571 128.63982
#
# Poissons Ratio (x) = 0.25224 0.13287
# Poissons Ratio (y) = 0.17025 0.38394
# Poissons Ratio (z) = 0.05765 0.24681
#
# Static dielectric constant tensor:
#      x y z
#    x 4.306060 0.000000 -0.031730 
#    y 0.000000 4.296490 0.000000 
#    z -0.031730 0.000000 4.739820 
# 
# 
# High freq. dielectric constant tensor:
#      x y z
#    x 1.960480 0.000000 0.000910 
#    y 0.000000 1.942030 0.000000 
#    z 0.000910 0.000000 1.977690 
# 
# From -- ./inp_files/23304.got.cif
#   From: 2010.06.25/outbox.cif.g09.slc.cpg/sg15_12_cif.got.tgz:23304.got - 2010.06.28 07:06:18.
