data_PCOD8149759
_publ_section_title
;
Structure prediction by ZEFSAII (Michael W. Deem and Ramdas Pophale) SiO2 
 PCOD8149759
Probable space group: C 2/C
;
_chemical_formula_sum "Si O2"
_cell_formula_units_Z 52
_cell_length_a 20.253483
_cell_length_b 17.849949
_cell_length_c 8.100664
_cell_angle_alpha 90.000000
_cell_angle_beta 124.824929
_cell_angle_gamma 90.000000
_cell_volume 2404.074969
_symmetry_space_group_name_H-M "C 2/C"
_symmetry_group_IT_number 15
_symmetry_cell_setting 'monoclinic'
loop_
_space_group_symop_operation_xyz
x,y,z
-x,y,1/2-z
-x,-y,-z
x,-y,1/2+z
1/2+x,1/2+y,z
1/2-x,1/2+y,1/2-z
1/2-x,1/2-y,-z
1/2+x,1/2-y,1/2+z
loop_
_atom_site_type_symbol
_atom_site_label
_atom_site_fract_x
_atom_site_fract_y
_atom_site_fract_z
Si Si1 0.509920 0.917683 0.075924
Si Si2 0.817134 0.598611 0.797625
Si Si3 0.553424 0.232775 0.997109
Si Si4 0.762434 0.249780 0.822267
Si Si5 0.000000 0.819653 0.250000
Si Si6 0.763947 0.996350 0.587519
Si Si7 0.833808 0.107724 0.442386
O O1 0.500000 0.929882 0.250000
O O2 0.593614 0.883524 0.133593
O O3 0.444528 0.854048 0.937095
O O4 0.500000 0.000000 0.000000
O O5 0.780304 0.676068 0.813104
O O6 0.813260 0.531316 0.925815
O O7 0.765739 0.570150 0.569717
O O8 0.500000 0.242287 0.750000
O O9 0.643642 0.257173 0.086094
O O10 0.519289 0.275188 0.108664
O O11 0.722932 0.321721 0.680051
O O12 0.750000 0.250000 0.000000
O O13 0.074318 0.870842 0.405936
O O14 0.805216 0.068984 0.569233
O O15 0.828774 0.957001 0.797699
#
# Coordination Sequence:
#
# PCOD8149759 Si02
#       7
#     8   8   8   8   4   8   8
#     4  11  24  39  62  98 138 180 224 288 356 427
#     4  11  22  41  67  95 135 181 224 282 347 414
#     4  11  27  44  68 106 143 185 238 295 358 422
#     4  12  23  44  74  98 138 191 237 291 349 428
#     4  12  26  48  72 102 140 180 242 298 352 430
#     4  10  24  41  68  99 134 174 230 286 344 426
#     4  11  25  45  70 102 134 180 235 288 356 422
#
# _framework density 21.629942
#
# number of rings (size 3 to 8) (size 9 to 14) (size 15 to 20)
#    0.000    0.923    1.538    5.538    5.385    4.308 
#    0.000    0.000    0.000    0.000    0.000    0.000 
#    0.000    0.000    0.000    0.000    0.000    0.000 
#
# Total GULP energy -322167.112391 kJ/mol
# GULP energy per Si atom -12391.042784 kJ/mol
# Density = 2.158071 g / cm^3
# Si number density = 21.629942 Si / 1000 Ang^3
#
#
#
# Elastic Constant Matrix: (Units=GPa)
#
#
# Indices 1 2 3 4 5 6 
#
# 1 146.7908 58.2460 51.7691 0.0000 2.5070 0.0000
# 2 58.2460 147.6019 49.1396 0.0000 -4.4542 0.0000
# 3 51.7691 49.1396 72.2652 0.0000 0.6934 0.0000
# 4 0.0000 0.0000 0.0000 34.8646 0.0000 -5.3636
# 5 2.5070 -4.4542 0.6934 0.0000 37.7859 0.0000
# 6 0.0000 0.0000 0.0000 -5.3636 0.0000 37.8879
#
#
#
# Elastic Compliance Matrix: (Units=1/GPa)
#
#
# Indices 1 2 3 4 5 6 
#
# 1 0.009541 -0.001958 -0.005496 0.000000 -0.000763 0.000000
# 2 -0.001958 0.009209 -0.004872 0.000000 0.001305 0.000000
# 3 -0.005496 -0.004872 0.021093 0.000000 -0.000597 0.000000
# 4 0.000000 0.000000 0.000000 0.029321 0.000000 0.004151
# 5 -0.000763 0.001305 -0.000597 0.000000 0.026680 0.000000
# 6 0.000000 0.000000 0.000000 0.004151 0.000000 0.026981
#
#
# Mechanical properties :
#
#
# Convention : Reuss Voigt Hill
#
# Bulk Modulus (GPa) = 65.82594 76.10747 70.96671
# Shear Modulus (GPa) = 32.77807 35.94122 34.35964
#
# Velocity S-wave (km/s) = 3.89704 4.08075 3.98995
# Velocity P-wave (km/s) = 7.12377 7.58063 7.35574
#
# Compressibility (1/GPa) = 0.01519158
#
# Stress axis : x y z
#
# Youngs Moduli (GPa) = 104.81400 108.58938 47.40817
#
# Poissons Ratio (x) = 0.21265 0.26055
# Poissons Ratio (y) = 0.20525 0.23096
# Poissons Ratio (z) = 0.57604 0.52901
#
# Static dielectric constant tensor:
#      x y z
#    x 4.227070 0.000000 -0.281700 
#    y 0.000000 4.104840 0.000000 
#    z -0.281700 0.000000 4.135700 
# 
# 
# High freq. dielectric constant tensor:
#      x y z
#    x 1.866000 0.000000 -0.014830 
#    y 0.000000 1.870570 0.000000 
#    z -0.014830 0.000000 1.842320 
# 
# From -- ./inp_files/57085.got.cif
#   From: 2010.06.25/outbox.cif.g09.slc.cpg/sg15_29_cif.got.tgz:57085.got - 2010.06.28 07:06:18.
