data_PCOD8149868
_publ_section_title
;
Structure prediction by ZEFSAII (Michael W. Deem and Ramdas Pophale) SiO2 
 PCOD8149868
Probable space group: C 2/C
;
_chemical_formula_sum "Si O2"
_cell_formula_units_Z 44
_cell_length_a 11.872859
_cell_length_b 18.984869
_cell_length_c 11.652900
_cell_angle_alpha 90.000000
_cell_angle_beta 51.023967
_cell_angle_gamma 90.000000
_cell_volume 2041.956927
_symmetry_space_group_name_H-M "C 2/C"
_symmetry_group_IT_number 15
_symmetry_cell_setting 'monoclinic'
loop_
_space_group_symop_operation_xyz
x,y,z
-x,y,1/2-z
-x,-y,-z
x,-y,1/2+z
1/2+x,1/2+y,z
1/2-x,1/2+y,1/2-z
1/2-x,1/2-y,-z
1/2+x,1/2-y,1/2+z
loop_
_atom_site_type_symbol
_atom_site_label
_atom_site_fract_x
_atom_site_fract_y
_atom_site_fract_z
Si Si1 0.741875 0.935517 0.053698
Si Si2 0.391387 0.201605 0.923544
Si Si3 0.325694 0.384735 0.242065
Si Si4 0.000000 0.450228 0.750000
Si Si5 0.950913 0.339214 0.957632
Si Si6 0.500000 0.499062 0.750000
Si Si7 0.500000 0.732332 0.750000
O O1 0.643381 0.881355 0.047484
O O2 0.788861 0.889262 0.132844
O O3 0.646230 0.004134 0.141337
O O4 0.886055 0.951445 0.890300
O O5 0.500000 0.220773 0.750000
O O6 0.250000 0.250000 0.000000
O O7 0.465999 0.208253 0.000426
O O8 0.180226 0.383866 0.407910
O O9 0.419148 0.453308 0.209251
O O10 0.408295 0.313326 0.219657
O O11 0.960740 0.401333 0.664822
O O12 0.899579 0.282525 0.894249
#
# Coordination Sequence:
#
# PCOD8149868 Si02
#       7
#     8   8   8   4   8   4   4
#     4  12  24  45  67 103 140 181 227 290 351 419
#     4  12  27  47  70 103 139 187 232 287 348 415
#     4  11  22  44  67 100 142 176 233 289 338 414
#     4  11  24  43  75 104 133 186 232 284 359 414
#     4  11  23  44  71 100 137 183 236 282 346 418
#     4  11  26  41  67 104 137 184 228 278 355 408
#     4  10  24  42  68 100 134 186 234 286 340 404
#
# _framework density 21.547957
#
# number of rings (size 3 to 8) (size 9 to 14) (size 15 to 20)
#    0.000    0.727    4.545    2.182    3.818    1.455 
#    0.000    0.000    0.000    0.000    0.000    0.000 
#    0.000    0.000    0.000    0.000    0.000    0.000 
#
# Total GULP energy -272671.436185 kJ/mol
# GULP energy per Si atom -12394.156190 kJ/mol
# Density = 2.149891 g / cm^3
# Si number density = 21.547957 Si / 1000 Ang^3
#
#
#
# Elastic Constant Matrix: (Units=GPa)
#
#
# Indices 1 2 3 4 5 6 
#
# 1 77.0983 25.8738 36.6774 0.0000 -0.3463 0.0000
# 2 25.8738 95.7374 52.3738 0.0000 0.3592 0.0000
# 3 36.6774 52.3738 147.2593 0.0000 -13.0079 0.0000
# 4 0.0000 0.0000 0.0000 35.2323 0.0000 -0.2669
# 5 -0.3463 0.3592 -13.0079 0.0000 39.9440 0.0000
# 6 0.0000 0.0000 0.0000 -0.2669 0.0000 4.2375
#
#
#
# Elastic Compliance Matrix: (Units=1/GPa)
#
#
# Indices 1 2 3 4 5 6 
#
# 1 0.015217 -0.002479 -0.002980 0.000000 -0.000816 0.000000
# 2 -0.002479 0.013481 -0.004314 0.000000 -0.001548 0.000000
# 3 -0.002980 -0.004314 0.009337 0.000000 0.003054 0.000000
# 4 0.000000 0.000000 0.000000 0.028397 0.000000 0.001789
# 5 -0.000816 -0.001548 0.003054 0.000000 0.026036 0.000000
# 6 0.000000 0.000000 0.000000 0.001789 0.000000 0.236102
#
#
# Mechanical properties :
#
#
# Convention : Reuss Voigt Hill
#
# Bulk Modulus (GPa) = 54.08859 61.10499 57.59679
# Shear Modulus (GPa) = 14.11321 29.56077 21.83699
#
# Velocity S-wave (km/s) = 2.56201 3.70788 3.18687
# Velocity P-wave (km/s) = 5.82304 6.83743 6.35052
#
# Compressibility (1/GPa) = 0.01848819
#
# Stress axis : x y z
#
# Youngs Moduli (GPa) = 65.71799 74.17897 107.10009
#
# Poissons Ratio (x) = 0.18388 0.31920
# Poissons Ratio (y) = 0.16291 0.46202
# Poissons Ratio (z) = 0.19587 0.32000
#
# Static dielectric constant tensor:
#      x y z
#    x 4.096000 0.000000 0.188500 
#    y 0.000000 4.132590 0.000000 
#    z 0.188500 0.000000 4.010270 
# 
# 
# High freq. dielectric constant tensor:
#      x y z
#    x 1.840840 0.000000 0.008830 
#    y 0.000000 1.858450 0.000000 
#    z 0.008830 0.000000 1.857310 
# 
# From -- ./inp_files/30783.got.cif
#   From: 2010.06.25/outbox.cif.g09.slc.cpg/sg15_16_cif.got.tgz:30783.got - 2010.06.28 07:06:18.
