data_PCOD8149339
_publ_section_title
;
Structure prediction by ZEFSAII (Michael W. Deem and Ramdas Pophale) SiO2 
 PCOD8149339
Probable space group: C 2/C
;
_chemical_formula_sum "Si O2"
_cell_formula_units_Z 60
_cell_length_a 20.762287
_cell_length_b 18.729721
_cell_length_c 13.132797
_cell_angle_alpha 90.000000
_cell_angle_beta 148.679538
_cell_angle_gamma 90.000000
_cell_volume 2654.729337
_symmetry_space_group_name_H-M "C 2/C"
_symmetry_group_IT_number 15
_symmetry_cell_setting 'monoclinic'
loop_
_space_group_symop_operation_xyz
x,y,z
-x,y,1/2-z
-x,-y,-z
x,-y,1/2+z
1/2+x,1/2+y,z
1/2-x,1/2+y,1/2-z
1/2-x,1/2-y,-z
1/2+x,1/2-y,1/2+z
loop_
_atom_site_type_symbol
_atom_site_label
_atom_site_fract_x
_atom_site_fract_y
_atom_site_fract_z
Si Si1 0.557231 0.847531 0.608847
Si Si2 0.548476 0.700725 0.483170
Si Si3 0.770896 0.934473 0.806027
Si Si4 0.657097 0.940415 0.266026
Si Si5 0.205317 0.511729 0.525099
Si Si6 0.500000 0.884172 0.750000
Si Si7 0.319352 0.689631 0.034932
Si Si8 0.038170 0.069047 0.613789
O O1 0.519663 0.773470 0.504866
O O2 0.694284 0.872271 0.759129
O O3 0.467906 0.911467 0.452438
O O4 0.548706 0.836750 0.719706
O O5 0.440731 0.673862 0.263893
O O6 0.661765 0.713542 0.557658
O O7 0.576294 0.637272 0.598214
O O8 0.742962 0.014680 0.805900
O O9 0.734002 0.943317 0.636551
O O10 0.916650 0.913701 0.018655
O O11 0.739120 0.880443 0.428007
O O12 0.622438 0.990143 0.315159
O O13 0.115579 0.571195 0.453409
O O14 0.334186 0.547529 0.656769
O O15 0.250000 0.750000 0.000000
O O16 0.000000 0.000000 0.500000
#
# Coordination Sequence:
#
# PCOD8149339 Si02
#       8
#     8   8   8   8   8   4   8   8
#     4  12  26  44  70 102 141 182 232 292 353 416
#     4  11  26  43  69 103 143 187 228 285 357 412
#     4  11  23  42  69 104 138 184 234 285 347 413
#     4  12  23  42  72 103 139 181 227 296 351 407
#     4  11  23  40  72 100 137 179 233 283 345 411
#     4  12  24  48  66 102 136 180 240 282 348 412
#     4  11  23  41  66 106 142 179 226 286 355 418
#     4  10  23  45  68  98 139 186 232 283 339 418
#
# _framework density 22.601174
#
# number of rings (size 3 to 8) (size 9 to 14) (size 15 to 20)
#    0.000    0.800    4.000    4.400    3.733    1.600 
#    0.000    2.000    0.000    0.000    0.000    0.000 
#    0.000    0.000    0.000    0.000    0.000    0.000 
#
# Total GULP energy -371838.331387 kJ/mol
# GULP energy per Si atom -12394.611046 kJ/mol
# Density = 2.254973 g / cm^3
# Si number density = 22.601174 Si / 1000 Ang^3
#
#
#
# Elastic Constant Matrix: (Units=GPa)
#
#
# Indices 1 2 3 4 5 6 
#
# 1 128.5291 30.4916 28.0685 0.0000 8.8067 0.0000
# 2 30.4916 75.0974 16.4716 0.0000 1.2686 0.0000
# 3 28.0685 16.4716 66.5755 0.0000 11.3675 0.0000
# 4 0.0000 0.0000 0.0000 26.9695 0.0000 -5.6609
# 5 8.8067 1.2686 11.3675 0.0000 35.4721 0.0000
# 6 0.0000 0.0000 0.0000 -5.6609 0.0000 31.8449
#
#
#
# Elastic Compliance Matrix: (Units=1/GPa)
#
#
# Indices 1 2 3 4 5 6 
#
# 1 0.009236 -0.003089 -0.002916 0.000000 -0.001248 0.000000
# 2 -0.003089 0.015127 -0.002622 0.000000 0.001066 0.000000
# 3 -0.002916 -0.002622 0.017729 0.000000 -0.004864 0.000000
# 4 0.000000 0.000000 0.000000 0.038516 0.000000 0.006847
# 5 -0.001248 0.001066 -0.004864 0.000000 0.030021 0.000000
# 6 0.000000 0.000000 0.000000 0.006847 0.000000 0.032619
#
#
# Mechanical properties :
#
#
# Convention : Reuss Voigt Hill
#
# Bulk Modulus (GPa) = 40.26323 46.69617 43.47970
# Shear Modulus (GPa) = 29.62367 31.86867 30.74617
#
# Velocity S-wave (km/s) = 3.62431 3.75913 3.69233
# Velocity P-wave (km/s) = 5.94705 6.28866 6.12024
#
# Compressibility (1/GPa) = 0.02483656
#
# Stress axis : x y z
#
# Youngs Moduli (GPa) = 108.27686 66.10479 56.40353
#
# Poissons Ratio (x) = 0.20421 0.16450
# Poissons Ratio (y) = 0.33448 0.14791
# Poissons Ratio (z) = 0.31578 0.17335
#
# Static dielectric constant tensor:
#      x y z
#    x 4.467770 0.000000 0.362180 
#    y 0.000000 3.715820 0.000000 
#    z 0.362180 0.000000 4.238060 
# 
# 
# High freq. dielectric constant tensor:
#      x y z
#    x 1.905290 0.000000 0.008180 
#    y 0.000000 1.872600 0.000000 
#    z 0.008180 0.000000 1.889230 
# 
# From -- ./inp_files/174122.got.cif
#   From: 2010.06.25/outbox.cif.g09.slc.cpg/sg15_88_cif.got.tgz:174122.got - 2010.06.28 07:06:18.
