data_PCOD8149624
_publ_section_title
;
Structure prediction by ZEFSAII (Michael W. Deem and Ramdas Pophale) SiO2 
 PCOD8149624
Probable space group: C 2/C
;
_chemical_formula_sum "Si O2"
_cell_formula_units_Z 44
_cell_length_a 23.867483
_cell_length_b 12.739317
_cell_length_c 16.180703
_cell_angle_alpha 90.000000
_cell_angle_beta 158.494237
_cell_angle_gamma 90.000000
_cell_volume 1803.584375
_symmetry_space_group_name_H-M "C 2/C"
_symmetry_group_IT_number 15
_symmetry_cell_setting 'monoclinic'
loop_
_space_group_symop_operation_xyz
x,y,z
-x,y,1/2-z
-x,-y,-z
x,-y,1/2+z
1/2+x,1/2+y,z
1/2-x,1/2+y,1/2-z
1/2-x,1/2-y,-z
1/2+x,1/2-y,1/2+z
loop_
_atom_site_type_symbol
_atom_site_label
_atom_site_fract_x
_atom_site_fract_y
_atom_site_fract_z
Si Si1 0.013715 0.192070 0.418275
Si Si2 0.713582 0.622844 0.999105
Si Si3 0.737026 0.569401 0.843058
Si Si4 0.778754 0.827695 0.723125
Si Si5 0.000000 0.957440 0.750000
Si Si6 0.006290 0.287650 0.861659
O O1 0.110682 0.135848 0.622116
O O2 0.106795 0.286083 0.502175
O O3 0.967876 0.110452 0.285678
O O4 0.856332 0.227997 0.248373
O O5 0.700625 0.575143 0.889461
O O6 0.647992 0.532837 0.969578
O O7 0.608248 0.728652 0.861434
O O8 0.885948 0.656992 0.261242
O O9 0.728766 0.451252 0.798768
O O10 0.905072 0.615213 0.057168
O O11 0.881306 0.796655 0.943061
#
# Coordination Sequence:
#
# PCOD8149624 Si02
#       6
#     8   8   8   8   4   8
#     4  11  25  44  68  98 134 185 230 285 340 422
#     4  11  23  41  69 102 142 169 232 292 342 405
#     4  11  22  46  70  95 137 185 224 279 359 407
#     4  11  23  45  69  96 141 182 225 280 351 411
#     4  12  26  42  66  98 134 184 232 282 350 402
#     4  10  24  39  70 107 131 174 230 288 342 409
#
# _framework density 24.395862999999999
#
# number of rings (size 3 to 8) (size 9 to 14) (size 15 to 20)
#    0.000    1.091    3.636    2.182    5.091    3.636 
#    3.273    3.636    0.000    0.000    0.000    0.000 
#    0.000    0.000    0.000    0.000    0.000    0.000 
#
# Total GULP energy -272726.067225 kJ/mol
# GULP energy per Si atom -12396.639419 kJ/mol
# Density = 2.434034 g / cm^3
# Si number density = 24.395863 Si / 1000 Ang^3
#
#
#
# Elastic Constant Matrix: (Units=GPa)
#
#
# Indices 1 2 3 4 5 6 
#
# 1 70.6410 22.0557 20.9361 0.0000 28.5409 0.0000
# 2 22.0557 105.8098 27.7116 0.0000 14.4407 0.0000
# 3 20.9361 27.7116 68.3417 0.0000 22.1194 0.0000
# 4 0.0000 0.0000 0.0000 35.9687 0.0000 9.4431
# 5 28.5409 14.4407 22.1194 0.0000 44.9037 0.0000
# 6 0.0000 0.0000 0.0000 9.4431 0.0000 33.7338
#
#
#
# Elastic Compliance Matrix: (Units=1/GPa)
#
#
# Indices 1 2 3 4 5 6 
#
# 1 0.019794 -0.002197 -0.001582 0.000000 -0.011095 0.000000
# 2 -0.002197 0.010907 -0.003648 0.000000 -0.000314 0.000000
# 3 -0.001582 -0.003648 0.018905 0.000000 -0.007134 0.000000
# 4 0.000000 0.000000 0.000000 0.030007 0.000000 -0.008400
# 5 -0.011095 -0.000314 -0.007134 0.000000 0.032937 0.000000
# 6 0.000000 0.000000 0.000000 -0.008400 0.000000 0.031995
#
#
# Mechanical properties :
#
#
# Convention : Reuss Voigt Hill
#
# Bulk Modulus (GPa) = 28.77533 42.91102 35.84318
# Shear Modulus (GPa) = 29.24258 34.52719 31.88488
#
# Velocity S-wave (km/s) = 3.46594 3.76611 3.61914
# Velocity P-wave (km/s) = 5.27615 6.04476 5.67348
#
# Compressibility (1/GPa) = 0.03475199
#
# Stress axis : x y z
#
# Youngs Moduli (GPa) = 50.52124 91.68236 52.89576
#
# Poissons Ratio (x) = 0.20147 0.08366
# Poissons Ratio (y) = 0.11102 0.19296
# Poissons Ratio (z) = 0.07991 0.33445
#
# Static dielectric constant tensor:
#      x y z
#    x 4.788470 0.000000 0.596970 
#    y 0.000000 4.399440 0.000000 
#    z 0.596970 0.000000 4.693250 
# 
# 
# High freq. dielectric constant tensor:
#      x y z
#    x 1.986850 0.000000 0.034610 
#    y 0.000000 1.964150 0.000000 
#    z 0.034610 0.000000 1.961170 
# 
# From -- ./inp_files/94977.got.cif
#   From: 2010.06.25/outbox.cif.g09.slc.cpg/sg15_48_cif.got.tgz:94977.got - 2010.06.28 07:06:18.
