data_PCOD8149864
_publ_section_title
;
Structure prediction by ZEFSAII (Michael W. Deem and Ramdas Pophale) SiO2 
 PCOD8149864
Probable space group: C 2/C
;
_chemical_formula_sum "Si O2"
_cell_formula_units_Z 64
_cell_length_a 11.270900
_cell_length_b 14.037939
_cell_length_c 19.635132
_cell_angle_alpha 90.000000
_cell_angle_beta 90.001649
_cell_angle_gamma 90.000000
_cell_volume 3106.674642
_symmetry_space_group_name_H-M "C 2/C"
_symmetry_group_IT_number 15
_symmetry_cell_setting 'monoclinic'
loop_
_space_group_symop_operation_xyz
x,y,z
-x,y,1/2-z
-x,-y,-z
x,-y,1/2+z
1/2+x,1/2+y,z
1/2-x,1/2+y,1/2-z
1/2-x,1/2-y,-z
1/2+x,1/2-y,1/2+z
loop_
_atom_site_type_symbol
_atom_site_label
_atom_site_fract_x
_atom_site_fract_y
_atom_site_fract_z
Si Si1 0.173008 0.264991 0.435341
Si Si2 0.545407 0.008301 0.579021
Si Si3 0.228813 0.656419 0.410949
Si Si4 0.634517 0.778865 0.770529
Si Si5 0.095366 0.702247 0.544240
Si Si6 0.793799 0.539804 0.630173
Si Si7 0.140428 0.942835 0.262737
Si Si8 0.755007 0.398192 0.848164
O O1 0.250000 0.250000 0.500000
O O2 0.232090 0.353747 0.395231
O O3 0.168315 0.168269 0.392161
O O4 0.044284 0.290124 0.461889
O O5 0.625617 0.103580 0.582623
O O6 0.436063 0.020218 0.632140
O O7 0.500000 0.000000 0.500000
O O8 0.629022 0.923375 0.605856
O O9 0.157616 0.669423 0.341473
O O10 0.146073 0.702066 0.468347
O O11 0.353599 0.711304 0.411118
O O12 0.254872 0.543406 0.420858
O O13 0.500000 0.792445 0.750000
O O14 0.666592 0.667487 0.778117
O O15 0.713650 0.831939 0.715341
O O16 0.725217 0.525284 0.700832
O O17 0.000000 0.960517 0.250000
O O18 0.182088 0.007851 0.326168
#
# Coordination Sequence:
#
# PCOD8149864 Si02
#       8
#     8   8   8   8   8   8   8   8
#     4  11  26  42  65  96 131 170 221 266 326 391
#     4  11  22  41  67  96 130 165 218 276 318 383
#     4  11  22  42  69  94 129 169 222 263 330 387
#     4  11  24  41  66  94 129 169 218 267 316 395
#     4  10  24  42  67  95 129 174 212 271 326 387
#     4  11  22  42  66  89 131 169 213 272 321 373
#     4  11  26  44  62  94 136 172 210 270 326 392
#     4  12  24  41  68  96 127 175 217 264 336 384
#
# _framework density 20.600805000000001
#
# number of rings (size 3 to 8) (size 9 to 14) (size 15 to 20)
#    0.000    1.000    3.750    3.000    3.500    0.000 
#    0.000    0.625    0.000    0.000    0.000    0.000 
#    0.000    0.000    0.000    0.000    0.000    0.000 
#
# Total GULP energy -396638.179552 kJ/mol
# GULP energy per Si atom -12394.943111 kJ/mol
# Density = 2.055392 g / cm^3
# Si number density = 20.600805 Si / 1000 Ang^3
#
#
#
# Elastic Constant Matrix: (Units=GPa)
#
#
# Indices 1 2 3 4 5 6 
#
# 1 72.8292 37.1811 37.2430 0.0000 -1.6631 0.0000
# 2 37.1811 137.7412 34.4234 0.0000 15.9735 0.0000
# 3 37.2430 34.4234 89.4031 0.0000 3.8083 0.0000
# 4 0.0000 0.0000 0.0000 26.7454 0.0000 -0.5802
# 5 -1.6631 15.9735 3.8083 0.0000 30.9478 0.0000
# 6 0.0000 0.0000 0.0000 -0.5802 0.0000 37.9111
#
#
#
# Elastic Compliance Matrix: (Units=1/GPa)
#
#
# Indices 1 2 3 4 5 6 
#
# 1 0.019259 -0.003990 -0.006653 0.000000 0.003913 0.000000
# 2 -0.003990 0.009326 -0.001724 0.000000 -0.004816 0.000000
# 3 -0.006653 -0.001724 0.014675 0.000000 -0.001274 0.000000
# 4 0.000000 0.000000 0.000000 0.037402 0.000000 0.000572
# 5 0.003913 -0.004816 -0.001274 0.000000 0.035165 0.000000
# 6 0.000000 0.000000 0.000000 0.000572 0.000000 0.026386
#
#
# Mechanical properties :
#
#
# Convention : Reuss Voigt Hill
#
# Bulk Modulus (GPa) = 53.97639 57.51871 55.74755
# Shear Modulus (GPa) = 28.88112 31.86259 30.37185
#
# Velocity S-wave (km/s) = 3.74831 3.93704 3.84383
# Velocity P-wave (km/s) = 6.70754 6.97483 6.84249
#
# Compressibility (1/GPa) = 0.01852662
#
# Stress axis : x y z
#
# Youngs Moduli (GPa) = 51.92276 107.22410 68.14353
#
# Poissons Ratio (x) = 0.42780 0.45339
# Poissons Ratio (y) = 0.20716 0.11746
# Poissons Ratio (z) = 0.34546 0.18483
#
# Static dielectric constant tensor:
#      x y z
#    x 3.595460 0.000000 -0.179160 
#    y 0.000000 3.968260 0.000000 
#    z -0.179160 0.000000 3.884930 
# 
# 
# High freq. dielectric constant tensor:
#      x y z
#    x 1.796990 0.000000 -0.012300 
#    y 0.000000 1.833900 0.000000 
#    z -0.012300 0.000000 1.799680 
# 
# From -- ./inp_files/198337.got.cif
#   From: 2010.06.25/outbox.cif.g09.slc.cpg/sg15_100_cif.got.tgz:198337.got - 2010.06.28 07:06:18.
