data_PCOD8149396
_publ_section_title
;
Structure prediction by ZEFSAII (Michael W. Deem and Ramdas Pophale) SiO2 
 PCOD8149396
Probable space group: C 2/C
;
_chemical_formula_sum "Si O2"
_cell_formula_units_Z 52
_cell_length_a 27.341469
_cell_length_b 9.864838
_cell_length_c 8.097272
_cell_angle_alpha 90.000000
_cell_angle_beta 65.154368
_cell_angle_gamma 90.000000
_cell_volume 1981.846190
_symmetry_space_group_name_H-M "C 2/C"
_symmetry_group_IT_number 15
_symmetry_cell_setting 'monoclinic'
loop_
_space_group_symop_operation_xyz
x,y,z
-x,y,1/2-z
-x,-y,-z
x,-y,1/2+z
1/2+x,1/2+y,z
1/2-x,1/2+y,1/2-z
1/2-x,1/2-y,-z
1/2+x,1/2-y,1/2+z
loop_
_atom_site_type_symbol
_atom_site_label
_atom_site_fract_x
_atom_site_fract_y
_atom_site_fract_z
Si Si1 0.586962 0.892322 0.917166
Si Si2 0.894426 0.321955 0.984786
Si Si3 0.682698 0.716745 0.926529
Si Si4 0.663169 0.480902 0.166490
Si Si5 0.000000 0.729752 0.750000
Si Si6 0.717257 0.278388 0.881249
Si Si7 0.944995 0.081482 0.103960
O O1 0.590006 0.847801 0.725515
O O2 0.634315 0.820605 0.957579
O O3 0.527376 0.857580 0.067675
O O4 0.588417 0.055128 0.921541
O O5 0.829151 0.329984 0.093286
O O6 0.924220 0.180153 0.986799
O O7 0.690684 0.597248 0.778412
O O8 0.740259 0.795600 0.831420
O O9 0.675519 0.643597 0.118428
O O10 0.599181 0.467647 0.288620
O O11 0.681208 0.413468 0.966581
O O12 0.048268 0.823255 0.747529
O O13 0.750000 0.250000 0.000000
O O14 0.000000 0.000000 0.000000
#
# Coordination Sequence:
#
# PCOD8149396 Si02
#       7
#     8   8   8   8   4   8   8
#     4  12  27  51  76 113 163 202 274 319 403 488
#     4  12  28  51  78 117 157 213 264 333 394 492
#     4  11  24  45  75 110 157 205 261 329 394 481
#     4  11  23  47  71 113 154 197 272 328 392 480
#     4  12  28  52  74 112 152 212 260 340 402 474
#     4  10  23  45  76 111 155 211 253 326 402 462
#     4  12  29  48  81 118 155 210 270 338 411 470
#
# _framework density 26.238161000000002
#
# number of rings (size 3 to 8) (size 9 to 14) (size 15 to 20)
#    0.000    0.615    4.615    2.769    4.308    3.077 
#    0.000    3.077    0.000    0.000    0.000    0.000 
#    0.000    0.000    0.000    0.000    0.000    0.000 
#
# Total GULP energy -322127.401916 kJ/mol
# GULP energy per Si atom -12389.515458 kJ/mol
# Density = 2.617844 g / cm^3
# Si number density = 26.238161 Si / 1000 Ang^3
#
#
#
# Elastic Constant Matrix: (Units=GPa)
#
#
# Indices 1 2 3 4 5 6 
#
# 1 106.7204 39.5592 37.3988 0.0000 -24.9058 0.0000
# 2 39.5592 106.9502 29.8661 0.0000 -6.7341 0.0000
# 3 37.3988 29.8661 107.3826 0.0000 -47.2895 0.0000
# 4 0.0000 0.0000 0.0000 48.7492 0.0000 -1.7327
# 5 -24.9058 -6.7341 -47.2895 0.0000 43.0475 0.0000
# 6 0.0000 0.0000 0.0000 -1.7327 0.0000 35.6327
#
#
#
# Elastic Compliance Matrix: (Units=1/GPa)
#
#
# Indices 1 2 3 4 5 6 
#
# 1 0.012472 -0.004071 -0.000609 0.000000 0.005910 0.000000
# 2 -0.004071 0.011661 -0.003989 0.000000 -0.004913 0.000000
# 3 -0.000609 -0.003989 0.019767 0.000000 0.020739 0.000000
# 4 0.000000 0.000000 0.000000 0.020549 0.000000 0.000999
# 5 0.005910 -0.004913 0.020739 0.000000 0.048663 0.000000
# 6 0.000000 0.000000 0.000000 0.000999 0.000000 0.028113
#
#
# Mechanical properties :
#
#
# Convention : Reuss Voigt Hill
#
# Bulk Modulus (GPa) = 37.64773 59.41126 48.52949
# Shear Modulus (GPa) = 29.86584 39.76782 34.81683
#
# Velocity S-wave (km/s) = 3.37747 3.89736 3.64669
# Velocity P-wave (km/s) = 5.43961 6.55322 6.02221
#
# Compressibility (1/GPa) = 0.02656203
#
# Stress axis : x y z
#
# Youngs Moduli (GPa) = 80.17984 85.75924 50.58987
#
# Poissons Ratio (x) = 0.34913 0.03079
# Poissons Ratio (y) = 0.32642 0.20180
# Poissons Ratio (z) = 0.04879 0.34210
#
# Static dielectric constant tensor:
#      x y z
#    x 4.828480 0.000000 -0.233080 
#    y 0.000000 5.314930 0.000000 
#    z -0.233080 0.000000 4.980040 
# 
# 
# High freq. dielectric constant tensor:
#      x y z
#    x 2.059340 0.000000 -0.006590 
#    y 0.000000 2.051510 0.000000 
#    z -0.006590 0.000000 2.064170 
# 
# From -- ./inp_files/65368.got.cif
#   From: 2010.06.25/outbox.cif.g09.slc.cpg/sg15_33_cif.got.tgz:65368.got - 2010.06.28 07:06:18.
