data_PCOD8149507
_publ_section_title
;
Structure prediction by ZEFSAII (Michael W. Deem and Ramdas Pophale) SiO2 
 PCOD8149507
Probable space group: C 2/C
;
_chemical_formula_sum "Si O2"
_cell_formula_units_Z 40
_cell_length_a 15.775428
_cell_length_b 15.126648
_cell_length_c 13.904968
_cell_angle_alpha 90.000000
_cell_angle_beta 31.225604
_cell_angle_gamma 90.000000
_cell_volume 1720.150887
_symmetry_space_group_name_H-M "C 2/C"
_symmetry_group_IT_number 15
_symmetry_cell_setting 'monoclinic'
loop_
_space_group_symop_operation_xyz
x,y,z
-x,y,1/2-z
-x,-y,-z
x,-y,1/2+z
1/2+x,1/2+y,z
1/2-x,1/2+y,1/2-z
1/2-x,1/2-y,-z
1/2+x,1/2-y,1/2+z
loop_
_atom_site_type_symbol
_atom_site_label
_atom_site_fract_x
_atom_site_fract_y
_atom_site_fract_z
Si Si1 0.756980 0.629717 0.827898
Si Si2 0.897992 0.302124 0.579778
Si Si3 0.339487 0.176322 0.351786
Si Si4 0.192746 0.997538 0.047015
Si Si5 0.316927 0.012600 0.134127
O O1 0.636302 0.712856 0.945280
O O2 0.699033 0.551196 0.811284
O O3 0.928414 0.667032 0.626424
O O4 0.760386 0.586494 0.930386
O O5 0.891935 0.281521 0.699096
O O6 0.770330 0.383148 0.685309
O O7 0.500000 0.144155 0.250000
O O8 0.250000 0.250000 0.500000
O O9 0.226086 0.089305 0.449294
O O10 0.000000 0.007738 0.250000
O O11 0.296325 0.983821 0.043897
O O12 0.500000 0.000000 0.000000
#
# Coordination Sequence:
#
# PCOD8149507 Si02
#       5
#     8   8   8   8   8
#     4  11  26  48  72 106 152 194 254 312 373 456
#     4  11  24  44  73 104 143 203 240 303 380 451
#     4  12  24  45  77 112 149 191 256 314 375 445
#     4  12  28  46  73 113 151 196 250 316 379 447
#     4  10  23  47  73 103 145 197 244 302 376 449
#
# _framework density 23.253774
#
# number of rings (size 3 to 8) (size 9 to 14) (size 15 to 20)
#    0.000    0.800    2.000    5.400    5.600    3.200 
#    0.000    0.000    0.000    0.000    0.000    0.000 
#    0.000    0.000    0.000    0.000    0.000    0.000 
#
# Total GULP energy -247919.869907 kJ/mol
# GULP energy per Si atom -12395.993495 kJ/mol
# Density = 2.320085 g / cm^3
# Si number density = 23.253774 Si / 1000 Ang^3
#
#
#
# Elastic Constant Matrix: (Units=GPa)
#
#
# Indices 1 2 3 4 5 6 
#
# 1 102.5413 36.8361 33.2458 -0.0019 8.4265 0.0013
# 2 36.8361 160.6961 38.8762 0.0011 -2.3071 -0.0009
# 3 33.2458 38.8762 121.7140 0.0003 1.6041 -0.0004
# 4 -0.0019 0.0011 0.0003 45.2559 -0.0015 8.9002
# 5 8.4265 -2.3071 1.6041 -0.0015 19.1547 0.0011
# 6 0.0013 -0.0009 -0.0004 8.9002 0.0011 39.0394
#
#
#
# Elastic Compliance Matrix: (Units=1/GPa)
#
#
# Indices 1 2 3 4 5 6 
#
# 1 0.011758 -0.002178 -0.002447 0.000000 -0.005230 0.000000
# 2 -0.002178 0.007167 -0.001720 0.000000 0.001965 0.000000
# 3 -0.002447 -0.001720 0.009433 0.000000 0.000079 0.000000
# 4 0.000000 0.000000 0.000000 0.023134 0.000002 -0.005274
# 5 -0.005230 0.001965 0.000079 0.000002 0.054737 -0.000002
# 6 0.000000 0.000000 0.000000 -0.005274 -0.000002 0.026818
#
#
# Mechanical properties :
#
#
# Convention : Reuss Voigt Hill
#
# Bulk Modulus (GPa) = 63.82981 66.98528 65.40755
# Shear Modulus (GPa) = 33.12171 39.08955 36.10563
#
# Velocity S-wave (km/s) = 3.77816 4.10445 3.94468
# Velocity P-wave (km/s) = 6.82213 7.16454 6.99543
#
# Compressibility (1/GPa) = 0.01566666
#
# Stress axis : x y z
#
# Youngs Moduli (GPa) = 85.04983 139.53660 106.01464
#
# Poissons Ratio (x) = 0.30396 0.25941
# Poissons Ratio (y) = 0.18527 0.18234
# Poissons Ratio (z) = 0.20811 0.24000
#
# Static dielectric constant tensor:
#      x y z
#    x 4.794960 0.000030 0.061190 
#    y 0.000030 5.465320 0.000000 
#    z 0.061190 0.000000 4.248030 
# 
# 
# High freq. dielectric constant tensor:
#      x y z
#    x 1.900290 0.000000 0.016410 
#    y 0.000000 1.945770 0.000000 
#    z 0.016410 0.000000 1.915640 
# 
# From -- ./inp_files/46920.got.cif
#   From: 2010.06.25/outbox.cif.g09.slc.cpg/sg15_24_cif.got.tgz:46920.got - 2010.06.28 07:06:18.
