data_PCOD8149074
_publ_section_title
;
Structure prediction by ZEFSAII (Michael W. Deem and Ramdas Pophale) SiO2 
 PCOD8149074
Probable space group: C 2/C
;
_chemical_formula_sum "Si O2"
_cell_formula_units_Z 44
_cell_length_a 28.657989
_cell_length_b 9.056842
_cell_length_c 23.964763
_cell_angle_alpha 90.000000
_cell_angle_beta 160.034581
_cell_angle_gamma 90.000000
_cell_volume 2123.862916
_symmetry_space_group_name_H-M "C 2/C"
_symmetry_group_IT_number 15
_symmetry_cell_setting 'monoclinic'
loop_
_space_group_symop_operation_xyz
x,y,z
-x,y,1/2-z
-x,-y,-z
x,-y,1/2+z
1/2+x,1/2+y,z
1/2-x,1/2+y,1/2-z
1/2-x,1/2-y,-z
1/2+x,1/2-y,1/2+z
loop_
_atom_site_type_symbol
_atom_site_label
_atom_site_fract_x
_atom_site_fract_y
_atom_site_fract_z
Si Si1 0.760290 0.004522 0.433482
Si Si2 0.811323 0.619575 0.263136
Si Si3 0.890277 0.647696 0.925324
Si Si4 0.353170 0.783669 0.065823
Si Si5 0.500000 0.319285 0.250000
Si Si6 0.038652 0.444271 0.873795
O O1 0.752738 0.105204 0.370261
O O2 0.610843 0.980949 0.293200
O O3 0.863078 0.079741 0.594456
O O4 0.811556 0.840556 0.473070
O O5 0.829263 0.461143 0.310944
O O6 0.709280 0.713137 0.186226
O O7 0.958492 0.699991 0.423175
O O8 0.895960 0.567919 0.991701
O O9 0.500000 0.733969 0.250000
O O10 0.358965 0.950972 0.047408
O O11 0.250000 0.750000 0.000000
O O12 0.487875 0.216871 0.181753
#
# Coordination Sequence:
#
# PCOD8149074 Si02
#       6
#     8   8   8   8   4   8
#     4  11  23  39  62  92 127 166 210 258 318 376
#     4  10  23  44  65  92 127 165 215 263 315 378
#     4  10  23  44  66  93 126 166 211 265 319 369
#     4  12  23  41  59  89 126 167 207 251 309 378
#     4  12  20  38  64  94 124 164 200 264 312 386
#     4  11  23  41  62  92 129 165 207 264 314 379
#
# _framework density 20.716968000000001
#
# number of rings (size 3 to 8) (size 9 to 14) (size 15 to 20)
#    0.000    1.091    5.455    0.545    2.545    0.727 
#    3.273    0.000    0.000    0.000    0.000    0.000 
#    0.000    0.000    0.000    0.000    0.000    0.000 
#
# Total GULP energy -272664.747790 kJ/mol
# GULP energy per Si atom -12393.852172 kJ/mol
# Density = 2.066981 g / cm^3
# Si number density = 20.716968 Si / 1000 Ang^3
#
#
#
# Elastic Constant Matrix: (Units=GPa)
#
#
# Indices 1 2 3 4 5 6 
#
# 1 65.1538 12.7018 24.0615 0.0000 9.5875 0.0001
# 2 12.7018 81.3526 37.2613 0.0003 12.3548 0.0002
# 3 24.0615 37.2613 97.6387 0.0001 10.4859 0.0004
# 4 0.0000 0.0003 0.0001 27.3920 0.0002 9.0062
# 5 9.5875 12.3548 10.4859 0.0002 27.4303 0.0003
# 6 0.0001 0.0002 0.0004 9.0062 0.0003 36.7915
#
#
#
# Elastic Compliance Matrix: (Units=1/GPa)
#
#
# Indices 1 2 3 4 5 6 
#
# 1 0.017442 -0.000350 -0.003678 0.000000 -0.004533 0.000000
# 2 -0.000350 0.015516 -0.005316 0.000000 -0.004834 0.000000
# 3 -0.003678 -0.005316 0.013329 0.000000 -0.001416 0.000000
# 4 0.000000 0.000000 0.000000 0.039702 0.000000 -0.009719
# 5 -0.004533 -0.004834 -0.001416 0.000000 0.040759 0.000000
# 6 0.000000 0.000000 0.000000 -0.009719 0.000000 0.029559
#
#
# Mechanical properties :
#
#
# Convention : Reuss Voigt Hill
#
# Bulk Modulus (GPa) = 36.23376 43.57716 39.90546
# Shear Modulus (GPa) = 27.14533 29.66412 28.40473
#
# Velocity S-wave (km/s) = 3.62373 3.78812 3.70683
# Velocity P-wave (km/s) = 5.91915 6.34140 6.13391
#
# Compressibility (1/GPa) = 0.02759857
#
# Stress axis : x y z
#
# Youngs Moduli (GPa) = 57.33361 64.45088 75.02554
#
# Poissons Ratio (x) = 0.02258 0.27593
# Poissons Ratio (y) = 0.02009 0.39881
# Poissons Ratio (z) = 0.21086 0.34260
#
# Static dielectric constant tensor:
#      x y z
#    x 3.584190 0.000000 0.058840 
#    y 0.000000 3.830810 0.000000 
#    z 0.058840 0.000000 3.918170 
# 
# 
# High freq. dielectric constant tensor:
#      x y z
#    x 1.800870 0.000000 0.002860 
#    y 0.000000 1.810260 0.000000 
#    z 0.002860 0.000000 1.821740 
# 
# From -- ./inp_files/284501.got.cif
#   From: 2010.06.25/outbox.cif.g09.slc.cpg/sg15_143_cif.got.tgz:284501.got - 2010.06.28 07:06:18.
