data_PCOD8149809
_publ_section_title
;
Structure prediction by ZEFSAII (Michael W. Deem and Ramdas Pophale) SiO2 
 PCOD8149809
Probable space group: C 2/C
;
_chemical_formula_sum "Si O2"
_cell_formula_units_Z 60
_cell_length_a 19.331728
_cell_length_b 18.992373
_cell_length_c 9.014756
_cell_angle_alpha 90.000000
_cell_angle_beta 120.351300
_cell_angle_gamma 90.000000
_cell_volume 2856.184328
_symmetry_space_group_name_H-M "C 2/C"
_symmetry_group_IT_number 15
_symmetry_cell_setting 'monoclinic'
loop_
_space_group_symop_operation_xyz
x,y,z
-x,y,1/2-z
-x,-y,-z
x,-y,1/2+z
1/2+x,1/2+y,z
1/2-x,1/2+y,1/2-z
1/2-x,1/2-y,-z
1/2+x,1/2-y,1/2+z
loop_
_atom_site_type_symbol
_atom_site_label
_atom_site_fract_x
_atom_site_fract_y
_atom_site_fract_z
Si Si1 0.277444 0.818277 0.863409
Si Si2 0.993100 0.853584 0.073680
Si Si3 0.673751 0.576462 0.090596
Si Si4 0.150071 0.069162 0.723257
Si Si5 0.963789 0.285690 0.048154
Si Si6 0.768393 0.664851 0.690385
Si Si7 0.567746 0.093240 0.568459
Si Si8 0.500000 0.002382 0.750000
O O1 0.251823 0.878411 0.720177
O O2 0.224418 0.748626 0.774804
O O3 0.369490 0.797542 0.946039
O O4 0.260070 0.849429 0.006743
O O5 0.054509 0.918280 0.113920
O O6 0.000000 0.826272 0.250000
O O7 0.013574 0.790766 0.985826
O O8 0.904896 0.881589 0.941903
O O9 0.675941 0.501380 0.170446
O O10 0.679235 0.564185 0.922749
O O11 0.190134 0.135759 0.686924
O O12 0.000000 0.294535 0.250000
O O13 0.001773 0.345342 0.984757
O O14 0.844834 0.626720 0.842460
O O15 0.558737 0.043741 0.415787
O O16 0.557244 0.049908 0.709600
#
# Coordination Sequence:
#
# PCOD8149809 Si02
#       8
#     8   8   8   8   8   8   8   4
#     4  11  24  43  66 100 134 173 219 277 328 401
#     4  10  24  45  67  99 134 170 222 274 332 394
#     4  11  25  43  70  97 136 176 219 275 336 393
#     4  11  24  44  67 102 133 176 219 273 331 399
#     4  12  23  43  70  97 127 174 223 271 325 398
#     4  11  23  42  67  96 136 168 224 270 333 391
#     4  11  23  42  64  94 126 175 217 270 325 391
#     4  10  24  42  64  90 130 172 224 270 322 388
#
# _framework density 21.007048999999999
#
# number of rings (size 3 to 8) (size 9 to 14) (size 15 to 20)
#    0.000    1.067    3.333    2.000    2.800    6.933 
#    0.000    0.000    0.000    0.000    0.000    0.000 
#    0.000    0.000    0.000    0.000    0.000    0.000 
#
# Total GULP energy -372183.287580 kJ/mol
# GULP energy per Si atom -12406.109586 kJ/mol
# Density = 2.095924 g / cm^3
# Si number density = 21.007049 Si / 1000 Ang^3
#
#
#
# Elastic Constant Matrix: (Units=GPa)
#
#
# Indices 1 2 3 4 5 6 
#
# 1 88.9505 24.0175 35.4593 0.0000 1.1408 0.0000
# 2 24.0175 105.4573 47.9597 0.0000 -2.6091 0.0000
# 3 35.4593 47.9597 87.7323 0.0000 -0.4230 0.0000
# 4 0.0000 0.0000 0.0000 33.9716 0.0000 -0.8955
# 5 1.1408 -2.6091 -0.4230 0.0000 30.3242 0.0000
# 6 0.0000 0.0000 0.0000 -0.8955 0.0000 23.5544
#
#
#
# Elastic Compliance Matrix: (Units=1/GPa)
#
#
# Indices 1 2 3 4 5 6 
#
# 1 0.013463 -0.000807 -0.005004 0.000000 -0.000646 0.000000
# 2 -0.000807 0.012698 -0.006611 0.000000 0.001031 0.000000
# 3 -0.005004 -0.006611 0.017034 0.000000 -0.000143 0.000000
# 4 0.000000 0.000000 0.000000 0.029466 0.000000 0.001120
# 5 -0.000646 0.001031 -0.000143 0.000000 0.033088 0.000000
# 6 0.000000 0.000000 0.000000 0.001120 0.000000 0.042497
#
#
# Mechanical properties :
#
#
# Convention : Reuss Voigt Hill
#
# Bulk Modulus (GPa) = 54.48638 55.22371 54.85505
# Shear Modulus (GPa) = 27.90100 29.21695 28.55897
#
# Velocity S-wave (km/s) = 3.64836 3.73341 3.69113
# Velocity P-wave (km/s) = 6.61369 6.70296 6.65848
#
# Compressibility (1/GPa) = 0.01835321
#
# Stress axis : x y z
#
# Youngs Moduli (GPa) = 74.27822 78.75236 58.70731
#
# Poissons Ratio (x) = 0.06352 0.29375
# Poissons Ratio (y) = 0.05991 0.38809
# Poissons Ratio (z) = 0.37166 0.52060
#
# Static dielectric constant tensor:
#      x y z
#    x 3.846270 0.000000 -0.068230 
#    y 0.000000 3.887240 0.000000 
#    z -0.068230 0.000000 3.741720 
# 
# 
# High freq. dielectric constant tensor:
#      x y z
#    x 1.830230 0.000000 -0.000690 
#    y 0.000000 1.836540 0.000000 
#    z -0.000690 0.000000 1.822520 
# 
# From -- ./inp_files/57032.got.cif
#   From: 2010.06.25/outbox.cif.g09.slc.cpg/sg15_29_cif.got.tgz:57032.got - 2010.06.28 07:06:18.
