data_PCOD8149042
_publ_section_title
;
Structure prediction by ZEFSAII (Michael W. Deem and Ramdas Pophale) SiO2 
 PCOD8149042
Probable space group: C 2/C
;
_chemical_formula_sum "Si O2"
_cell_formula_units_Z 56
_cell_length_a 11.520617
_cell_length_b 8.422181
_cell_length_c 26.821522
_cell_angle_alpha 90.000000
_cell_angle_beta 112.968586
_cell_angle_gamma 90.000000
_cell_volume 2396.132374
_symmetry_space_group_name_H-M "C 2/C"
_symmetry_group_IT_number 15
_symmetry_cell_setting 'monoclinic'
loop_
_space_group_symop_operation_xyz
x,y,z
-x,y,1/2-z
-x,-y,-z
x,-y,1/2+z
1/2+x,1/2+y,z
1/2-x,1/2+y,1/2-z
1/2-x,1/2-y,-z
1/2+x,1/2-y,1/2+z
loop_
_atom_site_type_symbol
_atom_site_label
_atom_site_fract_x
_atom_site_fract_y
_atom_site_fract_z
Si Si1 0.101465 0.338600 0.863445
Si Si2 0.270336 0.431242 0.451290
Si Si3 0.433544 0.613432 0.891684
Si Si4 0.961919 0.366081 0.315307
Si Si5 0.258620 0.935063 0.351588
Si Si6 0.692409 0.755949 0.303792
Si Si7 0.840149 0.902988 0.572060
O O1 0.215950 0.420808 0.911665
O O2 0.154252 0.203507 0.835044
O O3 0.015216 0.267672 0.892711
O O4 0.018696 0.457482 0.816019
O O5 0.398992 0.380632 0.444466
O O6 0.169086 0.287161 0.433354
O O7 0.302388 0.481047 0.512760
O O8 0.304265 0.623683 0.837870
O O9 0.515494 0.456184 0.891465
O O10 0.893264 0.357800 0.357897
O O11 0.860712 0.323575 0.256288
O O12 0.084394 0.251408 0.329825
O O13 0.231243 0.070981 0.305029
O O14 0.260887 0.025238 0.405223
#
# Coordination Sequence:
#
# PCOD8149042 Si02
#       7
#     8   8   8   8   8   8   8
#     4  11  24  43  71 101 137 173 235 278 348 409
#     4  11  22  45  68 105 138 185 226 282 340 420
#     4  11  22  45  66  99 142 175 226 291 328 420
#     4  11  24  47  68  96 133 182 227 289 336 417
#     4  11  24  47  68 101 136 181 224 291 341 413
#     4  11  24  47  68  94 137 178 233 276 354 406
#     4  10  23  43  75 100 140 183 231 276 355 400
#
# _framework density 23.370996000000002
#
# number of rings (size 3 to 8) (size 9 to 14) (size 15 to 20)
#    0.000    1.143    4.286    0.429    0.000    8.000 
#   12.857    7.857    0.000    0.000    0.000    0.000 
#    0.000    0.000    0.000    0.000    0.000    0.000 
#
# Total GULP energy -347071.540461 kJ/mol
# GULP energy per Si atom -12395.412159 kJ/mol
# Density = 2.331780 g / cm^3
# Si number density = 23.370996 Si / 1000 Ang^3
#
#
#
# Elastic Constant Matrix: (Units=GPa)
#
#
# Indices 1 2 3 4 5 6 
#
# 1 146.8721 31.4806 34.9346 0.0000 -7.4536 0.0000
# 2 31.4806 81.9117 18.8064 0.0000 5.6422 0.0000
# 3 34.9346 18.8064 71.0682 0.0000 2.6934 0.0000
# 4 0.0000 0.0000 0.0000 28.7866 0.0000 -1.6277
# 5 -7.4536 5.6422 2.6934 0.0000 32.9448 0.0000
# 6 0.0000 0.0000 0.0000 -1.6277 0.0000 35.5086
#
#
#
# Elastic Compliance Matrix: (Units=1/GPa)
#
#
# Indices 1 2 3 4 5 6 
#
# 1 0.008328 -0.002574 -0.003512 0.000000 0.002612 0.000000
# 2 -0.002574 0.013920 -0.002313 0.000000 -0.002777 0.000000
# 3 -0.003512 -0.002313 0.016475 0.000000 -0.001745 0.000000
# 4 0.000000 0.000000 0.000000 0.034829 0.000000 0.001597
# 5 0.002612 -0.002777 -0.001745 0.000000 0.031563 0.000000
# 6 0.000000 0.000000 0.000000 0.001597 0.000000 0.028235
#
#
# Mechanical properties :
#
#
# Convention : Reuss Voigt Hill
#
# Bulk Modulus (GPa) = 45.60823 52.25502 48.93162
# Shear Modulus (GPa) = 31.75465 33.75668 32.75567
#
# Velocity S-wave (km/s) = 3.69008 3.80463 3.74779
# Velocity P-wave (km/s) = 6.14108 6.45815 6.30161
#
# Compressibility (1/GPa) = 0.02192587
#
# Stress axis : x y z
#
# Youngs Moduli (GPa) = 120.07274 71.83904 60.69670
#
# Poissons Ratio (x) = 0.18495 0.21314
# Poissons Ratio (y) = 0.30912 0.14038
# Poissons Ratio (z) = 0.42165 0.16615
#
# Static dielectric constant tensor:
#      x y z
#    x 4.562940 0.000000 -0.175810 
#    y 0.000000 4.249330 0.000000 
#    z -0.175810 0.000000 3.999920 
# 
# 
# High freq. dielectric constant tensor:
#      x y z
#    x 1.941890 0.000000 -0.012730 
#    y 0.000000 1.929080 0.000000 
#    z -0.012730 0.000000 1.900370 
# 
# From -- ./inp_files/291626.got.cif
#   From: 2010.06.25/outbox.cif.g09.slc.cpg/sg15_146_cif.got.tgz:291626.got - 2010.06.28 07:06:18.
