data_PCOD8149065
_publ_section_title
;
Structure prediction by ZEFSAII (Michael W. Deem and Ramdas Pophale) SiO2 
 PCOD8149065
Probable space group: C 2/C
;
_chemical_formula_sum "Si O2"
_cell_formula_units_Z 52
_cell_length_a 19.911735
_cell_length_b 24.571835
_cell_length_c 4.999475
_cell_angle_alpha 90.000000
_cell_angle_beta 78.639703
_cell_angle_gamma 90.000000
_cell_volume 2398.158590
_symmetry_space_group_name_H-M "C 2/C"
_symmetry_group_IT_number 15
_symmetry_cell_setting 'monoclinic'
loop_
_space_group_symop_operation_xyz
x,y,z
-x,y,1/2-z
-x,-y,-z
x,-y,1/2+z
1/2+x,1/2+y,z
1/2-x,1/2+y,1/2-z
1/2-x,1/2-y,-z
1/2+x,1/2-y,1/2+z
loop_
_atom_site_type_symbol
_atom_site_label
_atom_site_fract_x
_atom_site_fract_y
_atom_site_fract_z
Si Si1 0.811160 0.380584 0.021986
Si Si2 0.670047 0.759623 0.518705
Si Si3 0.097342 0.036644 0.289653
Si Si4 0.276110 0.394316 0.920125
Si Si5 0.376308 0.698091 0.456172
Si Si6 0.500000 0.629211 0.250000
Si Si7 0.423094 0.035121 0.276711
O O1 0.779112 0.410571 0.308499
O O2 0.841128 0.321344 0.069675
O O3 0.757440 0.372299 0.823856
O O4 0.873346 0.415607 0.868388
O O5 0.750000 0.750000 0.500000
O O6 0.632884 0.721121 0.333973
O O7 0.632543 0.746915 0.827669
O O8 0.176617 0.055073 0.209006
O O9 0.049405 0.089393 0.384854
O O10 0.080712 0.991734 0.522551
O O11 0.318272 0.347521 0.040325
O O12 0.449772 0.669322 0.453175
O O13 0.500000 0.057383 0.250000
O O14 0.409763 0.984955 0.486765
#
# Coordination Sequence:
#
# PCOD8149065 Si02
#       7
#     8   8   8   8   8   4   8
#     4  12  23  38  66  95 120 160 204 255 314 380
#     4  12  22  40  68  90 129 160 207 259 321 369
#     4  11  24  41  63  92 129 170 219 269 305 364
#     4  11  22  37  61  92 125 159 207 257 312 367
#     4  11  23  42  61  92 126 173 209 255 308 378
#     4  10  26  44  66  88 132 182 220 250 324 376
#     4  10  23  44  64  85 120 160 196 246 314 380
#
# _framework density 21.683304
#
# number of rings (size 3 to 8) (size 9 to 14) (size 15 to 20)
#    0.000    0.923    3.077    3.692    0.000    9.231 
#    2.769    0.000    0.000    0.000    0.000    0.000 
#    0.000    0.000    0.000    0.000    0.000    0.000 
#
# Total GULP energy -322393.344324 kJ/mol
# GULP energy per Si atom -12399.744012 kJ/mol
# Density = 2.163395 g / cm^3
# Si number density = 21.683304 Si / 1000 Ang^3
#
#
#
# Elastic Constant Matrix: (Units=GPa)
#
#
# Indices 1 2 3 4 5 6 
#
# 1 82.3804 55.0297 38.9099 0.0000 -19.2692 0.0000
# 2 55.0297 83.9694 19.2370 0.0000 -18.1150 0.0000
# 3 38.9099 19.2370 108.2078 0.0000 -1.1876 0.0000
# 4 0.0000 0.0000 0.0000 2.1902 0.0000 0.5323
# 5 -19.2692 -18.1150 -1.1876 0.0000 27.0392 0.0000
# 6 0.0000 0.0000 0.0000 0.5323 0.0000 26.8827
#
#
#
# Elastic Compliance Matrix: (Units=1/GPa)
#
#
# Indices 1 2 3 4 5 6 
#
# 1 0.027196 -0.014107 -0.007166 0.000000 0.009615 0.000000
# 2 -0.014107 0.021876 0.001235 0.000000 0.004657 0.000000
# 3 -0.007166 0.001235 0.011557 0.000000 -0.003772 0.000000
# 4 0.000000 0.000000 0.000000 0.458780 0.000000 -0.009085
# 5 0.009615 0.004657 -0.003772 0.000000 0.046790 0.000000
# 6 0.000000 0.000000 0.000000 -0.009085 0.000000 0.037378
#
#
# Mechanical properties :
#
#
# Convention : Reuss Voigt Hill
#
# Bulk Modulus (GPa) = 48.65478 55.65677 52.15578
# Shear Modulus (GPa) = 7.68635 21.98118 14.83376
#
# Velocity S-wave (km/s) = 1.88481 3.18738 2.61839
# Velocity P-wave (km/s) = 5.21768 6.26655 5.76601
#
# Compressibility (1/GPa) = 0.02055296
#
# Stress axis : x y z
#
# Youngs Moduli (GPa) = 36.77060 45.71245 86.52564
#
# Poissons Ratio (x) = 0.64486 0.62002
# Poissons Ratio (y) = 0.51872 -0.10683
# Poissons Ratio (z) = 0.26349 -0.05644
#
# Static dielectric constant tensor:
#      x y z
#    x 3.974220 0.000000 -0.146300 
#    y 0.000000 3.939170 0.000000 
#    z -0.146300 0.000000 3.888840 
# 
# 
# High freq. dielectric constant tensor:
#      x y z
#    x 1.847190 0.000000 -0.006380 
#    y 0.000000 1.849590 0.000000 
#    z -0.006380 0.000000 1.856650 
# 
# From -- ./inp_files/13660.got.cif
#   From: 2010.06.25/outbox.cif.g09.slc.cpg/sg15_7_cif.got.tgz:13660.got - 2010.06.28 07:06:18.
