data_PCOD8149224
_publ_section_title
;
Structure prediction by ZEFSAII (Michael W. Deem and Ramdas Pophale) SiO2 
 PCOD8149224
Probable space group: C 2/C
;
_chemical_formula_sum "Si O2"
_cell_formula_units_Z 36
_cell_length_a 11.462547
_cell_length_b 24.367772
_cell_length_c 5.444419
_cell_angle_alpha 90.000000
_cell_angle_beta 63.138411
_cell_angle_gamma 90.000000
_cell_volume 1356.632897
_symmetry_space_group_name_H-M "C 2/C"
_symmetry_group_IT_number 15
_symmetry_cell_setting 'monoclinic'
loop_
_space_group_symop_operation_xyz
x,y,z
-x,y,1/2-z
-x,-y,-z
x,-y,1/2+z
1/2+x,1/2+y,z
1/2-x,1/2+y,1/2-z
1/2-x,1/2-y,-z
1/2+x,1/2-y,1/2+z
loop_
_atom_site_type_symbol
_atom_site_label
_atom_site_fract_x
_atom_site_fract_y
_atom_site_fract_z
Si Si1 0.500000 0.451008 0.250000
Si Si2 0.766301 0.527517 0.333303
Si Si3 0.669353 0.247481 0.324926
Si Si4 0.373266 0.130537 0.011155
Si Si5 0.111861 0.136946 0.961502
O O1 0.395622 0.482541 0.529178
O O2 0.390029 0.409939 0.241873
O O3 0.820508 0.500765 0.532057
O O4 0.823004 0.589323 0.270859
O O5 0.750000 0.250000 0.500000
O O6 0.591135 0.189706 0.400646
O O7 0.575637 0.301213 0.404682
O O8 0.750000 0.250000 0.000000
O O9 0.500000 0.107732 0.750000
O O10 0.256128 0.136846 0.930936
O O11 0.000000 0.116970 0.250000
#
# Coordination Sequence:
#
# PCOD8149224 Si02
#       5
#     4   8   8   8   8
#     4  12  24  46  78 114 150 184 254 318 384 438
#     4  12  27  47  76 108 146 200 256 319 373 435
#     4  10  23  44  71 108 148 195 242 296 368 449
#     4  11  25  50  73 109 154 200 249 308 375 451
#     4  11  23  44  76 109 148 191 241 301 374 447
#
# _framework density 26.536284999999999
#
# number of rings (size 3 to 8) (size 9 to 14) (size 15 to 20)
#    0.000    0.889    2.222    4.000    3.111    2.667 
#    0.000   12.222    0.000    0.000    0.000    0.000 
#    0.000    0.000    0.000    0.000    0.000    0.000 
#
# Total GULP energy -223073.683530 kJ/mol
# GULP energy per Si atom -12392.982418 kJ/mol
# Density = 2.647589 g / cm^3
# Si number density = 26.536285 Si / 1000 Ang^3
#
#
#
# Elastic Constant Matrix: (Units=GPa)
#
#
# Indices 1 2 3 4 5 6 
#
# 1 70.8486 2.7155 34.9312 0.0000 -12.3708 0.0000
# 2 2.7155 126.7057 30.1017 0.0000 5.0733 0.0000
# 3 34.9312 30.1017 168.4175 0.0000 0.6267 0.0000
# 4 0.0000 0.0000 0.0000 36.5500 0.0000 -19.3844
# 5 -12.3708 5.0733 0.6267 0.0000 50.2515 0.0000
# 6 0.0000 0.0000 0.0000 -19.3844 0.0000 24.5206
#
#
#
# Elastic Compliance Matrix: (Units=1/GPa)
#
#
# Indices 1 2 3 4 5 6 
#
# 1 0.016543 0.000314 -0.003502 0.000000 0.004084 0.000000
# 2 0.000314 0.008282 -0.001543 0.000000 -0.000740 0.000000
# 3 -0.003502 -0.001543 0.006943 0.000000 -0.000793 0.000000
# 4 0.000000 0.000000 0.000000 0.047112 0.000000 0.037244
# 5 0.004084 -0.000740 -0.000793 0.000000 0.020990 0.000000
# 6 0.000000 0.000000 0.000000 0.037244 0.000000 0.070224
#
#
# Mechanical properties :
#
#
# Convention : Reuss Voigt Hill
#
# Bulk Modulus (GPa) = 44.83302 55.71873 50.27587
# Shear Modulus (GPa) = 26.73937 42.14598 34.44268
#
# Velocity S-wave (km/s) = 3.17780 3.98960 3.60661
# Velocity P-wave (km/s) = 5.51328 6.50117 6.02750
#
# Compressibility (1/GPa) = 0.02230499
#
# Stress axis : x y z
#
# Youngs Moduli (GPa) = 60.45017 120.74870 144.03604
#
# Poissons Ratio (x) = -0.03791 0.50447
# Poissons Ratio (y) = -0.01898 0.22219
# Poissons Ratio (z) = 0.21172 0.18626
#
# Static dielectric constant tensor:
#      x y z
#    x 5.455920 0.000000 0.521820 
#    y 0.000000 5.799360 0.000000 
#    z 0.521820 0.000000 5.082350 
# 
# 
# High freq. dielectric constant tensor:
#      x y z
#    x 2.029610 0.000000 0.001730 
#    y 0.000000 2.097190 0.000000 
#    z 0.001730 0.000000 2.078980 
# 
# From -- ./inp_files/7218.got.cif
#   From: 2010.06.25/outbox.cif.g09.slc.cpg/sg15_4_cif.got.tgz:7218.got - 2010.06.28 07:06:18.
