data_PCOD8149215
_publ_section_title
;
Structure prediction by ZEFSAII (Michael W. Deem and Ramdas Pophale) SiO2 
 PCOD8149215
Probable space group: C 2/C
;
_chemical_formula_sum "Si O2"
_cell_formula_units_Z 64
_cell_length_a 10.784535
_cell_length_b 9.208107
_cell_length_c 29.107668
_cell_angle_alpha 90.000000
_cell_angle_beta 89.506235
_cell_angle_gamma 90.000000
_cell_volume 2890.434067
_symmetry_space_group_name_H-M "C 2/C"
_symmetry_group_IT_number 15
_symmetry_cell_setting 'monoclinic'
loop_
_space_group_symop_operation_xyz
x,y,z
-x,y,1/2-z
-x,-y,-z
x,-y,1/2+z
1/2+x,1/2+y,z
1/2-x,1/2+y,1/2-z
1/2-x,1/2-y,-z
1/2+x,1/2-y,1/2+z
loop_
_atom_site_type_symbol
_atom_site_label
_atom_site_fract_x
_atom_site_fract_y
_atom_site_fract_z
Si Si1 0.627860 0.580714 0.725187
Si Si2 0.013371 0.328804 0.100973
Si Si3 0.392591 0.891732 0.633965
Si Si4 0.125153 0.329204 0.489794
Si Si5 0.379705 0.458060 0.875270
Si Si6 0.977028 0.840858 0.063200
Si Si7 0.222526 0.613010 0.531252
Si Si8 0.133372 0.394646 0.761730
O O1 0.500000 0.530419 0.750000
O O2 0.614889 0.549999 0.671315
O O3 0.748681 0.500034 0.746380
O O4 0.650154 0.752543 0.730119
O O5 0.030177 0.182412 0.130938
O O6 0.145432 0.351661 0.076815
O O7 0.977213 0.462719 0.133951
O O8 0.905524 0.313385 0.063513
O O9 0.260051 0.918399 0.611209
O O10 0.457186 0.764122 0.606297
O O11 0.372008 0.839705 0.685937
O O12 0.250000 0.250000 0.500000
O O13 0.142632 0.497271 0.502918
O O14 0.016326 0.255850 0.519644
O O15 0.419490 0.546830 0.920493
O O16 0.857370 0.937757 0.049333
O O17 0.250000 0.750000 0.500000
O O18 0.000000 0.470192 0.750000
#
# Coordination Sequence:
#
# PCOD8149215 Si02
#       8
#     8   8   8   8   8   8   8   8
#     4  10  23  46  70 101 138 171 218 273 343 412
#     4  12  24  43  63  95 135 174 228 273 332 390
#     4  11  24  45  67  96 136 171 220 279 332 398
#     4  12  26  40  63  94 130 182 231 277 327 392
#     4  11  26  43  68 101 133 172 220 282 327 402
#     4  12  23  42  67  93 134 178 227 277 335 387
#     4  12  24  41  65  91 128 184 227 278 332 386
#     4  10  23  44  71 101 133 173 217 274 336 418
#
# _framework density 22.142002000000002
#
# number of rings (size 3 to 8) (size 9 to 14) (size 15 to 20)
#    0.000    0.750    3.750    4.125    1.750    5.500 
#    2.250    0.000    0.000    0.000    0.000    0.000 
#    0.000    0.000    0.000    0.000    0.000    0.000 
#
# Total GULP energy -396847.177537 kJ/mol
# GULP energy per Si atom -12401.474298 kJ/mol
# Density = 2.209161 g / cm^3
# Si number density = 22.142002 Si / 1000 Ang^3
#
#
#
# Elastic Constant Matrix: (Units=GPa)
#
#
# Indices 1 2 3 4 5 6 
#
# 1 132.7523 28.9278 9.8665 0.0000 19.2638 0.0000
# 2 28.9278 90.1264 11.7245 0.0000 8.9056 0.0000
# 3 9.8665 11.7245 53.1577 0.0000 9.3282 0.0000
# 4 0.0000 0.0000 0.0000 40.4894 0.0000 5.6148
# 5 19.2638 8.9056 9.3282 0.0000 35.1342 0.0000
# 6 0.0000 0.0000 0.0000 5.6148 0.0000 40.1065
#
#
#
# Elastic Compliance Matrix: (Units=1/GPa)
#
#
# Indices 1 2 3 4 5 6 
#
# 1 0.008657 -0.002328 -0.000382 0.000000 -0.004055 0.000000
# 2 -0.002328 0.012235 -0.002041 0.000000 -0.001283 0.000000
# 3 -0.000382 -0.002041 0.020144 0.000000 -0.004622 0.000000
# 4 0.000000 0.000000 0.000000 0.025187 0.000000 -0.003526
# 5 -0.004055 -0.001283 -0.004622 0.000000 0.032238 0.000000
# 6 0.000000 0.000000 0.000000 -0.003526 0.000000 0.025427
#
#
# Mechanical properties :
#
#
# Convention : Reuss Voigt Hill
#
# Bulk Modulus (GPa) = 31.71230 41.89709 36.80469
# Shear Modulus (GPa) = 34.74592 38.18054 36.46323
#
# Velocity S-wave (km/s) = 3.96565 4.15703 4.06247
# Velocity P-wave (km/s) = 5.94322 6.48107 6.21796
#
# Compressibility (1/GPa) = 0.03153351
#
# Stress axis : x y z
#
# Youngs Moduli (GPa) = 115.51376 81.73175 49.64251
#
# Poissons Ratio (x) = 0.19029 0.01895
# Poissons Ratio (y) = 0.26895 0.10134
# Poissons Ratio (z) = 0.04409 0.16684
#
# Static dielectric constant tensor:
#      x y z
#    x 4.068800 0.000000 0.359810 
#    y 0.000000 2.831490 0.000000 
#    z 0.359810 0.000000 3.804520 
# 
# 
# High freq. dielectric constant tensor:
#      x y z
#    x 1.893770 0.000000 0.009920 
#    y 0.000000 1.869720 0.000000 
#    z 0.009920 0.000000 1.864810 
# 
# From -- ./inp_files/310319.got.cif
#   From: 2010.06.25/outbox.cif.g09.slc.cpg/sg15_156_cif.got.tgz:310319.got - 2010.06.28 07:06:18.
