data_PCOD8149483
_publ_section_title
;
Structure prediction by ZEFSAII (Michael W. Deem and Ramdas Pophale) SiO2 
 PCOD8149483
Probable space group: C 2/C
;
_chemical_formula_sum "Si O2"
_cell_formula_units_Z 44
_cell_length_a 7.954599
_cell_length_b 28.552087
_cell_length_c 9.253017
_cell_angle_alpha 90.000000
_cell_angle_beta 119.451092
_cell_angle_gamma 90.000000
_cell_volume 1829.977786
_symmetry_space_group_name_H-M "C 2/C"
_symmetry_group_IT_number 15
_symmetry_cell_setting 'monoclinic'
loop_
_space_group_symop_operation_xyz
x,y,z
-x,y,1/2-z
-x,-y,-z
x,-y,1/2+z
1/2+x,1/2+y,z
1/2-x,1/2+y,1/2-z
1/2-x,1/2-y,-z
1/2+x,1/2-y,1/2+z
loop_
_atom_site_type_symbol
_atom_site_label
_atom_site_fract_x
_atom_site_fract_y
_atom_site_fract_z
Si Si1 0.678132 0.306058 0.627234
Si Si2 0.593106 0.606778 0.508748
Si Si3 0.761123 0.469267 0.902713
Si Si4 0.500000 0.850286 0.250000
Si Si5 0.000000 0.512866 0.250000
Si Si6 0.500000 0.446392 0.250000
Si Si7 0.989222 0.291117 0.524983
O O1 0.538155 0.349813 0.595538
O O2 0.839273 0.314128 0.573463
O O3 0.544712 0.263571 0.517732
O O4 0.790443 0.295925 0.825068
O O5 0.598477 0.568488 0.380682
O O6 0.490879 0.585597 0.605545
O O7 0.813912 0.618958 0.636160
O O8 0.872373 0.453141 0.802013
O O9 0.684631 0.520287 0.826013
O O10 0.890474 0.477064 0.098362
O O11 0.450150 0.818152 0.363027
#
# Coordination Sequence:
#
# PCOD8149483 Si02
#       7
#     8   8   8   4   4   4   8
#     4  10  23  47  76 105 141 190 235 298 349 451
#     4  12  26  44  70 106 146 185 249 294 362 428
#     4  11  24  47  71 101 138 193 238 305 365 424
#     4  12  27  44  69 106 144 186 233 300 354 435
#     4  10  23  46  76  96 135 191 248 294 368 437
#     4  12  26  46  69 100 141 191 237 306 362 430
#     4  10  23  47  75 105 145 186 233 285 381 421
#
# _framework density 24.044008000000002
#
# number of rings (size 3 to 8) (size 9 to 14) (size 15 to 20)
#    0.000    1.091    1.818    3.273    2.545    8.000 
#    0.000    0.000    0.000    0.000    0.000    0.000 
#    0.000    0.000    0.000    0.000    0.000    0.000 
#
# Total GULP energy -272780.394227 kJ/mol
# GULP energy per Si atom -12399.108828 kJ/mol
# Density = 2.398928 g / cm^3
# Si number density = 24.044008 Si / 1000 Ang^3
#
#
#
# Elastic Constant Matrix: (Units=GPa)
#
#
# Indices 1 2 3 4 5 6 
#
# 1 102.3604 48.5036 37.5362 0.0000 -14.9085 0.0000
# 2 48.5036 97.5262 20.1384 0.0000 -2.2777 0.0000
# 3 37.5362 20.1384 114.8854 0.0000 -3.8226 0.0000
# 4 0.0000 0.0000 0.0000 20.8539 0.0000 -3.2324
# 5 -14.9085 -2.2777 -3.8226 0.0000 59.2721 0.0000
# 6 0.0000 0.0000 0.0000 -3.2324 0.0000 88.2207
#
#
#
# Elastic Compliance Matrix: (Units=1/GPa)
#
#
# Indices 1 2 3 4 5 6 
#
# 1 0.014585 -0.006450 -0.003528 0.000000 0.003193 0.000000
# 2 -0.006450 0.013497 -0.000296 0.000000 -0.001123 0.000000
# 3 -0.003528 -0.000296 0.009900 0.000000 -0.000260 0.000000
# 4 0.000000 0.000000 0.000000 0.048227 0.000000 0.001767
# 5 0.003193 -0.001123 -0.000260 0.000000 0.017615 0.000000
# 6 0.000000 0.000000 0.000000 0.001767 0.000000 0.011400
#
#
# Mechanical properties :
#
#
# Convention : Reuss Voigt Hill
#
# Bulk Modulus (GPa) = 57.36305 58.56983 57.96644
# Shear Modulus (GPa) = 35.31505 47.57559 41.44532
#
# Velocity S-wave (km/s) = 3.83661 4.45307 4.15628
# Velocity P-wave (km/s) = 6.59814 7.13107 6.86977
#
# Compressibility (1/GPa) = 0.01743283
#
# Stress axis : x y z
#
# Youngs Moduli (GPa) = 68.56411 74.09295 101.00719
#
# Poissons Ratio (x) = 0.47794 0.35639
# Poissons Ratio (y) = 0.44227 0.02986
# Poissons Ratio (z) = 0.24192 0.02191
#
# Static dielectric constant tensor:
#      x y z
#    x 4.157320 0.000000 0.122300 
#    y 0.000000 4.146750 0.000000 
#    z 0.122300 0.000000 4.498960 
# 
# 
# High freq. dielectric constant tensor:
#      x y z
#    x 1.964520 0.000000 -0.000790 
#    y 0.000000 1.941720 0.000000 
#    z -0.000790 0.000000 1.980660 
# 
# From -- ./inp_files/26304.got.cif
#   From: 2010.06.25/outbox.cif.g09.slc.cpg/sg15_14_cif.got.tgz:26304.got - 2010.06.28 07:06:18.
