data_PCOD8149827
_publ_section_title
;
Structure prediction by ZEFSAII (Michael W. Deem and Ramdas Pophale) SiO2 
 PCOD8149827
Probable space group: C 2/C
;
_chemical_formula_sum "Si O2"
_cell_formula_units_Z 40
_cell_length_a 15.177280
_cell_length_b 9.879528
_cell_length_c 27.682369
_cell_angle_alpha 90.000000
_cell_angle_beta 28.491378
_cell_angle_gamma 90.000000
_cell_volume 1980.048872
_symmetry_space_group_name_H-M "C 2/C"
_symmetry_group_IT_number 15
_symmetry_cell_setting 'monoclinic'
loop_
_space_group_symop_operation_xyz
x,y,z
-x,y,1/2-z
-x,-y,-z
x,-y,1/2+z
1/2+x,1/2+y,z
1/2-x,1/2+y,1/2-z
1/2-x,1/2-y,-z
1/2+x,1/2-y,1/2+z
loop_
_atom_site_type_symbol
_atom_site_label
_atom_site_fract_x
_atom_site_fract_y
_atom_site_fract_z
Si Si1 0.708324 0.589636 0.753945
Si Si2 0.536910 0.975844 0.036982
Si Si3 0.064985 0.324143 0.600455
Si Si4 0.516975 0.930451 0.298445
Si Si5 0.447703 0.622207 0.331014
O O1 0.582672 0.720594 0.807196
O O2 0.598184 0.455157 0.790958
O O3 0.885883 0.623663 0.634171
O O4 0.776871 0.564714 0.776539
O O5 0.495346 0.118693 0.082999
O O6 0.746053 0.929019 0.943290
O O7 0.500000 0.000000 0.000000
O O8 0.250000 0.250000 0.500000
O O9 0.101788 0.450937 0.618768
O O10 0.500000 0.961135 0.250000
O O11 0.440485 0.781233 0.346271
O O12 0.500000 0.594973 0.250000
#
# Coordination Sequence:
#
# PCOD8149827 Si02
#       5
#     8   8   8   8   8
#     4  11  23  43  68  94 136 173 217 274 330 398
#     4  11  23  41  71 100 129 177 224 268 333 396
#     4  11  24  43  64  96 131 171 222 272 327 390
#     4  10  24  42  65  95 132 169 216 276 330 386
#     4  11  22  43  71  98 131 174 222 272 330 402
#
# _framework density 20.201519999999999
#
# number of rings (size 3 to 8) (size 9 to 14) (size 15 to 20)
#    0.000    1.200    4.000    2.400    2.800    5.600 
#    7.200    1.000    0.000    0.000    0.000    0.000 
#    0.000    0.000    0.000    0.000    0.000    0.000 
#
# Total GULP energy -247825.736160 kJ/mol
# GULP energy per Si atom -12391.286808 kJ/mol
# Density = 2.015554 g / cm^3
# Si number density = 20.201520 Si / 1000 Ang^3
#
#
#
# Elastic Constant Matrix: (Units=GPa)
#
#
# Indices 1 2 3 4 5 6 
#
# 1 154.3327 47.1677 42.9824 0.0001 9.4403 0.0000
# 2 47.1677 128.9022 57.3237 -0.0005 8.1331 -0.0001
# 3 42.9824 57.3237 156.1725 0.0011 -6.3174 -0.0001
# 4 0.0001 -0.0005 0.0011 36.6611 -0.0002 -1.6427
# 5 9.4403 8.1331 -6.3174 -0.0002 31.4394 0.0000
# 6 0.0000 -0.0001 -0.0001 -1.6427 0.0000 27.9779
#
#
#
# Elastic Compliance Matrix: (Units=1/GPa)
#
#
# Indices 1 2 3 4 5 6 
#
# 1 0.007624 -0.002019 -0.001440 0.000000 -0.002056 0.000000
# 2 -0.002019 0.010117 -0.003266 0.000000 -0.002667 0.000000
# 3 -0.001440 -0.003266 0.008116 0.000000 0.002908 0.000000
# 4 0.000000 0.000000 0.000000 0.027349 0.000000 0.001606
# 5 -0.002056 -0.002667 0.002908 0.000000 0.033699 0.000000
# 6 0.000000 0.000000 0.000000 0.001606 0.000000 0.035837
#
#
# Mechanical properties :
#
#
# Convention : Reuss Voigt Hill
#
# Bulk Modulus (GPa) = 80.60467 81.59502 81.09985
# Shear Modulus (GPa) = 35.63102 38.67791 37.15447
#
# Velocity S-wave (km/s) = 4.20429 4.38037 4.29323
# Velocity P-wave (km/s) = 7.97214 8.12783 8.05036
#
# Compressibility (1/GPa) = 0.01240623
#
# Stress axis : x y z
#
# Youngs Moduli (GPa) = 131.17257 98.84036 123.21569
#
# Poissons Ratio (x) = 0.19960 0.17744
# Poissons Ratio (y) = 0.26490 0.40238
# Poissons Ratio (z) = 0.18890 0.32278
#
# Static dielectric constant tensor:
#      x y z
#    x 3.878780 0.000000 -0.213950 
#    y 0.000000 3.808380 0.000020 
#    z -0.213950 0.000020 2.898800 
# 
# 
# High freq. dielectric constant tensor:
#      x y z
#    x 1.796280 0.000000 -0.005220 
#    y 0.000000 1.795930 0.000000 
#    z -0.005220 0.000000 1.789770 
# 
# From -- ./inp_files/150785.got.cif
#   From: 2010.06.25/outbox.cif.g09.slc.cpg/sg15_76_cif.got.tgz:150785.got - 2010.06.28 07:06:18.
