data_PCOD8149986
_publ_section_title
;
Structure prediction by ZEFSAII (Michael W. Deem and Ramdas Pophale) SiO2 
 PCOD8149986
Probable space group: C 2/C
;
_chemical_formula_sum "Si O2"
_cell_formula_units_Z 56
_cell_length_a 29.222378
_cell_length_b 12.876477
_cell_length_c 14.609132
_cell_angle_alpha 90.000000
_cell_angle_beta 28.325718
_cell_angle_gamma 90.000000
_cell_volume 2608.302902
_symmetry_space_group_name_H-M "C 2/C"
_symmetry_group_IT_number 15
_symmetry_cell_setting 'monoclinic'
loop_
_space_group_symop_operation_xyz
x,y,z
-x,y,1/2-z
-x,-y,-z
x,-y,1/2+z
1/2+x,1/2+y,z
1/2-x,1/2+y,1/2-z
1/2-x,1/2-y,-z
1/2+x,1/2-y,1/2+z
loop_
_atom_site_type_symbol
_atom_site_label
_atom_site_fract_x
_atom_site_fract_y
_atom_site_fract_z
Si Si1 0.500000 0.089089 0.250000
Si Si2 0.298504 0.811872 0.783537
Si Si3 0.023985 0.908133 0.026186
Si Si4 0.000000 0.031262 0.250000
Si Si5 0.890801 0.272295 0.803489
Si Si6 0.319105 0.647200 0.611654
Si Si7 0.274984 0.704590 0.357242
Si Si8 0.691587 0.031969 0.387155
O O1 0.529540 0.160566 0.283931
O O2 0.414567 0.013674 0.428547
O O3 0.347265 0.837270 0.795013
O O4 0.360198 0.731832 0.611924
O O5 0.287291 0.918954 0.749353
O O6 0.193085 0.760446 0.979395
O O7 0.934798 0.830398 0.181646
O O8 0.118169 0.842545 0.833261
O O9 0.032597 0.957328 0.110793
O O10 0.000000 0.000000 0.000000
O O11 0.907532 0.105027 0.393725
O O12 0.237531 0.699463 0.690885
O O13 0.270541 0.558036 0.759137
O O14 0.250000 0.750000 0.500000
O O15 0.202071 0.612902 0.453116
#
# Coordination Sequence:
#
# PCOD8149986 Si02
#       8
#     4   8   8   4   8   8   8   8
#     4  12  25  41  72  98 140 188 232 284 356 440
#     4  10  24  43  67  97 140 184 230 294 353 429
#     4  12  25  41  69 104 133 186 245 294 352 428
#     4  12  23  39  72  96 134 182 240 288 348 428
#     4  11  24  42  68  98 137 186 236 292 353 422
#     4  11  22  44  67  98 139 184 234 294 356 416
#     4  11  26  44  67 101 147 183 236 308 362 422
#     4  11  24  43  68  98 137 185 235 286 359 427
#
# _framework density 21.469899999999999
#
# number of rings (size 3 to 8) (size 9 to 14) (size 15 to 20)
#    0.000    0.857    2.857    3.857    4.000    5.143 
#    0.000    0.000    0.000    0.000    0.000    0.000 
#    0.000    0.000    0.000    0.000    0.000    0.000 
#
# Total GULP energy -347223.534347 kJ/mol
# GULP energy per Si atom -12400.840512 kJ/mol
# Density = 2.142103 g / cm^3
# Si number density = 21.469900 Si / 1000 Ang^3
#
#
#
# Elastic Constant Matrix: (Units=GPa)
#
#
# Indices 1 2 3 4 5 6 
#
# 1 126.9582 51.5583 41.7735 0.0000 10.2249 0.0000
# 2 51.5583 106.2795 44.0196 0.0000 4.3947 0.0000
# 3 41.7735 44.0196 109.6104 0.0000 0.0322 0.0000
# 4 0.0000 0.0000 0.0000 41.1918 0.0000 -4.4281
# 5 10.2249 4.3947 0.0322 0.0000 36.2929 0.0000
# 6 0.0000 0.0000 0.0000 -4.4281 0.0000 29.7306
#
#
#
# Elastic Compliance Matrix: (Units=1/GPa)
#
#
# Indices 1 2 3 4 5 6 
#
# 1 0.010484 -0.003994 -0.002391 0.000000 -0.002468 0.000000
# 2 -0.003994 0.012876 -0.003649 0.000000 -0.000431 0.000000
# 3 -0.002391 -0.003649 0.011499 0.000000 0.001105 0.000000
# 4 0.000000 0.000000 0.000000 0.024672 0.000000 0.003675
# 5 -0.002468 -0.000431 0.001105 0.000000 0.028300 0.000000
# 6 0.000000 0.000000 0.000000 0.003675 0.000000 0.034183
#
#
# Mechanical properties :
#
#
# Convention : Reuss Voigt Hill
#
# Bulk Modulus (GPa) = 67.60233 68.61676 68.10954
# Shear Modulus (GPa) = 34.01113 35.14283 34.57698
#
# Velocity S-wave (km/s) = 3.98443 4.05018 4.01744
# Velocity P-wave (km/s) = 7.26106 7.34172 7.30150
#
# Compressibility (1/GPa) = 0.01479239
#
# Stress axis : x y z
#
# Youngs Moduli (GPa) = 95.38444 77.66632 86.96072
#
# Poissons Ratio (x) = 0.31017 0.20792
# Poissons Ratio (y) = 0.38093 0.31730
# Poissons Ratio (z) = 0.22806 0.28338
#
# Static dielectric constant tensor:
#      x y z
#    x 3.790630 0.000000 -0.065320 
#    y 0.000000 4.100150 0.000000 
#    z -0.065320 0.000000 3.797050 
# 
# 
# High freq. dielectric constant tensor:
#      x y z
#    x 1.843250 0.000000 0.000690 
#    y 0.000000 1.856520 0.000000 
#    z 0.000690 0.000000 1.842450 
# 
# From -- ./inp_files/181939.got.cif
#   From: 2010.06.25/outbox.cif.g09.slc.cpg/sg15_91_cif.got.tgz:181939.got - 2010.06.28 07:06:18.
