data_PCOD8149973
_publ_section_title
;
Structure prediction by ZEFSAII (Michael W. Deem and Ramdas Pophale) SiO2 
 PCOD8149973
Probable space group: C 2/C
;
_chemical_formula_sum "Si O2"
_cell_formula_units_Z 64
_cell_length_a 8.481997
_cell_length_b 30.062814
_cell_length_c 18.720530
_cell_angle_alpha 90.000000
_cell_angle_beta 37.102835
_cell_angle_gamma 90.000000
_cell_volume 2879.661103
_symmetry_space_group_name_H-M "C 2/C"
_symmetry_group_IT_number 15
_symmetry_cell_setting 'monoclinic'
loop_
_space_group_symop_operation_xyz
x,y,z
-x,y,1/2-z
-x,-y,-z
x,-y,1/2+z
1/2+x,1/2+y,z
1/2-x,1/2+y,1/2-z
1/2-x,1/2-y,-z
1/2+x,1/2-y,1/2+z
loop_
_atom_site_type_symbol
_atom_site_label
_atom_site_fract_x
_atom_site_fract_y
_atom_site_fract_z
Si Si1 0.891493 0.084301 0.992428
Si Si2 0.787275 0.815188 0.767119
Si Si3 0.007452 0.105850 0.386228
Si Si4 0.187701 0.055157 0.749653
Si Si5 0.608176 0.962934 0.791060
Si Si6 0.560577 0.138753 0.902184
Si Si7 0.311155 0.723266 0.752765
Si Si8 0.270539 0.329248 0.469210
O O1 0.885434 0.136849 0.984001
O O2 0.061214 0.057144 0.873922
O O3 0.006137 0.083765 0.030528
O O4 0.604568 0.063681 0.086340
O O5 0.791872 0.853114 0.703178
O O6 0.850469 0.767115 0.710217
O O7 0.000000 0.827505 0.750000
O O8 0.504538 0.809913 0.905897
O O9 0.115681 0.063886 0.301056
O O10 0.728674 0.126597 0.465654
O O11 0.355021 0.099662 0.681027
O O12 0.000000 0.050519 0.750000
O O13 0.369989 0.011838 0.683793
O O14 0.500000 0.964628 0.750000
O O15 0.590948 0.185750 0.849543
O O16 0.746824 0.142522 0.903883
O O17 0.500000 0.734866 0.750000
O O18 0.508618 0.708493 0.618210
#
# Coordination Sequence:
#
# PCOD8149973 Si02
#       8
#     8   8   8   8   8   8   8   8
#     4  11  24  44  70  94 133 176 218 270 328 394
#     4  12  25  43  68 100 133 173 222 277 329 388
#     4  11  26  43  67  98 133 174 216 274 330 388
#     4  12  25  43  70  98 130 176 222 269 327 391
#     4  10  26  44  64  99 135 170 220 270 327 396
#     4  11  23  45  65  99 133 169 220 276 327 390
#     4  10  24  43  66  96 134 175 221 270 329 397
#     4  11  21  45  69  94 133 174 221 271 332 382
#
# _framework density 22.224837000000001
#
# number of rings (size 3 to 8) (size 9 to 14) (size 15 to 20)
#    0.000    1.000    5.000    0.750    5.250    4.500 
#    0.000    0.000    0.000    0.000    0.000    0.000 
#    0.000    0.000    0.000    0.000    0.000    0.000 
#
# Total GULP energy -396634.266470 kJ/mol
# GULP energy per Si atom -12394.820827 kJ/mol
# Density = 2.217425 g / cm^3
# Si number density = 22.224837 Si / 1000 Ang^3
#
#
#
# Elastic Constant Matrix: (Units=GPa)
#
#
# Indices 1 2 3 4 5 6 
#
# 1 34.6000 17.0019 8.5973 0.0000 -0.7003 0.0000
# 2 17.0019 122.0849 21.9130 0.0000 10.6529 0.0000
# 3 8.5973 21.9130 82.2979 0.0002 6.0042 0.0000
# 4 0.0000 0.0000 0.0002 13.5956 0.0000 4.2483
# 5 -0.7003 10.6529 6.0042 0.0000 26.0545 0.0000
# 6 0.0000 0.0000 0.0000 4.2483 0.0000 32.8002
#
#
#
# Elastic Compliance Matrix: (Units=1/GPa)
#
#
# Indices 1 2 3 4 5 6 
#
# 1 0.031651 -0.004251 -0.002404 0.000000 0.003143 0.000000
# 2 -0.004251 0.009416 -0.001804 0.000000 -0.003549 0.000000
# 3 -0.002404 -0.001804 0.013053 0.000000 -0.002335 0.000000
# 4 0.000000 0.000000 0.000000 0.076655 0.000000 -0.009928
# 5 0.003143 -0.003549 -0.002335 0.000000 0.040455 0.000000
# 6 0.000000 0.000000 0.000000 -0.009928 0.000000 0.031774
#
#
# Mechanical properties :
#
#
# Convention : Reuss Voigt Hill
#
# Bulk Modulus (GPa) = 26.87964 37.11191 31.99577
# Shear Modulus (GPa) = 21.52175 27.25476 24.38825
#
# Velocity S-wave (km/s) = 3.11523 3.50568 3.31621
# Velocity P-wave (km/s) = 5.00602 5.75509 5.39358
#
# Compressibility (1/GPa) = 0.03720288
#
# Stress axis : x y z
#
# Youngs Moduli (GPa) = 31.59420 106.19679 76.61139
#
# Poissons Ratio (x) = 0.45140 0.18417
# Poissons Ratio (y) = 0.13429 0.13823
# Poissons Ratio (z) = 0.07595 0.19161
#
# Static dielectric constant tensor:
#      x y z
#    x 3.640130 0.000000 0.048890 
#    y 0.000000 4.061110 0.000000 
#    z 0.048890 0.000000 4.272130 
# 
# 
# High freq. dielectric constant tensor:
#      x y z
#    x 1.845940 0.000000 0.003920 
#    y 0.000000 1.885960 0.000000 
#    z 0.003920 0.000000 1.888190 
# 
# From -- ./inp_files/194215.got.cif
#   From: 2010.06.25/outbox.cif.g09.slc.cpg/sg15_98_cif.got.tgz:194215.got - 2010.06.28 07:06:18.
