data_PCOD8149901
_publ_section_title
;
Structure prediction by ZEFSAII (Michael W. Deem and Ramdas Pophale) SiO2 
 PCOD8149901
Probable space group: C 2/C
;
_chemical_formula_sum "Si O2"
_cell_formula_units_Z 44
_cell_length_a 26.916346
_cell_length_b 8.706281
_cell_length_c 9.460833
_cell_angle_alpha 90.000000
_cell_angle_beta 119.860427
_cell_angle_gamma 90.000000
_cell_volume 1922.728125
_symmetry_space_group_name_H-M "C 2/C"
_symmetry_group_IT_number 15
_symmetry_cell_setting 'monoclinic'
loop_
_space_group_symop_operation_xyz
x,y,z
-x,y,1/2-z
-x,-y,-z
x,-y,1/2+z
1/2+x,1/2+y,z
1/2-x,1/2+y,1/2-z
1/2-x,1/2-y,-z
1/2+x,1/2-y,1/2+z
loop_
_atom_site_type_symbol
_atom_site_label
_atom_site_fract_x
_atom_site_fract_y
_atom_site_fract_z
Si Si1 0.106238 0.114937 0.277992
Si Si2 0.611214 0.325574 0.106488
Si Si3 0.772124 0.332403 0.670609
Si Si4 0.792345 0.693118 0.675262
Si Si5 0.000000 0.467647 0.750000
Si Si6 0.513411 0.799922 0.035046
O O1 0.103166 0.098464 0.441804
O O2 0.143729 0.261890 0.282155
O O3 0.043496 0.141631 0.120416
O O4 0.126486 0.953375 0.244899
O O5 0.666535 0.219236 0.183975
O O6 0.555206 0.225186 0.066765
O O7 0.750000 0.250000 0.500000
O O8 0.780037 0.513673 0.670812
O O9 0.721226 0.288908 0.704005
O O10 0.750000 0.750000 0.500000
O O11 0.033517 0.577978 0.686141
O O12 0.964874 0.358194 0.590126
#
# Coordination Sequence:
#
# PCOD8149901 Si02
#       6
#     8   8   8   8   4   8
#     4  12  27  46  74 105 149 190 239 301 360 438
#     4  12  27  47  73 107 146 190 242 297 365 434
#     4  12  28  47  78 105 143 192 239 303 366 424
#     4  12  26  49  72 105 144 186 243 297 358 432
#     4  10  24  42  70 106 146 182 242 298 352 428
#     4  11  25  46  74 103 152 185 244 292 370 426
#
# _framework density 22.884150000000002
#
# number of rings (size 3 to 8) (size 9 to 14) (size 15 to 20)
#    0.000    0.364    3.636    3.818   10.182    0.000 
#    0.000    0.000    0.000    0.000    0.000    0.000 
#    0.000    0.000    0.000    0.000    0.000    0.000 
#
# Total GULP energy -272636.867524 kJ/mol
# GULP energy per Si atom -12392.584887 kJ/mol
# Density = 2.283206 g / cm^3
# Si number density = 22.884150 Si / 1000 Ang^3
#
#
#
# Elastic Constant Matrix: (Units=GPa)
#
#
# Indices 1 2 3 4 5 6 
#
# 1 78.0790 15.7573 32.3371 0.0000 -2.8140 0.0000
# 2 15.7573 129.0393 32.4662 0.0000 -11.4950 0.0000
# 3 32.3371 32.4662 140.3322 0.0000 -28.7772 0.0000
# 4 0.0000 0.0000 0.0000 41.4140 0.0000 -1.2801
# 5 -2.8140 -11.4950 -28.7772 0.0000 48.3175 0.0000
# 6 0.0000 0.0000 0.0000 -1.2801 0.0000 26.9853
#
#
#
# Elastic Compliance Matrix: (Units=1/GPa)
#
#
# Indices 1 2 3 4 5 6 
#
# 1 0.014356 -0.001034 -0.003358 0.000000 -0.001410 0.000000
# 2 -0.001034 0.008341 -0.001477 0.000000 0.001044 0.000000
# 3 -0.003358 -0.001477 0.009260 0.000000 0.004968 0.000000
# 4 0.000000 0.000000 0.000000 0.024182 0.000000 0.001147
# 5 -0.001410 0.001044 0.004968 0.000000 0.023822 0.000000
# 6 0.000000 0.000000 0.000000 0.001147 0.000000 0.037112
#
#
# Mechanical properties :
#
#
# Convention : Reuss Voigt Hill
#
# Bulk Modulus (GPa) = 49.45892 56.50799 52.98345
# Shear Modulus (GPa) = 36.88675 41.13603 39.01139
#
# Velocity S-wave (km/s) = 4.01919 4.24438 4.13332
# Velocity P-wave (km/s) = 6.57253 6.98329 6.78102
#
# Compressibility (1/GPa) = 0.02021880
#
# Stress axis : x y z
#
# Youngs Moduli (GPa) = 69.65664 119.89678 107.98736
#
# Poissons Ratio (x) = 0.12395 0.36263
# Poissons Ratio (y) = 0.07201 0.15952
# Poissons Ratio (z) = 0.23391 0.17712
#
# Static dielectric constant tensor:
#      x y z
#    x 3.922220 0.000000 -0.057470 
#    y 0.000000 3.882110 0.000000 
#    z -0.057470 0.000000 4.368030 
# 
# 
# High freq. dielectric constant tensor:
#      x y z
#    x 1.895630 0.000000 -0.010890 
#    y 0.000000 1.913490 0.000000 
#    z -0.010890 0.000000 1.924160 
# 
# From -- ./inp_files/68646.got.cif
#   From: 2010.06.25/outbox.cif.g09.slc.cpg/sg15_35_cif.got.tgz:68646.got - 2010.06.28 07:06:18.
