data_PCOD8149579
_publ_section_title
;
Structure prediction by ZEFSAII (Michael W. Deem and Ramdas Pophale) SiO2 
 PCOD8149579
Probable space group: C 2/C
;
_chemical_formula_sum "Si O2"
_cell_formula_units_Z 52
_cell_length_a 24.456406
_cell_length_b 12.417017
_cell_length_c 12.993519
_cell_angle_alpha 90.000000
_cell_angle_beta 44.162538
_cell_angle_gamma 90.000000
_cell_volume 2749.034224
_symmetry_space_group_name_H-M "C 2/C"
_symmetry_group_IT_number 15
_symmetry_cell_setting 'monoclinic'
loop_
_space_group_symop_operation_xyz
x,y,z
-x,y,1/2-z
-x,-y,-z
x,-y,1/2+z
1/2+x,1/2+y,z
1/2-x,1/2+y,1/2-z
1/2-x,1/2-y,-z
1/2+x,1/2-y,1/2+z
loop_
_atom_site_type_symbol
_atom_site_label
_atom_site_fract_x
_atom_site_fract_y
_atom_site_fract_z
Si Si1 0.160928 0.778468 0.786547
Si Si2 0.485297 0.263805 0.381943
Si Si3 0.813341 0.440771 0.364201
Si Si4 0.140917 0.887366 0.603594
Si Si5 0.165578 0.666340 0.457283
Si Si6 0.068352 0.410763 0.899585
Si Si7 0.500000 0.466204 0.250000
O O1 0.162940 0.659923 0.737070
O O2 0.128229 0.858481 0.741391
O O3 0.246618 0.819680 0.707830
O O4 0.105589 0.769561 0.960767
O O5 0.500000 0.207451 0.250000
O O6 0.536282 0.199971 0.395702
O O7 0.510502 0.389525 0.336812
O O8 0.720130 0.455937 0.481456
O O9 0.835098 0.422858 0.453163
O O10 0.859261 0.546201 0.265351
O O11 0.140096 0.779465 0.538349
O O12 0.075042 0.959595 0.642179
O O13 0.101445 0.622779 0.465045
O O14 0.000000 0.500000 0.000000
#
# Coordination Sequence:
#
# PCOD8149579 Si02
#       7
#     8   8   8   8   8   8   4
#     4   9  18  43  63  84 123 156 204 252 293 356
#     4  10  25  41  53  89 131 152 190 258 301 356
#     4   9  20  39  64  91 118 154 207 253 304 350
#     4   9  20  41  64  90 117 161 210 245 291 364
#     4   9  22  38  65  91 116 159 209 257 286 365
#     4  12  24  37  63  92 123 161 202 244 316 355
#     4  10  24  38  60  84 128 158 188 252 300 352
#
# _framework density 18.915735000000002
#
# number of rings (size 3 to 8) (size 9 to 14) (size 15 to 20)
#    0.462    1.846    1.538    1.846    6.462    0.615 
#    0.000    4.615    0.000    0.000    0.000    0.000 
#    0.000    0.000    0.000    0.000    0.000    0.000 
#
# Total GULP energy -322200.196427 kJ/mol
# GULP energy per Si atom -12392.315247 kJ/mol
# Density = 1.887268 g / cm^3
# Si number density = 18.915735 Si / 1000 Ang^3
#
#
#
# Elastic Constant Matrix: (Units=GPa)
#
#
# Indices 1 2 3 4 5 6 
#
# 1 139.6864 61.8479 52.6129 0.0000 -5.6914 0.0000
# 2 61.8479 79.4264 32.7608 0.0000 -11.3947 0.0000
# 3 52.6129 32.7608 129.9907 0.0000 -8.3924 0.0000
# 4 0.0000 0.0000 0.0000 19.7597 0.0000 -2.4325
# 5 -5.6914 -11.3947 -8.3924 0.0000 23.9672 0.0000
# 6 0.0000 0.0000 0.0000 -2.4325 0.0000 32.2709
#
#
#
# Elastic Compliance Matrix: (Units=1/GPa)
#
#
# Indices 1 2 3 4 5 6 
#
# 1 0.011836 -0.008361 -0.002822 0.000000 -0.002153 0.000000
# 2 -0.008361 0.020723 -0.001361 0.000000 0.007390 0.000000
# 3 -0.002822 -0.001361 0.009304 0.000000 0.001940 0.000000
# 4 0.000000 0.000000 0.000000 0.051082 0.000000 0.003851
# 5 -0.002153 0.007390 0.001940 0.000000 0.045405 0.000000
# 6 0.000000 0.000000 0.000000 0.003851 0.000000 0.031278
#
#
# Mechanical properties :
#
#
# Convention : Reuss Voigt Hill
#
# Bulk Modulus (GPa) = 59.62149 71.50516 65.56333
# Shear Modulus (GPa) = 24.96142 28.65838 26.80990
#
# Velocity S-wave (km/s) = 3.63659 3.89659 3.76883
# Velocity P-wave (km/s) = 7.01577 7.62421 7.32631
#
# Compressibility (1/GPa) = 0.01677248
#
# Stress axis : x y z
#
# Youngs Moduli (GPa) = 84.48527 48.25583 107.48586
#
# Poissons Ratio (x) = 0.40349 0.30337
# Poissons Ratio (y) = 0.70642 0.14632
# Poissons Ratio (z) = 0.23845 0.06569
#
# Static dielectric constant tensor:
#      x y z
#    x 3.347780 0.000000 -0.135010 
#    y 0.000000 3.349510 0.000000 
#    z -0.135010 0.000000 3.632190 
# 
# 
# High freq. dielectric constant tensor:
#      x y z
#    x 1.727450 0.000000 -0.010040 
#    y 0.000000 1.727140 0.000000 
#    z -0.010040 0.000000 1.740020 
# 
# From -- ./inp_files/117955.got.cif
#   From: 2010.06.25/outbox.cif.g09.slc.cpg/sg15_59_cif.got.tgz:117955.got - 2010.06.28 07:06:18.
