data_PCOD8149416
_publ_section_title
;
Structure prediction by ZEFSAII (Michael W. Deem and Ramdas Pophale) SiO2 
 PCOD8149416
Probable space group: C 2/C
;
_chemical_formula_sum "Si O2"
_cell_formula_units_Z 36
_cell_length_a 7.897735
_cell_length_b 22.559088
_cell_length_c 9.375070
_cell_angle_alpha 90.000000
_cell_angle_beta 85.163762
_cell_angle_gamma 90.000000
_cell_volume 1664.369133
_symmetry_space_group_name_H-M "C 2/C"
_symmetry_group_IT_number 15
_symmetry_cell_setting 'monoclinic'
loop_
_space_group_symop_operation_xyz
x,y,z
-x,y,1/2-z
-x,-y,-z
x,-y,1/2+z
1/2+x,1/2+y,z
1/2-x,1/2+y,1/2-z
1/2-x,1/2-y,-z
1/2+x,1/2-y,1/2+z
loop_
_atom_site_type_symbol
_atom_site_label
_atom_site_fract_x
_atom_site_fract_y
_atom_site_fract_z
Si Si1 0.831697 0.321121 0.845244
Si Si2 0.000000 0.862546 0.250000
Si Si3 0.312566 0.954080 0.805707
Si Si4 0.665113 0.798314 0.327136
Si Si5 0.135839 0.969690 0.086404
O O1 0.775929 0.384293 0.781825
O O2 0.683013 0.273010 0.831511
O O3 0.000000 0.299690 0.750000
O O4 0.862481 0.325415 0.013340
O O5 0.167331 0.822957 0.267315
O O6 0.056627 0.904750 0.116585
O O7 0.500000 0.973212 0.750000
O O8 0.177619 0.994524 0.728210
O O9 0.302718 0.965685 0.975904
O O10 0.500000 0.816635 0.250000
O O11 0.000000 0.000000 0.000000
#
# Coordination Sequence:
#
# PCOD8149416 Si02
#       5
#     8   4   8   8   8
#     4  10  23  46  66 102 138 172 235 281 328 411
#     4  12  24  44  68  98 142 168 236 272 336 412
#     4  11  24  43  69  99 135 178 228 280 336 407
#     4  11  25  45  71  99 138 184 222 280 346 396
#     4  12  24  44  65  97 137 181 221 279 342 400
#
# _framework density 21.629816999999999
#
# number of rings (size 3 to 8) (size 9 to 14) (size 15 to 20)
#    0.000    0.889    5.556    0.667    0.000    7.111 
#    0.000    0.000    0.000    0.000    0.000    0.000 
#    0.000    0.000    0.000    0.000    0.000    0.000 
#
# Total GULP energy -223075.586809 kJ/mol
# GULP energy per Si atom -12393.088156 kJ/mol
# Density = 2.158059 g / cm^3
# Si number density = 21.629817 Si / 1000 Ang^3
#
#
#
# Elastic Constant Matrix: (Units=GPa)
#
#
# Indices 1 2 3 4 5 6 
#
# 1 128.2520 36.3358 56.6395 0.0000 -1.8728 0.0000
# 2 36.3358 94.9408 26.8478 0.0000 15.0020 0.0000
# 3 56.6395 26.8478 127.7175 0.0000 -19.2193 0.0000
# 4 0.0000 0.0000 0.0000 27.8395 0.0000 -11.9577
# 5 -1.8728 15.0020 -19.2193 0.0000 44.2385 0.0000
# 6 0.0000 0.0000 0.0000 -11.9577 0.0000 27.5524
#
#
#
# Elastic Compliance Matrix: (Units=1/GPa)
#
#
# Indices 1 2 3 4 5 6 
#
# 1 0.010374 -0.002753 -0.004082 0.000000 -0.000401 0.000000
# 2 -0.002753 0.013149 -0.002388 0.000000 -0.005613 0.000000
# 3 -0.004082 -0.002388 0.010954 0.000000 0.005396 0.000000
# 4 0.000000 0.000000 0.000000 0.044150 0.000000 0.019161
# 5 -0.000401 -0.005613 0.005396 0.000000 0.026835 0.000000
# 6 0.000000 0.000000 0.000000 0.019161 0.000000 0.044610
#
#
# Mechanical properties :
#
#
# Convention : Reuss Voigt Hill
#
# Bulk Modulus (GPa) = 62.37890 65.61737 63.99814
# Shear Modulus (GPa) = 28.75841 35.33189 32.04515
#
# Velocity S-wave (km/s) = 3.65029 4.04602 3.85324
# Velocity P-wave (km/s) = 6.83140 7.22699 7.03198
#
# Compressibility (1/GPa) = 0.01603106
#
# Stress axis : x y z
#
# Youngs Moduli (GPa) = 96.39489 76.05418 91.28954
#
# Poissons Ratio (x) = 0.20934 0.37267
# Poissons Ratio (y) = 0.26533 0.21799
# Poissons Ratio (z) = 0.39351 0.18161
#
# Static dielectric constant tensor:
#      x y z
#    x 3.902300 0.000000 -0.818660 
#    y 0.000000 4.194770 0.000000 
#    z -0.818660 0.000000 5.186180 
# 
# 
# High freq. dielectric constant tensor:
#      x y z
#    x 1.845170 0.000000 -0.036880 
#    y 0.000000 1.862020 0.000000 
#    z -0.036880 0.000000 1.849020 
# 
# From -- ./inp_files/22532.got.cif
#   From: 2010.06.25/outbox.cif.g09.slc.cpg/sg15_12_cif.got.tgz:22532.got - 2010.06.28 07:06:18.
