data_PCOD8149873
_publ_section_title
;
Structure prediction by ZEFSAII (Michael W. Deem and Ramdas Pophale) SiO2 
 PCOD8149873
Probable space group: C 2/C
;
_chemical_formula_sum "Si O2"
_cell_formula_units_Z 60
_cell_length_a 16.221604
_cell_length_b 10.943160
_cell_length_c 23.761453
_cell_angle_alpha 90.000000
_cell_angle_beta 137.799672
_cell_angle_gamma 90.000000
_cell_volume 2833.354664
_symmetry_space_group_name_H-M "C 2/C"
_symmetry_group_IT_number 15
_symmetry_cell_setting 'monoclinic'
loop_
_space_group_symop_operation_xyz
x,y,z
-x,y,1/2-z
-x,-y,-z
x,-y,1/2+z
1/2+x,1/2+y,z
1/2-x,1/2+y,1/2-z
1/2-x,1/2-y,-z
1/2+x,1/2-y,1/2+z
loop_
_atom_site_type_symbol
_atom_site_label
_atom_site_fract_x
_atom_site_fract_y
_atom_site_fract_z
Si Si1 0.152986 0.201767 0.560626
Si Si2 0.317177 0.523293 0.024191
Si Si3 0.536856 0.098722 0.565110
Si Si4 0.552036 0.920215 0.894694
Si Si5 0.500000 0.176927 0.250000
Si Si6 0.633248 0.375675 0.831749
Si Si7 0.183040 0.867093 0.300563
Si Si8 0.035429 0.161696 0.615075
O O1 0.202027 0.102560 0.541448
O O2 0.266229 0.281841 0.640943
O O3 0.094159 0.133464 0.584288
O O4 0.053658 0.286853 0.479881
O O5 0.346425 0.611318 0.091256
O O6 0.428370 0.432012 0.072812
O O7 0.195709 0.445762 0.975669
O O8 0.671776 0.151149 0.622883
O O9 0.500000 0.000000 0.500000
O O10 0.527650 0.031853 0.620757
O O11 0.515357 0.909800 0.811162
O O12 0.519617 0.797927 0.912659
O O13 0.620375 0.262331 0.306790
O O14 0.500000 0.320721 0.750000
O O15 0.645143 0.503232 0.805868
O O16 0.139559 0.854613 0.214561
#
# Coordination Sequence:
#
# PCOD8149873 Si02
#       8
#     8   8   8   8   4   8   8   8
#     4  12  27  44  66 105 135 177 223 279 342 404
#     4  12  25  44  69 101 135 175 228 280 330 403
#     4  12  23  42  71  96 139 181 224 270 339 413
#     4  11  23  43  70 100 134 179 225 277 337 401
#     4  10  24  42  68 106 130 170 236 282 332 382
#     4  12  22  44  72  93 133 180 223 269 335 408
#     4  11  22  43  69  99 130 176 229 276 328 401
#     4  11  24  45  68 101 132 176 229 277 338 394
#
# _framework density 21.176310000000001
#
# number of rings (size 3 to 8) (size 9 to 14) (size 15 to 20)
#    0.000    0.533    6.000    2.000    1.867    2.133 
#    6.000    0.000    0.000    0.000    0.000    0.000 
#    0.000    0.000    0.000    0.000    0.000    0.000 
#
# Total GULP energy -372223.389505 kJ/mol
# GULP energy per Si atom -12407.446317 kJ/mol
# Density = 2.112811 g / cm^3
# Si number density = 21.176310 Si / 1000 Ang^3
#
#
#
# Elastic Constant Matrix: (Units=GPa)
#
#
# Indices 1 2 3 4 5 6 
#
# 1 99.8199 24.1143 44.3422 0.0000 19.0001 0.0000
# 2 24.1143 35.1579 20.4991 0.0000 2.9823 0.0000
# 3 44.3422 20.4991 100.8926 0.0000 20.1566 0.0000
# 4 0.0000 0.0000 0.0000 25.9340 0.0000 -15.0295
# 5 19.0001 2.9823 20.1566 0.0000 48.5285 0.0000
# 6 0.0000 0.0000 0.0000 -15.0295 0.0000 -28.6853
#
#
#
# Elastic Compliance Matrix: (Units=1/GPa)
#
#
# Indices 1 2 3 4 5 6 
#
# 1 0.014204 -0.007045 -0.004129 0.000000 -0.003413 0.000000
# 2 -0.007045 0.035789 -0.004675 0.000000 0.002501 0.000000
# 3 -0.004129 -0.004675 0.013408 0.000000 -0.003665 0.000000
# 4 0.000000 0.000000 0.000000 0.029578 0.000000 -0.015497
# 5 -0.003413 0.002501 -0.003665 0.000000 0.023311 0.000000
# 6 0.000000 0.000000 0.000000 -0.015497 0.000000 -0.026741
#
#
# Mechanical properties :
#
#
# Convention : Reuss Voigt Hill
#
# Bulk Modulus (GPa) = 31.54301 45.97574 38.75937
# Shear Modulus (GPa) = 37.93176 18.94975 28.44076
#
# Velocity S-wave (km/s) = 4.23689 2.99466 3.66873
# Velocity P-wave (km/s) = 6.23400 5.80649 6.02404
#
# Compressibility (1/GPa) = 0.03170275
#
# Stress axis : x y z
#
# Youngs Moduli (GPa) = 70.40268 27.94175 74.58007
#
# Poissons Ratio (x) = 0.19685 0.30797
# Poissons Ratio (y) = 0.49600 0.34864
# Poissons Ratio (z) = 0.29072 0.13062
#
# Static dielectric constant tensor:
#      x y z
#    x 4.183380 0.000000 0.028230 
#    y 0.000000 3.799440 0.000000 
#    z 0.028230 0.000000 3.853570 
# 
# 
# High freq. dielectric constant tensor:
#      x y z
#    x 1.849730 0.000000 0.001010 
#    y 0.000000 1.822690 0.000000 
#    z 0.001010 0.000000 1.832840 
# 
# From -- ./inp_files/277279.got.cif
#   From: 2010.06.25/outbox.cif.g09.slc.cpg/sg15_139_cif.got.tgz:277279.got - 2010.06.28 07:06:18.
