data_PCOD8149942
_publ_section_title
;
Structure prediction by ZEFSAII (Michael W. Deem and Ramdas Pophale) SiO2 
 PCOD8149942
Probable space group: C 2/C
;
_chemical_formula_sum "Si O2"
_cell_formula_units_Z 40
_cell_length_a 11.759443
_cell_length_b 13.022556
_cell_length_c 19.796908
_cell_angle_alpha 90.000000
_cell_angle_beta 37.960993
_cell_angle_gamma 90.000000
_cell_volume 1864.848799
_symmetry_space_group_name_H-M "C 2/C"
_symmetry_group_IT_number 15
_symmetry_cell_setting 'monoclinic'
loop_
_space_group_symop_operation_xyz
x,y,z
-x,y,1/2-z
-x,-y,-z
x,-y,1/2+z
1/2+x,1/2+y,z
1/2-x,1/2+y,1/2-z
1/2-x,1/2-y,-z
1/2+x,1/2-y,1/2+z
loop_
_atom_site_type_symbol
_atom_site_label
_atom_site_fract_x
_atom_site_fract_y
_atom_site_fract_z
Si Si1 0.195000 0.530256 0.172747
Si Si2 0.219656 0.237672 0.434508
Si Si3 0.500000 0.737240 0.250000
Si Si4 0.139249 0.842122 0.459783
Si Si5 0.418924 0.577617 0.186064
Si Si6 0.000000 0.099680 0.750000
O O1 0.194260 0.627889 0.124027
O O2 0.357127 0.448305 0.083963
O O3 0.227553 0.564785 0.234713
O O4 0.000000 0.474878 0.250000
O O5 0.250000 0.250000 0.500000
O O6 0.320778 0.329151 0.346490
O O7 0.005462 0.234937 0.509459
O O8 0.347956 0.799183 0.364318
O O9 0.376300 0.665497 0.260011
O O10 0.080280 0.876335 0.562470
O O11 0.473808 0.470498 0.195819
#
# Coordination Sequence:
#
# PCOD8149942 Si02
#       6
#     8   8   4   8   8   4
#     4  11  22  40  63  93 126 170 208 264 325 375
#     4  11  23  39  69  99 128 169 220 265 325 386
#     4  11  24  43  66  94 130 171 212 275 320 378
#     4  11  23  43  66  95 129 171 217 262 324 393
#     4  10  24  43  62  94 136 163 217 270 318 386
#     4  11  22  45  66  96 134 169 208 277 318 378
#
# _framework density 21.449459999999998
#
# number of rings (size 3 to 8) (size 9 to 14) (size 15 to 20)
#    0.000    1.200    2.000    5.400    2.800    3.200 
#    3.600    2.000    0.000    0.000    0.000    0.000 
#    0.000    0.000    0.000    0.000    0.000    0.000 
#
# Total GULP energy -247816.040617 kJ/mol
# GULP energy per Si atom -12390.802031 kJ/mol
# Density = 2.140064 g / cm^3
# Si number density = 21.449460 Si / 1000 Ang^3
#
#
#
# Elastic Constant Matrix: (Units=GPa)
#
#
# Indices 1 2 3 4 5 6 
#
# 1 133.0646 60.9790 56.8820 0.0000 6.4603 0.0000
# 2 60.9790 123.0634 53.5191 -0.0002 1.9174 0.0001
# 3 56.8820 53.5191 103.2436 -0.0007 -7.9695 0.0001
# 4 0.0000 -0.0002 -0.0007 24.5301 0.0001 1.7948
# 5 6.4603 1.9174 -7.9695 0.0001 43.3284 0.0000
# 6 0.0000 0.0001 0.0001 1.7948 0.0000 31.3420
#
#
#
# Elastic Compliance Matrix: (Units=1/GPa)
#
#
# Indices 1 2 3 4 5 6 
#
# 1 0.011177 -0.003544 -0.004501 0.000000 -0.002338 0.000000
# 2 -0.003544 0.011710 -0.004176 0.000000 -0.000758 0.000000
# 3 -0.004501 -0.004176 0.014604 0.000000 0.003542 0.000000
# 4 0.000000 0.000000 0.000000 0.040938 0.000000 -0.002344
# 5 -0.002338 -0.000758 0.003542 0.000000 0.024113 0.000000
# 6 0.000000 0.000000 0.000000 -0.002344 0.000000 0.032040
#
#
# Mechanical properties :
#
#
# Convention : Reuss Voigt Hill
#
# Bulk Modulus (GPa) = 76.63973 78.01466 77.32720
# Shear Modulus (GPa) = 30.60458 32.37286 31.48872
#
# Velocity S-wave (km/s) = 3.78143 3.88914 3.83566
# Velocity P-wave (km/s) = 7.40767 7.52446 7.46629
#
# Compressibility (1/GPa) = 0.01304806
#
# Stress axis : x y z
#
# Youngs Moduli (GPa) = 89.46927 85.39656 68.47527
#
# Poissons Ratio (x) = 0.30268 0.30821
# Poissons Ratio (y) = 0.31712 0.28595
# Poissons Ratio (z) = 0.40271 0.35661
#
# Static dielectric constant tensor:
#      x y z
#    x 3.798810 0.000000 0.046980 
#    y 0.000000 4.055550 0.000000 
#    z 0.046980 0.000000 3.903430 
# 
# 
# High freq. dielectric constant tensor:
#      x y z
#    x 1.841500 0.000000 0.001470 
#    y 0.000000 1.858490 0.000000 
#    z 0.001470 0.000000 1.837660 
# 
# From -- ./inp_files/198125.got.cif
#   From: 2010.06.25/outbox.cif.g09.slc.cpg/sg15_100_cif.got.tgz:198125.got - 2010.06.28 07:06:18.
