data_PCOD8149615
_publ_section_title
;
Structure prediction by ZEFSAII (Michael W. Deem and Ramdas Pophale) SiO2 
 PCOD8149615
Probable space group: C 2/C
;
_chemical_formula_sum "Si O2"
_cell_formula_units_Z 48
_cell_length_a 15.494845
_cell_length_b 8.710552
_cell_length_c 25.675951
_cell_angle_alpha 90.000000
_cell_angle_beta 42.215522
_cell_angle_gamma 90.000000
_cell_volume 2328.508525
_symmetry_space_group_name_H-M "C 2/C"
_symmetry_group_IT_number 15
_symmetry_cell_setting 'monoclinic'
loop_
_space_group_symop_operation_xyz
x,y,z
-x,y,1/2-z
-x,-y,-z
x,-y,1/2+z
1/2+x,1/2+y,z
1/2-x,1/2+y,1/2-z
1/2-x,1/2-y,-z
1/2+x,1/2-y,1/2+z
loop_
_atom_site_type_symbol
_atom_site_label
_atom_site_fract_x
_atom_site_fract_y
_atom_site_fract_z
Si Si1 0.388266 0.935334 0.236716
Si Si2 0.883452 0.876648 0.180816
Si Si3 0.364042 0.239433 0.296689
Si Si4 0.707045 0.015924 0.919824
Si Si5 0.029444 0.883228 0.681002
Si Si6 0.532757 0.088514 0.405333
O O1 0.237667 0.903504 0.301177
O O2 0.478236 0.790095 0.208044
O O3 0.384539 0.054829 0.287278
O O4 0.443123 0.000148 0.158604
O O5 0.824933 0.786355 0.256034
O O6 0.978285 0.768956 0.104302
O O7 0.956846 0.030693 0.166037
O O8 0.500000 0.315810 0.250000
O O9 0.260856 0.311824 0.383086
O O10 0.816380 0.902075 0.894365
O O11 0.649710 0.940826 0.893044
O O12 0.600529 0.031086 0.011580
O O13 0.000000 0.961845 0.750000
#
# Coordination Sequence:
#
# PCOD8149615 Si02
#       6
#     8   8   8   8   8   8
#     4  11  23  37  63  92 118 154 215 250 297 362
#     4  11  20  38  62  89 117 156 209 242 300 363
#     4  11  20  38  60  87 115 157 202 248 296 365
#     4  11  21  42  63  86 131 160 201 249 321 349
#     4  12  21  38  65  89 120 164 202 254 302 360
#     4  10  24  39  63  91 120 167 199 253 305 369
#
# _framework density 20.614052999999998
#
# number of rings (size 3 to 8) (size 9 to 14) (size 15 to 20)
#    0.000    1.000    5.000    3.500    0.000    1.333 
#    0.000    0.833    3.667    0.000    0.000    0.000 
#    0.000    0.000    0.000    0.000    0.000    0.000 
#
# Total GULP energy -297358.345406 kJ/mol
# GULP energy per Si atom -12389.931059 kJ/mol
# Density = 2.056713 g / cm^3
# Si number density = 20.614053 Si / 1000 Ang^3
#
#
#
# Elastic Constant Matrix: (Units=GPa)
#
#
# Indices 1 2 3 4 5 6 
#
# 1 76.7990 29.6918 25.6234 0.0000 -19.7919 0.0000
# 2 29.6918 122.1735 18.1735 0.0000 -8.4766 0.0003
# 3 25.6234 18.1735 69.0347 0.0000 -13.1759 0.0000
# 4 0.0000 0.0000 0.0000 11.3909 0.0000 9.6631
# 5 -19.7919 -8.4766 -13.1759 0.0000 33.8137 0.0000
# 6 0.0000 0.0003 0.0000 9.6631 0.0000 13.9156
#
#
#
# Elastic Compliance Matrix: (Units=1/GPa)
#
#
# Indices 1 2 3 4 5 6 
#
# 1 0.017678 -0.003118 -0.004230 0.000000 0.007918 0.000000
# 2 -0.003118 0.009127 -0.001250 0.000000 -0.000024 0.000000
# 3 -0.004230 -0.001250 0.017126 0.000000 0.003884 0.000000
# 4 0.000000 0.000000 0.000000 0.213643 0.000000 -0.148356
# 5 0.007918 -0.000024 0.003884 0.000000 0.035716 0.000000
# 6 0.000000 0.000000 0.000000 -0.148356 0.000000 0.174882
#
#
# Mechanical properties :
#
#
# Convention : Reuss Voigt Hill
#
# Bulk Modulus (GPa) = 37.40278 46.10940 41.75609
# Shear Modulus (GPa) = 10.11576 24.79194 17.45385
#
# Velocity S-wave (km/s) = 2.21763 3.47172 2.91296
# Velocity P-wave (km/s) = 4.97402 6.20378 5.62262
#
# Compressibility (1/GPa) = 0.02673598
#
# Stress axis : x y z
#
# Youngs Moduli (GPa) = 56.56750 109.56401 58.39151
#
# Poissons Ratio (x) = 0.34160 0.24697
# Poissons Ratio (y) = 0.17637 0.07299
# Poissons Ratio (z) = 0.23926 0.13696
#
# Static dielectric constant tensor:
#      x y z
#    x 3.893500 0.000000 -0.070910 
#    y 0.000000 3.911890 0.000000 
#    z -0.070910 0.000000 3.452060 
# 
# 
# High freq. dielectric constant tensor:
#      x y z
#    x 1.821590 0.000000 -0.012630 
#    y 0.000000 1.816250 0.000000 
#    z -0.012630 0.000000 1.775830 
# 
# From -- ./inp_files/247276.got.cif
#   From: 2010.06.25/outbox.cif.g09.slc.cpg/sg15_124_cif.got.tgz:247276.got - 2010.06.28 07:06:18.
