data_PCOD8149516
_publ_section_title
;
Structure prediction by ZEFSAII (Michael W. Deem and Ramdas Pophale) SiO2 
 PCOD8149516
Probable space group: C 2/C
;
_chemical_formula_sum "Si O2"
_cell_formula_units_Z 20
_cell_length_a 8.120457
_cell_length_b 10.365294
_cell_length_c 11.006075
_cell_angle_alpha 90.000000
_cell_angle_beta 136.395397
_cell_angle_gamma 90.000000
_cell_volume 638.911581
_symmetry_space_group_name_H-M "C 2/C"
_symmetry_group_IT_number 15
_symmetry_cell_setting 'monoclinic'
loop_
_space_group_symop_operation_xyz
x,y,z
-x,y,1/2-z
-x,-y,-z
x,-y,1/2+z
1/2+x,1/2+y,z
1/2-x,1/2+y,1/2-z
1/2-x,1/2-y,-z
1/2+x,1/2-y,1/2+z
loop_
_atom_site_type_symbol
_atom_site_label
_atom_site_fract_x
_atom_site_fract_y
_atom_site_fract_z
Si Si1 0.200110 0.525928 0.950615
Si Si2 0.720760 0.235465 0.138032
Si Si3 0.000000 0.179717 0.750000
O O1 0.372455 0.628177 0.970199
O O2 0.000000 0.477434 0.750000
O O3 0.093464 0.609616 0.009341
O O4 0.337650 0.402382 0.072679
O O5 0.667969 0.231742 0.253877
O O6 0.000000 0.229118 0.250000
#
# Coordination Sequence:
#
# PCOD8149516 Si02
#       3
#     8   8   4
#     4  10  23  48  74 108 159 193 248 331 375 447
#     4  10  23  47  76 108 153 200 249 320 383 453
#     4  12  24  48  80 108 144 210 256 302 392 466
#
# _framework density 31.303236999999999
#
# number of rings (size 3 to 8) (size 9 to 14) (size 15 to 20)
#    0.000    1.600    2.000    1.200    2.800    6.400 
#   10.800   18.000    0.000    0.000    0.000    0.000 
#    0.000    0.000    0.000    0.000    0.000    0.000 
#
# Total GULP energy -123911.782021 kJ/mol
# GULP energy per Si atom -12391.178202 kJ/mol
# Density = 3.123199 g / cm^3
# Si number density = 31.303237 Si / 1000 Ang^3
#
#
#
# Elastic Constant Matrix: (Units=GPa)
#
#
# Indices 1 2 3 4 5 6 
#
# 1 239.8530 65.6810 98.8657 0.0002 -44.5374 0.0000
# 2 65.6810 97.0105 62.2808 0.0000 -16.7127 0.0000
# 3 98.8657 62.2808 235.6650 0.0003 -30.6330 0.0001
# 4 0.0002 0.0000 0.0003 -53.2544 0.0002 68.5189
# 5 -44.5374 -16.7127 -30.6330 0.0002 49.4954 0.0000
# 6 0.0000 0.0000 0.0001 68.5189 0.0000 -39.5390
#
#
#
# Elastic Compliance Matrix: (Units=1/GPa)
#
#
# Indices 1 2 3 4 5 6 
#
# 1 0.006171 -0.002624 -0.001402 0.000000 0.003799 0.000000
# 2 -0.002624 0.013787 -0.002441 0.000000 0.000784 0.000000
# 3 -0.001402 -0.002441 0.005661 0.000000 0.001418 0.000000
# 4 0.000000 0.000000 0.000000 0.015271 0.000000 0.026463
# 5 0.003799 0.000784 0.001418 0.000000 0.024765 0.000000
# 6 0.000000 0.000000 0.000000 0.026463 0.000000 0.020568
#
#
# Mechanical properties :
#
#
# Convention : Reuss Voigt Hill
#
# Bulk Modulus (GPa) = 78.82778 114.02039 96.42408
# Shear Modulus (GPa) = 48.36404 14.38712 31.37558
#
# Velocity S-wave (km/s) = 3.93494 2.14617 3.16936
# Velocity P-wave (km/s) = 6.77360 6.53031 6.65306
#
# Compressibility (1/GPa) = 0.01268588
#
# Stress axis : x y z
#
# Youngs Moduli (GPa) = 162.05132 72.53419 176.65645
#
# Poissons Ratio (x) = 0.19030 0.24760
# Poissons Ratio (y) = 0.42516 0.43121
# Poissons Ratio (z) = 0.22713 0.17705
#
# Static dielectric constant tensor:
#      x y z
#    x 5.946520 0.000000 -0.486840 
#    y 0.000000 6.137020 0.000000 
#    z -0.486840 0.000000 6.178040 
# 
# 
# High freq. dielectric constant tensor:
#      x y z
#    x 2.281370 0.000000 -0.030310 
#    y 0.000000 2.296680 0.000000 
#    z -0.030310 0.000000 2.299810 
# 
# From -- ./inp_files/20595.got.cif
#   From: 2010.06.25/outbox.cif.g09.slc.cpg/sg15_11_cif.got.tgz:20595.got - 2010.06.28 07:06:18.
