data_PCOD8149229
_publ_section_title
;
Structure prediction by ZEFSAII (Michael W. Deem and Ramdas Pophale) SiO2 
 PCOD8149229
Probable space group: C 2/C
;
_chemical_formula_sum "Si O2"
_cell_formula_units_Z 48
_cell_length_a 14.634863
_cell_length_b 29.044427
_cell_length_c 8.132584
_cell_angle_alpha 90.000000
_cell_angle_beta 38.297560
_cell_angle_gamma 90.000000
_cell_volume 2142.365133
_symmetry_space_group_name_H-M "C 2/C"
_symmetry_group_IT_number 15
_symmetry_cell_setting 'monoclinic'
loop_
_space_group_symop_operation_xyz
x,y,z
-x,y,1/2-z
-x,-y,-z
x,-y,1/2+z
1/2+x,1/2+y,z
1/2-x,1/2+y,1/2-z
1/2-x,1/2-y,-z
1/2+x,1/2-y,1/2+z
loop_
_atom_site_type_symbol
_atom_site_label
_atom_site_fract_x
_atom_site_fract_y
_atom_site_fract_z
Si Si1 0.655263 0.378430 0.500263
Si Si2 0.351360 0.971981 0.753464
Si Si3 0.655259 0.118524 0.450408
Si Si4 0.193188 0.292257 0.349367
Si Si5 0.384011 0.788483 0.661451
Si Si6 0.850810 0.973021 0.163260
O O1 0.727790 0.393081 0.571871
O O2 0.754441 0.344050 0.255614
O O3 0.612606 0.421851 0.447305
O O4 0.500000 0.353020 0.750000
O O5 0.357017 0.922150 0.663552
O O6 0.500000 0.000000 0.500000
O O7 0.203385 0.997890 0.912524
O O8 0.303202 0.968885 0.011830
O O9 0.691891 0.165560 0.303380
O O10 0.500000 0.126432 0.750000
O O11 0.318465 0.253583 0.146827
O O12 0.147682 0.286991 0.601266
O O13 0.061783 0.285061 0.402082
O O14 0.000000 0.000000 0.000000
#
# Coordination Sequence:
#
# PCOD8149229 Si02
#       6
#     8   8   8   8   8   8
#     4  12  26  43  67  98 138 181 228 276 339 409
#     4  12  25  42  70  99 131 174 228 281 340 401
#     4  12  24  43  65 101 138 176 224 282 339 400
#     4  10  23  45  69 100 134 178 225 277 342 402
#     4  10  23  44  71  98 136 176 225 281 337 407
#     4  12  25  46  68  96 136 181 226 281 340 404
#
# _framework density 22.405144
#
# number of rings (size 3 to 8) (size 9 to 14) (size 15 to 20)
#    0.000    0.667    1.667    7.000    2.333    1.333 
#    0.000    1.667    0.000    0.000    0.000    0.000 
#    0.000    0.000    0.000    0.000    0.000    0.000 
#
# Total GULP energy -297344.991579 kJ/mol
# GULP energy per Si atom -12389.374649 kJ/mol
# Density = 2.235415 g / cm^3
# Si number density = 22.405144 Si / 1000 Ang^3
#
#
#
# Elastic Constant Matrix: (Units=GPa)
#
#
# Indices 1 2 3 4 5 6 
#
# 1 110.7501 54.4626 28.5917 0.0000 -27.7862 0.0000
# 2 54.4626 166.5695 20.4834 0.0000 -13.7559 0.0000
# 3 28.5917 20.4834 73.8449 0.0000 -16.6605 0.0000
# 4 0.0000 0.0000 0.0000 595.0493 0.0000 191.7037
# 5 -27.7862 -13.7559 -16.6605 0.0000 37.3614 0.0000
# 6 0.0000 0.0000 0.0000 191.7037 0.0000 108.9815
#
#
#
# Elastic Compliance Matrix: (Units=1/GPa)
#
#
# Indices 1 2 3 4 5 6 
#
# 1 0.013217 -0.003399 -0.002490 0.000000 0.007468 0.000000
# 2 -0.003399 0.007187 -0.000724 0.000000 -0.000204 0.000000
# 3 -0.002490 -0.000724 0.015820 0.000000 0.004937 0.000000
# 4 0.000000 0.000000 0.000000 0.003878 0.000000 -0.006822
# 5 0.007468 -0.000204 0.004937 0.000000 0.034446 0.000000
# 6 0.000000 0.000000 0.000000 -0.006822 0.000000 0.021177
#
#
# Mechanical properties :
#
#
# Convention : Reuss Voigt Hill
#
# Bulk Modulus (GPa) = 43.47803 62.02665 52.75234
# Shear Modulus (GPa) = 42.87549 164.78689 103.83119
#
# Velocity S-wave (km/s) = 4.37927 8.58536 6.81492
# Velocity P-wave (km/s) = 6.70956 11.22595 9.24771
#
# Compressibility (1/GPa) = 0.02300012
#
# Stress axis : x y z
#
# Youngs Moduli (GPa) = 75.65942 139.14273 63.20937
#
# Poissons Ratio (x) = 0.47289 0.15738
# Poissons Ratio (y) = 0.25714 0.04574
# Poissons Ratio (z) = 0.18838 0.10070
#
# Static dielectric constant tensor:
#      x y z
#    x 4.155110 0.000000 -0.410930 
#    y 0.000000 4.260220 0.000000 
#    z -0.410930 0.000000 4.040680 
# 
# 
# High freq. dielectric constant tensor:
#      x y z
#    x 1.895650 0.000000 -0.006290 
#    y 0.000000 1.889700 0.000000 
#    z -0.006290 0.000000 1.889470 
# 
# From -- ./inp_files/43775.got.cif
#   From: 2010.06.25/outbox.cif.g09.slc.cpg/sg15_22_cif.got.tgz:43775.got - 2010.06.28 07:06:18.
