data_PCOD8149866
_publ_section_title
;
Structure prediction by ZEFSAII (Michael W. Deem and Ramdas Pophale) SiO2 
 PCOD8149866
Probable space group: C 2/C
;
_chemical_formula_sum "Si O2"
_cell_formula_units_Z 64
_cell_length_a 11.552809
_cell_length_b 11.403690
_cell_length_c 22.610899
_cell_angle_alpha 90.000000
_cell_angle_beta 106.943924
_cell_angle_gamma 90.000000
_cell_volume 2849.553826
_symmetry_space_group_name_H-M "C 2/C"
_symmetry_group_IT_number 15
_symmetry_cell_setting 'monoclinic'
loop_
_space_group_symop_operation_xyz
x,y,z
-x,y,1/2-z
-x,-y,-z
x,-y,1/2+z
1/2+x,1/2+y,z
1/2-x,1/2+y,1/2-z
1/2-x,1/2-y,-z
1/2+x,1/2-y,1/2+z
loop_
_atom_site_type_symbol
_atom_site_label
_atom_site_fract_x
_atom_site_fract_y
_atom_site_fract_z
Si Si1 0.121413 0.923098 0.831601
Si Si2 0.098841 0.704508 0.533368
Si Si3 0.863223 0.761360 0.558860
Si Si4 0.649295 0.814063 0.913210
Si Si5 0.296524 0.204084 0.726550
Si Si6 0.155036 0.578475 0.656300
Si Si7 0.099605 0.454600 0.348824
Si Si8 0.979991 0.848269 0.312564
O O1 0.145614 0.876397 0.901256
O O2 0.124740 0.813495 0.786389
O O3 0.229216 0.999104 0.821876
O O4 0.001840 0.008229 0.814301
O O5 0.213194 0.788788 0.549830
O O6 0.079006 0.654481 0.464000
O O7 0.124166 0.601333 0.583548
O O8 0.980813 0.776521 0.535376
O O9 0.750000 0.750000 0.500000
O O10 0.869465 0.646000 0.599421
O O11 0.580783 0.706110 0.871236
O O12 0.664727 0.924823 0.873347
O O13 0.315778 0.196891 0.800693
O O14 0.358032 0.086833 0.709155
O O15 0.154121 0.194200 0.687089
O O16 0.042462 0.514262 0.670202
O O17 0.000000 0.797629 0.250000
#
# Coordination Sequence:
#
# PCOD8149866 Si02
#       8
#     8   8   8   8   8   8   8   8
#     4  11  25  45  71 102 143 182 229 301 357 423
#     4  10  24  42  67  99 133 188 226 287 349 428
#     4  10  25  42  67 100 138 182 235 287 364 429
#     4  11  24  44  67  98 141 178 242 290 351 426
#     4  11  25  45  70 106 140 180 242 290 362 436
#     4  11  22  46  66  99 137 182 234 284 361 425
#     4  10  25  40  68  98 133 186 231 294 355 425
#     4  12  25  46  71 105 140 191 236 295 367 426
#
# _framework density 22.459657
#
# number of rings (size 3 to 8) (size 9 to 14) (size 15 to 20)
#    0.000    1.250    2.500    1.125    8.750    7.000 
#    0.000    1.250    0.000    0.000    0.000    0.000 
#    0.000    0.000    0.000    0.000    0.000    0.000 
#
# Total GULP energy -396601.399554 kJ/mol
# GULP energy per Si atom -12393.793736 kJ/mol
# Density = 2.240854 g / cm^3
# Si number density = 22.459657 Si / 1000 Ang^3
#
#
#
# Elastic Constant Matrix: (Units=GPa)
#
#
# Indices 1 2 3 4 5 6 
#
# 1 93.1722 10.6116 7.1157 0.0000 -4.4810 0.0000
# 2 10.6116 88.9070 22.1574 0.0000 -10.6743 0.0000
# 3 7.1157 22.1574 101.3408 0.0000 -10.7225 0.0000
# 4 0.0000 0.0000 0.0000 29.4255 0.0000 -1.6905
# 5 -4.4810 -10.6743 -10.7225 0.0000 33.2519 0.0000
# 6 0.0000 0.0000 0.0000 -1.6905 0.0000 26.9827
#
#
#
# Elastic Compliance Matrix: (Units=1/GPa)
#
#
# Indices 1 2 3 4 5 6 
#
# 1 0.010936 -0.001080 -0.000427 0.000000 0.000989 0.000000
# 2 -0.001080 0.012316 -0.002292 0.000000 0.003069 0.000000
# 3 -0.000427 -0.002292 0.010679 0.000000 0.002650 0.000000
# 4 0.000000 0.000000 0.000000 0.034107 0.000000 0.002137
# 5 0.000989 0.003069 0.002650 0.000000 0.032047 0.000000
# 6 0.000000 0.000000 0.000000 0.002137 0.000000 0.037195
#
#
# Mechanical properties :
#
#
# Convention : Reuss Voigt Hill
#
# Bulk Modulus (GPa) = 37.97548 40.35438 39.16493
# Shear Modulus (GPa) = 32.54012 34.16769 33.35391
#
# Velocity S-wave (km/s) = 3.81047 3.90461 3.85783
# Velocity P-wave (km/s) = 6.02533 6.19148 6.10897
#
# Compressibility (1/GPa) = 0.02633278
#
# Stress axis : x y z
#
# Youngs Moduli (GPa) = 91.44095 81.19267 93.63913
#
# Poissons Ratio (x) = 0.08769 0.03999
# Poissons Ratio (y) = 0.09876 0.21465
# Poissons Ratio (z) = 0.03905 0.18612
#
# Static dielectric constant tensor:
#      x y z
#    x 4.408380 0.000000 -0.157120 
#    y 0.000000 3.948210 0.000000 
#    z -0.157120 0.000000 4.340790 
# 
# 
# High freq. dielectric constant tensor:
#      x y z
#    x 1.901180 0.000000 -0.003340 
#    y 0.000000 1.863880 0.000000 
#    z -0.003340 0.000000 1.896050 
# 
# From -- ./inp_files/269288.got.cif
#   From: 2010.06.25/outbox.cif.g09.slc.cpg/sg15_135_cif.got.tgz:269288.got - 2010.06.28 07:06:18.
