data_PCOD8149899
_publ_section_title
;
Structure prediction by ZEFSAII (Michael W. Deem and Ramdas Pophale) SiO2 
 PCOD8149899
Probable space group: C 2/C
;
_chemical_formula_sum "Si O2"
_cell_formula_units_Z 56
_cell_length_a 28.785427
_cell_length_b 8.983531
_cell_length_c 17.758175
_cell_angle_alpha 90.000000
_cell_angle_beta 34.665681
_cell_angle_gamma 90.000000
_cell_volume 2611.967207
_symmetry_space_group_name_H-M "C 2/C"
_symmetry_group_IT_number 15
_symmetry_cell_setting 'monoclinic'
loop_
_space_group_symop_operation_xyz
x,y,z
-x,y,1/2-z
-x,-y,-z
x,-y,1/2+z
1/2+x,1/2+y,z
1/2-x,1/2+y,1/2-z
1/2-x,1/2-y,-z
1/2+x,1/2-y,1/2+z
loop_
_atom_site_type_symbol
_atom_site_label
_atom_site_fract_x
_atom_site_fract_y
_atom_site_fract_z
Si Si1 0.815128 0.870069 0.440675
Si Si2 0.982438 0.338143 0.489861
Si Si3 0.663209 0.817765 0.459740
Si Si4 0.421647 0.123498 0.904085
Si Si5 0.650949 0.628171 0.768137
Si Si6 0.280056 0.686716 0.538224
Si Si7 0.640859 0.696759 0.327628
O O1 0.750000 0.750000 0.500000
O O2 0.872488 0.788456 0.426103
O O3 0.860807 0.922473 0.303771
O O4 0.775067 0.009178 0.537482
O O5 0.949258 0.338898 0.450454
O O6 0.916256 0.253944 0.628813
O O7 0.000000 0.500000 0.500000
O O8 0.066277 0.247418 0.375213
O O9 0.761306 0.801645 0.329383
O O10 0.627417 0.764842 0.428231
O O11 0.639487 0.984906 0.511393
O O12 0.500000 0.083907 0.750000
O O13 0.372494 0.260952 0.932800
O O14 0.639780 0.482150 0.834601
O O15 0.250000 0.750000 0.500000
O O16 0.224389 0.741579 0.681274
#
# Coordination Sequence:
#
# PCOD8149899 Si02
#       7
#     8   8   8   8   8   8   8
#     4  10  24  42  70 104 139 185 238 297 357 427
#     4  12  28  46  70 106 145 194 238 301 366 424
#     4  11  25  43  72 107 137 194 237 298 359 432
#     4  12  27  48  73 108 145 187 246 299 368 439
#     4  11  25  47  70 102 148 183 247 296 363 437
#     4  12  23  46  76 106 140 188 239 297 362 431
#     4  12  25  44  73 103 150 187 238 299 365 434
#
# _framework density 21.439779000000001
#
# number of rings (size 3 to 8) (size 9 to 14) (size 15 to 20)
#    0.000    0.571    4.286    3.000   10.000    0.000 
#    0.000    0.714    0.000    0.000    0.000    0.000 
#    0.000    0.000    0.000    0.000    0.000    0.000 
#
# Total GULP energy -347269.252193 kJ/mol
# GULP energy per Si atom -12402.473293 kJ/mol
# Density = 2.139098 g / cm^3
# Si number density = 21.439779 Si / 1000 Ang^3
#
#
#
# Elastic Constant Matrix: (Units=GPa)
#
#
# Indices 1 2 3 4 5 6 
#
# 1 130.0931 43.4466 26.5512 0.0002 9.0856 0.0006
# 2 43.4466 147.9226 34.6722 0.0029 -2.0920 0.0001
# 3 26.5512 34.6722 91.6457 -0.0002 -3.7014 0.0009
# 4 0.0002 0.0029 -0.0002 35.9049 -0.0001 -1.0922
# 5 9.0856 -2.0920 -3.7014 -0.0001 35.5287 -0.0003
# 6 0.0006 0.0001 0.0009 -1.0922 -0.0003 35.4693
#
#
#
# Elastic Compliance Matrix: (Units=1/GPa)
#
#
# Indices 1 2 3 4 5 6 
#
# 1 0.009000 -0.002244 -0.001865 0.000000 -0.002628 0.000000
# 2 -0.002244 0.007978 -0.002336 -0.000001 0.000800 0.000000
# 3 -0.001865 -0.002336 0.012402 0.000000 0.001631 0.000000
# 4 0.000000 -0.000001 0.000000 0.027877 0.000000 0.000858
# 5 -0.002628 0.000800 0.001631 0.000000 0.029035 0.000000
# 6 0.000000 0.000000 0.000000 0.000858 0.000000 0.028220
#
#
# Mechanical properties :
#
#
# Convention : Reuss Voigt Hill
#
# Bulk Modulus (GPa) = 60.63907 64.33348 62.48627
# Shear Modulus (GPa) = 37.62273 39.04667 38.33470
#
# Velocity S-wave (km/s) = 4.19359 4.27221 4.23308
# Velocity P-wave (km/s) = 7.19674 7.37614 7.28699
#
# Compressibility (1/GPa) = 0.01649102
#
# Stress axis : x y z
#
# Youngs Moduli (GPa) = 111.10866 125.34294 80.63516
#
# Poissons Ratio (x) = 0.28121 0.15037
# Poissons Ratio (y) = 0.24927 0.18837
# Poissons Ratio (z) = 0.20720 0.29281
#
# Static dielectric constant tensor:
#      x y z
#    x 4.130340 0.000000 0.243580 
#    y 0.000000 4.075310 0.000050 
#    z 0.243580 0.000050 4.155770 
# 
# 
# High freq. dielectric constant tensor:
#      x y z
#    x 1.856250 0.000000 0.012360 
#    y 0.000000 1.855400 0.000000 
#    z 0.012360 0.000000 1.831120 
# 
# From -- ./inp_files/221994.got.cif
#   From: 2010.06.25/outbox.cif.g09.slc.cpg/sg15_111_cif.got.tgz:221994.got - 2010.06.28 07:06:18.
