data_PCOD8149717
_publ_section_title
;
Structure prediction by ZEFSAII (Michael W. Deem and Ramdas Pophale) SiO2 
 PCOD8149717
Probable space group: C 2/C
;
_chemical_formula_sum "Si O2"
_cell_formula_units_Z 56
_cell_length_a 16.969328
_cell_length_b 22.482878
_cell_length_c 8.596673
_cell_angle_alpha 90.000000
_cell_angle_beta 126.018913
_cell_angle_gamma 90.000000
_cell_volume 2652.774952
_symmetry_space_group_name_H-M "C 2/C"
_symmetry_group_IT_number 15
_symmetry_cell_setting 'monoclinic'
loop_
_space_group_symop_operation_xyz
x,y,z
-x,y,1/2-z
-x,-y,-z
x,-y,1/2+z
1/2+x,1/2+y,z
1/2-x,1/2+y,1/2-z
1/2-x,1/2-y,-z
1/2+x,1/2-y,1/2+z
loop_
_atom_site_type_symbol
_atom_site_label
_atom_site_fract_x
_atom_site_fract_y
_atom_site_fract_z
Si Si1 0.753642 0.084017 0.214405
Si Si2 0.951914 0.645684 0.528353
Si Si3 0.775288 0.807358 0.319676
Si Si4 0.856285 0.201169 0.254503
Si Si5 0.707133 0.011391 0.436330
Si Si6 0.046252 0.767127 0.130961
Si Si7 0.633783 0.917597 0.125312
O O1 0.827330 0.137706 0.288914
O O2 0.770794 0.054925 0.402627
O O3 0.643029 0.105783 0.053014
O O4 0.777342 0.031838 0.117644
O O5 0.000000 0.663677 0.750000
O O6 0.921450 0.702095 0.390302
O O7 0.028649 0.611282 0.512064
O O8 0.834785 0.796112 0.547158
O O9 0.696500 0.754573 0.212986
O O10 0.720552 0.870336 0.258267
O O11 0.853294 0.805362 0.267233
O O12 0.970271 0.207066 0.418455
O O13 0.641832 0.054788 0.464488
O O14 0.636161 0.971111 0.250535
O O15 0.000000 0.767810 0.250000
#
# Coordination Sequence:
#
# PCOD8149717 Si02
#       7
#     8   8   8   8   8   8   8
#     4  11  23  40  66  93 132 171 215 258 317 374
#     4  12  22  39  62  95 134 171 210 253 315 397
#     4  11  22  42  69  94 126 169 210 264 324 379
#     4  11  22  42  69  94 126 169 210 264 324 379
#     4  10  24  41  60  95 130 176 216 257 306 383
#     4  12  28  40  63 100 132 165 208 266 331 378
#     4  11  23  40  66  93 132 171 215 258 317 374
#
# _framework density 21.109970000000001
#
# number of rings (size 3 to 8) (size 9 to 14) (size 15 to 20)
#    0.000    0.857    5.714    1.286    4.000    4.000 
#    0.000    0.000    0.000    5.143    0.000    0.000 
#    0.000    0.000    0.000    0.000    0.000    0.000 
#
# Total GULP energy -347205.167252 kJ/mol
# GULP energy per Si atom -12400.184545 kJ/mol
# Density = 2.106192 g / cm^3
# Si number density = 21.109970 Si / 1000 Ang^3
#
#
#
# Elastic Constant Matrix: (Units=GPa)
#
#
# Indices 1 2 3 4 5 6 
#
# 1 87.6881 29.3202 14.2447 0.0000 -7.2670 0.0000
# 2 29.3202 86.5949 12.1171 0.0000 -3.4790 0.0000
# 3 14.2447 12.1171 42.9821 0.0000 -9.2521 0.0000
# 4 0.0000 0.0000 0.0000 -1.4457 0.0000 -15.9702
# 5 -7.2670 -3.4790 -9.2521 0.0000 38.0015 0.0000
# 6 0.0000 0.0000 0.0000 -15.9702 0.0000 31.4840
#
#
#
# Elastic Compliance Matrix: (Units=1/GPa)
#
#
# Indices 1 2 3 4 5 6 
#
# 1 0.013362 -0.004050 -0.002972 0.000000 0.001461 0.000000
# 2 -0.004050 0.013253 -0.002427 0.000000 -0.000152 0.000000
# 3 -0.002972 -0.002427 0.026134 0.000000 0.005572 0.000000
# 4 0.000000 0.000000 0.000000 -0.104749 0.000000 -0.053134
# 5 0.001461 -0.000152 0.005572 0.000000 0.027937 0.000000
# 6 0.000000 0.000000 0.000000 -0.053134 0.000000 0.004810
#
#
# Mechanical properties :
#
#
# Convention : Reuss Voigt Hill
#
# Bulk Modulus (GPa) = 29.54067 36.51436 33.02752
# Shear Modulus (GPa) = 457.57265 24.38016 240.97641
#
# Velocity S-wave (km/s) = 14.73863 3.40209 10.69583
# Velocity P-wave (km/s) = 17.42585 5.72425 12.96972
#
# Compressibility (1/GPa) = 0.03385163
#
# Stress axis : x y z
#
# Youngs Moduli (GPa) = 74.83886 75.45659 38.26426
#
# Poissons Ratio (x) = 0.30557 0.11373
# Poissons Ratio (y) = 0.30307 0.09285
# Poissons Ratio (z) = 0.22244 0.18311
#
# Static dielectric constant tensor:
#      x y z
#    x 3.848530 0.000000 -0.283590 
#    y 0.000000 4.074420 0.000000 
#    z -0.283590 0.000000 3.705290 
# 
# 
# High freq. dielectric constant tensor:
#      x y z
#    x 1.819730 0.000000 -0.022700 
#    y 0.000000 1.840040 0.000000 
#    z -0.022700 0.000000 1.813330 
# 
# From -- ./inp_files/42542.got.cif
#   From: 2010.06.25/outbox.cif.g09.slc.cpg/sg15_22_cif.got.tgz:42542.got - 2010.06.28 07:06:18.
