data_PCOD8149640
_publ_section_title
;
Structure prediction by ZEFSAII (Michael W. Deem and Ramdas Pophale) SiO2 
 PCOD8149640
Probable space group: C 2/C
;
_chemical_formula_sum "Si O2"
_cell_formula_units_Z 60
_cell_length_a 16.891268
_cell_length_b 9.204916
_cell_length_c 16.866905
_cell_angle_alpha 90.000000
_cell_angle_beta 77.728922
_cell_angle_gamma 90.000000
_cell_volume 2562.595409
_symmetry_space_group_name_H-M "C 2/C"
_symmetry_group_IT_number 15
_symmetry_cell_setting 'monoclinic'
loop_
_space_group_symop_operation_xyz
x,y,z
-x,y,1/2-z
-x,-y,-z
x,-y,1/2+z
1/2+x,1/2+y,z
1/2-x,1/2+y,1/2-z
1/2-x,1/2-y,-z
1/2+x,1/2-y,1/2+z
loop_
_atom_site_type_symbol
_atom_site_label
_atom_site_fract_x
_atom_site_fract_y
_atom_site_fract_z
Si Si1 0.348823 0.561799 0.042224
Si Si2 0.561127 0.678132 0.891413
Si Si3 0.000000 0.038479 0.750000
Si Si4 0.275824 0.798895 0.688361
Si Si5 0.931281 0.655176 0.524960
Si Si6 0.419878 0.901203 0.417396
Si Si7 0.199654 0.506558 0.676584
Si Si8 0.136491 0.905612 0.616741
O O1 0.421814 0.475682 0.069551
O O2 0.260493 0.514496 0.089858
O O3 0.359722 0.732695 0.059775
O O4 0.356738 0.537651 0.946312
O O5 0.541170 0.644657 0.804528
O O6 0.642290 0.773947 0.877878
O O7 0.490853 0.767307 0.948934
O O8 0.935653 0.932700 0.806013
O O9 0.227404 0.650320 0.717924
O O10 0.298316 0.869569 0.767172
O O11 0.219782 0.902414 0.647451
O O12 0.894202 0.507848 0.495633
O O13 0.982396 0.618091 0.594544
O O14 0.377227 0.742842 0.431213
O O15 0.390945 0.973565 0.340583
#
# Coordination Sequence:
#
# PCOD8149640 Si02
#       8
#     8   8   4   8   8   8   8   8
#     4  11  22  42  73  94 126 171 234 277 321 400
#     4  11  23  40  69  94 130 175 225 280 326 407
#     4  12  24  40  70 100 130 180 236 278 338 402
#     4  10  24  43  64  95 136 173 222 271 347 399
#     4  11  22  42  62 100 131 168 213 283 331 399
#     4  10  24  40  62  95 136 166 215 269 351 388
#     4  10  24  45  67  96 131 180 223 279 331 412
#     4  11  22  43  67  97 128 174 227 279 333 402
#
# _framework density 23.413761000000001
#
# number of rings (size 3 to 8) (size 9 to 14) (size 15 to 20)
#    0.000    1.333    2.667    2.800    3.733    3.200 
#    9.600    0.000    0.000    0.000    0.000    0.000 
#    0.000    0.000    0.000    0.000    0.000    0.000 
#
# Total GULP energy -371978.859971 kJ/mol
# GULP energy per Si atom -12399.295332 kJ/mol
# Density = 2.336047 g / cm^3
# Si number density = 23.413761 Si / 1000 Ang^3
#
#
#
# Elastic Constant Matrix: (Units=GPa)
#
#
# Indices 1 2 3 4 5 6 
#
# 1 91.8379 43.8354 47.3503 0.0000 25.3294 0.0000
# 2 43.8354 95.5995 39.7191 0.0000 14.0910 0.0000
# 3 47.3503 39.7191 99.1188 0.0000 17.9187 0.0000
# 4 0.0000 0.0000 0.0000 42.6676 0.0000 6.3329
# 5 25.3294 14.0910 17.9187 0.0000 38.8415 0.0000
# 6 0.0000 0.0000 0.0000 6.3329 0.0000 32.7870
#
#
#
# Elastic Compliance Matrix: (Units=1/GPa)
#
#
# Indices 1 2 3 4 5 6 
#
# 1 0.018063 -0.004982 -0.005270 0.000000 -0.007541 0.000000
# 2 -0.004982 0.014139 -0.003214 0.000000 -0.000398 0.000000
# 3 -0.005270 -0.003214 0.014251 0.000000 -0.001972 0.000000
# 4 0.000000 0.000000 0.000000 0.024129 0.000000 -0.004661
# 5 -0.007541 -0.000398 -0.001972 0.000000 0.031717 0.000000
# 6 0.000000 0.000000 0.000000 -0.004661 0.000000 0.031400
#
#
# Mechanical properties :
#
#
# Convention : Reuss Voigt Hill
#
# Bulk Modulus (GPa) = 51.22360 60.92954 56.07657
# Shear Modulus (GPa) = 29.91568 33.23598 31.57583
#
# Velocity S-wave (km/s) = 3.57837 3.77172 3.67631
# Velocity P-wave (km/s) = 6.24484 6.71173 6.48249
#
# Compressibility (1/GPa) = 0.01952225
#
# Stress axis : x y z
#
# Youngs Moduli (GPa) = 55.36048 70.72885 70.17265
#
# Poissons Ratio (x) = 0.35235 0.36978
# Poissons Ratio (y) = 0.27579 0.22552
# Poissons Ratio (z) = 0.29172 0.22731
#
# Static dielectric constant tensor:
#      x y z
#    x 4.234210 0.000000 0.348370 
#    y 0.000000 4.336980 0.000000 
#    z 0.348370 0.000000 3.977900 
# 
# 
# High freq. dielectric constant tensor:
#      x y z
#    x 1.925240 0.000000 0.026330 
#    y 0.000000 1.933100 0.000000 
#    z 0.026330 0.000000 1.909860 
# 
# From -- ./inp_files/209590.got.cif
#   From: 2010.06.25/outbox.cif.g09.slc.cpg/sg15_105_cif.got.tgz:209590.got - 2010.06.28 07:06:18.
