data_PCOD8149984
_publ_section_title
;
Structure prediction by ZEFSAII (Michael W. Deem and Ramdas Pophale) SiO2 
 PCOD8149984
Probable space group: C 2/C
;
_chemical_formula_sum "Si O2"
_cell_formula_units_Z 48
_cell_length_a 11.411840
_cell_length_b 8.467597
_cell_length_c 22.993762
_cell_angle_alpha 90.000000
_cell_angle_beta 102.775574
_cell_angle_gamma 90.000000
_cell_volume 2166.900882
_symmetry_space_group_name_H-M "C 2/C"
_symmetry_group_IT_number 15
_symmetry_cell_setting 'monoclinic'
loop_
_space_group_symop_operation_xyz
x,y,z
-x,y,1/2-z
-x,-y,-z
x,-y,1/2+z
1/2+x,1/2+y,z
1/2-x,1/2+y,1/2-z
1/2-x,1/2-y,-z
1/2+x,1/2-y,1/2+z
loop_
_atom_site_type_symbol
_atom_site_label
_atom_site_fract_x
_atom_site_fract_y
_atom_site_fract_z
Si Si1 0.949019 0.184945 0.114713
Si Si2 0.241273 0.989677 0.465101
Si Si3 0.738733 0.683976 0.305258
Si Si4 0.819168 0.968526 0.820973
Si Si5 0.820573 0.342144 0.588801
Si Si6 0.432362 0.981453 0.898841
O O1 0.873606 0.211145 0.164737
O O2 0.051045 0.054542 0.135723
O O3 0.012946 0.344790 0.101884
O O4 0.859591 0.124751 0.053843
O O5 0.210914 0.840582 0.420710
O O6 0.248227 0.946790 0.533424
O O7 0.371645 0.045131 0.455640
O O8 0.687229 0.632331 0.238124
O O9 0.830931 0.551488 0.338881
O O10 0.807829 0.848130 0.305516
O O11 0.714385 0.907603 0.852128
O O12 0.962671 0.354046 0.595372
#
# Coordination Sequence:
#
# PCOD8149984 Si02
#       6
#     8   8   8   8   8   8
#     4  11  23  44  67  94 130 169 216 265 324 386
#     4  10  24  43  67  96 131 171 212 265 325 387
#     4  11  26  43  66  94 130 171 218 266 325 385
#     4  12  24  44  67  94 131 173 215 269 323 384
#     4  11  23  43  66  97 131 169 217 265 322 387
#     4  11  22  45  67  95 131 168 212 268 322 385
#
# _framework density 22.151451999999999
#
# number of rings (size 3 to 8) (size 9 to 14) (size 15 to 20)
#    0.000    1.000    3.333    3.000    2.333    2.000 
#    6.000    0.000    0.000    0.000    0.000    0.000 
#    0.000    0.000    0.000    0.000    0.000    0.000 
#
# Total GULP energy -297741.139582 kJ/mol
# GULP energy per Si atom -12405.880816 kJ/mol
# Density = 2.210103 g / cm^3
# Si number density = 22.151452 Si / 1000 Ang^3
#
#
#
# Elastic Constant Matrix: (Units=GPa)
#
#
# Indices 1 2 3 4 5 6 
#
# 1 97.5068 22.8660 -5.1792 0.0000 20.0629 0.0000
# 2 22.8660 61.8435 -0.9071 0.0000 1.8030 0.0000
# 3 -5.1792 -0.9071 47.8846 0.0000 -4.8409 0.0000
# 4 0.0000 0.0000 0.0000 31.1240 0.0000 6.7298
# 5 20.0629 1.8030 -4.8409 0.0000 21.3553 0.0000
# 6 0.0000 0.0000 0.0000 6.7298 0.0000 42.4258
#
#
#
# Elastic Compliance Matrix: (Units=1/GPa)
#
#
# Indices 1 2 3 4 5 6 
#
# 1 0.014008 -0.004806 0.000138 0.000000 -0.012723 0.000000
# 2 -0.004806 0.017860 0.000125 0.000000 0.003036 0.000000
# 3 0.000138 0.000125 0.021377 0.000000 0.004706 0.000000
# 4 0.000000 0.000000 0.000000 0.033271 0.000000 -0.005278
# 5 -0.012723 0.003036 0.004706 0.000000 0.059590 0.000000
# 6 0.000000 0.000000 0.000000 -0.005278 0.000000 0.024408
#
#
# Mechanical properties :
#
#
# Convention : Reuss Voigt Hill
#
# Bulk Modulus (GPa) = 22.64568 26.75492 24.70030
# Shear Modulus (GPa) = 25.73079 31.67803 28.70441
#
# Velocity S-wave (km/s) = 3.41190 3.78572 3.60366
# Velocity P-wave (km/s) = 5.07609 5.58689 5.33761
#
# Compressibility (1/GPa) = 0.04415853
#
# Stress axis : x y z
#
# Youngs Moduli (GPa) = 71.38737 55.99017 46.78019
#
# Poissons Ratio (x) = 0.26911 -0.00645
# Poissons Ratio (y) = 0.34312 -0.00587
# Poissons Ratio (z) = -0.00984 -0.00702
#
# Static dielectric constant tensor:
#      x y z
#    x 4.224060 0.000000 0.126230 
#    y 0.000000 3.967290 0.000000 
#    z 0.126230 0.000000 3.925780 
# 
# 
# High freq. dielectric constant tensor:
#      x y z
#    x 1.887270 0.000000 0.001830 
#    y 0.000000 1.877990 0.000000 
#    z 0.001830 0.000000 1.867150 
# 
# From -- ./inp_files/267795.got.cif
#   From: 2010.06.25/outbox.cif.g09.slc.cpg/sg15_134_cif.got.tgz:267795.got - 2010.06.28 07:06:18.
