data_PCOD8149410
_publ_section_title
;
Structure prediction by ZEFSAII (Michael W. Deem and Ramdas Pophale) SiO2 
 PCOD8149410
Probable space group: C 2/C
;
_chemical_formula_sum "Si O2"
_cell_formula_units_Z 56
_cell_length_a 20.239184
_cell_length_b 14.486231
_cell_length_c 8.839520
_cell_angle_alpha 90.000000
_cell_angle_beta 97.355778
_cell_angle_gamma 90.000000
_cell_volume 2570.325796
_symmetry_space_group_name_H-M "C 2/C"
_symmetry_group_IT_number 15
_symmetry_cell_setting 'monoclinic'
loop_
_space_group_symop_operation_xyz
x,y,z
-x,y,1/2-z
-x,-y,-z
x,-y,1/2+z
1/2+x,1/2+y,z
1/2-x,1/2+y,1/2-z
1/2-x,1/2-y,-z
1/2+x,1/2-y,1/2+z
loop_
_atom_site_type_symbol
_atom_site_label
_atom_site_fract_x
_atom_site_fract_y
_atom_site_fract_z
Si Si1 0.709841 0.783346 0.635899
Si Si2 0.585721 0.092379 0.129587
Si Si3 0.940015 0.224599 0.347340
Si Si4 0.067603 0.398541 0.978389
Si Si5 0.986657 0.095563 0.919078
Si Si6 0.177463 0.903083 0.792192
Si Si7 0.836990 0.095955 0.874484
O O1 0.750000 0.750000 0.500000
O O2 0.641568 0.839390 0.575071
O O3 0.757679 0.848273 0.753093
O O4 0.694155 0.686447 0.717698
O O5 0.512198 0.118329 0.049108
O O6 0.593735 0.099185 0.313924
O O7 0.595141 0.988268 0.073189
O O8 0.905182 0.315924 0.406714
O O9 0.964635 0.172352 0.503263
O O10 0.887516 0.159592 0.246621
O O11 0.000000 0.248054 0.250000
O O12 0.000000 0.080709 0.750000
O O13 0.912142 0.126328 0.925909
O O14 0.000000 0.000000 0.000000
O O15 0.169597 0.003591 0.721572
O O16 0.195007 0.921730 0.971791
#
# Coordination Sequence:
#
# PCOD8149410 Si02
#       7
#     8   8   8   8   8   8   8
#     4  10  25  44  68  94 137 188 226 274 344 421
#     4  10  23  46  65 104 136 178 233 282 354 408
#     4  12  25  41  65 104 136 176 227 286 349 416
#     4  10  25  40  74 100 137 176 227 298 344 413
#     4  12  23  38  68  99 135 171 213 283 347 400
#     4  11  25  42  64  97 128 178 226 272 343 403
#     4  11  23  43  64  92 133 172 219 277 329 406
#
# _framework density 21.787120000000002
#
# number of rings (size 3 to 8) (size 9 to 14) (size 15 to 20)
#    0.000    1.143    2.857    2.143   10.000    3.429 
#    0.000    1.429    0.000    0.000    0.000    0.000 
#    0.000    0.000    0.000    0.000    0.000    0.000 
#
# Total GULP energy -346983.275863 kJ/mol
# GULP energy per Si atom -12392.259852 kJ/mol
# Density = 2.173753 g / cm^3
# Si number density = 21.787120 Si / 1000 Ang^3
#
#
#
# Elastic Constant Matrix: (Units=GPa)
#
#
# Indices 1 2 3 4 5 6 
#
# 1 95.3530 48.5996 11.8016 0.0000 -4.3989 0.0000
# 2 48.5996 165.2784 40.3631 0.0000 -4.5751 0.0000
# 3 11.8016 40.3631 91.3721 0.0000 -10.9570 0.0000
# 4 0.0000 0.0000 0.0000 25.6708 0.0000 1.2773
# 5 -4.3989 -4.5751 -10.9570 0.0000 21.7300 0.0000
# 6 0.0000 0.0000 0.0000 1.2773 0.0000 44.9198
#
#
#
# Elastic Compliance Matrix: (Units=1/GPa)
#
#
# Indices 1 2 3 4 5 6 
#
# 1 0.012406 -0.003654 0.000235 0.000000 0.001861 0.000000
# 2 -0.003654 0.007858 -0.003076 0.000000 -0.000636 0.000000
# 3 0.000235 -0.003076 0.012986 0.000000 0.005948 0.000000
# 4 0.000000 0.000000 0.000000 0.039010 0.000000 -0.001109
# 5 0.001861 -0.000636 0.005948 0.000000 0.049261 0.000000
# 6 0.000000 0.000000 0.000000 -0.001109 0.000000 0.022293
#
#
# Mechanical properties :
#
#
# Convention : Reuss Voigt Hill
#
# Bulk Modulus (GPa) = 49.35592 61.50358 55.42975
# Shear Modulus (GPa) = 30.57008 35.21340 32.89174
#
# Velocity S-wave (km/s) = 3.74990 4.02462 3.88968
# Velocity P-wave (km/s) = 6.43831 7.06310 6.75793
#
# Compressibility (1/GPa) = 0.02026100
#
# Stress axis : x y z
#
# Youngs Moduli (GPa) = 80.60325 127.25327 77.00680
#
# Poissons Ratio (x) = 0.46497 -0.01808
# Poissons Ratio (y) = 0.29452 0.23685
# Poissons Ratio (z) = -0.01893 0.39139
#
# Static dielectric constant tensor:
#      x y z
#    x 4.206590 0.000000 -0.028750 
#    y 0.000000 4.257190 0.000000 
#    z -0.028750 0.000000 3.702770 
# 
# 
# High freq. dielectric constant tensor:
#      x y z
#    x 1.848870 0.000000 -0.004620 
#    y 0.000000 1.882370 0.000000 
#    z -0.004620 0.000000 1.841590 
# 
# From -- ./inp_files/55662.got.cif
#   From: 2010.06.25/outbox.cif.g09.slc.cpg/sg15_28_cif.got.tgz:55662.got - 2010.06.28 07:06:18.
