data_PCOD8149014
_publ_section_title
;
Structure prediction by ZEFSAII (Michael W. Deem and Ramdas Pophale) SiO2 
 PCOD8149014
Probable space group: C 2/C
;
_chemical_formula_sum "Si O2"
_cell_formula_units_Z 36
_cell_length_a 16.810073
_cell_length_b 9.023195
_cell_length_c 22.185449
_cell_angle_alpha 90.000000
_cell_angle_beta 152.960737
_cell_angle_gamma 90.000000
_cell_volume 1529.778401
_symmetry_space_group_name_H-M "C 2/C"
_symmetry_group_IT_number 15
_symmetry_cell_setting 'monoclinic'
loop_
_space_group_symop_operation_xyz
x,y,z
-x,y,1/2-z
-x,-y,-z
x,-y,1/2+z
1/2+x,1/2+y,z
1/2-x,1/2+y,1/2-z
1/2-x,1/2-y,-z
1/2+x,1/2-y,1/2+z
loop_
_atom_site_type_symbol
_atom_site_label
_atom_site_fract_x
_atom_site_fract_y
_atom_site_fract_z
Si Si1 0.250103 0.324741 0.789448
Si Si2 0.115273 0.636700 0.723302
Si Si3 0.000000 0.795832 0.750000
Si Si4 0.862738 0.226841 0.496350
Si Si5 0.238549 0.005446 0.979992
O O1 0.244424 0.504068 0.790196
O O2 0.363684 0.272115 0.809324
O O3 0.056150 0.258152 0.652332
O O4 0.352218 0.266930 0.917184
O O5 0.146347 0.697983 0.812573
O O6 0.917876 0.580511 0.592760
O O7 0.913653 0.892957 0.639626
O O8 0.731224 0.353727 0.430561
O O9 0.793587 0.067756 0.473963
#
# Coordination Sequence:
#
# PCOD8149014 Si02
#       5
#     8   8   4   8   8
#     4  11  26  44  71 103 144 180 232 290 349 406
#     4  11  27  43  68 103 142 183 230 290 343 412
#     4  12  24  44  70 100 136 188 234 286 340 422
#     4  10  23  45  73 104 139 185 229 285 350 414
#     4  10  23  43  72 101 137 185 235 282 343 421
#
# _framework density 23.532819
#
# number of rings (size 3 to 8) (size 9 to 14) (size 15 to 20)
#    0.000    1.333    0.000    3.333    9.333    8.889 
#    0.000    0.000    0.000    0.000    0.000    0.000 
#    0.000    0.000    0.000    0.000    0.000    0.000 
#
# Total GULP energy -223152.709363 kJ/mol
# GULP energy per Si atom -12397.372742 kJ/mol
# Density = 2.347926 g / cm^3
# Si number density = 23.532819 Si / 1000 Ang^3
#
#
#
# Elastic Constant Matrix: (Units=GPa)
#
#
# Indices 1 2 3 4 5 6 
#
# 1 154.8773 65.7918 19.3018 0.0009 -26.8024 0.0003
# 2 65.7918 132.0972 29.9716 0.0011 -7.7106 0.0004
# 3 19.3018 29.9716 74.9258 0.0041 -10.8979 0.0012
# 4 0.0009 0.0011 0.0041 30.7731 0.0008 2.9458
# 5 -26.8024 -7.7106 -10.8979 0.0008 35.7058 0.0001
# 6 0.0003 0.0004 0.0012 2.9458 0.0001 56.3652
#
#
#
# Elastic Compliance Matrix: (Units=1/GPa)
#
#
# Indices 1 2 3 4 5 6 
#
# 1 0.009336 -0.004342 0.000225 0.000000 0.006139 0.000000
# 2 -0.004342 0.010369 -0.003325 0.000000 -0.002035 0.000000
# 3 0.000225 -0.003325 0.015214 -0.000002 0.004094 0.000000
# 4 0.000000 0.000000 -0.000002 0.032659 -0.000001 -0.001707
# 5 0.006139 -0.002035 0.004094 -0.000001 0.033425 0.000000
# 6 0.000000 0.000000 0.000000 -0.001707 0.000000 0.017831
#
#
# Mechanical properties :
#
#
# Convention : Reuss Voigt Hill
#
# Bulk Modulus (GPa) = 49.91650 65.78118 57.84884
# Shear Modulus (GPa) = 35.61357 41.02448 38.31903
#
# Velocity S-wave (km/s) = 3.89441 4.17980 4.03963
# Velocity P-wave (km/s) = 6.44045 7.16296 6.81129
#
# Compressibility (1/GPa) = 0.02003346
#
# Stress axis : x y z
#
# Youngs Moduli (GPa) = 107.11592 96.44558 65.72823
#
# Poissons Ratio (x) = 0.41881 -0.01478
# Poissons Ratio (y) = 0.46514 0.21854
# Poissons Ratio (z) = -0.02409 0.32068
#
# Static dielectric constant tensor:
#      x y z
#    x 4.292900 0.000000 -0.144350 
#    y 0.000000 4.831860 0.000000 
#    z -0.144350 0.000000 3.882100 
# 
# 
# High freq. dielectric constant tensor:
#      x y z
#    x 1.938600 0.000000 -0.006370 
#    y 0.000000 1.951820 0.000000 
#    z -0.006370 0.000000 1.912120 
# 
# From -- ./inp_files/102455.got.cif
#   From: 2010.06.25/outbox.cif.g09.slc.cpg/sg15_52_cif.got.tgz:102455.got - 2010.06.28 07:06:18.
