data_PCOD8149560
_publ_section_title
;
Structure prediction by ZEFSAII (Michael W. Deem and Ramdas Pophale) SiO2 
 PCOD8149560
Probable space group: C 2/C
;
_chemical_formula_sum "Si O2"
_cell_formula_units_Z 44
_cell_length_a 12.430855
_cell_length_b 22.345492
_cell_length_c 9.250445
_cell_angle_alpha 90.000000
_cell_angle_beta 114.251958
_cell_angle_gamma 90.000000
_cell_volume 2342.763074
_symmetry_space_group_name_H-M "C 2/C"
_symmetry_group_IT_number 15
_symmetry_cell_setting 'monoclinic'
loop_
_space_group_symop_operation_xyz
x,y,z
-x,y,1/2-z
-x,-y,-z
x,-y,1/2+z
1/2+x,1/2+y,z
1/2-x,1/2+y,1/2-z
1/2-x,1/2-y,-z
1/2+x,1/2-y,1/2+z
loop_
_atom_site_type_symbol
_atom_site_label
_atom_site_fract_x
_atom_site_fract_y
_atom_site_fract_z
Si Si1 0.400849 0.307209 0.806527
Si Si2 0.057515 0.420727 0.037675
Si Si3 0.665661 0.153496 0.065362
Si Si4 0.202688 0.322009 0.263255
Si Si5 0.000000 0.506920 0.250000
Si Si6 0.445306 0.269675 0.368182
O O1 0.500000 0.329819 0.750000
O O2 0.283754 0.348599 0.729721
O O3 0.366219 0.239394 0.751500
O O4 0.454716 0.309352 0.997045
O O5 0.138587 0.363073 0.108457
O O6 0.076424 0.465994 0.182555
O O7 0.086037 0.452232 0.899333
O O8 0.919282 0.402162 0.948952
O O9 0.594073 0.214795 0.052923
O O10 0.705777 0.147567 0.921587
O O11 0.333752 0.312000 0.274767
O O12 0.500000 0.244896 0.250000
#
# Coordination Sequence:
#
# PCOD8149560 Si02
#       6
#     8   8   8   8   4   8
#     4  11  18  33  54  80 110 151 187 204 256 358
#     4  11  21  39  58  86 109 142 184 237 283 318
#     4  11  20  33  58  77 113 154 181 221 272 333
#     4  11  19  35  58  75 115 154 181 221 273 331
#     4  10  24  36  58  84 110 136 192 240 284 318
#     4  11  23  33  50  86 118 149 183 219 265 339
#
# _framework density 18.781243
#
# number of rings (size 3 to 8) (size 9 to 14) (size 15 to 20)
#    0.000    1.091    7.273    1.091    1.273    4.364 
#    0.000    0.000    0.000    0.000    0.000   25.455 
#    0.000    0.000    0.000    0.000    0.000    0.000 
#
# Total GULP energy -272721.589078 kJ/mol
# GULP energy per Si atom -12396.435867 kJ/mol
# Density = 1.873850 g / cm^3
# Si number density = 18.781243 Si / 1000 Ang^3
#
#
#
# Elastic Constant Matrix: (Units=GPa)
#
#
# Indices 1 2 3 4 5 6 
#
# 1 87.8384 24.7673 47.0947 0.0000 16.5724 0.0000
# 2 24.7673 56.2607 23.3571 0.0000 5.5683 0.0000
# 3 47.0947 23.3571 99.5763 0.0000 -0.6164 0.0000
# 4 0.0000 0.0000 0.0000 36.4944 0.0000 1.1373
# 5 16.5724 5.5683 -0.6164 0.0000 33.7240 0.0000
# 6 0.0000 0.0000 0.0000 1.1373 0.0000 5.9977
#
#
#
# Elastic Compliance Matrix: (Units=1/GPa)
#
#
# Indices 1 2 3 4 5 6 
#
# 1 0.018261 -0.003982 -0.007755 0.000000 -0.008458 0.000000
# 2 -0.003982 0.020943 -0.003039 0.000000 -0.001557 0.000000
# 3 -0.007755 -0.003039 0.014451 0.000000 0.004577 0.000000
# 4 0.000000 0.000000 0.000000 0.027564 0.000000 -0.005227
# 5 -0.008458 -0.001557 0.004577 0.000000 0.034149 0.000000
# 6 0.000000 0.000000 0.000000 -0.005227 0.000000 0.167721
#
#
# Mechanical properties :
#
#
# Convention : Reuss Voigt Hill
#
# Bulk Modulus (GPa) = 41.48739 48.23484 44.86112
# Shear Modulus (GPa) = 15.59204 25.14031 20.36618
#
# Velocity S-wave (km/s) = 2.88443 3.66264 3.29658
# Velocity P-wave (km/s) = 5.76464 6.60490 6.19902
#
# Compressibility (1/GPa) = 0.02410371
#
# Stress axis : x y z
#
# Youngs Moduli (GPa) = 54.76196 47.74842 69.19807
#
# Poissons Ratio (x) = 0.19015 0.53661
# Poissons Ratio (y) = 0.21808 0.21027
# Poissons Ratio (z) = 0.42466 0.14509
#
# Static dielectric constant tensor:
#      x y z
#    x 3.378380 0.000000 0.217870 
#    y 0.000000 3.237550 0.000000 
#    z 0.217870 0.000000 3.648780 
# 
# 
# High freq. dielectric constant tensor:
#      x y z
#    x 1.710290 0.000000 0.003690 
#    y 0.000000 1.689070 0.000000 
#    z 0.003690 0.000000 1.744880 
# 
# From -- ./inp_files/31013.got.cif
#   From: 2010.06.25/outbox.cif.g09.slc.cpg/sg15_16_cif.got.tgz:31013.got - 2010.06.28 07:06:18.
