data_PCOD8149121
_publ_section_title
;
Structure prediction by ZEFSAII (Michael W. Deem and Ramdas Pophale) SiO2 
 PCOD8149121
Probable space group: C 2/C
;
_chemical_formula_sum "Si O2"
_cell_formula_units_Z 28
_cell_length_a 13.087675
_cell_length_b 4.790585
_cell_length_c 18.755372
_cell_angle_alpha 90.000000
_cell_angle_beta 122.269485
_cell_angle_gamma 90.000000
_cell_volume 994.292422
_symmetry_space_group_name_H-M "C 2/C"
_symmetry_group_IT_number 15
_symmetry_cell_setting 'monoclinic'
loop_
_space_group_symop_operation_xyz
x,y,z
-x,y,1/2-z
-x,-y,-z
x,-y,1/2+z
1/2+x,1/2+y,z
1/2-x,1/2+y,1/2-z
1/2-x,1/2-y,-z
1/2+x,1/2-y,1/2+z
loop_
_atom_site_type_symbol
_atom_site_label
_atom_site_fract_x
_atom_site_fract_y
_atom_site_fract_z
Si Si1 0.366234 0.559479 0.517752
Si Si2 0.756634 0.117270 0.117174
Si Si3 0.000000 0.645774 0.750000
Si Si4 0.025235 0.546447 0.605262
O O1 0.292609 0.422117 0.425244
O O2 0.275750 0.583714 0.553532
O O3 0.437630 0.846990 0.523721
O O4 0.477438 0.360293 0.581612
O O5 0.882089 0.156167 0.204549
O O6 0.665328 0.966234 0.136661
O O7 0.009480 0.454457 0.682468
#
# Coordination Sequence:
#
# PCOD8149121 Si02
#       4
#     8   8   4   8
#     4  10  24  43  69  96 121 167 223 261 308 377
#     4  10  23  44  67  94 131 167 211 266 316 374
#     4  10  26  40  62 100 132 168 210 256 324 388
#     4  11  24  44  67  94 128 169 213 263 316 372
#
# _framework density 28.160733
#
# number of rings (size 3 to 8) (size 9 to 14) (size 15 to 20)
#    0.000    1.714    0.000    1.714    0.000   26.286 
#    0.000    0.000    0.000    0.000    0.000    0.000 
#    0.000    0.000    0.000    0.000    0.000    0.000 
#
# Total GULP energy -173725.003711 kJ/mol
# GULP energy per Si atom -12408.928836 kJ/mol
# Density = 2.809664 g / cm^3
# Si number density = 28.160733 Si / 1000 Ang^3
#
#
#
# Elastic Constant Matrix: (Units=GPa)
#
#
# Indices 1 2 3 4 5 6 
#
# 1 240.1555 47.5464 44.7046 0.0000 37.5668 0.0000
# 2 47.5464 103.2959 -0.1100 0.0000 11.4394 0.0002
# 3 44.7046 -0.1100 112.8489 0.0000 25.5924 0.0000
# 4 0.0000 0.0000 0.0000 30.1567 0.0000 -2.5263
# 5 37.5668 11.4394 25.5924 0.0000 49.3900 0.0000
# 6 0.0000 0.0002 0.0000 -2.5263 0.0000 41.2553
#
#
#
# Elastic Compliance Matrix: (Units=1/GPa)
#
#
# Indices 1 2 3 4 5 6 
#
# 1 0.005293 -0.002131 -0.001471 0.000000 -0.002770 0.000000
# 2 -0.002131 0.010830 0.001197 0.000000 -0.001508 0.000000
# 3 -0.001471 0.001197 0.010487 0.000000 -0.004592 0.000000
# 4 0.000000 0.000000 0.000000 0.033331 0.000000 0.002041
# 5 -0.002770 -0.001508 -0.004592 0.000000 0.025083 0.000000
# 6 0.000000 0.000000 0.000000 0.002041 0.000000 0.024364
#
#
# Mechanical properties :
#
#
# Convention : Reuss Voigt Hill
#
# Bulk Modulus (GPa) = 45.87234 71.17580 58.52407
# Shear Modulus (GPa) = 41.16419 48.43768 44.80094
#
# Velocity S-wave (km/s) = 3.82744 4.15184 3.99294
# Velocity P-wave (km/s) = 5.98809 6.95078 6.48732
#
# Compressibility (1/GPa) = 0.02179963
#
# Stress axis : x y z
#
# Youngs Moduli (GPa) = 188.92913 92.33548 95.35944
#
# Poissons Ratio (x) = 0.19678 0.14024
# Poissons Ratio (y) = 0.40263 -0.11411
# Poissons Ratio (z) = 0.27784 -0.11049
#
# Static dielectric constant tensor:
#      x y z
#    x 5.707420 0.000000 -0.079510 
#    y 0.000000 4.855770 0.000000 
#    z -0.079510 0.000000 5.195890 
# 
# 
# High freq. dielectric constant tensor:
#      x y z
#    x 2.179460 0.000000 0.016130 
#    y 0.000000 2.131920 0.000000 
#    z 0.016130 0.000000 2.133120 
# 
# From -- ./inp_files/201585.got.cif
#   From: 2010.06.25/outbox.cif.g09.slc.cpg/sg15_101_cif.got.tgz:201585.got - 2010.06.28 07:06:18.
