data_PCOD8149587
_publ_section_title
;
Structure prediction by ZEFSAII (Michael W. Deem and Ramdas Pophale) SiO2 
 PCOD8149587
Probable space group: C 2/C
;
_chemical_formula_sum "Si O2"
_cell_formula_units_Z 44
_cell_length_a 18.312188
_cell_length_b 18.258730
_cell_length_c 8.735000
_cell_angle_alpha 90.000000
_cell_angle_beta 135.449629
_cell_angle_gamma 90.000000
_cell_volume 2048.913865
_symmetry_space_group_name_H-M "C 2/C"
_symmetry_group_IT_number 15
_symmetry_cell_setting 'monoclinic'
loop_
_space_group_symop_operation_xyz
x,y,z
-x,y,1/2-z
-x,-y,-z
x,-y,1/2+z
1/2+x,1/2+y,z
1/2-x,1/2+y,1/2-z
1/2-x,1/2-y,-z
1/2+x,1/2-y,1/2+z
loop_
_atom_site_type_symbol
_atom_site_label
_atom_site_fract_x
_atom_site_fract_y
_atom_site_fract_z
Si Si1 0.771197 0.853941 0.730992
Si Si2 0.140102 0.464143 0.702418
Si Si3 0.683459 0.724387 0.752579
Si Si4 0.539340 0.255668 0.471065
Si Si5 0.000000 0.496788 0.750000
Si Si6 0.194450 0.630949 0.782384
O O1 0.692286 0.787264 0.638475
O O2 0.759808 0.875760 0.537390
O O3 0.743332 0.917909 0.814352
O O4 0.888028 0.827241 0.942375
O O5 0.088751 0.447797 0.792777
O O6 0.152629 0.550413 0.691834
O O7 0.053254 0.445433 0.445211
O O8 0.561296 0.714283 0.592120
O O9 0.730011 0.650580 0.747541
O O10 0.750000 0.750000 0.000000
O O11 0.500000 0.224472 0.250000
O O12 0.600673 0.190547 0.649854
#
# Coordination Sequence:
#
# PCOD8149587 Si02
#       6
#     8   8   8   8   4   8
#     4  11  25  44  63  98 139 173 215 277 333 402
#     4  11  24  41  65  98 136 173 227 273 342 396
#     4  11  23  40  69  96 128 175 224 275 324 392
#     4  11  23  42  70  98 128 173 226 271 331 395
#     4  10  24  38  62  98 128 178 214 274 344 388
#     4  11  25  42  65 100 137 175 216 281 332 397
#
# _framework density 21.474791
#
# number of rings (size 3 to 8) (size 9 to 14) (size 15 to 20)
#    0.000    1.091    5.455    2.182    8.909    2.909 
#    0.000    0.909    0.000    0.000    0.000    0.000 
#    0.000    0.000    0.000    0.000    0.000    0.000 
#
# Total GULP energy -272588.473818 kJ/mol
# GULP energy per Si atom -12390.385174 kJ/mol
# Density = 2.142591 g / cm^3
# Si number density = 21.474791 Si / 1000 Ang^3
#
#
#
# Elastic Constant Matrix: (Units=GPa)
#
#
# Indices 1 2 3 4 5 6 
#
# 1 190.0910 61.6644 45.8556 0.0000 21.1025 0.0000
# 2 61.6644 98.3324 20.8498 0.0000 15.6557 0.0000
# 3 45.8556 20.8498 76.1562 0.0000 4.0783 0.0000
# 4 0.0000 0.0000 0.0000 14.1918 0.0000 0.3436
# 5 21.1025 15.6557 4.0783 0.0000 46.8018 0.0000
# 6 0.0000 0.0000 0.0000 0.3436 0.0000 37.0023
#
#
#
# Elastic Compliance Matrix: (Units=1/GPa)
#
#
# Indices 1 2 3 4 5 6 
#
# 1 0.007477 -0.003675 -0.003397 0.000000 -0.001846 0.000000
# 2 -0.003675 0.013158 -0.001249 0.000000 -0.002636 0.000000
# 3 -0.003397 -0.001249 0.015486 0.000000 0.000600 0.000000
# 4 0.000000 0.000000 0.000000 0.070479 0.000000 -0.000654
# 5 -0.001846 -0.002636 0.000600 0.000000 0.023029 0.000000
# 6 0.000000 0.000000 0.000000 -0.000654 0.000000 0.027031
#
#
# Mechanical properties :
#
#
# Convention : Reuss Voigt Hill
#
# Bulk Modulus (GPa) = 51.33335 69.03546 60.18440
# Shear Modulus (GPa) = 27.80933 35.34650 31.57791
#
# Velocity S-wave (km/s) = 3.60248 4.06144 3.83882
# Velocity P-wave (km/s) = 6.42337 7.36279 6.90907
#
# Compressibility (1/GPa) = 0.01948051
#
# Stress axis : x y z
#
# Youngs Moduli (GPa) = 133.74081 75.99701 64.57346
#
# Poissons Ratio (x) = 0.27926 0.21937
# Poissons Ratio (y) = 0.49145 0.08063
# Poissons Ratio (z) = 0.45436 0.09490
#
# Static dielectric constant tensor:
#      x y z
#    x 4.401540 0.000000 -0.201690 
#    y 0.000000 3.668090 0.000000 
#    z -0.201690 0.000000 3.957810 
# 
# 
# High freq. dielectric constant tensor:
#      x y z
#    x 1.857130 0.000000 -0.014950 
#    y 0.000000 1.815580 0.000000 
#    z -0.014950 0.000000 1.841960 
# 
# From -- ./inp_files/50397.got.cif
#   From: 2010.06.25/outbox.cif.g09.slc.cpg/sg15_26_cif.got.tgz:50397.got - 2010.06.28 07:06:18.
