data_PCOD8149927
_publ_section_title
;
Structure prediction by ZEFSAII (Michael W. Deem and Ramdas Pophale) SiO2 
 PCOD8149927
Probable space group: C 2/C
;
_chemical_formula_sum "Si O2"
_cell_formula_units_Z 32
_cell_length_a 27.475977
_cell_length_b 8.743676
_cell_length_c 9.806741
_cell_angle_alpha 90.000000
_cell_angle_beta 34.999135
_cell_angle_gamma 90.000000
_cell_volume 1351.306430
_symmetry_space_group_name_H-M "C 2/C"
_symmetry_group_IT_number 15
_symmetry_cell_setting 'monoclinic'
loop_
_space_group_symop_operation_xyz
x,y,z
-x,y,1/2-z
-x,-y,-z
x,-y,1/2+z
1/2+x,1/2+y,z
1/2-x,1/2+y,1/2-z
1/2-x,1/2-y,-z
1/2+x,1/2-y,1/2+z
loop_
_atom_site_type_symbol
_atom_site_label
_atom_site_fract_x
_atom_site_fract_y
_atom_site_fract_z
Si Si1 0.043259 0.681937 0.506632
Si Si2 0.238782 0.151933 0.869465
Si Si3 0.806082 0.888604 0.322221
Si Si4 0.117836 0.364756 0.277474
O O1 0.095336 0.837995 0.404781
O O2 0.106424 0.548232 0.308410
O O3 0.000000 0.633853 0.750000
O O4 0.973041 0.710281 0.549058
O O5 0.184022 0.309136 0.007149
O O6 0.202963 0.037461 0.066384
O O7 0.226191 0.071289 0.754920
O O8 0.338684 0.184379 0.676856
O O9 0.750000 0.750000 0.500000
#
# Coordination Sequence:
#
# PCOD8149927 Si02
#       4
#     8   8   8   8
#     4  11  23  46  68 105 140 188 231 296 348 411
#     4  11  26  46  70 110 135 192 232 290 354 419
#     4  12  27  46  75 101 148 182 235 294 352 424
#     4  10  24  42  73  99 141 181 241 283 345 423
#
# _framework density 23.680788
#
# number of rings (size 3 to 8) (size 9 to 14) (size 15 to 20)
#    0.000    1.000    5.000    0.000   10.500    1.000 
#    0.000    0.000    0.000    0.000    0.000    0.000 
#    0.000    0.000    0.000    0.000    0.000    0.000 
#
# Total GULP energy -198241.461762 kJ/mol
# GULP energy per Si atom -12390.091360 kJ/mol
# Density = 2.362689 g / cm^3
# Si number density = 23.680788 Si / 1000 Ang^3
#
#
#
# Elastic Constant Matrix: (Units=GPa)
#
#
# Indices 1 2 3 4 5 6 
#
# 1 206.7954 50.6051 67.6925 0.0000 -15.8987 0.0000
# 2 50.6051 71.2207 50.1616 0.0000 4.3854 0.0000
# 3 67.6925 50.1616 85.7867 0.0000 -10.8542 0.0000
# 4 0.0000 0.0000 0.0000 52.4981 0.0000 0.3833
# 5 -15.8987 4.3854 -10.8542 0.0000 54.3294 0.0000
# 6 0.0000 0.0000 0.0000 0.3833 0.0000 32.1700
#
#
#
# Elastic Compliance Matrix: (Units=1/GPa)
#
#
# Indices 1 2 3 4 5 6 
#
# 1 0.006737 -0.002122 -0.003903 0.000000 0.001363 0.000000
# 2 -0.002122 0.025848 -0.014139 0.000000 -0.005532 0.000000
# 3 -0.003903 -0.014139 0.023601 0.000000 0.004714 0.000000
# 4 0.000000 0.000000 0.000000 0.019050 0.000000 -0.000227
# 5 0.001363 -0.005532 0.004714 0.000000 0.020194 0.000000
# 6 0.000000 0.000000 0.000000 -0.000227 0.000000 0.031088
#
#
# Mechanical properties :
#
#
# Convention : Reuss Voigt Hill
#
# Bulk Modulus (GPa) = 63.06362 77.85791 70.46076
# Shear Modulus (GPa) = 29.04754 40.82239 34.93496
#
# Velocity S-wave (km/s) = 3.50613 4.15644 3.84506
# Velocity P-wave (km/s) = 6.56347 7.48226 7.03787
#
# Compressibility (1/GPa) = 0.01585700
#
# Stress axis : x y z
#
# Youngs Moduli (GPa) = 148.42442 38.68789 42.37179
#
# Poissons Ratio (x) = 0.08210 0.16538
# Poissons Ratio (y) = 0.31499 0.59911
# Poissons Ratio (z) = 0.57930 0.54702
#
# Static dielectric constant tensor:
#      x y z
#    x 5.170210 0.000000 -0.391500 
#    y 0.000000 3.542880 0.000000 
#    z -0.391500 0.000000 4.307590 
# 
# 
# High freq. dielectric constant tensor:
#      x y z
#    x 1.958370 0.000000 -0.026740 
#    y 0.000000 1.927290 0.000000 
#    z -0.026740 0.000000 1.923730 
# 
# From -- ./inp_files/125409.got.cif
#   From: 2010.06.25/outbox.cif.g09.slc.cpg/sg15_63_cif.got.tgz:125409.got - 2010.06.28 07:06:18.
