data_PCOD8149534
_publ_section_title
;
Structure prediction by ZEFSAII (Michael W. Deem and Ramdas Pophale) SiO2 
 PCOD8149534
Probable space group: C 2/C
;
_chemical_formula_sum "Si O2"
_cell_formula_units_Z 28
_cell_length_a 14.535292
_cell_length_b 13.524759
_cell_length_c 7.889811
_cell_angle_alpha 90.000000
_cell_angle_beta 131.165125
_cell_angle_gamma 90.000000
_cell_volume 1167.638927
_symmetry_space_group_name_H-M "C 2/C"
_symmetry_group_IT_number 15
_symmetry_cell_setting 'monoclinic'
loop_
_space_group_symop_operation_xyz
x,y,z
-x,y,1/2-z
-x,-y,-z
x,-y,1/2+z
1/2+x,1/2+y,z
1/2-x,1/2+y,1/2-z
1/2-x,1/2-y,-z
1/2+x,1/2-y,1/2+z
loop_
_atom_site_type_symbol
_atom_site_label
_atom_site_fract_x
_atom_site_fract_y
_atom_site_fract_z
Si Si1 0.890794 0.078167 0.863107
Si Si2 0.941694 0.704478 0.504695
Si Si3 0.233845 0.564980 0.367448
Si Si4 0.000000 0.606583 0.250000
O O1 0.773774 0.032539 0.816921
O O2 0.929767 0.177746 0.003103
O O3 0.848375 0.102449 0.619621
O O4 0.000000 0.000000 0.000000
O O5 0.808206 0.652820 0.312323
O O6 0.028171 0.675339 0.449276
O O7 0.000000 0.665892 0.750000
O O8 0.117234 0.538027 0.347676
#
# Coordination Sequence:
#
# PCOD8149534 Si02
#       4
#     8   8   8   4
#     4  12  25  44  75 113 147 195 248 306 373 443
#     4  10  23  48  77 106 146 196 248 305 373 438
#     4  10  25  45  72 109 150 190 250 308 365 442
#     4   8  24  46  76 100 152 190 250 296 378 426
#
# _framework density 23.980017
#
# number of rings (size 3 to 8) (size 9 to 14) (size 15 to 20)
#    1.714    0.000    0.000    3.429    4.000    3.429 
#    2.571    4.286    0.000    0.000    0.000    0.000 
#    0.000    0.000    0.000    0.000    0.000    0.000 
#
# Total GULP energy -173479.266393 kJ/mol
# GULP energy per Si atom -12391.376171 kJ/mol
# Density = 2.392544 g / cm^3
# Si number density = 23.980017 Si / 1000 Ang^3
#
#
#
# Elastic Constant Matrix: (Units=GPa)
#
#
# Indices 1 2 3 4 5 6 
#
# 1 124.5687 72.3558 47.6431 0.0000 -3.7696 0.0000
# 2 72.3558 107.6069 49.1245 0.0000 1.8158 0.0000
# 3 47.6431 49.1245 216.2104 0.0000 -18.7058 0.0000
# 4 0.0000 0.0000 0.0000 36.5966 0.0000 9.4675
# 5 -3.7696 1.8158 -18.7058 0.0000 44.2533 0.0000
# 6 0.0000 0.0000 0.0000 9.4675 0.0000 35.5482
#
#
#
# Elastic Compliance Matrix: (Units=1/GPa)
#
#
# Indices 1 2 3 4 5 6 
#
# 1 0.013419 -0.008631 -0.000899 0.000000 0.001117 0.000000
# 2 -0.008631 0.016014 -0.001927 0.000000 -0.002207 0.000000
# 3 -0.000899 -0.001927 0.005461 0.000000 0.002311 0.000000
# 4 0.000000 0.000000 0.000000 0.029347 0.000000 -0.007816
# 5 0.001117 -0.002207 0.002311 0.000000 0.023760 0.000000
# 6 0.000000 0.000000 0.000000 -0.007816 0.000000 0.030212
#
#
# Mechanical properties :
#
#
# Convention : Reuss Voigt Hill
#
# Bulk Modulus (GPa) = 83.48589 87.40365 85.44477
# Shear Modulus (GPa) = 34.45377 41.89712 38.17545
#
# Velocity S-wave (km/s) = 3.79459 4.18445 3.99428
# Velocity P-wave (km/s) = 7.35451 7.73782 7.54860
#
# Compressibility (1/GPa) = 0.01197807
#
# Stress axis : x y z
#
# Youngs Moduli (GPa) = 74.52148 62.44509 183.11224
#
# Poissons Ratio (x) = 0.53899 0.16465
# Poissons Ratio (y) = 0.64322 0.35295
# Poissons Ratio (z) = 0.06701 0.12036
#
# Static dielectric constant tensor:
#      x y z
#    x 4.172540 0.000000 -0.140680 
#    y 0.000000 3.843430 0.000000 
#    z -0.140680 0.000000 4.440430 
# 
# 
# High freq. dielectric constant tensor:
#      x y z
#    x 1.935800 0.000000 -0.008370 
#    y 0.000000 1.931810 0.000000 
#    z -0.008370 0.000000 1.969160 
# 
# From -- ./inp_files/47362.got.cif
#   From: 2010.06.25/outbox.cif.g09.slc.cpg/sg15_24_cif.got.tgz:47362.got - 2010.06.28 07:06:18.
