data_PCOD8149912
_publ_section_title
;
Structure prediction by ZEFSAII (Michael W. Deem and Ramdas Pophale) SiO2 
 PCOD8149912
Probable space group: C 2/C
;
_chemical_formula_sum "Si O2"
_cell_formula_units_Z 52
_cell_length_a 5.348426
_cell_length_b 18.695817
_cell_length_c 21.711699
_cell_angle_alpha 90.000000
_cell_angle_beta 105.023096
_cell_angle_gamma 90.000000
_cell_volume 2096.819666
_symmetry_space_group_name_H-M "C 2/C"
_symmetry_group_IT_number 15
_symmetry_cell_setting 'monoclinic'
loop_
_space_group_symop_operation_xyz
x,y,z
-x,y,1/2-z
-x,-y,-z
x,-y,1/2+z
1/2+x,1/2+y,z
1/2-x,1/2+y,1/2-z
1/2-x,1/2-y,-z
1/2+x,1/2-y,1/2+z
loop_
_atom_site_type_symbol
_atom_site_label
_atom_site_fract_x
_atom_site_fract_y
_atom_site_fract_z
Si Si1 0.762226 0.717925 0.197972
Si Si2 0.297241 0.881936 0.115162
Si Si3 0.500000 0.160722 0.750000
Si Si4 0.517313 0.422758 0.819961
Si Si5 0.411263 0.965952 0.608022
Si Si6 0.572852 0.759294 0.066862
Si Si7 0.350154 0.634042 0.503678
O O1 0.708780 0.792239 0.227984
O O2 0.522818 0.662937 0.185851
O O3 0.811232 0.736388 0.128375
O O4 0.000000 0.681351 0.250000
O O5 0.332240 0.886525 0.191267
O O6 0.372560 0.802354 0.097049
O O7 0.457087 0.949387 0.097996
O O8 0.005558 0.895539 0.072716
O O9 0.500000 0.456204 0.750000
O O10 0.289887 0.456365 0.847906
O O11 0.807278 0.432693 0.863421
O O12 0.283920 0.931499 0.539310
O O13 0.470770 0.683608 0.031284
O O14 0.635969 0.811480 0.014726
#
# Coordination Sequence:
#
# PCOD8149912 Si02
#       7
#     8   8   4   8   8   8   8
#     4  11  21  42  73 107 143 192 248 312 376 439
#     4  11  26  46  70 105 153 198 246 312 378 451
#     4  10  24  42  72 104 146 186 252 304 388 438
#     4  12  27  47  77 108 149 195 253 307 368 445
#     4  12  29  48  77 109 151 201 253 303 377 457
#     4  10  24  42  71 107 149 192 256 309 376 439
#     4  11  24  45  74 106 148 198 256 307 375 444
#
# _framework density 24.799462999999999
#
# number of rings (size 3 to 8) (size 9 to 14) (size 15 to 20)
#    0.000    0.923    2.308    3.231    6.462    5.538 
#    0.000    0.000    0.000    0.000    0.000    0.000 
#    0.000    0.000    0.000    0.000    0.000    0.000 
#
# Total GULP energy -322133.818312 kJ/mol
# GULP energy per Si atom -12389.762243 kJ/mol
# Density = 2.474302 g / cm^3
# Si number density = 24.799463 Si / 1000 Ang^3
#
#
#
# Elastic Constant Matrix: (Units=GPa)
#
#
# Indices 1 2 3 4 5 6 
#
# 1 87.2245 8.1026 36.8999 0.0000 19.1445 0.0000
# 2 8.1026 102.0393 41.6493 0.0000 25.3731 0.0000
# 3 36.8999 41.6493 190.6259 0.0000 31.0161 0.0000
# 4 0.0000 0.0000 0.0000 22.8818 0.0000 -4.0593
# 5 19.1445 25.3731 31.0161 0.0000 40.4082 0.0000
# 6 0.0000 0.0000 0.0000 -4.0593 0.0000 20.3343
#
#
#
# Elastic Compliance Matrix: (Units=1/GPa)
#
#
# Indices 1 2 3 4 5 6 
#
# 1 0.013399 0.001107 -0.001931 0.000000 -0.005561 0.000000
# 2 0.001107 0.012117 -0.001758 0.000000 -0.006783 0.000000
# 3 -0.001931 -0.001758 0.006485 0.000000 -0.002959 0.000000
# 4 0.000000 0.000000 0.000000 0.045307 0.000000 0.009045
# 5 -0.005561 -0.006783 -0.002959 0.000000 0.033913 0.000000
# 6 0.000000 0.000000 0.000000 0.009045 0.000000 0.050984
#
#
# Mechanical properties :
#
#
# Convention : Reuss Voigt Hill
#
# Bulk Modulus (GPa) = 37.26102 61.46594 49.36348
# Shear Modulus (GPa) = 28.35847 36.27407 32.31627
#
# Velocity S-wave (km/s) = 3.38525 3.82867 3.61377
# Velocity P-wave (km/s) = 5.50795 6.66213 6.11234
#
# Compressibility (1/GPa) = 0.02683770
#
# Stress axis : x y z
#
# Youngs Moduli (GPa) = 74.63096 82.53205 154.19782
#
# Poissons Ratio (x) = -0.09136 0.29771
# Poissons Ratio (y) = -0.08261 0.27106
# Poissons Ratio (z) = 0.14409 0.14508
#
# Static dielectric constant tensor:
#      x y z
#    x 3.961730 0.000000 -0.129980 
#    y 0.000000 4.576400 0.000000 
#    z -0.129980 0.000000 5.140430 
# 
# 
# High freq. dielectric constant tensor:
#      x y z
#    x 1.947790 0.000000 -0.001280 
#    y 0.000000 1.990050 0.000000 
#    z -0.001280 0.000000 2.018900 
# 
# From -- ./inp_files/261445.got.cif
#   From: 2010.06.25/outbox.cif.g09.slc.cpg/sg15_131_cif.got.tgz:261445.got - 2010.06.28 07:06:18.
