data_PCOD8149920
_publ_section_title
;
Structure prediction by ZEFSAII (Michael W. Deem and Ramdas Pophale) SiO2 
 PCOD8149920
Probable space group: C 2/C
;
_chemical_formula_sum "Si O2"
_cell_formula_units_Z 44
_cell_length_a 19.699540
_cell_length_b 13.879126
_cell_length_c 14.596936
_cell_angle_alpha 90.000000
_cell_angle_beta 26.403765
_cell_angle_gamma 90.000000
_cell_volume 1774.766463
_symmetry_space_group_name_H-M "C 2/C"
_symmetry_group_IT_number 15
_symmetry_cell_setting 'monoclinic'
loop_
_space_group_symop_operation_xyz
x,y,z
-x,y,1/2-z
-x,-y,-z
x,-y,1/2+z
1/2+x,1/2+y,z
1/2-x,1/2+y,1/2-z
1/2-x,1/2-y,-z
1/2+x,1/2-y,1/2+z
loop_
_atom_site_type_symbol
_atom_site_label
_atom_site_fract_x
_atom_site_fract_y
_atom_site_fract_z
Si Si1 0.500000 0.247153 0.250000
Si Si2 0.149941 0.634905 0.697797
Si Si3 0.316631 0.189225 0.302878
Si Si4 0.371764 0.349114 0.780135
Si Si5 0.835963 0.432770 0.607218
Si Si6 0.816189 0.874797 0.177916
O O1 0.440476 0.182389 0.236019
O O2 0.357304 0.314216 0.450809
O O3 0.291170 0.597736 0.464667
O O4 0.092417 0.739599 0.732905
O O5 0.189837 0.650131 0.755582
O O6 0.008870 0.560816 0.860220
O O7 0.340418 0.096297 0.209420
O O8 0.345082 0.289191 0.214367
O O9 0.253502 0.349008 0.838421
O O10 0.527016 0.402164 0.563790
O O11 0.746256 0.531171 0.694246
#
# Coordination Sequence:
#
# PCOD8149920 Si02
#       6
#     4   8   8   8   8   8
#     4  10  24  42  72  94 130 192 228 286 336 390
#     4  11  22  42  70 102 138 178 224 288 350 411
#     4  11  22  46  67  98 140 176 237 282 340 415
#     4  11  22  42  70 102 138 178 224 288 350 411
#     4  12  24  43  71 101 140 183 229 282 351 411
#     4  12  24  43  71 101 140 183 229 282 351 411
#
# _framework density 24.791993999999999
#
# number of rings (size 3 to 8) (size 9 to 14) (size 15 to 20)
#    0.000    0.727    3.636    4.364    0.000    2.909 
#   13.091    0.000    0.000    0.000    0.000    0.000 
#    0.000    0.000    0.000    0.000    0.000    0.000 
#
# Total GULP energy -272807.038114 kJ/mol
# GULP energy per Si atom -12400.319914 kJ/mol
# Density = 2.473557 g / cm^3
# Si number density = 24.791994 Si / 1000 Ang^3
#
#
#
# Elastic Constant Matrix: (Units=GPa)
#
#
# Indices 1 2 3 4 5 6 
#
# 1 110.1811 11.6071 16.9099 0.0004 -10.1460 -0.0002
# 2 11.6071 65.6428 36.6052 0.0001 4.3261 0.0000
# 3 16.9099 36.6052 168.9363 0.0004 2.3991 -0.0002
# 4 0.0004 0.0001 0.0004 25.5944 -0.0002 -2.0165
# 5 -10.1460 4.3261 2.3991 -0.0002 42.0142 0.0001
# 6 -0.0002 0.0000 -0.0002 -2.0165 0.0001 19.0737
#
#
#
# Elastic Compliance Matrix: (Units=1/GPa)
#
#
# Indices 1 2 3 4 5 6 
#
# 1 0.009565 -0.001481 -0.000672 0.000000 0.002501 0.000000
# 2 -0.001481 0.017661 -0.003651 0.000000 -0.001968 0.000000
# 3 -0.000672 -0.003651 0.006780 0.000000 -0.000174 0.000000
# 4 0.000000 0.000000 0.000000 0.039399 0.000000 0.004165
# 5 0.002501 -0.001968 -0.000174 0.000000 0.024618 0.000000
# 6 0.000000 0.000000 0.000000 0.004165 0.000000 0.052868
#
#
# Mechanical properties :
#
#
# Convention : Reuss Voigt Hill
#
# Bulk Modulus (GPa) = 44.64528 52.77827 48.71178
# Shear Modulus (GPa) = 29.41749 35.97901 32.69825
#
# Velocity S-wave (km/s) = 3.44840 3.81364 3.63561
# Velocity P-wave (km/s) = 5.82257 6.38173 6.10855
#
# Compressibility (1/GPa) = 0.02239878
#
# Stress axis : x y z
#
# Youngs Moduli (GPa) = 104.54280 56.62087 147.48971
#
# Poissons Ratio (x) = 0.08388 0.09911
# Poissons Ratio (y) = 0.15488 0.53843
# Poissons Ratio (z) = 0.07025 0.20670
#
# Static dielectric constant tensor:
#      x y z
#    x 4.594850 0.000000 0.105880 
#    y 0.000000 3.905810 0.000000 
#    z 0.105880 0.000000 4.761010 
# 
# 
# High freq. dielectric constant tensor:
#      x y z
#    x 1.992710 0.000000 -0.001520 
#    y 0.000000 1.944620 0.000000 
#    z -0.001520 0.000000 2.009210 
# 
# From -- ./inp_files/219657.got.cif
#   From: 2010.06.25/outbox.cif.g09.slc.cpg/sg15_110_cif.got.tgz:219657.got - 2010.06.28 07:06:18.
