data_PCOD8149192
_publ_section_title
;
Structure prediction by ZEFSAII (Michael W. Deem and Ramdas Pophale) SiO2 
 PCOD8149192
Probable space group: C 2/C
;
_chemical_formula_sum "Si O2"
_cell_formula_units_Z 36
_cell_length_a 13.350977
_cell_length_b 7.770142
_cell_length_c 20.091918
_cell_angle_alpha 90.000000
_cell_angle_beta 43.752875
_cell_angle_gamma 90.000000
_cell_volume 1441.406737
_symmetry_space_group_name_H-M "C 2/C"
_symmetry_group_IT_number 15
_symmetry_cell_setting 'monoclinic'
loop_
_space_group_symop_operation_xyz
x,y,z
-x,y,1/2-z
-x,-y,-z
x,-y,1/2+z
1/2+x,1/2+y,z
1/2-x,1/2+y,1/2-z
1/2-x,1/2-y,-z
1/2+x,1/2-y,1/2+z
loop_
_atom_site_type_symbol
_atom_site_label
_atom_site_fract_x
_atom_site_fract_y
_atom_site_fract_z
Si Si1 0.000000 0.113522 0.750000
Si Si2 0.188973 0.508162 0.896278
Si Si3 0.099150 0.582445 0.292208
Si Si4 0.592012 0.818088 0.068580
Si Si5 0.388793 0.386837 0.594406
O O1 0.138383 0.990230 0.669143
O O2 0.043067 0.232256 0.793702
O O3 0.150704 0.419634 0.844115
O O4 0.158946 0.711409 0.918476
O O5 0.089121 0.414151 0.998385
O O6 0.239682 0.514203 0.183478
O O7 0.963225 0.450723 0.348176
O O8 0.475283 0.663750 0.120724
O O9 0.750000 0.750000 0.000000
O O10 0.500000 0.500000 0.500000
#
# Coordination Sequence:
#
# PCOD8149192 Si02
#       5
#     4   8   8   8   8
#     4  10  24  44  72 106 136 198 234 294 372 422
#     4  10  24  46  69 102 143 183 246 294 361 439
#     4  10  23  45  69 101 141 186 239 294 363 428
#     4  11  26  44  67 109 139 187 242 299 362 434
#     4  10  23  44  70 101 135 187 232 296 369 425
#
# _framework density 24.975601000000001
#
# number of rings (size 3 to 8) (size 9 to 14) (size 15 to 20)
#    0.000    1.778    0.000    2.667    9.333   11.556 
#    0.000    0.000    0.000    0.000    0.000    0.000 
#    0.000    0.000    0.000    0.000    0.000    0.000 
#
# Total GULP energy -222995.734622 kJ/mol
# GULP energy per Si atom -12388.651923 kJ/mol
# Density = 2.491876 g / cm^3
# Si number density = 24.975601 Si / 1000 Ang^3
#
#
#
# Elastic Constant Matrix: (Units=GPa)
#
#
# Indices 1 2 3 4 5 6 
#
# 1 98.0712 18.8631 38.1260 0.0000 -25.3267 0.0001
# 2 18.8631 40.2411 28.4289 0.0000 -3.0715 0.0002
# 3 38.1260 28.4289 155.3724 0.0000 -33.1216 0.0000
# 4 0.0000 0.0000 0.0000 42.8440 0.0000 -21.5163
# 5 -25.3267 -3.0715 -33.1216 0.0000 51.7426 0.0000
# 6 0.0001 0.0002 0.0000 -21.5163 0.0000 35.6337
#
#
#
# Elastic Compliance Matrix: (Units=1/GPa)
#
#
# Indices 1 2 3 4 5 6 
#
# 1 0.012951 -0.004846 -0.001159 0.000000 0.005309 0.000000
# 2 -0.004846 0.030517 -0.005227 0.000000 -0.003907 0.000000
# 3 -0.001159 -0.005227 0.008674 0.000000 0.004674 0.000000
# 4 0.000000 0.000000 0.000000 0.033498 0.000000 0.020227
# 5 0.005309 -0.003907 0.004674 0.000000 0.024685 0.000000
# 6 0.000000 0.000000 0.000000 0.020227 0.000000 0.040277
#
#
# Mechanical properties :
#
#
# Convention : Reuss Voigt Hill
#
# Bulk Modulus (GPa) = 33.69862 51.61341 42.65601
# Shear Modulus (GPa) = 27.32850 39.92852 33.62851
#
# Velocity S-wave (km/s) = 3.31147 4.00271 3.67339
# Velocity P-wave (km/s) = 5.30500 6.48635 5.92519
#
# Compressibility (1/GPa) = 0.02967481
#
# Stress axis : x y z
#
# Youngs Moduli (GPa) = 77.21646 32.76895 115.29297
#
# Poissons Ratio (x) = 0.15881 0.13366
# Poissons Ratio (y) = 0.37422 0.60268
# Poissons Ratio (z) = 0.08952 0.17129
#
# Static dielectric constant tensor:
#      x y z
#    x 5.012280 0.000000 -0.432570 
#    y 0.000000 4.587050 0.000000 
#    z -0.432570 0.000000 4.909180 
# 
# 
# High freq. dielectric constant tensor:
#      x y z
#    x 2.002830 0.000000 -0.039270 
#    y 0.000000 1.975430 0.000000 
#    z -0.039270 0.000000 2.011040 
# 
# From -- ./inp_files/150245.got.cif
#   From: 2010.06.25/outbox.cif.g09.slc.cpg/sg15_76_cif.got.tgz:150245.got - 2010.06.28 07:06:18.
