data_PCOD8149227
_publ_section_title
;
Structure prediction by ZEFSAII (Michael W. Deem and Ramdas Pophale) SiO2 
 PCOD8149227
Probable space group: C 2/C
;
_chemical_formula_sum "Si O2"
_cell_formula_units_Z 44
_cell_length_a 20.552554
_cell_length_b 7.553492
_cell_length_c 13.448662
_cell_angle_alpha 90.000000
_cell_angle_beta 60.247969
_cell_angle_gamma 90.000000
_cell_volume 1812.604441
_symmetry_space_group_name_H-M "C 2/C"
_symmetry_group_IT_number 15
_symmetry_cell_setting 'monoclinic'
loop_
_space_group_symop_operation_xyz
x,y,z
-x,y,1/2-z
-x,-y,-z
x,-y,1/2+z
1/2+x,1/2+y,z
1/2-x,1/2+y,1/2-z
1/2-x,1/2-y,-z
1/2+x,1/2-y,1/2+z
loop_
_atom_site_type_symbol
_atom_site_label
_atom_site_fract_x
_atom_site_fract_y
_atom_site_fract_z
Si Si1 0.911949 0.940419 0.637019
Si Si2 0.647970 0.086189 0.253468
Si Si3 0.287210 0.212058 0.673326
Si Si4 0.104033 0.403625 0.574054
Si Si5 0.000000 0.879730 0.250000
Si Si6 0.956610 0.283844 0.511614
O O1 0.825873 0.878622 0.703152
O O2 0.954657 0.756319 0.567873
O O3 0.945732 0.001649 0.719145
O O4 0.919588 0.087682 0.543028
O O5 0.698120 0.265806 0.220851
O O6 0.634900 0.019309 0.153354
O O7 0.567029 0.121493 0.366377
O O8 0.703791 0.953312 0.262930
O O9 0.326832 0.176365 0.538325
O O10 0.068439 0.581060 0.554182
O O11 0.047427 0.242087 0.638981
#
# Coordination Sequence:
#
# PCOD8149227 Si02
#       6
#     8   8   8   8   4   8
#     4  11  24  44  67 105 136 179 223 285 331 407
#     4  11  24  46  68 102 135 188 220 282 334 412
#     4  11  26  45  71  96 144 176 229 278 342 397
#     4  11  25  43  71 103 132 183 224 282 331 412
#     4  12  26  40  74  98 142 174 230 286 336 398
#     4  10  23  44  71  96 141 171 229 272 342 388
#
# _framework density 24.274463999999998
#
# number of rings (size 3 to 8) (size 9 to 14) (size 15 to 20)
#    0.000    1.091    1.818    3.818    5.091    2.182 
#    0.000    4.545    0.000    0.000    0.000    0.000 
#    0.000    0.000    0.000    0.000    0.000    0.000 
#
# Total GULP energy -272547.607797 kJ/mol
# GULP energy per Si atom -12388.527627 kJ/mol
# Density = 2.421921 g / cm^3
# Si number density = 24.274464 Si / 1000 Ang^3
#
#
#
# Elastic Constant Matrix: (Units=GPa)
#
#
# Indices 1 2 3 4 5 6 
#
# 1 85.5614 17.2577 51.4582 0.0000 16.1046 0.0000
# 2 17.2577 103.7843 35.1484 0.0000 11.4513 0.0000
# 3 51.4582 35.1484 119.3082 0.0000 40.4574 0.0000
# 4 0.0000 0.0000 0.0000 -0.6383 0.0000 16.3171
# 5 16.1046 11.4513 40.4574 0.0000 10.4123 0.0000
# 6 0.0000 0.0000 0.0000 16.3171 0.0000 16.7145
#
#
#
# Elastic Compliance Matrix: (Units=1/GPa)
#
#
# Indices 1 2 3 4 5 6 
#
# 1 0.015660 -0.000383 -0.004500 0.000000 -0.006315 0.000000
# 2 -0.000383 0.010705 -0.002528 0.000000 -0.001358 0.000000
# 3 -0.004500 -0.002528 -0.024448 0.000000 0.104734 0.000000
# 4 0.000000 0.000000 0.000000 -0.060359 0.000000 0.058924
# 5 -0.006315 -0.001358 0.104734 0.000000 -0.299648 0.000000
# 6 0.000000 0.000000 0.000000 0.058924 0.000000 0.002305
#
#
# Mechanical properties :
#
#
# Convention : Reuss Voigt Hill
#
# Bulk Modulus (GPa) = -77.48535 57.37583 -10.05476
# Shear Modulus (GPa) = -14.48163 18.95035 2.23436
#
# Velocity S-wave (km/s) = -2.44515 2.79708 0.96045
# Velocity P-wave (km/s) = 6.32151 5.84116 1.70914
#
# Compressibility (1/GPa) = -0.01290567
#
# Stress axis : x y z
#
# Youngs Moduli (GPa) = 63.85826 93.41370 -40.90311
#
# Poissons Ratio (x) = 0.03580 -0.18406
# Poissons Ratio (y) = 0.02447 -0.10341
# Poissons Ratio (z) = 0.28735 0.23616
#
# Static dielectric constant tensor:
#      x y z
#    x 4.378240 0.000000 0.012030 
#    y 0.000000 4.713900 0.000000 
#    z 0.012030 0.000000 4.454220 
# 
# 
# High freq. dielectric constant tensor:
#      x y z
#    x 1.968200 0.000000 -0.003510 
#    y 0.000000 1.983170 0.000000 
#    z -0.003510 0.000000 1.960060 
# 
# From -- ./inp_files/109941.got.cif
#   From: 2010.06.25/outbox.cif.g09.slc.cpg/sg15_55_cif.got.tgz:109941.got - 2010.06.28 07:06:18.
