data_PCOD8149592
_publ_section_title
;
Structure prediction by ZEFSAII (Michael W. Deem and Ramdas Pophale) SiO2 
 PCOD8149592
Probable space group: C 2/C
;
_chemical_formula_sum "Si O2"
_cell_formula_units_Z 28
_cell_length_a 5.264752
_cell_length_b 8.750689
_cell_length_c 27.313597
_cell_angle_alpha 90.000000
_cell_angle_beta 78.421638
_cell_angle_gamma 90.000000
_cell_volume 1232.737204
_symmetry_space_group_name_H-M "C 2/C"
_symmetry_group_IT_number 15
_symmetry_cell_setting 'monoclinic'
loop_
_space_group_symop_operation_xyz
x,y,z
-x,y,1/2-z
-x,-y,-z
x,-y,1/2+z
1/2+x,1/2+y,z
1/2-x,1/2+y,1/2-z
1/2-x,1/2-y,-z
1/2+x,1/2-y,1/2+z
loop_
_atom_site_type_symbol
_atom_site_label
_atom_site_fract_x
_atom_site_fract_y
_atom_site_fract_z
Si Si1 0.000000 0.383599 0.250000
Si Si2 0.893613 0.904261 0.704428
Si Si3 0.305204 0.291722 0.442425
Si Si4 0.842379 0.872937 0.905509
O O1 0.828667 0.272484 0.221036
O O2 0.858319 0.492087 0.295646
O O3 0.000000 0.984593 0.750000
O O4 0.096165 0.918032 0.652570
O O5 0.250000 0.250000 0.500000
O O6 0.583257 0.227484 0.415620
O O7 0.696457 0.525185 0.561215
O O8 0.081269 0.224198 0.416988
#
# Coordination Sequence:
#
# PCOD8149592 Si02
#       4
#     4   8   8   8
#     4  10  24  38  64  86 138 164 224 264 334 384
#     4  10  26  40  66  95 135 172 224 271 335 406
#     4  12  26  47  71 103 137 179 233 289 340 404
#     4  12  26  43  74  98 139 179 228 278 353 404
#
# _framework density 22.713683
#
# number of rings (size 3 to 8) (size 9 to 14) (size 15 to 20)
#    0.857    0.000    0.000    6.000   10.000    0.000 
#    0.000    0.000    0.000    0.000    0.000    0.000 
#    0.000    0.000    0.000    0.000    0.000    0.000 
#
# Total GULP energy -173486.283685 kJ/mol
# GULP energy per Si atom -12391.877406 kJ/mol
# Density = 2.266199 g / cm^3
# Si number density = 22.713683 Si / 1000 Ang^3
#
#
#
# Elastic Constant Matrix: (Units=GPa)
#
#
# Indices 1 2 3 4 5 6 
#
# 1 122.4272 44.1616 5.4453 0.0000 -11.2918 0.0000
# 2 44.1616 126.9700 -14.4836 0.0000 -12.9693 0.0000
# 3 5.4453 -14.4836 109.4879 0.0000 -11.9234 0.0000
# 4 0.0000 0.0000 0.0000 31.6751 0.0000 -8.8669
# 5 -11.2918 -12.9693 -11.9234 0.0000 33.5025 0.0000
# 6 0.0000 0.0000 0.0000 -8.8669 0.0000 31.1489
#
#
#
# Elastic Compliance Matrix: (Units=1/GPa)
#
#
# Indices 1 2 3 4 5 6 
#
# 1 0.009518 -0.003217 -0.000713 0.000000 0.001709 0.000000
# 2 -0.003217 0.009527 0.001773 0.000000 0.003235 0.000000
# 3 -0.000713 0.001773 0.009833 0.000000 0.003945 0.000000
# 4 0.000000 0.000000 0.000000 0.034304 0.000000 0.009765
# 5 0.001709 0.003235 0.003945 0.000000 0.033081 0.000000
# 6 0.000000 0.000000 0.000000 0.009765 0.000000 0.034884
#
#
# Mechanical properties :
#
#
# Convention : Reuss Voigt Hill
#
# Bulk Modulus (GPa) = 40.71076 47.68130 44.19603
# Shear Modulus (GPa) = 34.80689 40.84944 37.82816
#
# Velocity S-wave (km/s) = 3.91886 4.24541 4.08540
# Velocity P-wave (km/s) = 6.19992 6.71337 6.46174
#
# Compressibility (1/GPa) = 0.02456353
#
# Stress axis : x y z
#
# Youngs Moduli (GPa) = 105.06476 104.95961 101.69792
#
# Poissons Ratio (x) = 0.33768 0.07250
# Poissons Ratio (y) = 0.33802 -0.18027
# Poissons Ratio (z) = 0.07490 -0.18605
#
# Static dielectric constant tensor:
#      x y z
#    x 3.881960 0.000000 -0.205030 
#    y 0.000000 4.122550 0.000000 
#    z -0.205030 0.000000 4.023860 
# 
# 
# High freq. dielectric constant tensor:
#      x y z
#    x 1.886770 0.000000 -0.009760 
#    y 0.000000 1.918420 0.000000 
#    z -0.009760 0.000000 1.901880 
# 
# From -- ./inp_files/226124.got.cif
#   From: 2010.06.25/outbox.cif.g09.slc.cpg/sg15_114_cif.got.tgz:226124.got - 2010.06.28 07:06:18.
