data_PCOD8149056
_publ_section_title
;
Structure prediction by ZEFSAII (Michael W. Deem and Ramdas Pophale) SiO2 
 PCOD8149056
Probable space group: C 2/C
;
_chemical_formula_sum "Si O2"
_cell_formula_units_Z 48
_cell_length_a 25.706998
_cell_length_b 13.821455
_cell_length_c 8.608823
_cell_angle_alpha 90.000000
_cell_angle_beta 44.596174
_cell_angle_gamma 90.000000
_cell_volume 2147.589563
_symmetry_space_group_name_H-M "C 2/C"
_symmetry_group_IT_number 15
_symmetry_cell_setting 'monoclinic'
loop_
_space_group_symop_operation_xyz
x,y,z
-x,y,1/2-z
-x,-y,-z
x,-y,1/2+z
1/2+x,1/2+y,z
1/2-x,1/2+y,1/2-z
1/2-x,1/2-y,-z
1/2+x,1/2-y,1/2+z
loop_
_atom_site_type_symbol
_atom_site_label
_atom_site_fract_x
_atom_site_fract_y
_atom_site_fract_z
Si Si1 0.824675 0.872771 0.479505
Si Si2 0.716904 0.548100 0.759116
Si Si3 0.882609 0.452176 0.985705
Si Si4 0.576372 0.127742 0.768289
Si Si5 0.214618 0.751389 0.406655
Si Si6 0.548262 0.229417 0.298411
O O1 0.789065 0.926356 0.408457
O O2 0.771364 0.788680 0.657385
O O3 0.903196 0.824254 0.264403
O O4 0.835397 0.955987 0.588094
O O5 0.799599 0.512929 0.626597
O O6 0.694122 0.638900 0.911402
O O7 0.895480 0.423138 0.134873
O O8 0.938329 0.539739 0.820635
O O9 0.896961 0.359096 0.849232
O O10 0.638807 0.194063 0.561158
O O11 0.504545 0.195803 0.947016
O O12 0.250000 0.750000 0.500000
O O13 0.500000 0.254088 0.250000
#
# Coordination Sequence:
#
# PCOD8149056 Si02
#       6
#     8   8   8   8   8   8
#     4  12  25  43  69  97 138 171 224 277 327 401
#     4  12  24  41  69 104 129 172 228 276 330 384
#     4  11  21  39  66  98 134 165 214 279 332 385
#     4  11  23  39  66 100 135 172 215 268 338 398
#     4  12  22  41  66  99 136 176 218 269 326 399
#     4  10  23  44  63  92 135 179 214 271 336 395
#
# _framework density 22.350639000000001
#
# number of rings (size 3 to 8) (size 9 to 14) (size 15 to 20)
#    0.000    0.667    5.000    4.000    0.000    0.000 
#    0.000    5.833    0.000    0.000    0.000    0.000 
#    0.000    0.000    0.000    0.000    0.000    0.000 
#
# Total GULP energy -297641.154137 kJ/mol
# GULP energy per Si atom -12401.714756 kJ/mol
# Density = 2.229977 g / cm^3
# Si number density = 22.350639 Si / 1000 Ang^3
#
#
#
# Elastic Constant Matrix: (Units=GPa)
#
#
# Indices 1 2 3 4 5 6 
#
# 1 47.7828 25.6677 39.3306 0.0000 -14.1420 0.0000
# 2 25.6677 136.8962 59.1850 0.0000 -17.4699 0.0000
# 3 39.3306 59.1850 113.5852 0.0000 -9.4989 0.0000
# 4 0.0000 0.0000 0.0000 59.7212 0.0000 4.3092
# 5 -14.1420 -17.4699 -9.4989 0.0000 20.9567 0.0000
# 6 0.0000 0.0000 0.0000 4.3092 0.0000 22.7358
#
#
#
# Elastic Compliance Matrix: (Units=1/GPa)
#
#
# Indices 1 2 3 4 5 6 
#
# 1 0.035339 0.000563 -0.010910 0.000000 0.019371 0.000000
# 2 0.000563 0.010184 -0.004947 0.000000 0.006627 0.000000
# 3 -0.010910 -0.004947 0.014758 0.000000 -0.004797 0.000000
# 4 0.000000 0.000000 0.000000 0.016977 0.000000 -0.003218
# 5 0.019371 0.006627 -0.004797 0.000000 0.064140 0.000000
# 6 0.000000 0.000000 0.000000 -0.003218 0.000000 0.044593
#
#
# Mechanical properties :
#
#
# Convention : Reuss Voigt Hill
#
# Bulk Modulus (GPa) = 33.67832 60.73677 47.20755
# Shear Modulus (GPa) = 22.07735 32.28814 27.18275
#
# Velocity S-wave (km/s) = 3.14629 3.80494 3.49118
# Velocity P-wave (km/s) = 5.31975 6.82180 6.11705
#
# Compressibility (1/GPa) = 0.02969269
#
# Stress axis : x y z
#
# Youngs Moduli (GPa) = 28.29735 98.19578 67.75858
#
# Poissons Ratio (x) = -0.05527 0.73924
# Poissons Ratio (y) = -0.01593 0.33521
# Poissons Ratio (z) = 0.30872 0.48578
#
# Static dielectric constant tensor:
#      x y z
#    x 3.815110 0.000000 0.087530 
#    y 0.000000 4.276050 0.000000 
#    z 0.087530 0.000000 4.379980 
# 
# 
# High freq. dielectric constant tensor:
#      x y z
#    x 1.863770 0.000000 0.008140 
#    y 0.000000 1.891000 0.000000 
#    z 0.008140 0.000000 1.884680 
# 
# From -- ./inp_files/54978.got.cif
#   From: 2010.06.25/outbox.cif.g09.slc.cpg/sg15_28_cif.got.tgz:54978.got - 2010.06.28 07:06:18.
