data_PCOD8149708
_publ_section_title
;
Structure prediction by ZEFSAII (Michael W. Deem and Ramdas Pophale) SiO2 
 PCOD8149708
Probable space group: C 2/C
;
_chemical_formula_sum "Si O2"
_cell_formula_units_Z 36
_cell_length_a 17.282219
_cell_length_b 7.291700
_cell_length_c 14.423776
_cell_angle_alpha 90.000000
_cell_angle_beta 119.887316
_cell_angle_gamma 90.000000
_cell_volume 1575.904554
_symmetry_space_group_name_H-M "C 2/C"
_symmetry_group_IT_number 15
_symmetry_cell_setting 'monoclinic'
loop_
_space_group_symop_operation_xyz
x,y,z
-x,y,1/2-z
-x,-y,-z
x,-y,1/2+z
1/2+x,1/2+y,z
1/2-x,1/2+y,1/2-z
1/2-x,1/2-y,-z
1/2+x,1/2-y,1/2+z
loop_
_atom_site_type_symbol
_atom_site_label
_atom_site_fract_x
_atom_site_fract_y
_atom_site_fract_z
Si Si1 0.908135 0.920966 0.475308
Si Si2 0.500000 0.988155 0.250000
Si Si3 0.842173 0.212591 0.110579
Si Si4 0.804708 0.199841 0.296236
Si Si5 0.616574 0.097377 0.160731
O O1 0.894386 0.935726 0.578049
O O2 0.909143 0.704490 0.448692
O O3 0.832171 0.034512 0.378863
O O4 0.000000 0.000000 0.500000
O O5 0.411636 0.879214 0.164821
O O6 0.533532 0.108275 0.182555
O O7 0.819208 0.136193 0.198169
O O8 0.750000 0.250000 0.000000
O O9 0.699358 0.211436 0.253603
O O10 0.855930 0.388646 0.348791
#
# Coordination Sequence:
#
# PCOD8149708 Si02
#       5
#     8   4   8   8   8
#     4  12  25  42  69 103 140 181 232 291 348 413
#     4  10  24  40  72 104 140 182 238 292 346 422
#     4  11  22  45  69  98 141 189 226 285 363 411
#     4  11  23  45  71  95 139 184 230 284 348 424
#     4  11  22  44  66  97 135 178 229 286 342 408
#
# _framework density 22.844021999999999
#
# number of rings (size 3 to 8) (size 9 to 14) (size 15 to 20)
#    0.000    0.889    4.444    4.000    0.000    5.333 
#    0.000    3.333    0.000    0.000    0.000    0.000 
#    0.000    0.000    0.000    0.000    0.000    0.000 
#
# Total GULP energy -223025.610114 kJ/mol
# GULP energy per Si atom -12390.311673 kJ/mol
# Density = 2.279203 g / cm^3
# Si number density = 22.844022 Si / 1000 Ang^3
#
#
#
# Elastic Constant Matrix: (Units=GPa)
#
#
# Indices 1 2 3 4 5 6 
#
# 1 126.6909 21.1277 11.9072 0.0000 4.6013 0.0000
# 2 21.1277 92.1372 29.2834 0.0000 -21.2920 0.0000
# 3 11.9072 29.2834 74.7122 0.0000 -2.1005 0.0000
# 4 0.0000 0.0000 0.0000 28.7230 0.0000 3.7005
# 5 4.6013 -21.2920 -2.1005 0.0000 38.3847 0.0000
# 6 0.0000 0.0000 0.0000 3.7005 0.0000 40.3461
#
#
#
# Elastic Compliance Matrix: (Units=1/GPa)
#
#
# Indices 1 2 3 4 5 6 
#
# 1 0.008409 -0.002303 -0.000503 0.000000 -0.002313 0.000000
# 2 -0.002303 0.014972 -0.005268 0.000000 0.008293 0.000000
# 3 -0.000503 -0.005268 0.015473 0.000000 -0.002015 0.000000
# 4 0.000000 0.000000 0.000000 0.035232 0.000000 -0.003231
# 5 -0.002313 0.008293 -0.002015 0.000000 0.030819 0.000000
# 6 0.000000 0.000000 0.000000 -0.003231 0.000000 0.025082
#
#
# Mechanical properties :
#
#
# Convention : Reuss Voigt Hill
#
# Bulk Modulus (GPa) = 44.04018 46.46409 45.25214
# Shear Modulus (GPa) = 32.53042 36.90555 34.71798
#
# Velocity S-wave (km/s) = 3.77772 4.02374 3.90267
# Velocity P-wave (km/s) = 6.19263 6.47852 6.33719
#
# Compressibility (1/GPa) = 0.02270654
#
# Stress axis : x y z
#
# Youngs Moduli (GPa) = 118.92724 66.79052 64.62880
#
# Poissons Ratio (x) = 0.15381 0.03248
# Poissons Ratio (y) = 0.27388 0.34047
# Poissons Ratio (z) = 0.05976 0.35186
#
# Static dielectric constant tensor:
#      x y z
#    x 4.695800 0.000000 -0.164640 
#    y 0.000000 4.189480 0.000000 
#    z -0.164640 0.000000 3.997980 
# 
# 
# High freq. dielectric constant tensor:
#      x y z
#    x 1.930670 0.000000 0.005740 
#    y 0.000000 1.878060 0.000000 
#    z 0.005740 0.000000 1.900160 
# 
# From -- ./inp_files/158920.got.cif
#   From: 2010.06.25/outbox.cif.g09.slc.cpg/sg15_80_cif.got.tgz:158920.got - 2010.06.28 07:06:18.
