data_PCOD8149935
_publ_section_title
;
Structure prediction by ZEFSAII (Michael W. Deem and Ramdas Pophale) SiO2 
 PCOD8149935
Probable space group: C 2/C
;
_chemical_formula_sum "Si O2"
_cell_formula_units_Z 52
_cell_length_a 25.189306
_cell_length_b 5.182188
_cell_length_c 17.968238
_cell_angle_alpha 90.000000
_cell_angle_beta 117.243748
_cell_angle_gamma 90.000000
_cell_volume 2085.304098
_symmetry_space_group_name_H-M "C 2/C"
_symmetry_group_IT_number 15
_symmetry_cell_setting 'monoclinic'
loop_
_space_group_symop_operation_xyz
x,y,z
-x,y,1/2-z
-x,-y,-z
x,-y,1/2+z
1/2+x,1/2+y,z
1/2-x,1/2+y,1/2-z
1/2-x,1/2-y,-z
1/2+x,1/2-y,1/2+z
loop_
_atom_site_type_symbol
_atom_site_label
_atom_site_fract_x
_atom_site_fract_y
_atom_site_fract_z
Si Si1 0.095313 0.182782 0.906083
Si Si2 0.395637 0.857987 0.857668
Si Si3 0.231423 0.544912 0.693918
Si Si4 0.893002 0.432362 0.204606
Si Si5 0.792329 0.113947 0.088114
Si Si6 0.500000 0.593815 0.250000
Si Si7 0.561050 0.349788 0.549131
O O1 0.096797 0.467976 0.872592
O O2 0.156401 0.042516 0.922132
O O3 0.033293 0.064571 0.835870
O O4 0.093117 0.204774 0.992120
O O5 0.338238 0.986886 0.858141
O O6 0.399192 0.559508 0.881664
O O7 0.392390 0.841916 0.765770
O O8 0.446546 0.069362 0.915038
O O9 0.238965 0.824458 0.735871
O O10 0.255262 0.557325 0.623461
O O11 0.827137 0.311694 0.164319
O O12 0.948603 0.249473 0.260563
O O13 0.750000 0.250000 0.000000
O O14 0.500000 0.500000 0.500000
#
# Coordination Sequence:
#
# PCOD8149935 Si02
#       7
#     8   8   8   8   8   4   8
#     4  11  26  46  73 107 143 194 247 301 374 443
#     4  12  27  48  74 106 149 195 248 303 372 441
#     4  12  25  47  74 106 144 193 246 302 365 438
#     4  11  25  45  74 106 144 195 247 302 371 445
#     4  11  26  46  71 105 146 191 246 307 366 441
#     4  10  24  42  76 102 144 184 252 296 370 438
#     4  12  29  48  76 109 152 191 245 309 377 440
#
# _framework density 24.936411
#
# number of rings (size 3 to 8) (size 9 to 14) (size 15 to 20)
#    0.000    0.615    1.538    4.615   15.077    0.615 
#    0.000    0.000    0.000    0.000    0.000    0.000 
#    0.000    0.000    0.000    0.000    0.000    0.000 
#
# Total GULP energy -322262.945228 kJ/mol
# GULP energy per Si atom -12394.728663 kJ/mol
# Density = 2.487965 g / cm^3
# Si number density = 24.936411 Si / 1000 Ang^3
#
#
#
# Elastic Constant Matrix: (Units=GPa)
#
#
# Indices 1 2 3 4 5 6 
#
# 1 73.4497 -20.8150 17.8195 -0.0004 4.0490 0.0004
# 2 -20.8150 56.6345 -3.4132 0.0034 -6.7866 -0.0033
# 3 17.8195 -3.4132 80.0456 -0.0004 -11.8612 0.0000
# 4 -0.0004 0.0034 -0.0004 41.4657 0.0000 -2.4985
# 5 4.0490 -6.7866 -11.8612 0.0000 57.9926 -0.0001
# 6 0.0004 -0.0033 0.0000 -2.4985 -0.0001 25.0351
#
#
#
# Elastic Compliance Matrix: (Units=1/GPa)
#
#
# Indices 1 2 3 4 5 6 
#
# 1 0.016114 0.005567 -0.003527 0.000000 -0.001195 0.000000
# 2 0.005567 0.019927 -0.000105 -0.000001 0.001922 0.000002
# 3 -0.003527 -0.000105 0.013724 0.000000 0.003041 0.000000
# 4 0.000000 -0.000001 0.000000 0.024262 0.000000 0.002421
# 5 -0.001195 0.001922 0.003041 0.000000 0.018174 0.000000
# 6 0.000000 0.000002 0.000000 0.002421 0.000000 0.040186
#
#
# Mechanical properties :
#
#
# Convention : Reuss Voigt Hill
#
# Bulk Modulus (GPa) = 18.64458 21.92359 20.28409
# Shear Modulus (GPa) = 34.15417 39.33458 36.74437
#
# Velocity S-wave (km/s) = 3.70489 3.97595 3.84281
# Velocity P-wave (km/s) = 5.07885 5.46704 5.27651
#
# Compressibility (1/GPa) = 0.05363488
#
# Stress axis : x y z
#
# Youngs Moduli (GPa) = 62.05855 50.18320 72.86411
#
# Poissons Ratio (x) = -0.27935 0.25699
# Poissons Ratio (y) = -0.34545 0.00763
# Poissons Ratio (z) = 0.21887 0.00526
#
# Static dielectric constant tensor:
#      x y z
#    x 4.701190 0.000000 0.131240 
#    y 0.000000 5.162300 -0.000010 
#    z 0.131240 -0.000010 4.685400 
# 
# 
# High freq. dielectric constant tensor:
#      x y z
#    x 2.008070 0.000000 0.002490 
#    y 0.000000 1.991940 0.000000 
#    z 0.002490 0.000000 2.001760 
# 
# From -- ./inp_files/221340.got.cif
#   From: 2010.06.25/outbox.cif.g09.slc.cpg/sg15_111_cif.got.tgz:221340.got - 2010.06.28 07:06:18.
