data_PCOD8149128
_publ_section_title
;
Structure prediction by ZEFSAII (Michael W. Deem and Ramdas Pophale) SiO2 
 PCOD8149128
Probable space group: C 2/C
;
_chemical_formula_sum "Si O2"
_cell_formula_units_Z 60
_cell_length_a 17.975814
_cell_length_b 8.108021
_cell_length_c 19.003882
_cell_angle_alpha 90.000000
_cell_angle_beta 104.978321
_cell_angle_gamma 90.000000
_cell_volume 2675.676048
_symmetry_space_group_name_H-M "C 2/C"
_symmetry_group_IT_number 15
_symmetry_cell_setting 'monoclinic'
loop_
_space_group_symop_operation_xyz
x,y,z
-x,y,1/2-z
-x,-y,-z
x,-y,1/2+z
1/2+x,1/2+y,z
1/2-x,1/2+y,1/2-z
1/2-x,1/2-y,-z
1/2+x,1/2-y,1/2+z
loop_
_atom_site_type_symbol
_atom_site_label
_atom_site_fract_x
_atom_site_fract_y
_atom_site_fract_z
Si Si1 0.000000 0.686049 0.750000
Si Si2 0.969263 0.863977 0.096150
Si Si3 0.372197 0.565934 0.178609
Si Si4 0.130828 0.999425 0.161258
Si Si5 0.768394 0.218252 0.903891
Si Si6 0.836487 0.455782 0.023919
Si Si7 0.495428 0.990472 0.384730
Si Si8 0.387656 0.767893 0.447662
O O1 0.064568 0.792878 0.803407
O O2 0.962976 0.575314 0.802349
O O3 0.006937 0.687093 0.121614
O O4 0.040503 0.989017 0.119441
O O5 0.903370 0.918321 0.136235
O O6 0.932930 0.861798 0.008992
O O7 0.356438 0.501074 0.252851
O O8 0.292991 0.640679 0.130438
O O9 0.184594 0.848391 0.151069
O O10 0.153993 0.169557 0.126067
O O11 0.830656 0.300593 0.970228
O O12 0.729832 0.060984 0.933231
O O13 0.826878 0.631571 0.981542
O O14 0.917227 0.435529 0.082523
O O15 0.443585 0.914684 0.434184
#
# Coordination Sequence:
#
# PCOD8149128 Si02
#       8
#     4   8   8   8   8   8   8   8
#     4  12  22  42  72  94 140 178 224 290 348 400
#     4  11  24  43  75 104 131 180 239 285 342 417
#     4  12  25  48  66 102 141 187 231 289 345 424
#     4  12  25  44  69 101 138 182 231 281 354 415
#     4  11  26  45  66  94 144 183 222 287 352 417
#     4  10  23  44  67  96 135 178 228 279 357 409
#     4  11  22  43  71 104 138 173 233 294 347 405
#     4  11  23  42  73 105 133 175 235 298 338 409
#
# _framework density 22.424237000000002
#
# number of rings (size 3 to 8) (size 9 to 14) (size 15 to 20)
#    0.000    0.800    4.000    3.600    5.600    1.600 
#    9.600    0.000    0.000    0.000    0.000    0.000 
#    0.000    0.000    0.000    0.000    0.000    0.000 
#
# Total GULP energy -371968.325476 kJ/mol
# GULP energy per Si atom -12398.944183 kJ/mol
# Density = 2.237320 g / cm^3
# Si number density = 22.424237 Si / 1000 Ang^3
#
#
#
# Elastic Constant Matrix: (Units=GPa)
#
#
# Indices 1 2 3 4 5 6 
#
# 1 63.3133 28.6077 23.4221 0.0000 -13.4465 0.0000
# 2 28.6077 75.5828 41.5333 0.0000 -10.9108 0.0000
# 3 23.4221 41.5333 126.8365 0.0000 -28.0824 0.0000
# 4 0.0000 0.0000 0.0000 39.3246 0.0000 -10.1553
# 5 -13.4465 -10.9108 -28.0824 0.0000 28.2839 0.0000
# 6 0.0000 0.0000 0.0000 -10.1553 0.0000 31.2766
#
#
#
# Elastic Compliance Matrix: (Units=1/GPa)
#
#
# Indices 1 2 3 4 5 6 
#
# 1 0.020311 -0.006665 0.000001 0.000000 0.007085 0.000000
# 2 -0.006665 0.018356 -0.005016 0.000000 -0.001068 0.000000
# 3 0.000001 -0.005016 0.011662 0.000000 0.009644 0.000000
# 4 0.000000 0.000000 0.000000 0.027757 0.000000 0.009012
# 5 0.007085 -0.001068 0.009644 0.000000 0.047887 0.000000
# 6 0.000000 0.000000 0.000000 0.009012 0.000000 0.034899
#
#
# Mechanical properties :
#
#
# Convention : Reuss Voigt Hill
#
# Bulk Modulus (GPa) = 37.08306 50.31764 43.70035
# Shear Modulus (GPa) = 25.87701 31.25497 28.56599
#
# Velocity S-wave (km/s) = 3.40071 3.73742 3.57303
# Velocity P-wave (km/s) = 5.65621 6.41187 6.04586
#
# Compressibility (1/GPa) = 0.02696649
#
# Stress axis : x y z
#
# Youngs Moduli (GPa) = 49.23543 54.47954 85.74894
#
# Poissons Ratio (x) = 0.36311 -0.00005
# Poissons Ratio (y) = 0.32815 0.43015
# Poissons Ratio (z) = -0.00003 0.27329
#
# Static dielectric constant tensor:
#      x y z
#    x 3.904950 0.000000 -0.140040 
#    y 0.000000 4.025770 0.000000 
#    z -0.140040 0.000000 4.113480 
# 
# 
# High freq. dielectric constant tensor:
#      x y z
#    x 1.869310 0.000000 -0.012030 
#    y 0.000000 1.884270 0.000000 
#    z -0.012030 0.000000 1.895900 
# 
# From -- ./inp_files/209579.got.cif
#   From: 2010.06.25/outbox.cif.g09.slc.cpg/sg15_105_cif.got.tgz:209579.got - 2010.06.28 07:06:18.
