data_PCOD8149087
_publ_section_title
;
Structure prediction by ZEFSAII (Michael W. Deem and Ramdas Pophale) SiO2 
 PCOD8149087
Probable space group: C 2/C
;
_chemical_formula_sum "Si O2"
_cell_formula_units_Z 56
_cell_length_a 17.129311
_cell_length_b 13.758315
_cell_length_c 14.130710
_cell_angle_alpha 90.000000
_cell_angle_beta 128.147630
_cell_angle_gamma 90.000000
_cell_volume 2618.934730
_symmetry_space_group_name_H-M "C 2/C"
_symmetry_group_IT_number 15
_symmetry_cell_setting 'monoclinic'
loop_
_space_group_symop_operation_xyz
x,y,z
-x,y,1/2-z
-x,-y,-z
x,-y,1/2+z
1/2+x,1/2+y,z
1/2-x,1/2+y,1/2-z
1/2-x,1/2-y,-z
1/2+x,1/2-y,1/2+z
loop_
_atom_site_type_symbol
_atom_site_label
_atom_site_fract_x
_atom_site_fract_y
_atom_site_fract_z
Si Si1 0.678861 0.535457 0.760188
Si Si2 0.674563 0.995434 0.794915
Si Si3 0.213857 0.703029 0.876295
Si Si4 0.998168 0.358963 0.643663
Si Si5 0.913466 0.194923 0.921226
Si Si6 0.943045 0.150876 0.299457
Si Si7 0.223986 0.362529 0.995427
O O1 0.775716 0.523496 0.767158
O O2 0.591937 0.600213 0.648798
O O3 0.639142 0.427747 0.739139
O O4 0.700725 0.584582 0.877541
O O5 0.682998 0.090561 0.868008
O O6 0.561525 0.959737 0.690763
O O7 0.730366 0.910367 0.895633
O O8 0.301297 0.720229 0.866482
O O9 0.113350 0.749288 0.762148
O O10 0.250000 0.750000 0.000000
O O11 0.042076 0.285982 0.600190
O O12 0.000000 0.311273 0.750000
O O13 0.883201 0.379290 0.535442
O O14 0.979579 0.167834 0.059639
O O15 0.000000 0.113938 0.250000
O O16 0.250000 0.250000 0.000000
#
# Coordination Sequence:
#
# PCOD8149087 Si02
#       7
#     8   8   8   8   8   8   8
#     4  11  25  43  69 101 136 179 229 286 342 414
#     4  10  24  44  69  99 138 178 231 286 343 411
#     4  11  23  46  69 100 141 178 224 283 345 416
#     4  10  23  44  66 102 134 180 237 283 351 410
#     4  11  25  44  70 101 136 178 232 284 345 416
#     4  12  26  43  68 101 135 182 224 279 351 410
#     4  11  25  44  73  99 138 184 230 290 354 407
#
# _framework density 21.382739000000001
#
# number of rings (size 3 to 8) (size 9 to 14) (size 15 to 20)
#    0.000    1.143    1.429    3.857    8.000    4.000 
#    2.571    0.000    0.000    0.000    0.000    0.000 
#    0.000    0.000    0.000    0.000    0.000    0.000 
#
# Total GULP energy -347207.713976 kJ/mol
# GULP energy per Si atom -12400.275499 kJ/mol
# Density = 2.133407 g / cm^3
# Si number density = 21.382739 Si / 1000 Ang^3
#
#
#
# Elastic Constant Matrix: (Units=GPa)
#
#
# Indices 1 2 3 4 5 6 
#
# 1 74.8453 22.6357 21.2550 0.0000 2.4421 0.0000
# 2 22.6357 103.8804 19.3838 0.0000 2.8640 0.0000
# 3 21.2550 19.3838 105.9835 0.0000 7.6897 0.0000
# 4 0.0000 0.0000 0.0000 -81.2788 0.0000 63.9706
# 5 2.4421 2.8640 7.6897 0.0000 32.3160 0.0000
# 6 0.0000 0.0000 0.0000 63.9706 0.0000 -12.1280
#
#
#
# Elastic Compliance Matrix: (Units=1/GPa)
#
#
# Indices 1 2 3 4 5 6 
#
# 1 0.014910 -0.002782 -0.002460 0.000000 -0.000295 0.000000
# 2 -0.002782 0.010492 -0.001332 0.000000 -0.000403 0.000000
# 3 -0.002460 -0.001332 0.010329 0.000000 -0.002154 0.000000
# 4 0.000000 0.000000 0.000000 0.003904 0.000000 0.020593
# 5 -0.000295 -0.000403 -0.002154 0.000000 0.031515 0.000000
# 6 0.000000 0.000000 0.000000 0.020593 0.000000 0.026164
#
#
# Mechanical properties :
#
#
# Convention : Reuss Voigt Hill
#
# Bulk Modulus (GPa) = 44.27960 45.69535 44.98748
# Shear Modulus (GPa) = 42.37647 2.54416 22.46031
#
# Velocity S-wave (km/s) = 4.45658 1.09197 3.24450
# Velocity P-wave (km/s) = 6.87274 4.79651 5.92625
#
# Compressibility (1/GPa) = 0.02258376
#
# Stress axis : x y z
#
# Youngs Moduli (GPa) = 67.06697 95.30854 96.81793
#
# Poissons Ratio (x) = 0.26513 0.23818
# Poissons Ratio (y) = 0.18657 0.12895
# Poissons Ratio (z) = 0.16499 0.12694
#
# Static dielectric constant tensor:
#      x y z
#    x 3.906990 0.000000 0.047370 
#    y 0.000000 4.352590 0.000000 
#    z 0.047370 0.000000 4.031330 
# 
# 
# High freq. dielectric constant tensor:
#      x y z
#    x 1.840960 0.000000 -0.000840 
#    y 0.000000 1.845600 0.000000 
#    z -0.000840 0.000000 1.849690 
# 
# From -- ./inp_files/162311.got.cif
#   From: 2010.06.25/outbox.cif.g09.slc.cpg/sg15_82_cif.got.tgz:162311.got - 2010.06.28 07:06:18.
