data_PCOD8149397
_publ_section_title
;
Structure prediction by ZEFSAII (Michael W. Deem and Ramdas Pophale) SiO2 
 PCOD8149397
Probable space group: C 2/C
;
_chemical_formula_sum "Si O2"
_cell_formula_units_Z 56
_cell_length_a 16.372050
_cell_length_b 17.530942
_cell_length_c 9.336671
_cell_angle_alpha 90.000000
_cell_angle_beta 75.736111
_cell_angle_gamma 90.000000
_cell_volume 2597.172981
_symmetry_space_group_name_H-M "C 2/C"
_symmetry_group_IT_number 15
_symmetry_cell_setting 'monoclinic'
loop_
_space_group_symop_operation_xyz
x,y,z
-x,y,1/2-z
-x,-y,-z
x,-y,1/2+z
1/2+x,1/2+y,z
1/2-x,1/2+y,1/2-z
1/2-x,1/2-y,-z
1/2+x,1/2-y,1/2+z
loop_
_atom_site_type_symbol
_atom_site_label
_atom_site_fract_x
_atom_site_fract_y
_atom_site_fract_z
Si Si1 0.730251 0.800295 0.723726
Si Si2 0.147070 0.072708 0.637024
Si Si3 0.136295 0.920620 0.814433
Si Si4 0.500000 0.310743 0.250000
Si Si5 0.012255 0.421731 0.412258
Si Si6 0.073134 0.275701 0.969912
Si Si7 0.183317 0.657880 0.934177
Si Si8 0.500000 0.317016 0.750000
O O1 0.779232 0.874035 0.763126
O O2 0.668069 0.766313 0.870430
O O3 0.801120 0.737976 0.652963
O O4 0.675711 0.824270 0.607172
O O5 0.137919 0.052557 0.476013
O O6 0.240267 0.100979 0.632586
O O7 0.083664 0.138747 0.711916
O O8 0.126930 0.995242 0.724970
O O9 0.054261 0.869069 0.831309
O O10 0.495685 0.257531 0.111511
O O11 0.101513 0.382331 0.406076
O O12 0.000000 0.437374 0.250000
O O13 0.000000 0.500000 0.500000
O O14 0.940643 0.365424 0.501573
O O15 0.062635 0.234165 0.126942
#
# Coordination Sequence:
#
# PCOD8149397 Si02
#       8
#     8   8   8   4   8   8   8   4
#     4  10  23  45  77 104 138 190 238 299 356 424
#     4  11  25  43  69 104 145 186 235 296 352 436
#     4  11  26  43  67 101 147 184 230 294 360 423
#     4  12  23  44  77 104 134 196 242 280 367 426
#     4  12  30  48  72 104 149 191 243 300 360 430
#     4  12  25  46  73 105 135 189 238 299 353 427
#     4  10  23  47  73 108 140 185 250 294 350 428
#     4  12  25  46  67 104 144 182 236 302 357 430
#
# _framework density 21.561906
#
# number of rings (size 3 to 8) (size 9 to 14) (size 15 to 20)
#    0.000    0.857    3.571    2.143    9.000    2.857 
#    0.000    0.000    0.000    0.000    0.000    0.000 
#    0.000    0.000    0.000    0.000    0.000    0.000 
#
# Total GULP energy -347355.905643 kJ/mol
# GULP energy per Si atom -12405.568059 kJ/mol
# Density = 2.151283 g / cm^3
# Si number density = 21.561906 Si / 1000 Ang^3
#
#
#
# Elastic Constant Matrix: (Units=GPa)
#
#
# Indices 1 2 3 4 5 6 
#
# 1 69.1355 17.1499 33.1652 0.0000 10.0469 0.0000
# 2 17.1499 130.7325 52.6194 0.0000 12.9175 0.0000
# 3 33.1652 52.6194 113.5611 0.0000 -0.7893 0.0000
# 4 0.0000 0.0000 0.0000 36.2019 0.0000 6.9502
# 5 10.0469 12.9175 -0.7893 0.0000 31.7977 0.0000
# 6 0.0000 0.0000 0.0000 6.9502 0.0000 33.3127
#
#
#
# Elastic Compliance Matrix: (Units=1/GPa)
#
#
# Indices 1 2 3 4 5 6 
#
# 1 0.017837 0.000444 -0.005456 0.000000 -0.005952 0.000000
# 2 0.000444 0.009932 -0.004762 0.000000 -0.004293 0.000000
# 3 -0.005456 -0.004762 0.012633 0.000000 0.003972 0.000000
# 4 0.000000 0.000000 0.000000 0.028775 0.000000 -0.006004
# 5 -0.005952 -0.004293 0.003972 0.000000 0.035172 0.000000
# 6 0.000000 0.000000 0.000000 -0.006004 0.000000 0.031271
#
#
# Mechanical properties :
#
#
# Convention : Reuss Voigt Hill
#
# Bulk Modulus (GPa) = 47.95159 57.69980 52.82570
# Shear Modulus (GPa) = 30.84166 34.29543 32.56855
#
# Velocity S-wave (km/s) = 3.78614 3.99250 3.89069
# Velocity P-wave (km/s) = 6.43432 6.93337 6.68850
#
# Compressibility (1/GPa) = 0.02085437
#
# Stress axis : x y z
#
# Youngs Moduli (GPa) = 56.06478 100.68861 79.15627
#
# Poissons Ratio (x) = -0.04475 0.43191
# Poissons Ratio (y) = -0.02492 0.37690
# Poissons Ratio (z) = 0.30591 0.47943
#
# Static dielectric constant tensor:
#      x y z
#    x 3.869830 0.000000 0.001200 
#    y 0.000000 4.023440 0.000000 
#    z 0.001200 0.000000 3.996780 
# 
# 
# High freq. dielectric constant tensor:
#      x y z
#    x 1.850430 0.000000 0.000900 
#    y 0.000000 1.857650 0.000000 
#    z 0.000900 0.000000 1.850680 
# 
# From -- ./inp_files/49051.got.cif
#   From: 2010.06.25/outbox.cif.g09.slc.cpg/sg15_25_cif.got.tgz:49051.got - 2010.06.28 07:06:18.
