data_PCOD8149840
_publ_section_title
;
Structure prediction by ZEFSAII (Michael W. Deem and Ramdas Pophale) SiO2 
 PCOD8149840
Probable space group: C 2/C
;
_chemical_formula_sum "Si O2"
_cell_formula_units_Z 36
_cell_length_a 11.233632
_cell_length_b 5.144427
_cell_length_c 21.522677
_cell_angle_alpha 90.000000
_cell_angle_beta 101.756676
_cell_angle_gamma 90.000000
_cell_volume 1217.715474
_symmetry_space_group_name_H-M "C 2/C"
_symmetry_group_IT_number 15
_symmetry_cell_setting 'monoclinic'
loop_
_space_group_symop_operation_xyz
x,y,z
-x,y,1/2-z
-x,-y,-z
x,-y,1/2+z
1/2+x,1/2+y,z
1/2-x,1/2+y,1/2-z
1/2-x,1/2-y,-z
1/2+x,1/2-y,1/2+z
loop_
_atom_site_type_symbol
_atom_site_label
_atom_site_fract_x
_atom_site_fract_y
_atom_site_fract_z
Si Si1 0.000000 0.101077 0.750000
Si Si2 0.790935 0.844478 0.786696
Si Si3 0.621980 0.680194 0.451257
Si Si4 0.621772 0.439262 0.085420
Si Si5 0.406296 0.191655 0.121387
O O1 0.065850 0.914951 0.707490
O O2 0.095431 0.280002 0.801179
O O3 0.721637 0.043134 0.732878
O O4 0.775384 0.913441 0.859571
O O5 0.475269 0.657692 0.447568
O O6 0.680365 0.692458 0.528425
O O7 0.668844 0.427351 0.418471
O O8 0.648067 0.924718 0.409962
O O9 0.550123 0.217026 0.117246
#
# Coordination Sequence:
#
# PCOD8149840 Si02
#       5
#     4   8   8   8   8
#     4  10  24  42  66  88 136 168 202 266 312 376
#     4  11  26  41  64  96 126 167 213 255 316 381
#     4   9  17  30  57  89 112 156 214 243 303 375
#     4   8  19  32  58  84 121 155 207 253 302 366
#     4   9  18  30  54  88 109 159 202 241 307 364
#
# _framework density 29.563555999999998
#
# number of rings (size 3 to 8) (size 9 to 14) (size 15 to 20)
#    1.333    1.333    0.000    0.667    6.222    3.556 
#    0.000    0.000    0.000    8.000    0.000    0.000 
#    0.000    0.000    0.000    0.000    0.000    0.000 
#
# Total GULP energy -223220.412641 kJ/mol
# GULP energy per Si atom -12401.134036 kJ/mol
# Density = 2.949627 g / cm^3
# Si number density = 29.563556 Si / 1000 Ang^3
#
#
#
# Elastic Constant Matrix: (Units=GPa)
#
#
# Indices 1 2 3 4 5 6 
#
# 1 71.0416 9.4742 35.4063 0.0000 -12.5821 0.0000
# 2 9.4742 141.1680 34.4841 0.0000 -10.4145 0.0000
# 3 35.4063 34.4841 188.2249 0.0000 -16.1628 0.0000
# 4 0.0000 0.0000 0.0000 46.0311 0.0000 -2.7892
# 5 -12.5821 -10.4145 -16.1628 0.0000 65.7055 0.0000
# 6 0.0000 0.0000 0.0000 -2.7892 0.0000 24.5668
#
#
#
# Elastic Compliance Matrix: (Units=1/GPa)
#
#
# Indices 1 2 3 4 5 6 
#
# 1 0.015888 -0.000223 -0.002748 0.000000 0.002331 0.000000
# 2 -0.000223 0.007467 -0.001254 0.000000 0.000832 0.000000
# 3 -0.002748 -0.001254 0.006127 0.000000 0.000782 0.000000
# 4 0.000000 0.000000 0.000000 0.021875 0.000000 0.002484
# 5 0.002331 0.000832 0.000782 0.000000 0.015990 0.000000
# 6 0.000000 0.000000 0.000000 0.002484 0.000000 0.040987
#
#
# Mechanical properties :
#
#
# Convention : Reuss Voigt Hill
#
# Bulk Modulus (GPa) = 47.54894 62.12929 54.83912
# Shear Modulus (GPa) = 40.38948 48.66535 44.52741
#
# Velocity S-wave (km/s) = 3.70021 4.06165 3.88514
# Velocity P-wave (km/s) = 5.86293 6.56179 6.22218
#
# Compressibility (1/GPa) = 0.02103096
#
# Stress axis : x y z
#
# Youngs Moduli (GPa) = 62.93943 133.93036 163.22193
#
# Poissons Ratio (x) = 0.02989 0.44847
# Poissons Ratio (y) = 0.01404 0.20476
# Poissons Ratio (z) = 0.17293 0.16801
#
# Static dielectric constant tensor:
#      x y z
#    x 5.993710 0.000000 -0.066160 
#    y 0.000000 4.604580 0.000000 
#    z -0.066160 0.000000 5.415820 
# 
# 
# High freq. dielectric constant tensor:
#      x y z
#    x 2.285520 0.000000 -0.002770 
#    y 0.000000 2.162210 0.000000 
#    z -0.002770 0.000000 2.228440 
# 
# From -- ./inp_files/275520.got.cif
#   From: 2010.06.25/outbox.cif.g09.slc.cpg/sg15_138_cif.got.tgz:275520.got - 2010.06.28 07:06:18.
