data_PCOD8149606
_publ_section_title
;
Structure prediction by ZEFSAII (Michael W. Deem and Ramdas Pophale) SiO2 
 PCOD8149606
Probable space group: C 2/C
;
_chemical_formula_sum "Si O2"
_cell_formula_units_Z 60
_cell_length_a 19.940717
_cell_length_b 22.534812
_cell_length_c 8.438178
_cell_angle_alpha 90.000000
_cell_angle_beta 132.690170
_cell_angle_gamma 90.000000
_cell_volume 2787.077262
_symmetry_space_group_name_H-M "C 2/C"
_symmetry_group_IT_number 15
_symmetry_cell_setting 'monoclinic'
loop_
_space_group_symop_operation_xyz
x,y,z
-x,y,1/2-z
-x,-y,-z
x,-y,1/2+z
1/2+x,1/2+y,z
1/2-x,1/2+y,1/2-z
1/2-x,1/2-y,-z
1/2+x,1/2-y,1/2+z
loop_
_atom_site_type_symbol
_atom_site_label
_atom_site_fract_x
_atom_site_fract_y
_atom_site_fract_z
Si Si1 0.676812 0.975055 0.024838
Si Si2 0.379362 0.442938 0.327563
Si Si3 0.000000 0.021007 0.750000
Si Si4 0.894665 0.829299 0.544334
Si Si5 0.746271 0.683139 0.436595
Si Si6 0.056074 0.379353 0.682024
Si Si7 0.380366 0.083460 0.741816
Si Si8 0.187028 0.280018 0.767832
O O1 0.626541 0.932217 0.821007
O O2 0.635979 0.041561 0.937610
O O3 0.783274 0.975947 0.150572
O O4 0.660646 0.953079 0.176493
O O5 0.438864 0.478861 0.546190
O O6 0.433119 0.438154 0.247411
O O7 0.362512 0.376970 0.363615
O O8 0.846025 0.843710 0.635362
O O9 0.866777 0.766479 0.427128
O O10 0.000000 0.831898 0.750000
O O11 0.750000 0.750000 0.500000
O O12 0.830919 0.646299 0.642082
O O13 0.748299 0.681498 0.247664
O O14 0.110524 0.320512 0.724183
O O15 0.000000 0.363933 0.750000
O O16 0.986955 0.401020 0.434012
O O17 0.250000 0.250000 0.000000
#
# Coordination Sequence:
#
# PCOD8149606 Si02
#       8
#     8   8   4   8   8   8   8   8
#     4  11  23  42  69 100 139 186 231 289 351 426
#     4  11  21  44  64  96 139 177 237 287 358 408
#     4  10  24  38  66  96 134 184 224 294 350 428
#     4  11  24  45  69  98 136 179 235 289 349 428
#     4  10  25  45  72  96 139 185 233 286 363 422
#     4  10  25  44  70 100 146 180 229 295 352 421
#     4  11  24  44  71 104 140 188 232 290 356 428
#     4  11  26  46  72 102 135 181 237 290 352 427
#
# _framework density 21.527929
#
# number of rings (size 3 to 8) (size 9 to 14) (size 15 to 20)
#    0.000    1.333    2.000    2.000   11.200    0.000 
#    8.400    0.000    0.000    0.000    0.000    0.000 
#    0.000    0.000    0.000    0.000    0.000    0.000 
#
# Total GULP energy -372043.047645 kJ/mol
# GULP energy per Si atom -12401.434921 kJ/mol
# Density = 2.147893 g / cm^3
# Si number density = 21.527929 Si / 1000 Ang^3
#
#
#
# Elastic Constant Matrix: (Units=GPa)
#
#
# Indices 1 2 3 4 5 6 
#
# 1 130.6131 31.4570 47.6133 0.0000 -0.3211 0.0000
# 2 31.4570 102.5904 30.1746 0.0000 -3.4562 0.0000
# 3 47.6133 30.1746 111.3284 0.0000 11.1889 0.0000
# 4 0.0000 0.0000 0.0000 46.4615 0.0000 4.9898
# 5 -0.3211 -3.4562 11.1889 0.0000 37.8231 0.0000
# 6 0.0000 0.0000 0.0000 4.9898 0.0000 77.6600
#
#
#
# Elastic Compliance Matrix: (Units=1/GPa)
#
#
# Indices 1 2 3 4 5 6 
#
# 1 0.009416 -0.001782 -0.003644 0.000000 0.000995 0.000000
# 2 -0.001782 0.011059 -0.002407 0.000000 0.001708 0.000000
# 3 -0.003644 -0.002407 0.011562 0.000000 -0.003671 0.000000
# 4 0.000000 0.000000 0.000000 0.021673 0.000000 -0.001393
# 5 0.000995 0.001708 -0.003671 0.000000 0.027689 0.000000
# 6 0.000000 0.000000 0.000000 -0.001393 0.000000 0.012966
#
#
# Mechanical properties :
#
#
# Convention : Reuss Voigt Hill
#
# Bulk Modulus (GPa) = 61.08115 62.55797 61.81956
# Shear Modulus (GPa) = 43.29384 48.07474 45.68429
#
# Velocity S-wave (km/s) = 4.48934 4.73073 4.61162
# Velocity P-wave (km/s) = 7.43686 7.67866 7.55873
#
# Compressibility (1/GPa) = 0.01637166
#
# Stress axis : x y z
#
# Youngs Moduli (GPa) = 106.19936 90.42091 86.48721
#
# Poissons Ratio (x) = 0.16112 0.31518
# Poissons Ratio (y) = 0.18924 0.20818
# Poissons Ratio (z) = 0.38701 0.21765
#
# Static dielectric constant tensor:
#      x y z
#    x 4.396750 0.000000 -0.050920 
#    y 0.000000 3.962560 0.000000 
#    z -0.050920 0.000000 3.966720 
# 
# 
# High freq. dielectric constant tensor:
#      x y z
#    x 1.861670 0.000000 0.000150 
#    y 0.000000 1.847400 0.000000 
#    z 0.000150 0.000000 1.846040 
# 
# From -- ./inp_files/58109.got.cif
#   From: 2010.06.25/outbox.cif.g09.slc.cpg/sg15_30_cif.got.tgz:58109.got - 2010.06.28 07:06:18.
