data_PCOD8149370
_publ_section_title
;
Structure prediction by ZEFSAII (Michael W. Deem and Ramdas Pophale) SiO2 
 PCOD8149370
Probable space group: C 2/C
;
_chemical_formula_sum "Si O2"
_cell_formula_units_Z 48
_cell_length_a 12.661611
_cell_length_b 13.447122
_cell_length_c 13.720090
_cell_angle_alpha 90.000000
_cell_angle_beta 112.176590
_cell_angle_gamma 90.000000
_cell_volume 2163.206256
_symmetry_space_group_name_H-M "C 2/C"
_symmetry_group_IT_number 15
_symmetry_cell_setting 'monoclinic'
loop_
_space_group_symop_operation_xyz
x,y,z
-x,y,1/2-z
-x,-y,-z
x,-y,1/2+z
1/2+x,1/2+y,z
1/2-x,1/2+y,1/2-z
1/2-x,1/2-y,-z
1/2+x,1/2-y,1/2+z
loop_
_atom_site_type_symbol
_atom_site_label
_atom_site_fract_x
_atom_site_fract_y
_atom_site_fract_z
Si Si1 0.026669 0.296876 0.034822
Si Si2 0.200209 0.452454 0.017326
Si Si3 0.380120 0.487305 0.242386
Si Si4 0.719266 0.648534 0.148867
Si Si5 0.655210 0.707633 0.672831
Si Si6 0.173918 0.332787 0.423648
O O1 0.092099 0.398480 0.030002
O O2 0.927063 0.273686 0.922316
O O3 0.108014 0.203012 0.070320
O O4 0.961139 0.306670 0.116757
O O5 0.221803 0.399674 0.922874
O O6 0.179860 0.566845 0.988037
O O7 0.307479 0.447369 0.126296
O O8 0.500000 0.534972 0.250000
O O9 0.311066 0.568658 0.279274
O O10 0.411923 0.391030 0.318142
O O11 0.809537 0.726394 0.222832
O O12 0.774344 0.664891 0.666948
O O13 0.250000 0.250000 0.500000
#
# Coordination Sequence:
#
# PCOD8149370 Si02
#       6
#     8   8   8   8   8   8
#     4  11  25  44  76  99 147 190 235 296 361 422
#     4  12  25  49  71 107 142 191 241 295 359 435
#     4  12  27  43  73 104 143 186 246 293 368 429
#     4  12  27  46  73 106 145 188 241 297 359 426
#     4  11  25  47  67 108 144 188 238 296 355 433
#     4  10  23  45  72 100 144 182 236 293 352 426
#
# _framework density 22.189285000000002
#
# number of rings (size 3 to 8) (size 9 to 14) (size 15 to 20)
#    0.000    0.667    3.333    4.000    9.333    1.333 
#    0.000    1.667    0.000    0.000    0.000    0.000 
#    0.000    0.000    0.000    0.000    0.000    0.000 
#
# Total GULP energy -297532.581785 kJ/mol
# GULP energy per Si atom -12397.190908 kJ/mol
# Density = 2.213878 g / cm^3
# Si number density = 22.189285 Si / 1000 Ang^3
#
#
#
# Elastic Constant Matrix: (Units=GPa)
#
#
# Indices 1 2 3 4 5 6 
#
# 1 105.3656 22.5490 21.0182 0.0000 3.1433 0.0000
# 2 22.5490 120.1082 11.0703 0.0000 -1.4409 0.0000
# 3 21.0182 11.0703 61.8601 0.0000 -3.6712 0.0000
# 4 0.0000 0.0000 0.0000 28.9300 0.0000 -11.2729
# 5 3.1433 -1.4409 -3.6712 0.0000 31.1793 0.0000
# 6 0.0000 0.0000 0.0000 -11.2729 0.0000 11.9586
#
#
#
# Elastic Compliance Matrix: (Units=1/GPa)
#
#
# Indices 1 2 3 4 5 6 
#
# 1 0.010573 -0.001692 -0.003381 0.000000 -0.001542 0.000000
# 2 -0.001692 0.008738 -0.000961 0.000000 0.000461 0.000000
# 3 -0.003381 -0.000961 0.017627 0.000000 0.002372 0.000000
# 4 0.000000 0.000000 0.000000 0.054634 0.000000 0.051501
# 5 -0.001542 0.000461 0.002372 0.000000 0.032529 0.000000
# 6 0.000000 0.000000 0.000000 0.051501 0.000000 0.132170
#
#
# Mechanical properties :
#
#
# Convention : Reuss Voigt Hill
#
# Bulk Modulus (GPa) = 40.21074 44.06766 42.13920
# Shear Modulus (GPa) = 18.07472 29.92668 24.00070
#
# Velocity S-wave (km/s) = 2.85716 3.67645 3.29239
# Velocity P-wave (km/s) = 5.38939 6.15830 5.78663
#
# Compressibility (1/GPa) = 0.02486898
#
# Stress axis : x y z
#
# Youngs Moduli (GPa) = 94.57756 114.44783 56.73054
#
# Poissons Ratio (x) = 0.19363 0.19182
# Poissons Ratio (y) = 0.16001 0.05454
# Poissons Ratio (z) = 0.31979 0.11003
#
# Static dielectric constant tensor:
#      x y z
#    x 4.612880 0.000000 -0.391330 
#    y 0.000000 4.210700 0.000000 
#    z -0.391330 0.000000 3.967470 
# 
# 
# High freq. dielectric constant tensor:
#      x y z
#    x 1.889250 0.000000 -0.008410 
#    y 0.000000 1.890440 0.000000 
#    z -0.008410 0.000000 1.864080 
# 
# From -- ./inp_files/143416.got.cif
#   From: 2010.06.25/outbox.cif.g09.slc.cpg/sg15_72_cif.got.tgz:143416.got - 2010.06.28 07:06:18.
