data_PCOD8149161
_publ_section_title
;
Structure prediction by ZEFSAII (Michael W. Deem and Ramdas Pophale) SiO2 
 PCOD8149161
Probable space group: C 2/C
;
_chemical_formula_sum "Si O2"
_cell_formula_units_Z 36
_cell_length_a 7.863730
_cell_length_b 24.228592
_cell_length_c 14.055646
_cell_angle_alpha 90.000000
_cell_angle_beta 40.572553
_cell_angle_gamma 90.000000
_cell_volume 1741.787108
_symmetry_space_group_name_H-M "C 2/C"
_symmetry_group_IT_number 15
_symmetry_cell_setting 'monoclinic'
loop_
_space_group_symop_operation_xyz
x,y,z
-x,y,1/2-z
-x,-y,-z
x,-y,1/2+z
1/2+x,1/2+y,z
1/2-x,1/2+y,1/2-z
1/2-x,1/2-y,-z
1/2+x,1/2-y,1/2+z
loop_
_atom_site_type_symbol
_atom_site_label
_atom_site_fract_x
_atom_site_fract_y
_atom_site_fract_z
Si Si1 0.114987 0.810128 0.369423
Si Si2 0.027853 0.558316 0.537874
Si Si3 0.000000 0.406574 0.250000
Si Si4 0.227009 0.792118 0.810846
Si Si5 0.500000 0.626817 0.250000
Si Si6 0.500000 0.626358 0.750000
O O1 0.262312 0.865517 0.334316
O O2 0.288659 0.763024 0.245855
O O3 0.979420 0.783000 0.517346
O O4 0.921648 0.832821 0.370308
O O5 0.075964 0.552907 0.630709
O O6 0.268184 0.589883 0.389294
O O7 0.000000 0.500000 0.500000
O O8 0.755067 0.589696 0.648987
O O9 0.500000 0.804959 0.750000
O O10 0.132519 0.840053 0.780419
#
# Coordination Sequence:
#
# PCOD8149161 Si02
#       6
#     8   8   4   8   4   4
#     4  11  23  41  64 100 139 183 223 269 344 414
#     4  11  24  48  70  98 131 180 233 293 352 400
#     4  10  23  44  68  96 134 172 225 290 350 404
#     4  12  25  40  67 104 144 185 226 271 339 419
#     4  12  26  44  72 106 138 176 240 292 332 410
#     4  10  23  44  70  94 146 180 223 286 346 412
#
# _framework density 20.668429
#
# number of rings (size 3 to 8) (size 9 to 14) (size 15 to 20)
#    0.000    0.889    3.333    3.333    6.222    1.778 
#    6.000    3.333    0.000    0.000    0.000    0.000 
#    0.000    0.000    0.000    0.000    0.000    0.000 
#
# Total GULP energy -222993.984121 kJ/mol
# GULP energy per Si atom -12388.554673 kJ/mol
# Density = 2.062139 g / cm^3
# Si number density = 20.668429 Si / 1000 Ang^3
#
#
#
# Elastic Constant Matrix: (Units=GPa)
#
#
# Indices 1 2 3 4 5 6 
#
# 1 108.9556 56.2202 63.2950 0.0000 24.3214 0.0000
# 2 56.2202 133.6993 73.1531 0.0000 27.2889 0.0000
# 3 63.2950 73.1531 176.9793 0.0000 33.9570 0.0000
# 4 0.0000 0.0000 0.0000 39.7744 0.0000 9.7045
# 5 24.3214 27.2889 33.9570 0.0000 45.1418 0.0000
# 6 0.0000 0.0000 0.0000 9.7045 0.0000 41.1967
#
#
#
# Elastic Compliance Matrix: (Units=1/GPa)
#
#
# Indices 1 2 3 4 5 6 
#
# 1 0.013208 -0.003456 -0.002724 0.000000 -0.002978 0.000000
# 2 -0.003456 0.011014 -0.002801 0.000000 -0.002690 0.000000
# 3 -0.002724 -0.002801 0.008386 0.000000 -0.003148 0.000000
# 4 0.000000 0.000000 0.000000 0.026675 0.000000 -0.006284
# 5 -0.002978 -0.002690 -0.003148 0.000000 0.027751 0.000000
# 6 0.000000 0.000000 0.000000 -0.006284 0.000000 0.025754
#
#
# Mechanical properties :
#
#
# Convention : Reuss Voigt Hill
#
# Bulk Modulus (GPa) = 68.26981 89.44120 78.85551
# Shear Modulus (GPa) = 36.86462 40.35364 38.60913
#
# Velocity S-wave (km/s) = 4.22787 4.42342 4.32675
# Velocity P-wave (km/s) = 7.54559 8.33410 7.94962
#
# Compressibility (1/GPa) = 0.01464776
#
# Stress axis : x y z
#
# Youngs Moduli (GPa) = 75.70890 90.79462 119.24466
#
# Poissons Ratio (x) = 0.31377 0.32483
# Poissons Ratio (y) = 0.26164 0.33395
# Poissons Ratio (z) = 0.20623 0.25427
#
# Static dielectric constant tensor:
#      x y z
#    x 4.009450 0.000000 0.399570 
#    y 0.000000 3.815110 0.000000 
#    z 0.399570 0.000000 4.061550 
# 
# 
# High freq. dielectric constant tensor:
#      x y z
#    x 1.830430 0.000000 0.015710 
#    y 0.000000 1.800520 0.000000 
#    z 0.015710 0.000000 1.823390 
# 
# From -- ./inp_files/22587.got.cif
#   From: 2010.06.25/outbox.cif.g09.slc.cpg/sg15_12_cif.got.tgz:22587.got - 2010.06.28 07:06:18.
