data_PCOD8149061
_publ_section_title
;
Structure prediction by ZEFSAII (Michael W. Deem and Ramdas Pophale) SiO2 
 PCOD8149061
Probable space group: C 2/C
;
_chemical_formula_sum "Si O2"
_cell_formula_units_Z 48
_cell_length_a 12.087231
_cell_length_b 14.913077
_cell_length_c 15.499997
_cell_angle_alpha 90.000000
_cell_angle_beta 131.184489
_cell_angle_gamma 90.000000
_cell_volume 2102.741987
_symmetry_space_group_name_H-M "C 2/C"
_symmetry_group_IT_number 15
_symmetry_cell_setting 'monoclinic'
loop_
_space_group_symop_operation_xyz
x,y,z
-x,y,1/2-z
-x,-y,-z
x,-y,1/2+z
1/2+x,1/2+y,z
1/2-x,1/2+y,1/2-z
1/2-x,1/2-y,-z
1/2+x,1/2-y,1/2+z
loop_
_atom_site_type_symbol
_atom_site_label
_atom_site_fract_x
_atom_site_fract_y
_atom_site_fract_z
Si Si1 0.441059 0.305687 0.885830
Si Si2 0.716433 0.037972 0.260344
Si Si3 0.764733 0.218798 0.602433
Si Si4 0.263827 0.595471 0.936857
Si Si5 0.500000 0.137538 0.250000
Si Si6 0.500000 0.791613 0.250000
Si Si7 0.833931 0.985942 0.143636
O O1 0.342456 0.392315 0.848984
O O2 0.388222 0.225619 0.923096
O O3 0.418000 0.272017 0.776175
O O4 0.607585 0.330885 0.995028
O O5 0.547331 0.070591 0.195343
O O6 0.761431 0.954130 0.343586
O O7 0.722706 0.014220 0.162638
O O8 0.750000 0.250000 0.500000
O O9 0.834719 0.121088 0.639841
O O10 0.865391 0.296647 0.690045
O O11 0.111654 0.649552 0.864648
O O12 0.279032 0.526982 0.024999
O O13 0.000000 0.018788 0.250000
#
# Coordination Sequence:
#
# PCOD8149061 Si02
#       7
#     8   8   8   8   4   4   8
#     4  11  24  44  68 102 137 190 238 293 357 430
#     4  11  24  44  73 103 142 189 236 296 361 420
#     4  11  25  41  67 100 141 180 237 292 357 420
#     4  12  26  47  72 105 148 188 246 295 367 428
#     4  10  23  44  63  98 142 182 228 292 353 420
#     4  12  27  48  71 104 144 196 238 306 361 422
#     4  12  24  44  74 109 141 190 245 294 360 443
#
# _framework density 22.827338000000001
#
# number of rings (size 3 to 8) (size 9 to 14) (size 15 to 20)
#    0.000    0.667    2.500    5.500    2.333    4.000 
#    0.000    5.000    0.000    0.000    0.000    0.000 
#    0.000    0.000    0.000    0.000    0.000    0.000 
#
# Total GULP energy -297365.024575 kJ/mol
# GULP energy per Si atom -12390.209357 kJ/mol
# Density = 2.277538 g / cm^3
# Si number density = 22.827338 Si / 1000 Ang^3
#
#
#
# Elastic Constant Matrix: (Units=GPa)
#
#
# Indices 1 2 3 4 5 6 
#
# 1 140.2282 42.9046 35.0848 0.0000 -15.6638 0.0000
# 2 42.9046 85.9415 26.4412 0.0000 6.3234 0.0000
# 3 35.0848 26.4412 62.3379 0.0000 -2.6723 0.0000
# 4 0.0000 0.0000 0.0000 31.4603 0.0000 -24.3574
# 5 -15.6638 6.3234 -2.6723 0.0000 39.2439 0.0000
# 6 0.0000 0.0000 0.0000 -24.3574 0.0000 -29.1917
#
#
#
# Elastic Compliance Matrix: (Units=1/GPa)
#
#
# Indices 1 2 3 4 5 6 
#
# 1 0.009758 -0.004089 -0.003572 0.000000 0.004310 0.000000
# 2 -0.004089 0.015355 -0.004400 0.000000 -0.004406 0.000000
# 3 -0.003572 -0.004400 0.019946 0.000000 0.000641 0.000000
# 4 0.000000 0.000000 0.000000 0.019311 0.000000 -0.016113
# 5 0.004310 -0.004406 0.000641 0.000000 0.027956 0.000000
# 6 0.000000 0.000000 0.000000 -0.016113 0.000000 -0.020812
#
#
# Mechanical properties :
#
#
# Convention : Reuss Voigt Hill
#
# Bulk Modulus (GPa) = 47.76744 55.26320 51.51532
# Shear Modulus (GPa) = 48.72475 20.57430 34.64953
#
# Velocity S-wave (km/s) = 4.62507 3.00542 3.90025
# Velocity P-wave (km/s) = 7.03510 6.02538 6.54973
#
# Compressibility (1/GPa) = 0.02093476
#
# Stress axis : x y z
#
# Youngs Moduli (GPa) = 102.48285 65.12362 50.13480
#
# Poissons Ratio (x) = 0.26632 0.17911
# Poissons Ratio (y) = 0.41909 0.22062
# Poissons Ratio (z) = 0.36612 0.28657
#
# Static dielectric constant tensor:
#      x y z
#    x 4.389120 0.000000 -0.048750 
#    y 0.000000 4.208820 0.000000 
#    z -0.048750 0.000000 3.835880 
# 
# 
# High freq. dielectric constant tensor:
#      x y z
#    x 1.921470 0.000000 -0.009040 
#    y 0.000000 1.920270 0.000000 
#    z -0.009040 0.000000 1.880330 
# 
# From -- ./inp_files/144420.got.cif
#   From: 2010.06.25/outbox.cif.g09.slc.cpg/sg15_73_cif.got.tgz:144420.got - 2010.06.28 07:06:18.
