data_PCOD8149147
_publ_section_title
;
Structure prediction by ZEFSAII (Michael W. Deem and Ramdas Pophale) SiO2 
 PCOD8149147
Probable space group: C 2/C
;
_chemical_formula_sum "Si O2"
_cell_formula_units_Z 56
_cell_length_a 12.127898
_cell_length_b 19.722414
_cell_length_c 10.989546
_cell_angle_alpha 90.000000
_cell_angle_beta 72.262127
_cell_angle_gamma 90.000000
_cell_volume 2503.642082
_symmetry_space_group_name_H-M "C 2/C"
_symmetry_group_IT_number 15
_symmetry_cell_setting 'monoclinic'
loop_
_space_group_symop_operation_xyz
x,y,z
-x,y,1/2-z
-x,-y,-z
x,-y,1/2+z
1/2+x,1/2+y,z
1/2-x,1/2+y,1/2-z
1/2-x,1/2-y,-z
1/2+x,1/2-y,1/2+z
loop_
_atom_site_type_symbol
_atom_site_label
_atom_site_fract_x
_atom_site_fract_y
_atom_site_fract_z
Si Si1 0.749957 0.055832 0.420339
Si Si2 0.700060 0.907052 0.433146
Si Si3 0.012979 0.749914 0.443131
Si Si4 0.770510 0.875005 0.665734
Si Si5 0.021539 0.872509 0.606346
Si Si6 0.685213 0.733750 0.665664
Si Si7 0.530958 0.118857 0.600240
O O1 0.718328 0.096733 0.308351
O O2 0.873498 0.075115 0.435890
O O3 0.647874 0.073656 0.551080
O O4 0.767962 0.976579 0.385153
O O5 0.688470 0.897358 0.582513
O O6 0.760727 0.841837 0.349020
O O7 0.574889 0.923038 0.420134
O O8 0.055434 0.811326 0.509942
O O9 0.087865 0.756014 0.298060
O O10 0.041744 0.685132 0.513754
O O11 0.876655 0.752500 0.446134
O O12 0.779148 0.792462 0.663768
O O13 0.900021 0.905039 0.601538
O O14 0.000000 0.845540 0.750000
O O15 0.500000 0.137131 0.750000
#
# Coordination Sequence:
#
# PCOD8149147 Si02
#       7
#     8   8   8   8   8   8   8
#     4  11  28  47  67 107 148 192 228 295 362 429
#     4  12  26  46  75 104 141 188 245 290 354 433
#     4  11  22  43  72 106 140 186 237 301 352 416
#     4  11  22  48  76  97 143 187 235 292 356 422
#     4  10  23  44  68 103 142 184 230 284 370 418
#     4  11  23  43  74 108 136 183 245 297 347 422
#     4  12  27  46  71 104 145 190 244 295 357 418
#
# _framework density 22.367412999999999
#
# number of rings (size 3 to 8) (size 9 to 14) (size 15 to 20)
#    0.000    0.857    4.286    2.143    4.000    2.857 
#    7.714    0.000    0.000    0.000    0.000    0.000 
#    0.000    0.000    0.000    0.000    0.000    0.000 
#
# Total GULP energy -347090.805521 kJ/mol
# GULP energy per Si atom -12396.100197 kJ/mol
# Density = 2.231650 g / cm^3
# Si number density = 22.367413 Si / 1000 Ang^3
#
#
#
# Elastic Constant Matrix: (Units=GPa)
#
#
# Indices 1 2 3 4 5 6 
#
# 1 130.4351 45.2584 26.1828 0.0000 0.4417 0.0000
# 2 45.2584 158.0490 45.9358 0.0000 -0.4717 0.0000
# 3 26.1828 45.9358 95.8161 0.0000 0.3699 0.0000
# 4 0.0000 0.0000 0.0000 15.6467 0.0000 -2.4102
# 5 0.4417 -0.4717 0.3699 0.0000 27.7907 0.0000
# 6 0.0000 0.0000 0.0000 -2.4102 0.0000 34.1314
#
#
#
# Elastic Compliance Matrix: (Units=1/GPa)
#
#
# Indices 1 2 3 4 5 6 
#
# 1 0.008665 -0.002084 -0.001368 0.000000 -0.000155 0.000000
# 2 -0.002084 0.007854 -0.003196 0.000000 0.000209 0.000000
# 3 -0.001368 -0.003196 0.012344 0.000000 -0.000197 0.000000
# 4 0.000000 0.000000 0.000000 0.064614 0.000000 0.004563
# 5 -0.000155 0.000209 -0.000197 0.000000 0.035992 0.000000
# 6 0.000000 0.000000 0.000000 0.004563 0.000000 0.029621
#
#
# Mechanical properties :
#
#
# Convention : Reuss Voigt Hill
#
# Bulk Modulus (GPa) = 64.24660 68.78380 66.51520
# Shear Modulus (GPa) = 28.15721 33.30863 30.73292
#
# Velocity S-wave (km/s) = 3.55188 3.86315 3.71078
# Velocity P-wave (km/s) = 6.75328 7.12159 6.93988
#
# Compressibility (1/GPa) = 0.01556502
#
# Stress axis : x y z
#
# Youngs Moduli (GPa) = 115.40771 127.33009 81.01314
#
# Poissons Ratio (x) = 0.26537 0.11083
# Poissons Ratio (y) = 0.24052 0.25895
# Poissons Ratio (z) = 0.15788 0.40700
#
# Static dielectric constant tensor:
#      x y z
#    x 4.250810 0.000000 0.121830 
#    y 0.000000 3.905370 0.000000 
#    z 0.121830 0.000000 4.105510 
# 
# 
# High freq. dielectric constant tensor:
#      x y z
#    x 1.889340 0.000000 0.001130 
#    y 0.000000 1.871190 0.000000 
#    z 0.001130 0.000000 1.891190 
# 
# From -- ./inp_files/88910.got.cif
#   From: 2010.06.25/outbox.cif.g09.slc.cpg/sg15_45_cif.got.tgz:88910.got - 2010.06.28 07:06:18.
