data_PCOD8149891
_publ_section_title
;
Structure prediction by ZEFSAII (Michael W. Deem and Ramdas Pophale) SiO2 
 PCOD8149891
Probable space group: C 2/C
;
_chemical_formula_sum "Si O2"
_cell_formula_units_Z 60
_cell_length_a 13.847113
_cell_length_b 15.404535
_cell_length_c 13.911471
_cell_angle_alpha 90.000000
_cell_angle_beta 117.056343
_cell_angle_gamma 90.000000
_cell_volume 2642.675872
_symmetry_space_group_name_H-M "C 2/C"
_symmetry_group_IT_number 15
_symmetry_cell_setting 'monoclinic'
loop_
_space_group_symop_operation_xyz
x,y,z
-x,y,1/2-z
-x,-y,-z
x,-y,1/2+z
1/2+x,1/2+y,z
1/2-x,1/2+y,1/2-z
1/2-x,1/2-y,-z
1/2+x,1/2-y,1/2+z
loop_
_atom_site_type_symbol
_atom_site_label
_atom_site_fract_x
_atom_site_fract_y
_atom_site_fract_z
Si Si1 0.921448 0.889054 0.124396
Si Si2 0.276604 0.161517 0.634605
Si Si3 0.265518 0.652442 0.188911
Si Si4 0.394609 0.588036 0.084395
Si Si5 0.407430 0.019223 0.385609
Si Si6 0.216667 0.359555 0.145744
Si Si7 0.500000 0.074660 0.750000
Si Si8 0.582417 0.303890 0.579829
O O1 0.806452 0.847600 0.104316
O O2 0.000000 0.871134 0.250000
O O3 0.932487 0.988349 0.092787
O O4 0.947048 0.835746 0.039671
O O5 0.261866 0.264703 0.614969
O O6 0.204768 0.102682 0.533229
O O7 0.236065 0.148892 0.725625
O O8 0.402262 0.136747 0.671161
O O9 0.353980 0.592204 0.176026
O O10 0.142702 0.615827 0.138164
O O11 0.305278 0.664736 0.317427
O O12 0.485692 0.661804 0.104379
O O13 0.500000 0.000000 0.500000
O O14 0.309868 0.960041 0.377791
O O15 0.450674 0.992070 0.302501
O O16 0.106558 0.300214 0.084511
#
# Coordination Sequence:
#
# PCOD8149891 Si02
#       8
#     8   8   8   8   8   8   4   8
#     4  12  25  45  70 101 137 184 240 296 355 425
#     4  10  24  42  69 100 138 184 233 290 347 429
#     4  11  24  42  67 101 139 183 238 284 357 417
#     4  12  24  40  70 101 139 179 235 296 353 414
#     4  11  24  41  67  98 139 180 232 291 349 421
#     4  10  24  45  66  95 142 178 232 291 356 413
#     4  10  24  42  70 100 138 184 234 288 362 404
#     4  11  26  42  71  97 138 187 236 287 357 425
#
# _framework density 22.704259
#
# number of rings (size 3 to 8) (size 9 to 14) (size 15 to 20)
#    0.000    1.067    1.333    4.000   11.200    0.000 
#    0.000    0.000    0.000    0.000    0.000    0.000 
#    0.000    0.000    0.000    0.000    0.000    0.000 
#
# Total GULP energy -371642.072188 kJ/mol
# GULP energy per Si atom -12388.069073 kJ/mol
# Density = 2.265258 g / cm^3
# Si number density = 22.704259 Si / 1000 Ang^3
#
#
#
# Elastic Constant Matrix: (Units=GPa)
#
#
# Indices 1 2 3 4 5 6 
#
# 1 108.9722 35.0781 18.7465 0.0000 5.3517 0.0000
# 2 35.0781 70.0907 26.4794 0.0000 -5.1838 0.0000
# 3 18.7465 26.4794 127.6632 0.0000 8.0661 0.0000
# 4 0.0000 0.0000 0.0000 28.8736 0.0000 9.0736
# 5 5.3517 -5.1838 8.0661 0.0000 29.1123 0.0000
# 6 0.0000 0.0000 0.0000 9.0736 0.0000 9.4558
#
#
#
# Elastic Compliance Matrix: (Units=1/GPa)
#
#
# Indices 1 2 3 4 5 6 
#
# 1 0.011217 -0.005735 -0.000267 0.000000 -0.003009 0.000000
# 2 -0.005735 0.018817 -0.003399 0.000000 0.005346 0.000000
# 3 -0.000267 -0.003399 0.008766 0.000000 -0.002985 0.000000
# 4 0.000000 0.000000 0.000000 0.049586 0.000000 -0.047582
# 5 -0.003009 0.005346 -0.002985 0.000000 0.036682 0.000000
# 6 0.000000 0.000000 0.000000 -0.047582 0.000000 0.151414
#
#
# Mechanical properties :
#
#
# Convention : Reuss Voigt Hill
#
# Bulk Modulus (GPa) = 50.00703 51.92601 50.96652
# Shear Modulus (GPa) = 16.55907 28.58316 22.57111
#
# Velocity S-wave (km/s) = 2.70355 3.55199 3.15641
# Velocity P-wave (km/s) = 5.64082 6.30416 5.98169
#
# Compressibility (1/GPa) = 0.01999719
#
# Stress axis : x y z
#
# Youngs Moduli (GPa) = 89.15416 53.14409 114.07861
#
# Poissons Ratio (x) = 0.30478 0.03051
# Poissons Ratio (y) = 0.51130 0.38770
# Poissons Ratio (z) = 0.02384 0.18061
#
# Static dielectric constant tensor:
#      x y z
#    x 4.000210 0.000000 0.052780 
#    y 0.000000 -0.122680 0.000000 
#    z 0.052780 0.000000 4.056170 
# 
# 
# High freq. dielectric constant tensor:
#      x y z
#    x 1.894010 0.000000 -0.004020 
#    y 0.000000 1.895600 0.000000 
#    z -0.004020 0.000000 1.902140 
# 
# From -- ./inp_files/154268.got.cif
#   From: 2010.06.25/outbox.cif.g09.slc.cpg/sg15_78_cif.got.tgz:154268.got - 2010.06.28 07:06:18.
