data_PCOD8149302
_publ_section_title
;
Structure prediction by ZEFSAII (Michael W. Deem and Ramdas Pophale) SiO2 
 PCOD8149302
Probable space group: C 2/C
;
_chemical_formula_sum "Si O2"
_cell_formula_units_Z 56
_cell_length_a 11.688927
_cell_length_b 8.415938
_cell_length_c 29.726021
_cell_angle_alpha 90.000000
_cell_angle_beta 119.119238
_cell_angle_gamma 90.000000
_cell_volume 2554.647560
_symmetry_space_group_name_H-M "C 2/C"
_symmetry_group_IT_number 15
_symmetry_cell_setting 'monoclinic'
loop_
_space_group_symop_operation_xyz
x,y,z
-x,y,1/2-z
-x,-y,-z
x,-y,1/2+z
1/2+x,1/2+y,z
1/2-x,1/2+y,1/2-z
1/2-x,1/2-y,-z
1/2+x,1/2-y,1/2+z
loop_
_atom_site_type_symbol
_atom_site_label
_atom_site_fract_x
_atom_site_fract_y
_atom_site_fract_z
Si Si1 0.426542 0.286305 0.595527
Si Si2 0.994935 0.321042 0.482256
Si Si3 0.737901 0.819482 0.895665
Si Si4 0.015863 0.129584 0.635816
Si Si5 0.324908 0.669353 0.915202
Si Si6 0.379266 0.529918 0.258150
Si Si7 0.814943 0.714512 0.815005
O O1 0.412725 0.210274 0.543450
O O2 0.475068 0.467994 0.602092
O O3 0.288120 0.295133 0.594382
O O4 0.532608 0.181403 0.643931
O O5 0.045307 0.202423 0.530644
O O6 0.000000 0.500000 0.500000
O O7 0.845516 0.287702 0.440928
O O8 0.597274 0.760977 0.885599
O O9 0.748122 0.807579 0.843636
O O10 0.761021 0.999955 0.914640
O O11 0.137429 0.195180 0.629764
O O12 0.062037 0.095533 0.695099
O O13 0.500000 0.586475 0.250000
O O14 0.264001 0.447748 0.207541
O O15 0.311443 0.678969 0.269373
#
# Coordination Sequence:
#
# PCOD8149302 Si02
#       7
#     8   8   8   8   8   8   8
#     4  10  24  46  64  96 139 169 222 277 321 400
#     4  11  24  44  67  98 134 178 221 270 334 392
#     4  11  23  44  67  96 134 167 222 276 322 387
#     4  11  24  44  68  96 133 174 218 276 333 388
#     4  12  24  43  70  95 133 175 222 267 331 393
#     4  11  22  43  68  94 133 173 212 270 332 390
#     4  10  23  45  65  98 132 167 218 271 322 394
#
# _framework density 21.920832000000001
#
# number of rings (size 3 to 8) (size 9 to 14) (size 15 to 20)
#    0.000    1.143    5.714    1.714    2.000    4.000 
#    2.571    0.000    0.000    0.000    0.000    0.000 
#    0.000    0.000    0.000    0.000    0.000    0.000 
#
# Total GULP energy -347253.504301 kJ/mol
# GULP energy per Si atom -12401.910868 kJ/mol
# Density = 2.187094 g / cm^3
# Si number density = 21.920832 Si / 1000 Ang^3
#
#
#
# Elastic Constant Matrix: (Units=GPa)
#
#
# Indices 1 2 3 4 5 6 
#
# 1 119.7875 9.8644 6.8967 0.0000 -9.5153 0.0000
# 2 9.8644 59.6531 16.5776 0.0000 -6.0768 0.0000
# 3 6.8967 16.5776 63.6109 0.0000 -14.8293 0.0000
# 4 0.0000 0.0000 0.0000 34.1600 0.0000 -2.3727
# 5 -9.5153 -6.0768 -14.8293 0.0000 29.8427 0.0000
# 6 0.0000 0.0000 0.0000 -2.3727 0.0000 31.6938
#
#
#
# Elastic Compliance Matrix: (Units=1/GPa)
#
#
# Indices 1 2 3 4 5 6 
#
# 1 0.008645 -0.001161 -0.000054 0.000000 0.002493 0.000000
# 2 -0.001161 0.018289 -0.004364 0.000000 0.001185 0.000000
# 3 -0.000054 -0.004364 0.018834 0.000000 0.008453 0.000000
# 4 0.000000 0.000000 0.000000 0.029427 0.000000 0.002203
# 5 0.002493 0.001185 0.008453 0.000000 0.038746 0.000000
# 6 0.000000 0.000000 0.000000 0.002203 0.000000 0.031717
#
#
# Mechanical properties :
#
#
# Convention : Reuss Voigt Hill
#
# Bulk Modulus (GPa) = 28.89189 34.41433 31.65311
# Shear Modulus (GPa) = 29.69965 33.12014 31.40990
#
# Velocity S-wave (km/s) = 3.68484 3.89124 3.78945
# Velocity P-wave (km/s) = 5.59578 5.99354 5.79807
#
# Compressibility (1/GPa) = 0.03461178
#
# Stress axis : x y z
#
# Youngs Moduli (GPa) = 115.67585 54.67742 53.09428
#
# Poissons Ratio (x) = 0.06346 0.00284
# Poissons Ratio (y) = 0.13426 0.23171
# Poissons Ratio (z) = 0.00619 0.23862
#
# Static dielectric constant tensor:
#      x y z
#    x 4.085390 0.000000 0.019290 
#    y 0.000000 3.699910 0.000000 
#    z 0.019290 0.000000 3.994150 
# 
# 
# High freq. dielectric constant tensor:
#      x y z
#    x 1.871570 0.000000 -0.003360 
#    y 0.000000 1.848440 0.000000 
#    z -0.003360 0.000000 1.864850 
# 
# From -- ./inp_files/291633.got.cif
#   From: 2010.06.25/outbox.cif.g09.slc.cpg/sg15_146_cif.got.tgz:291633.got - 2010.06.28 07:06:18.
