data_PCOD8149380
_publ_section_title
;
Structure prediction by ZEFSAII (Michael W. Deem and Ramdas Pophale) SiO2 
 PCOD8149380
Probable space group: C 2/C
;
_chemical_formula_sum "Si O2"
_cell_formula_units_Z 36
_cell_length_a 14.656722
_cell_length_b 10.064205
_cell_length_c 11.240642
_cell_angle_alpha 90.000000
_cell_angle_beta 70.011245
_cell_angle_gamma 90.000000
_cell_volume 1558.203844
_symmetry_space_group_name_H-M "C 2/C"
_symmetry_group_IT_number 15
_symmetry_cell_setting 'monoclinic'
loop_
_space_group_symop_operation_xyz
x,y,z
-x,y,1/2-z
-x,-y,-z
x,-y,1/2+z
1/2+x,1/2+y,z
1/2-x,1/2+y,1/2-z
1/2-x,1/2-y,-z
1/2+x,1/2-y,1/2+z
loop_
_atom_site_type_symbol
_atom_site_label
_atom_site_fract_x
_atom_site_fract_y
_atom_site_fract_z
Si Si1 0.670196 0.292733 0.778911
Si Si2 0.294525 0.016664 0.836627
Si Si3 0.985255 0.187710 0.950406
Si Si4 0.500000 0.901398 0.750000
Si Si5 0.123358 0.941766 0.568911
O O1 0.719727 0.152227 0.730268
O O2 0.754111 0.394092 0.778819
O O3 0.614493 0.351067 0.688798
O O4 0.592451 0.269813 0.916332
O O5 0.407630 0.995129 0.813783
O O6 0.236082 0.027877 0.987351
O O7 0.016507 0.313634 0.859764
O O8 0.936744 0.077740 0.884793
O O9 0.080910 0.130917 0.970845
#
# Coordination Sequence:
#
# PCOD8149380 Si02
#       5
#     8   8   8   4   8
#     4  11  25  46  73 102 142 183 241 285 354 416
#     4  11  27  44  72 105 143 189 226 298 348 417
#     4  10  25  42  75 103 141 187 231 292 350 417
#     4  12  28  44  66 108 150 178 240 286 358 408
#     4  10  23  45  73 104 134 192 236 286 347 423
#
# _framework density 23.103525000000001
#
# number of rings (size 3 to 8) (size 9 to 14) (size 15 to 20)
#    0.000    1.333    0.000    2.667   18.667    2.667 
#    0.000    0.000    0.000    0.000    0.000    0.000 
#    0.000    0.000    0.000    0.000    0.000    0.000 
#
# Total GULP energy -223304.176625 kJ/mol
# GULP energy per Si atom -12405.787590 kJ/mol
# Density = 2.305094 g / cm^3
# Si number density = 23.103525 Si / 1000 Ang^3
#
#
#
# Elastic Constant Matrix: (Units=GPa)
#
#
# Indices 1 2 3 4 5 6 
#
# 1 86.2923 0.5204 15.4037 0.0000 -16.1416 0.0000
# 2 0.5204 86.3024 13.4827 0.0000 5.2636 0.0000
# 3 15.4037 13.4827 85.0397 0.0000 0.4088 0.0000
# 4 0.0000 0.0000 0.0000 28.3656 0.0000 -2.7570
# 5 -16.1416 5.2636 0.4088 0.0000 21.9657 0.0000
# 6 0.0000 0.0000 0.0000 -2.7570 0.0000 25.0691
#
#
#
# Elastic Compliance Matrix: (Units=1/GPa)
#
#
# Indices 1 2 3 4 5 6 
#
# 1 0.013989 -0.000323 -0.002533 0.000000 0.010404 0.000000
# 2 -0.000323 0.012065 -0.001839 0.000000 -0.003094 0.000000
# 3 -0.002533 -0.001839 0.012518 0.000000 -0.001653 0.000000
# 4 0.000000 0.000000 0.000000 0.035635 0.000000 0.003919
# 5 0.010404 -0.003094 -0.001653 0.000000 0.053943 0.000000
# 6 0.000000 0.000000 0.000000 0.003919 0.000000 0.040321
#
#
# Mechanical properties :
#
#
# Convention : Reuss Voigt Hill
#
# Bulk Modulus (GPa) = 34.26906 35.16089 34.71497
# Shear Modulus (GPa) = 26.65413 30.29525 28.47469
#
# Velocity S-wave (km/s) = 3.40027 3.62509 3.51448
# Velocity P-wave (km/s) = 5.50280 5.72482 5.61491
#
# Compressibility (1/GPa) = 0.02918084
#
# Stress axis : x y z
#
# Youngs Moduli (GPa) = 71.48600 82.88286 79.88783
#
# Poissons Ratio (x) = 0.02679 0.20233
# Poissons Ratio (y) = 0.02311 0.14695
# Poissons Ratio (z) = 0.18105 0.15246
#
# Static dielectric constant tensor:
#      x y z
#    x 4.038110 0.000000 -0.143200 
#    y 0.000000 4.196080 0.000000 
#    z -0.143200 0.000000 4.050890 
# 
# 
# High freq. dielectric constant tensor:
#      x y z
#    x 1.911180 0.000000 -0.016510 
#    y 0.000000 1.915270 0.000000 
#    z -0.016510 0.000000 1.919000 
# 
# From -- ./inp_files/94443.got.cif
#   From: 2010.06.25/outbox.cif.g09.slc.cpg/sg15_48_cif.got.tgz:94443.got - 2010.06.28 07:06:18.
