data_PCOD8149021
_publ_section_title
;
Structure prediction by ZEFSAII (Michael W. Deem and Ramdas Pophale) SiO2 
 PCOD8149021
Probable space group: C 2/C
;
_chemical_formula_sum "Si O2"
_cell_formula_units_Z 40
_cell_length_a 22.566267
_cell_length_b 14.979550
_cell_length_c 14.694532
_cell_angle_alpha 90.000000
_cell_angle_beta 161.087063
_cell_angle_gamma 90.000000
_cell_volume 1610.033294
_symmetry_space_group_name_H-M "C 2/C"
_symmetry_group_IT_number 15
_symmetry_cell_setting 'monoclinic'
loop_
_space_group_symop_operation_xyz
x,y,z
-x,y,1/2-z
-x,-y,-z
x,-y,1/2+z
1/2+x,1/2+y,z
1/2-x,1/2+y,1/2-z
1/2-x,1/2-y,-z
1/2+x,1/2-y,1/2+z
loop_
_atom_site_type_symbol
_atom_site_label
_atom_site_fract_x
_atom_site_fract_y
_atom_site_fract_z
Si Si1 0.500000 0.514603 0.750000
Si Si2 0.894535 0.739350 0.789070
Si Si3 0.952161 0.325492 0.554149
Si Si4 0.616769 0.561793 0.233537
Si Si5 0.000000 0.485396 0.750000
Si Si6 0.748185 0.325492 0.646198
O O1 0.424326 0.451962 0.719576
O O2 0.341666 0.577134 0.476230
O O3 0.750000 0.750000 0.500000
O O4 0.821126 0.687852 0.773679
O O5 0.944605 0.840599 0.889212
O O6 0.083981 0.687853 0.036534
O O7 0.904909 0.250000 0.559818
O O8 0.927464 0.422866 0.562028
O O9 0.162555 0.313834 0.825110
O O10 0.833826 0.548037 0.538576
O O11 0.500000 0.500000 0.000000
#
# Coordination Sequence:
#
# PCOD8149021 Si02
#       6
#     4   8   8   8   4   8
#     4  12  25  48  73 110 150 182 242 316 365 432
#     4  10  25  48  71 100 144 196 243 282 356 452
#     4  10  23  43  72 105 135 187 243 293 358 426
#     4  12  27  46  73 108 148 188 238 306 372 422
#     4  12  25  48  73 110 150 182 242 316 365 432
#     4  10  23  43  72 105 135 187 243 293 358 426
#
# _framework density 24.844206
#
# number of rings (size 3 to 8) (size 9 to 14) (size 15 to 20)
#    1.200    0.000    2.000    3.000    2.800    8.800 
#    0.000    3.000    0.000    0.000    0.000    0.000 
#    0.000    0.000    0.000    0.000    0.000    0.000 
#
# Total GULP energy -247763.014649 kJ/mol
# GULP energy per Si atom -12388.150732 kJ/mol
# Density = 2.478766 g / cm^3
# Si number density = 24.844206 Si / 1000 Ang^3
#
#
#
# Elastic Constant Matrix: (Units=GPa)
#
#
# Indices 1 2 3 4 5 6 
#
# 1 133.7820 13.1501 46.1234 0.0000 20.4027 0.0000
# 2 13.1501 56.5585 26.9860 0.0000 -8.2035 0.0000
# 3 46.1234 26.9860 132.7769 0.0000 -19.8063 0.0000
# 4 0.0000 0.0000 0.0000 29.1456 0.0000 -11.1009
# 5 20.4027 -8.2035 -19.8063 0.0000 50.4669 0.0000
# 6 0.0000 0.0000 0.0000 -11.1009 0.0000 10.4241
#
#
#
# Elastic Compliance Matrix: (Units=1/GPa)
#
#
# Indices 1 2 3 4 5 6 
#
# 1 0.009868 -0.001202 -0.004045 0.000000 -0.005772 0.000000
# 2 -0.001202 0.019868 -0.003257 0.000000 0.002437 0.000000
# 3 -0.004045 -0.003257 0.010370 0.000000 0.005176 0.000000
# 4 0.000000 0.000000 0.000000 0.057723 0.000000 0.061471
# 5 -0.005772 0.002437 0.005176 0.000000 0.024576 0.000000
# 6 0.000000 0.000000 0.000000 0.061471 0.000000 0.161394
#
#
# Mechanical properties :
#
#
# Convention : Reuss Voigt Hill
#
# Bulk Modulus (GPa) = 43.29125 55.07070 49.18097
# Shear Modulus (GPa) = 16.20717 33.79786 25.00252
#
# Velocity S-wave (km/s) = 2.55689 3.69235 3.17578
# Velocity P-wave (km/s) = 5.11662 6.35551 5.76942
#
# Compressibility (1/GPa) = 0.02309936
#
# Stress axis : x y z
#
# Youngs Moduli (GPa) = 101.34140 50.33292 96.42815
#
# Poissons Ratio (x) = 0.06048 0.39001
# Poissons Ratio (y) = 0.12178 0.31407
# Poissons Ratio (z) = 0.40988 0.16393
#
# Static dielectric constant tensor:
#      x y z
#    x 4.551550 0.000000 0.123620 
#    y 0.000000 5.076380 0.000000 
#    z 0.123620 0.000000 4.343050 
# 
# 
# High freq. dielectric constant tensor:
#      x y z
#    x 1.994790 0.000000 0.004380 
#    y 0.000000 1.979610 0.000000 
#    z 0.004380 0.000000 1.987400 
# 
# From -- ./inp_files/174158.got.cif
#   From: 2010.06.25/outbox.cif.g09.slc.cpg/sg15_88_cif.got.tgz:174158.got - 2010.06.28 07:06:18.
