data_PCOD8149694
_publ_section_title
;
Structure prediction by ZEFSAII (Michael W. Deem and Ramdas Pophale) SiO2 
 PCOD8149694
Probable space group: C 2/C
;
_chemical_formula_sum "Si O2"
_cell_formula_units_Z 48
_cell_length_a 29.958742
_cell_length_b 13.516743
_cell_length_c 9.629006
_cell_angle_alpha 90.000000
_cell_angle_beta 34.717599
_cell_angle_gamma 90.000000
_cell_volume 2220.727331
_symmetry_space_group_name_H-M "C 2/C"
_symmetry_group_IT_number 15
_symmetry_cell_setting 'monoclinic'
loop_
_space_group_symop_operation_xyz
x,y,z
-x,y,1/2-z
-x,-y,-z
x,-y,1/2+z
1/2+x,1/2+y,z
1/2-x,1/2+y,1/2-z
1/2-x,1/2-y,-z
1/2+x,1/2-y,1/2+z
loop_
_atom_site_type_symbol
_atom_site_label
_atom_site_fract_x
_atom_site_fract_y
_atom_site_fract_z
Si Si1 0.915437 0.420421 0.398623
Si Si2 0.829532 0.918825 0.198060
Si Si3 0.151642 0.429496 0.643212
Si Si4 0.892538 0.791568 0.264416
Si Si5 0.070194 0.795447 0.758552
Si Si6 0.411371 0.382711 0.504333
O O1 0.853055 0.446053 0.678708
O O2 0.899881 0.490419 0.307371
O O3 0.905501 0.308238 0.371426
O O4 0.000000 0.438985 0.250000
O O5 0.741745 0.933450 0.366465
O O6 0.828876 0.837585 0.322729
O O7 0.883943 0.884127 0.932552
O O8 0.861662 0.021899 0.175929
O O9 0.113427 0.325107 0.704606
O O10 0.875029 0.836156 0.459348
O O11 0.977523 0.816026 0.981688
O O12 0.092886 0.800060 0.863497
O O13 0.500000 0.416288 0.250000
#
# Coordination Sequence:
#
# PCOD8149694 Si02
#       6
#     8   8   8   8   8   8
#     4  12  26  49  71  99 129 181 228 278 335 401
#     4  12  24  44  66 101 140 177 217 277 341 397
#     4  12  29  42  72 100 135 175 225 283 337 397
#     4  11  23  45  68  99 134 182 225 274 330 399
#     4  11  23  44  72  98 135 179 226 273 333 397
#     4  10  24  40  70 102 135 177 226 273 326 406
#
# _framework density 21.614538
#
# number of rings (size 3 to 8) (size 9 to 14) (size 15 to 20)
#    0.000    0.667    3.333    3.500    7.000    3.333 
#    0.000    1.667    0.000    0.000    0.000    0.000 
#    0.000    0.000    0.000    0.000    0.000    0.000 
#
# Total GULP energy -297735.475693 kJ/mol
# GULP energy per Si atom -12405.644821 kJ/mol
# Density = 2.156534 g / cm^3
# Si number density = 21.614538 Si / 1000 Ang^3
#
#
#
# Elastic Constant Matrix: (Units=GPa)
#
#
# Indices 1 2 3 4 5 6 
#
# 1 103.3308 42.0333 47.9072 0.0000 7.0126 0.0000
# 2 42.0333 96.0032 34.4127 0.0000 9.9500 0.0000
# 3 47.9072 34.4127 94.6420 0.0000 -4.4406 0.0000
# 4 0.0000 0.0000 0.0000 20.3718 0.0000 8.5818
# 5 7.0126 9.9500 -4.4406 0.0000 32.5705 0.0000
# 6 0.0000 0.0000 0.0000 8.5818 0.0000 35.7474
#
#
#
# Elastic Compliance Matrix: (Units=1/GPa)
#
#
# Indices 1 2 3 4 5 6 
#
# 1 0.014142 -0.003797 -0.005904 0.000000 -0.002690 0.000000
# 2 -0.003797 0.013620 -0.003208 0.000000 -0.003781 0.000000
# 3 -0.005904 -0.003208 0.014922 0.000000 0.004286 0.000000
# 4 0.000000 0.000000 0.000000 0.054610 0.000000 -0.013110
# 5 -0.002690 -0.003781 0.004286 0.000000 0.033021 0.000000
# 6 0.000000 0.000000 0.000000 -0.013110 0.000000 0.031121
#
#
# Mechanical properties :
#
#
# Convention : Reuss Voigt Hill
#
# Bulk Modulus (GPa) = 59.28798 60.29805 59.79302
# Shear Modulus (GPa) = 25.92310 29.04613 27.48461
#
# Velocity S-wave (km/s) = 3.46690 3.66980 3.56979
# Velocity P-wave (km/s) = 6.59660 6.77599 6.68690
#
# Compressibility (1/GPa) = 0.01686682
#
# Stress axis : x y z
#
# Youngs Moduli (GPa) = 70.71113 73.41925 67.01312
#
# Poissons Ratio (x) = 0.27874 0.39567
# Poissons Ratio (y) = 0.26846 0.21498
# Poissons Ratio (z) = 0.41750 0.23553
#
# Static dielectric constant tensor:
#      x y z
#    x 3.902490 0.000000 0.175550 
#    y 0.000000 3.801270 0.000000 
#    z 0.175550 0.000000 3.980400 
# 
# 
# High freq. dielectric constant tensor:
#      x y z
#    x 1.853410 0.000000 0.011260 
#    y 0.000000 1.849750 0.000000 
#    z 0.011260 0.000000 1.851040 
# 
# From -- ./inp_files/66417.got.cif
#   From: 2010.06.25/outbox.cif.g09.slc.cpg/sg15_34_cif.got.tgz:66417.got - 2010.06.28 07:06:18.
