data_PCOD8149972
_publ_section_title
;
Structure prediction by ZEFSAII (Michael W. Deem and Ramdas Pophale) SiO2 
 PCOD8149972
Probable space group: C 2/C
;
_chemical_formula_sum "Si O2"
_cell_formula_units_Z 60
_cell_length_a 19.053336
_cell_length_b 10.963023
_cell_length_c 15.770465
_cell_angle_alpha 90.000000
_cell_angle_beta 62.425413
_cell_angle_gamma 90.000000
_cell_volume 2919.980820
_symmetry_space_group_name_H-M "C 2/C"
_symmetry_group_IT_number 15
_symmetry_cell_setting 'monoclinic'
loop_
_space_group_symop_operation_xyz
x,y,z
-x,y,1/2-z
-x,-y,-z
x,-y,1/2+z
1/2+x,1/2+y,z
1/2-x,1/2+y,1/2-z
1/2-x,1/2-y,-z
1/2+x,1/2-y,1/2+z
loop_
_atom_site_type_symbol
_atom_site_label
_atom_site_fract_x
_atom_site_fract_y
_atom_site_fract_z
Si Si1 0.335442 0.768025 0.564368
Si Si2 0.576688 0.135032 0.760332
Si Si3 0.712928 0.884578 0.069208
Si Si4 0.000000 0.232517 0.750000
Si Si5 0.497474 0.320672 0.928276
Si Si6 0.434860 0.412891 0.438779
Si Si7 0.244927 0.139033 0.438532
Si Si8 0.862867 0.626247 0.232333
O O1 0.277080 0.841751 0.533586
O O2 0.291451 0.636167 0.585385
O O3 0.421135 0.764564 0.474160
O O4 0.342303 0.828294 0.650874
O O5 0.500000 0.094605 0.750000
O O6 0.639757 0.183039 0.656376
O O7 0.560065 0.247187 0.834680
O O8 0.617656 0.018452 0.783696
O O9 0.697011 0.028725 0.066285
O O10 0.946974 0.151426 0.842103
O O11 0.940405 0.311681 0.727534
O O12 0.475313 0.454458 0.905556
O O13 0.525988 0.334051 0.008686
O O14 0.342825 0.416153 0.514536
O O15 0.250000 0.250000 0.500000
O O16 0.282590 0.169822 0.325909
#
# Coordination Sequence:
#
# PCOD8149972 Si02
#       8
#     8   8   8   4   8   8   8   8
#     4  11  22  44  66  93 134 168 220 276 334 391
#     4  11  23  42  67  96 131 171 230 277 334 401
#     4  10  24  43  66  96 132 176 217 275 329 403
#     4  12  22  42  66  98 140 166 218 272 336 392
#     4  11  24  43  68  95 130 175 225 281 328 396
#     4  11  25  43  65 100 132 176 224 273 332 406
#     4  11  23  44  67  93 139 176 220 266 336 400
#     4  11  25  42  65 101 131 177 219 280 331 398
#
# _framework density 20.548079999999999
#
# number of rings (size 3 to 8) (size 9 to 14) (size 15 to 20)
#    0.000    1.067    6.000    0.000    2.800    1.600 
#    2.400    0.000    0.000    0.000    0.000    0.000 
#    0.000    0.000    0.000    0.000    0.000    0.000 
#
# Total GULP energy -371689.451190 kJ/mol
# GULP energy per Si atom -12389.648373 kJ/mol
# Density = 2.050131 g / cm^3
# Si number density = 20.548080 Si / 1000 Ang^3
#
#
#
# Elastic Constant Matrix: (Units=GPa)
#
#
# Indices 1 2 3 4 5 6 
#
# 1 94.5412 35.2226 59.4595 0.0000 4.4075 0.0000
# 2 35.2226 110.8120 67.7618 0.0000 8.7350 0.0000
# 3 59.4595 67.7618 141.1222 0.0000 1.6819 0.0000
# 4 0.0000 0.0000 0.0000 35.6643 0.0000 -6.6344
# 5 4.4075 8.7350 1.6819 0.0000 46.5724 0.0000
# 6 0.0000 0.0000 0.0000 -6.6344 0.0000 19.5744
#
#
#
# Elastic Compliance Matrix: (Units=1/GPa)
#
#
# Indices 1 2 3 4 5 6 
#
# 1 0.014552 -0.001143 -0.005571 0.000000 -0.000962 0.000000
# 2 -0.001143 0.013089 -0.005778 0.000000 -0.002138 0.000000
# 3 -0.005571 -0.005778 0.012194 0.000000 0.001171 0.000000
# 4 0.000000 0.000000 0.000000 0.029926 0.000000 0.010143
# 5 -0.000962 -0.002138 0.001171 0.000000 0.021922 0.000000
# 6 0.000000 0.000000 0.000000 0.010143 0.000000 0.054525
#
#
# Mechanical properties :
#
#
# Convention : Reuss Voigt Hill
#
# Bulk Modulus (GPa) = 67.33502 74.59593 70.96548
# Shear Modulus (GPa) = 28.38628 32.63098 30.50863
#
# Velocity S-wave (km/s) = 3.72083 3.98933 3.85742
# Velocity P-wave (km/s) = 7.16240 7.58957 7.37908
#
# Compressibility (1/GPa) = 0.01485111
#
# Stress axis : x y z
#
# Youngs Moduli (GPa) = 68.72038 76.39763 82.00983
#
# Poissons Ratio (x) = 0.08733 0.45686
# Poissons Ratio (y) = 0.07855 0.47385
# Poissons Ratio (z) = 0.38283 0.44142
#
# Static dielectric constant tensor:
#      x y z
#    x 3.888790 0.000000 -0.211170 
#    y 0.000000 3.737500 0.000000 
#    z -0.211170 0.000000 3.738670 
# 
# 
# High freq. dielectric constant tensor:
#      x y z
#    x 1.806720 0.000000 -0.010970 
#    y 0.000000 1.804730 0.000000 
#    z -0.010970 0.000000 1.809790 
# 
# From -- ./inp_files/161315.got.cif
#   From: 2010.06.25/outbox.cif.g09.slc.cpg/sg15_81_cif.got.tgz:161315.got - 2010.06.28 07:06:18.
