data_PCOD8149830
_publ_section_title
;
Structure prediction by ZEFSAII (Michael W. Deem and Ramdas Pophale) SiO2 
 PCOD8149830
Probable space group: C 2/C
;
_chemical_formula_sum "Si O2"
_cell_formula_units_Z 56
_cell_length_a 26.553840
_cell_length_b 12.449022
_cell_length_c 8.816977
_cell_angle_alpha 90.000000
_cell_angle_beta 63.062464
_cell_angle_gamma 90.000000
_cell_volume 2598.388467
_symmetry_space_group_name_H-M "C 2/C"
_symmetry_group_IT_number 15
_symmetry_cell_setting 'monoclinic'
loop_
_space_group_symop_operation_xyz
x,y,z
-x,y,1/2-z
-x,-y,-z
x,-y,1/2+z
1/2+x,1/2+y,z
1/2-x,1/2+y,1/2-z
1/2-x,1/2-y,-z
1/2+x,1/2-y,1/2+z
loop_
_atom_site_type_symbol
_atom_site_label
_atom_site_fract_x
_atom_site_fract_y
_atom_site_fract_z
Si Si1 0.494486 0.114019 0.081132
Si Si2 0.654737 0.294449 0.812726
Si Si3 0.057244 0.747185 0.761177
Si Si4 0.687397 0.052120 0.716234
Si Si5 0.734373 0.511205 0.145382
Si Si6 0.811857 0.800693 0.398925
Si Si7 0.618296 0.151117 0.397365
O O1 0.500000 0.104465 0.250000
O O2 0.433988 0.167121 0.142019
O O3 0.541638 0.183107 0.933534
O O4 0.500000 0.000000 0.000000
O O5 0.599480 0.333408 0.787205
O O6 0.666644 0.173238 0.746361
O O7 0.705887 0.372853 0.700129
O O8 0.649208 0.290733 0.003525
O O9 0.095418 0.672775 0.598775
O O10 0.000000 0.790413 0.750000
O O11 0.704753 0.023187 0.520777
O O12 0.747718 0.039000 0.718400
O O13 0.641392 0.969943 0.847457
O O14 0.691432 0.427551 0.127666
O O15 0.750000 0.750000 0.500000
O O16 0.837419 0.740495 0.217811
#
# Coordination Sequence:
#
# PCOD8149830 Si02
#       7
#     8   8   8   8   8   8   8
#     4  11  22  40  64  95 134 173 224 283 339 396
#     4  12  24  40  66  92 131 183 218 276 345 385
#     4  10  24  42  66 100 131 172 231 282 334 402
#     4  12  23  39  62  96 133 172 218 266 329 414
#     4  12  25  40  61  93 137 173 224 267 323 407
#     4  12  23  43  63  94 138 178 223 271 329 411
#     4  11  23  40  67  98 136 175 217 278 342 397
#
# _framework density 21.551818000000001
#
# number of rings (size 3 to 8) (size 9 to 14) (size 15 to 20)
#    0.000    0.571    4.286    4.286    2.000    2.286 
#    0.000    0.000    0.000    8.571    0.000    0.000 
#    0.000    0.000    0.000    0.000    0.000    0.000 
#
# Total GULP energy -346917.096086 kJ/mol
# GULP energy per Si atom -12389.896289 kJ/mol
# Density = 2.150277 g / cm^3
# Si number density = 21.551818 Si / 1000 Ang^3
#
#
#
# Elastic Constant Matrix: (Units=GPa)
#
#
# Indices 1 2 3 4 5 6 
#
# 1 108.2248 25.2832 49.6430 0.0000 7.9147 0.0000
# 2 25.2832 91.3962 30.9361 0.0000 -4.2162 0.0000
# 3 49.6430 30.9361 130.6648 0.0000 6.1109 0.0000
# 4 0.0000 0.0000 0.0000 26.2374 0.0000 0.8664
# 5 7.9147 -4.2162 6.1109 0.0000 39.2493 0.0000
# 6 0.0000 0.0000 0.0000 0.8664 0.0000 22.4124
#
#
#
# Elastic Compliance Matrix: (Units=1/GPa)
#
#
# Indices 1 2 3 4 5 6 
#
# 1 0.011616 -0.002001 -0.003848 0.000000 -0.001958 0.000000
# 2 -0.002001 0.012357 -0.002263 0.000000 0.002083 0.000000
# 3 -0.003848 -0.002263 0.009696 0.000000 -0.000977 0.000000
# 4 0.000000 0.000000 0.000000 0.038162 0.000000 -0.001475
# 5 -0.001958 0.002083 -0.000977 0.000000 0.026249 0.000000
# 6 0.000000 0.000000 0.000000 -0.001475 0.000000 0.044675
#
#
# Mechanical properties :
#
#
# Convention : Reuss Voigt Hill
#
# Bulk Modulus (GPa) = 57.32058 60.22337 58.77198
# Shear Modulus (GPa) = 30.34087 32.54138 31.44112
#
# Velocity S-wave (km/s) = 3.75615 3.88998 3.82365
# Velocity P-wave (km/s) = 6.74284 6.94119 6.84273
#
# Compressibility (1/GPa) = 0.01744574
#
# Stress axis : x y z
#
# Youngs Moduli (GPa) = 86.09020 80.92597 103.13078
#
# Poissons Ratio (x) = 0.16195 0.39682
# Poissons Ratio (y) = 0.17229 0.23336
# Poissons Ratio (z) = 0.33125 0.18311
#
# Static dielectric constant tensor:
#      x y z
#    x 3.370870 0.000000 0.110870 
#    y 0.000000 3.639380 0.000000 
#    z 0.110870 0.000000 4.073480 
# 
# 
# High freq. dielectric constant tensor:
#      x y z
#    x 1.860630 0.000000 0.014240 
#    y 0.000000 1.814910 0.000000 
#    z 0.014240 0.000000 1.863420 
# 
# From -- ./inp_files/65447.got.cif
#   From: 2010.06.25/outbox.cif.g09.slc.cpg/sg15_33_cif.got.tgz:65447.got - 2010.06.28 07:06:18.
