data_PCOD8149342
_publ_section_title
;
Structure prediction by ZEFSAII (Michael W. Deem and Ramdas Pophale) SiO2 
 PCOD8149342
Probable space group: C 2/C
;
_chemical_formula_sum "Si O2"
_cell_formula_units_Z 60
_cell_length_a 20.752594
_cell_length_b 5.436744
_cell_length_c 26.479141
_cell_angle_alpha 90.000000
_cell_angle_beta 120.306094
_cell_angle_gamma 90.000000
_cell_volume 2579.276947
_symmetry_space_group_name_H-M "C 2/C"
_symmetry_group_IT_number 15
_symmetry_cell_setting 'monoclinic'
loop_
_space_group_symop_operation_xyz
x,y,z
-x,y,1/2-z
-x,-y,-z
x,-y,1/2+z
1/2+x,1/2+y,z
1/2-x,1/2+y,1/2-z
1/2-x,1/2-y,-z
1/2+x,1/2-y,1/2+z
loop_
_atom_site_type_symbol
_atom_site_label
_atom_site_fract_x
_atom_site_fract_y
_atom_site_fract_z
Si Si1 0.231182 0.380112 0.339080
Si Si2 0.978856 0.183230 0.130837
Si Si3 0.235258 0.553145 0.952082
Si Si4 0.500000 0.597778 0.250000
Si Si5 0.371631 0.313361 0.049609
Si Si6 0.498044 0.924773 0.941474
Si Si7 0.348712 0.372186 0.218912
Si Si8 0.119516 0.863146 0.157131
O O1 0.240824 0.307989 0.401146
O O2 0.184658 0.635005 0.322358
O O3 0.309057 0.461092 0.344672
O O4 0.196662 0.133667 0.299801
O O5 0.991059 0.261149 0.194917
O O6 0.965487 0.398529 0.086060
O O7 0.055264 0.062199 0.140746
O O8 0.902003 0.023073 0.100145
O O9 0.155060 0.418438 0.926900
O O10 0.250000 0.750000 0.000000
O O11 0.303408 0.363655 0.984826
O O12 0.429892 0.417467 0.227957
O O13 0.442081 0.292895 0.039375
O O14 0.414820 0.856049 0.890755
O O15 0.500000 0.000000 0.000000
O O16 0.353014 0.270682 0.277783
#
# Coordination Sequence:
#
# PCOD8149342 Si02
#       8
#     8   8   8   4   8   8   8   8
#     4  12  28  45  77 103 147 193 242 298 371 432
#     4  10  23  45  69 101 143 184 242 304 364 441
#     4  11  26  42  69  99 145 188 241 300 365 434
#     4  10  24  46  76 106 142 188 242 298 376 438
#     4  10  24  44  65 100 144 182 243 302 365 442
#     4  11  26  42  73 103 144 194 246 305 369 438
#     4  11  27  48  74 110 142 190 240 304 365 442
#     4  10  26  45  69 104 143 187 242 303 361 439
#
# _framework density 23.262333999999999
#
# number of rings (size 3 to 8) (size 9 to 14) (size 15 to 20)
#    0.000    1.333    0.000    2.400   18.667    1.600 
#    0.000    0.000    0.000    0.000    0.000    0.000 
#    0.000    0.000    0.000    0.000    0.000    0.000 
#
# Total GULP energy -371671.750238 kJ/mol
# GULP energy per Si atom -12389.058341 kJ/mol
# Density = 2.320939 g / cm^3
# Si number density = 23.262334 Si / 1000 Ang^3
#
#
#
# Elastic Constant Matrix: (Units=GPa)
#
#
# Indices 1 2 3 4 5 6 
#
# 1 134.0734 19.5172 58.3305 -0.0008 -0.0958 0.0010
# 2 19.5172 77.9655 30.0583 -0.0037 -1.4586 0.0071
# 3 58.3305 30.0583 155.7756 -0.0006 -28.9832 0.0010
# 4 -0.0008 -0.0037 -0.0006 31.2777 0.0004 -1.3566
# 5 -0.0958 -1.4586 -28.9832 0.0004 45.8197 -0.0008
# 6 0.0010 0.0071 0.0010 -1.3566 -0.0008 20.7603
#
#
#
# Elastic Compliance Matrix: (Units=1/GPa)
#
#
# Indices 1 2 3 4 5 6 
#
# 1 0.009204 -0.000919 -0.003707 0.000000 -0.002355 0.000000
# 2 -0.000919 0.014030 -0.002585 0.000001 -0.001190 -0.000005
# 3 -0.003707 -0.002585 0.009395 0.000000 0.005853 0.000001
# 4 0.000000 0.000001 0.000000 0.032063 0.000000 0.002095
# 5 -0.002355 -0.001190 0.005853 0.000000 0.025484 0.000001
# 6 0.000000 -0.000005 0.000001 0.002095 0.000001 0.048306
#
#
# Mechanical properties :
#
#
# Convention : Reuss Voigt Hill
#
# Bulk Modulus (GPa) = 54.92073 64.84739 59.88406
# Shear Modulus (GPa) = 31.45200 36.89877 34.17538
#
# Velocity S-wave (km/s) = 3.68102 3.98704 3.83708
# Velocity P-wave (km/s) = 6.45965 7.00945 6.74016
#
# Compressibility (1/GPa) = 0.01820806
#
# Stress axis : x y z
#
# Youngs Moduli (GPa) = 108.65419 71.27375 106.43527
#
# Poissons Ratio (x) = 0.06548 0.39457
# Poissons Ratio (y) = 0.09983 0.27510
# Poissons Ratio (z) = 0.40280 0.18422
#
# Static dielectric constant tensor:
#      x y z
#    x 4.125300 -0.000050 -0.105810 
#    y -0.000050 4.268670 -0.000110 
#    z -0.105810 -0.000110 3.815240 
# 
# 
# High freq. dielectric constant tensor:
#      x y z
#    x 1.937590 0.000000 0.008390 
#    y 0.000000 1.898860 0.000000 
#    z 0.008390 0.000000 1.932950 
# 
# From -- ./inp_files/300135.got.cif
#   From: 2010.06.25/outbox.cif.g09.slc.cpg/sg15_151_cif.got.tgz:300135.got - 2010.06.28 07:06:18.
