data_PCOD8149383
_publ_section_title
;
Structure prediction by ZEFSAII (Michael W. Deem and Ramdas Pophale) SiO2 
 PCOD8149383
Probable space group: C 2/C
;
_chemical_formula_sum "Si O2"
_cell_formula_units_Z 44
_cell_length_a 21.740643
_cell_length_b 8.633275
_cell_length_c 25.227740
_cell_angle_alpha 90.000000
_cell_angle_beta 21.564392
_cell_angle_gamma 90.000000
_cell_volume 1740.358711
_symmetry_space_group_name_H-M "C 2/C"
_symmetry_group_IT_number 15
_symmetry_cell_setting 'monoclinic'
loop_
_space_group_symop_operation_xyz
x,y,z
-x,y,1/2-z
-x,-y,-z
x,-y,1/2+z
1/2+x,1/2+y,z
1/2-x,1/2+y,1/2-z
1/2-x,1/2-y,-z
1/2+x,1/2-y,1/2+z
loop_
_atom_site_type_symbol
_atom_site_label
_atom_site_fract_x
_atom_site_fract_y
_atom_site_fract_z
Si Si1 0.000000 0.308445 0.250000
Si Si2 0.083170 0.277550 0.363763
Si Si3 0.260624 0.063511 0.421629
Si Si4 0.749403 0.422194 0.810895
Si Si5 0.710568 0.628095 0.161623
Si Si6 0.928951 0.191200 0.728057
O O1 0.841673 0.420763 0.389302
O O2 0.945304 0.204111 0.244805
O O3 0.184152 0.441049 0.280621
O O4 0.096828 0.179906 0.407950
O O5 0.173540 0.160422 0.252031
O O6 0.892206 0.308180 0.500096
O O7 0.198420 0.013015 0.411188
O O8 0.398548 0.199469 0.303694
O O9 0.113233 0.120850 0.577640
O O10 0.897348 0.295043 0.700612
O O11 0.708211 0.444367 0.155726
#
# Coordination Sequence:
#
# PCOD8149383 Si02
#       6
#     4   8   8   8   8   8
#     4  12  26  50  70 104 150 184 250 292 354 422
#     4  12  26  45  74 107 146 183 243 288 371 417
#     4  10  24  46  73 104 141 195 232 298 349 424
#     4  10  25  46  74 106 148 185 232 304 351 439
#     4  12  27  45  73 109 139 196 233 301 350 431
#     4  10  23  45  73 107 140 186 245 280 373 407
#
# _framework density 25.282143999999999
#
# number of rings (size 3 to 8) (size 9 to 14) (size 15 to 20)
#    1.091    0.000    1.818    3.273    2.545    6.545 
#    0.000    0.000    0.000    0.000    0.000    0.000 
#    0.000    0.000    0.000    0.000    0.000    0.000 
#
# Total GULP energy -272537.520532 kJ/mol
# GULP energy per Si atom -12388.069115 kJ/mol
# Density = 2.522460 g / cm^3
# Si number density = 25.282144 Si / 1000 Ang^3
#
#
#
# Elastic Constant Matrix: (Units=GPa)
#
#
# Indices 1 2 3 4 5 6 
#
# 1 31.3858 43.0139 29.7655 0.0078 -42.9035 -0.0008
# 2 43.0139 123.5444 3.6557 0.0078 -11.4334 0.0045
# 3 29.7655 3.6557 78.7173 0.0060 0.4900 -0.0051
# 4 0.0078 0.0078 0.0060 32.7767 0.0028 -22.5070
# 5 -42.9035 -11.4334 0.4900 0.0028 25.8730 -0.0047
# 6 -0.0008 0.0045 -0.0051 -22.5070 -0.0047 33.2675
#
#
#
# Elastic Compliance Matrix: (Units=1/GPa)
#
#
# Indices 1 2 3 4 5 6 
#
# 1 -0.017877 0.003408 0.006778 0.000004 -0.028268 -0.000001
# 2 0.003408 0.007803 -0.001708 -0.000006 0.009132 -0.000004
# 3 0.006778 -0.001708 0.010156 -0.000003 0.010292 0.000001
# 4 0.000004 -0.000006 -0.000003 0.056981 0.000005 0.038550
# 5 -0.028268 0.009132 0.010292 0.000005 -0.004384 0.000002
# 6 -0.000001 -0.000004 0.000001 0.038550 0.000002 0.056141
#
#
# Mechanical properties :
#
#
# Convention : Reuss Voigt Hill
#
# Bulk Modulus (GPa) = 58.69463 42.94643 50.82053
# Shear Modulus (GPa) = 51.25894 28.86428 40.06161
#
# Velocity S-wave (km/s) = 4.50763 3.38255 3.98500
# Velocity P-wave (km/s) = 7.09633 5.68149 6.42796
#
# Compressibility (1/GPa) = 0.01703733
#
# Stress axis : x y z
#
# Youngs Moduli (GPa) = -55.93641 128.14913 98.46354
#
# Poissons Ratio (x) = -0.43670 -0.66736
# Poissons Ratio (y) = 0.19062 0.16816
# Poissons Ratio (z) = 0.37912 0.21886
#
# Static dielectric constant tensor:
#      x y z
#    x 4.331070 0.000020 -0.233600 
#    y 0.000020 4.843550 -0.000020 
#    z -0.233600 -0.000020 4.068060 
# 
# 
# High freq. dielectric constant tensor:
#      x y z
#    x 1.993730 0.000000 -0.019260 
#    y 0.000000 2.034360 0.000000 
#    z -0.019260 0.000000 1.986440 
# 
# From -- ./inp_files/318566.got.cif
#   From: 2010.06.25/outbox.cif.g09.slc.cpg/sg15_160_cif.got.tgz:318566.got - 2010.06.28 07:06:18.
