data_PCOD8149018
_publ_section_title
;
Structure prediction by ZEFSAII (Michael W. Deem and Ramdas Pophale) SiO2 
 PCOD8149018
Probable space group: C 2/C
;
_chemical_formula_sum "Si O2"
_cell_formula_units_Z 48
_cell_length_a 7.969295
_cell_length_b 28.011439
_cell_length_c 10.442468
_cell_angle_alpha 90.000000
_cell_angle_beta 119.771277
_cell_angle_gamma 90.000000
_cell_volume 2023.417249
_symmetry_space_group_name_H-M "C 2/C"
_symmetry_group_IT_number 15
_symmetry_cell_setting 'monoclinic'
loop_
_space_group_symop_operation_xyz
x,y,z
-x,y,1/2-z
-x,-y,-z
x,-y,1/2+z
1/2+x,1/2+y,z
1/2-x,1/2+y,1/2-z
1/2-x,1/2-y,-z
1/2+x,1/2-y,1/2+z
loop_
_atom_site_type_symbol
_atom_site_label
_atom_site_fract_x
_atom_site_fract_y
_atom_site_fract_z
Si Si1 0.910654 0.276878 0.854950
Si Si2 0.000000 0.471791 0.250000
Si Si3 0.175303 0.986816 0.475994
Si Si4 0.358687 0.804712 0.308659
Si Si5 0.352093 0.117452 0.309610
Si Si6 0.000000 0.937657 0.750000
Si Si7 0.677160 0.905525 0.120446
O O1 0.770687 0.232103 0.821133
O O2 0.798536 0.326926 0.804713
O O3 0.000000 0.266847 0.750000
O O4 0.055276 0.278505 0.032007
O O5 0.884429 0.508666 0.118278
O O6 0.845577 0.439140 0.265073
O O7 0.166035 0.028584 0.368914
O O8 0.169029 0.933092 0.413943
O O9 0.000000 0.000000 0.500000
O O10 0.500000 0.823057 0.250000
O O11 0.245255 0.852596 0.313963
O O12 0.500000 0.108650 0.250000
O O13 0.139113 0.093498 0.208636
O O14 0.462474 0.100256 0.478949
#
# Coordination Sequence:
#
# PCOD8149018 Si02
#       7
#     8   4   8   8   8   4   8
#     4  10  23  45  71 104 146 193 244 306 377 440
#     4  12  24  46  69  96 148 183 232 308 366 432
#     4  12  27  44  71 101 143 189 250 299 373 446
#     4  11  23  45  74 106 147 190 247 303 376 450
#     4  10  23  43  72 103 143 193 244 300 371 444
#     4  12  24  44  67 106 136 185 252 294 358 454
#     4  11  24  46  69 100 146 193 234 302 376 439
#
# _framework density 23.722245999999998
#
# number of rings (size 3 to 8) (size 9 to 14) (size 15 to 20)
#    0.000    1.000    2.500    3.500    4.667    0.000 
#    7.500    0.000    0.000    0.000    0.000    0.000 
#    0.000    0.000    0.000    0.000    0.000    0.000 
#
# Total GULP energy -297351.868683 kJ/mol
# GULP energy per Si atom -12389.661195 kJ/mol
# Density = 2.366825 g / cm^3
# Si number density = 23.722246 Si / 1000 Ang^3
#
#
#
# Elastic Constant Matrix: (Units=GPa)
#
#
# Indices 1 2 3 4 5 6 
#
# 1 110.7705 64.3298 16.4144 0.0000 -10.5026 0.0000
# 2 64.3298 180.3600 29.0433 0.0000 4.0854 0.0000
# 3 16.4144 29.0433 73.5139 0.0000 -8.3513 0.0000
# 4 0.0000 0.0000 0.0000 23.4761 0.0000 -14.6454
# 5 -10.5026 4.0854 -8.3513 0.0000 34.8745 0.0000
# 6 0.0000 0.0000 0.0000 -14.6454 0.0000 21.5472
#
#
#
# Elastic Compliance Matrix: (Units=1/GPa)
#
#
# Indices 1 2 3 4 5 6 
#
# 1 0.011964 -0.004272 -0.000532 0.000000 0.003976 0.000000
# 2 -0.004272 0.007503 -0.002320 0.000000 -0.002721 0.000000
# 3 -0.000532 -0.002320 0.015060 0.000000 0.003718 0.000000
# 4 0.000000 0.000000 0.000000 0.073955 0.000000 0.050266
# 5 0.003976 -0.002721 0.003718 0.000000 0.031081 0.000000
# 6 0.000000 0.000000 0.000000 0.050266 0.000000 0.080575
#
#
# Mechanical properties :
#
#
# Convention : Reuss Voigt Hill
#
# Bulk Modulus (GPa) = 49.30694 64.91329 57.11011
# Shear Modulus (GPa) = 20.73432 32.97002 26.85217
#
# Velocity S-wave (km/s) = 2.95963 3.73209 3.36808
# Velocity P-wave (km/s) = 5.70171 6.78194 6.26515
#
# Compressibility (1/GPa) = 0.02028112
#
# Stress axis : x y z
#
# Youngs Moduli (GPa) = 83.58180 133.27549 66.39905
#
# Poissons Ratio (x) = 0.56932 0.03533
# Poissons Ratio (y) = 0.35704 0.15402
# Poissons Ratio (z) = 0.04447 0.30915
#
# Static dielectric constant tensor:
#      x y z
#    x 3.650470 0.000000 -0.219520 
#    y 0.000000 4.711840 0.000000 
#    z -0.219520 0.000000 3.907630 
# 
# 
# High freq. dielectric constant tensor:
#      x y z
#    x 1.922310 0.000000 -0.018110 
#    y 0.000000 1.959220 0.000000 
#    z -0.018110 0.000000 1.937160 
# 
# From -- ./inp_files/80978.got.cif
#   From: 2010.06.25/outbox.cif.g09.slc.cpg/sg15_41_cif.got.tgz:80978.got - 2010.06.28 07:06:18.
