data_PCOD8149452
_publ_section_title
;
Structure prediction by ZEFSAII (Michael W. Deem and Ramdas Pophale) SiO2 
 PCOD8149452
Probable space group: C 2/C
;
_chemical_formula_sum "Si O2"
_cell_formula_units_Z 40
_cell_length_a 20.961141
_cell_length_b 5.376897
_cell_length_c 12.729800
_cell_angle_alpha 90.000000
_cell_angle_beta 75.125475
_cell_angle_gamma 90.000000
_cell_volume 1386.646378
_symmetry_space_group_name_H-M "C 2/C"
_symmetry_group_IT_number 15
_symmetry_cell_setting 'monoclinic'
loop_
_space_group_symop_operation_xyz
x,y,z
-x,y,1/2-z
-x,-y,-z
x,-y,1/2+z
1/2+x,1/2+y,z
1/2-x,1/2+y,1/2-z
1/2-x,1/2-y,-z
1/2+x,1/2-y,1/2+z
loop_
_atom_site_type_symbol
_atom_site_label
_atom_site_fract_x
_atom_site_fract_y
_atom_site_fract_z
Si Si1 0.153906 0.440150 0.470842
Si Si2 0.985308 0.418446 0.878967
Si Si3 0.166394 0.777183 0.281930
Si Si4 0.749098 0.993581 0.593549
Si Si5 0.538418 0.578055 0.342359
O O1 0.091520 0.459680 0.573243
O O2 0.134437 0.553391 0.365083
O O3 0.183066 0.159736 0.456187
O O4 0.212942 0.606213 0.503148
O O5 0.000000 0.378579 0.750000
O O6 0.028040 0.654973 0.908204
O O7 0.007000 0.152851 0.920398
O O8 0.189961 0.692860 0.157566
O O9 0.234677 0.828253 0.316614
O O10 0.115854 0.010804 0.292088
O O11 0.500000 0.630448 0.250000
#
# Coordination Sequence:
#
# PCOD8149452 Si02
#       5
#     8   8   8   8   8
#     4  11  26  46  74 105 150 192 253 305 379 451
#     4  10  23  46  71 105 145 199 246 307 369 440
#     4  12  25  45  75 105 148 194 250 311 375 456
#     4  11  25  47  71 111 146 195 248 312 380 446
#     4  10  24  44  73 104 146 199 248 306 373 435
#
# _framework density 28.846574
#
# number of rings (size 3 to 8) (size 9 to 14) (size 15 to 20)
#    0.000    1.200    2.000    3.000    5.600    4.800 
#    3.600    0.000    0.000    0.000    0.000    0.000 
#    0.000    0.000    0.000    0.000    0.000    0.000 
#
# Total GULP energy -247788.050504 kJ/mol
# GULP energy per Si atom -12389.402525 kJ/mol
# Density = 2.878092 g / cm^3
# Si number density = 28.846574 Si / 1000 Ang^3
#
#
#
# Elastic Constant Matrix: (Units=GPa)
#
#
# Indices 1 2 3 4 5 6 
#
# 1 95.6437 17.0862 22.2221 0.0000 -12.9136 0.0000
# 2 17.0862 113.5493 -4.7821 0.0000 -7.5679 0.0000
# 3 22.2221 -4.7821 63.4112 0.0000 -17.6991 0.0000
# 4 0.0000 0.0000 0.0000 -63.3974 0.0000 -6.0027
# 5 -12.9136 -7.5679 -17.6991 0.0000 63.0998 0.0000
# 6 0.0000 0.0000 0.0000 -6.0027 0.0000 63.0333
#
#
#
# Elastic Compliance Matrix: (Units=1/GPa)
#
#
# Indices 1 2 3 4 5 6 
#
# 1 0.011867 -0.001882 -0.003999 0.000000 0.001081 0.000000
# 2 -0.001882 0.009241 0.001691 0.000000 0.001197 0.000000
# 3 -0.003999 0.001691 0.018582 0.000000 0.004597 0.000000
# 4 0.000000 0.000000 0.000000 -0.015633 0.000000 -0.001489
# 5 0.001081 0.001197 0.004597 0.000000 0.017502 0.000000
# 6 0.000000 0.000000 0.000000 -0.001489 0.000000 0.015723
#
#
# Mechanical properties :
#
#
# Convention : Reuss Voigt Hill
#
# Bulk Modulus (GPa) = 31.93935 37.96184 34.95060
# Shear Modulus (GPa) = 65.70418 28.41900 47.06159
#
# Velocity S-wave (km/s) = 4.77772 3.14216 4.04350
# Velocity P-wave (km/s) = 6.44450 5.13349 5.82599
#
# Compressibility (1/GPa) = 0.03130934
#
# Stress axis : x y z
#
# Youngs Moduli (GPa) = 84.26909 108.21410 53.81583
#
# Poissons Ratio (x) = 0.20366 0.21520
# Poissons Ratio (y) = 0.15859 -0.09098
# Poissons Ratio (z) = 0.33697 -0.18295
#
# Static dielectric constant tensor:
#      x y z
#    x 4.741520 0.000000 -0.427540 
#    y 0.000000 5.962140 0.000000 
#    z -0.427540 0.000000 4.424780 
# 
# 
# High freq. dielectric constant tensor:
#      x y z
#    x 2.187670 0.000000 0.011920 
#    y 0.000000 2.178310 0.000000 
#    z 0.011920 0.000000 2.185880 
# 
# From -- ./inp_files/170741.got.cif
#   From: 2010.06.25/outbox.cif.g09.slc.cpg/sg15_86_cif.got.tgz:170741.got - 2010.06.28 07:06:18.
