data_PCOD8149506
_publ_section_title
;
Structure prediction by ZEFSAII (Michael W. Deem and Ramdas Pophale) SiO2 
 PCOD8149506
Probable space group: C 2/C
;
_chemical_formula_sum "Si O2"
_cell_formula_units_Z 40
_cell_length_a 9.334978
_cell_length_b 28.690070
_cell_length_c 15.048685
_cell_angle_alpha 90.000000
_cell_angle_beta 150.655537
_cell_angle_gamma 90.000000
_cell_volume 1975.112667
_symmetry_space_group_name_H-M "C 2/C"
_symmetry_group_IT_number 15
_symmetry_cell_setting 'monoclinic'
loop_
_space_group_symop_operation_xyz
x,y,z
-x,y,1/2-z
-x,-y,-z
x,-y,1/2+z
1/2+x,1/2+y,z
1/2-x,1/2+y,1/2-z
1/2-x,1/2-y,-z
1/2+x,1/2-y,1/2+z
loop_
_atom_site_type_symbol
_atom_site_label
_atom_site_fract_x
_atom_site_fract_y
_atom_site_fract_z
Si Si1 0.620069 0.116226 0.717848
Si Si2 0.286443 0.205184 0.458681
Si Si3 0.713851 0.792711 0.043580
Si Si4 0.310149 0.883950 0.563876
Si Si5 0.164287 0.451914 0.081152
O O1 0.500000 0.100386 0.750000
O O2 0.441800 0.162820 0.595128
O O3 0.566261 0.076454 0.615674
O O4 0.970882 0.122739 0.908022
O O5 0.250000 0.250000 0.500000
O O6 0.494533 0.226159 0.497287
O O7 0.000000 0.187956 0.250000
O O8 0.000000 0.810854 0.250000
O O9 0.750000 0.750000 0.000000
O O10 0.578992 0.835223 0.915705
O O11 0.500000 0.898013 0.750000
O O12 0.404539 0.922595 0.543868
O O13 0.500000 0.464315 0.250000
O O14 0.000000 0.500000 0.000000
#
# Coordination Sequence:
#
# PCOD8149506 Si02
#       5
#     8   8   8   8   8
#     4  11  25  44  68  99 138 174 221 277 330 396
#     4  12  26  42  63  97 139 177 226 276 329 390
#     4  12  23  42  65  92 135 179 224 273 327 390
#     4  11  24  45  69  99 134 177 225 272 331 399
#     4  10  23  47  72  99 133 172 219 276 336 398
#
# _framework density 20.252009999999999
#
# number of rings (size 3 to 8) (size 9 to 14) (size 15 to 20)
#    0.000    0.800    4.000    3.000    5.600    3.200 
#    0.000    4.000    0.000    0.000    0.000    0.000 
#    0.000    0.000    0.000    0.000    0.000    0.000 
#
# Total GULP energy -247852.403993 kJ/mol
# GULP energy per Si atom -12392.620200 kJ/mol
# Density = 2.020592 g / cm^3
# Si number density = 20.252010 Si / 1000 Ang^3
#
#
#
# Elastic Constant Matrix: (Units=GPa)
#
#
# Indices 1 2 3 4 5 6 
#
# 1 199.9249 89.1961 61.3184 0.0000 -9.5661 0.0000
# 2 89.1961 175.4598 61.5113 0.0000 -10.8619 0.0000
# 3 61.3184 61.5113 123.2617 0.0000 -19.0477 0.0000
# 4 0.0000 0.0000 0.0000 32.1585 0.0000 8.2439
# 5 -9.5661 -10.8619 -19.0477 0.0000 32.2175 0.0000
# 6 0.0000 0.0000 0.0000 8.2439 0.0000 11.8067
#
#
#
# Elastic Compliance Matrix: (Units=1/GPa)
#
#
# Indices 1 2 3 4 5 6 
#
# 1 0.006864 -0.002779 -0.002044 0.000000 -0.000108 0.000000
# 2 -0.002779 0.008036 -0.002572 0.000000 0.000364 0.000000
# 3 -0.002044 -0.002572 0.011209 0.000000 0.005153 0.000000
# 4 0.000000 0.000000 0.000000 0.037876 0.000000 -0.026446
# 5 -0.000108 0.000364 0.005153 0.000000 0.034176 0.000000
# 6 0.000000 0.000000 0.000000 -0.026446 0.000000 0.103164
#
#
# Mechanical properties :
#
#
# Convention : Reuss Voigt Hill
#
# Bulk Modulus (GPa) = 88.34400 102.52202 95.43301
# Shear Modulus (GPa) = 22.73889 34.34457 28.54173
#
# Velocity S-wave (km/s) = 3.35445 4.12255 3.75817
# Velocity P-wave (km/s) = 7.66291 8.56701 8.12754
#
# Compressibility (1/GPa) = 0.01131939
#
# Stress axis : x y z
#
# Youngs Moduli (GPa) = 145.69572 124.43758 89.21168
#
# Poissons Ratio (x) = 0.34584 0.18236
# Poissons Ratio (y) = 0.40492 0.22941
# Poissons Ratio (z) = 0.29782 0.31999
#
# Static dielectric constant tensor:
#      x y z
#    x 4.114570 0.000000 -0.113700 
#    y 0.000000 3.502250 0.000000 
#    z -0.113700 0.000000 4.161400 
# 
# 
# High freq. dielectric constant tensor:
#      x y z
#    x 1.818650 0.000000 -0.002390 
#    y 0.000000 1.787840 0.000000 
#    z -0.002390 0.000000 1.794370 
# 
# From -- ./inp_files/25352.got.cif
#   From: 2010.06.25/outbox.cif.g09.slc.cpg/sg15_13_cif.got.tgz:25352.got - 2010.06.28 07:06:18.
