data_PCOD8149730
_publ_section_title
;
Structure prediction by ZEFSAII (Michael W. Deem and Ramdas Pophale) SiO2 
 PCOD8149730
Probable space group: C 2/C
;
_chemical_formula_sum "Si O2"
_cell_formula_units_Z 64
_cell_length_a 9.614473
_cell_length_b 14.875872
_cell_length_c 27.035179
_cell_angle_alpha 90.000000
_cell_angle_beta 130.899622
_cell_angle_gamma 90.000000
_cell_volume 2922.653022
_symmetry_space_group_name_H-M "C 2/C"
_symmetry_group_IT_number 15
_symmetry_cell_setting 'monoclinic'
loop_
_space_group_symop_operation_xyz
x,y,z
-x,y,1/2-z
-x,-y,-z
x,-y,1/2+z
1/2+x,1/2+y,z
1/2-x,1/2+y,1/2-z
1/2-x,1/2-y,-z
1/2+x,1/2-y,1/2+z
loop_
_atom_site_type_symbol
_atom_site_label
_atom_site_fract_x
_atom_site_fract_y
_atom_site_fract_z
Si Si1 0.087865 0.209951 0.494204
Si Si2 0.738640 0.873809 0.369752
Si Si3 0.769227 0.314539 0.400485
Si Si4 0.169916 0.368873 0.192508
Si Si5 0.377218 0.751508 0.816605
Si Si6 0.210236 0.933784 0.809306
Si Si7 0.789060 0.493379 0.935065
Si Si8 0.018024 0.033060 0.059956
O O1 0.250000 0.250000 0.500000
O O2 0.176859 0.158137 0.559646
O O3 0.948330 0.140539 0.432801
O O4 0.942223 0.286911 0.475968
O O5 0.519522 0.879279 0.321699
O O6 0.792390 0.799578 0.343164
O O7 0.824112 0.972976 0.376550
O O8 0.856961 0.320856 0.366220
O O9 0.598107 0.247814 0.366611
O O10 0.699663 0.411344 0.400737
O O11 0.308500 0.302447 0.252711
O O12 0.249499 0.469186 0.205186
O O13 0.322703 0.856282 0.806698
O O14 0.259782 0.930215 0.879724
O O15 0.000000 0.910018 0.750000
O O16 0.677591 0.465359 0.957374
O O17 0.000000 0.500000 0.000000
O O18 0.000000 0.000000 0.000000
#
# Coordination Sequence:
#
# PCOD8149730 Si02
#       8
#     8   8   8   8   8   8   8   8
#     4  11  23  41  67 101 138 182 225 279 351 420
#     4  11  24  43  66  98 142 181 226 288 352 414
#     4  11  24  44  70 101 139 182 230 290 352 420
#     4  11  24  48  70  95 141 184 233 286 356 421
#     4  12  26  47  70 104 139 183 238 300 347 429
#     4  11  27  45  75 105 139 188 245 291 365 438
#     4  11  24  44  73 103 143 190 236 293 358 428
#     4  10  24  41  63  97 143 178 227 281 351 415
#
# _framework density 21.897912999999999
#
# number of rings (size 3 to 8) (size 9 to 14) (size 15 to 20)
#    0.000    1.000    2.500    3.750   10.500    2.500 
#    0.000    1.250    0.000    0.000    0.000    0.000 
#    0.000    0.000    0.000    0.000    0.000    0.000 
#
# Total GULP energy -396579.747402 kJ/mol
# GULP energy per Si atom -12393.117106 kJ/mol
# Density = 2.184807 g / cm^3
# Si number density = 21.897913 Si / 1000 Ang^3
#
#
#
# Elastic Constant Matrix: (Units=GPa)
#
#
# Indices 1 2 3 4 5 6 
#
# 1 95.7719 17.1798 17.6512 0.0000 4.7561 0.0000
# 2 17.1798 100.7459 13.0213 0.0000 -9.9513 0.0000
# 3 17.6512 13.0213 79.6135 0.0000 7.2591 0.0000
# 4 0.0000 0.0000 0.0000 32.6743 0.0000 3.0782
# 5 4.7561 -9.9513 7.2591 0.0000 37.3855 0.0000
# 6 0.0000 0.0000 0.0000 3.0782 0.0000 34.6509
#
#
#
# Elastic Compliance Matrix: (Units=1/GPa)
#
#
# Indices 1 2 3 4 5 6 
#
# 1 0.011217 -0.001796 -0.002056 0.000000 -0.001506 0.000000
# 2 -0.001796 0.010788 -0.001679 0.000000 0.003426 0.000000
# 3 -0.002056 -0.001679 0.013548 0.000000 -0.002816 0.000000
# 4 0.000000 0.000000 0.000000 0.030863 0.000000 -0.002742
# 5 -0.001506 0.003426 -0.002816 0.000000 0.028399 0.000000
# 6 0.000000 0.000000 0.000000 -0.002742 0.000000 0.029103
#
#
# Mechanical properties :
#
#
# Convention : Reuss Voigt Hill
#
# Bulk Modulus (GPa) = 40.82991 41.31511 41.07251
# Shear Modulus (GPa) = 34.93030 36.16075 35.54552
#
# Velocity S-wave (km/s) = 3.99826 4.06807 4.03331
# Velocity P-wave (km/s) = 6.32462 6.40107 6.36296
#
# Compressibility (1/GPa) = 0.02449185
#
# Stress axis : x y z
#
# Youngs Moduli (GPa) = 89.14776 92.69946 73.81270
#
# Poissons Ratio (x) = 0.16647 0.15176
# Poissons Ratio (y) = 0.16010 0.12390
# Poissons Ratio (z) = 0.18329 0.15560
#
# Static dielectric constant tensor:
#      x y z
#    x 3.998420 0.000000 0.051940 
#    y 0.000000 4.375300 0.000000 
#    z 0.051940 0.000000 3.829830 
# 
# 
# High freq. dielectric constant tensor:
#      x y z
#    x 1.870560 0.000000 0.006740 
#    y 0.000000 1.877080 0.000000 
#    z 0.006740 0.000000 1.853910 
# 
# From -- ./inp_files/308280.got.cif
#   From: 2010.06.25/outbox.cif.g09.slc.cpg/sg15_155_cif.got.tgz:308280.got - 2010.06.28 07:06:18.
