data_PCOD8149570
_publ_section_title
;
Structure prediction by ZEFSAII (Michael W. Deem and Ramdas Pophale) SiO2 
 PCOD8149570
Probable space group: C 2/C
;
_chemical_formula_sum "Si O2"
_cell_formula_units_Z 52
_cell_length_a 14.494588
_cell_length_b 16.979532
_cell_length_c 13.586642
_cell_angle_alpha 90.000000
_cell_angle_beta 40.986177
_cell_angle_gamma 90.000000
_cell_volume 2193.138602
_symmetry_space_group_name_H-M "C 2/C"
_symmetry_group_IT_number 15
_symmetry_cell_setting 'monoclinic'
loop_
_space_group_symop_operation_xyz
x,y,z
-x,y,1/2-z
-x,-y,-z
x,-y,1/2+z
1/2+x,1/2+y,z
1/2-x,1/2+y,1/2-z
1/2-x,1/2-y,-z
1/2+x,1/2-y,1/2+z
loop_
_atom_site_type_symbol
_atom_site_label
_atom_site_fract_x
_atom_site_fract_y
_atom_site_fract_z
Si Si1 0.000000 0.839070 0.750000
Si Si2 0.667850 0.799418 0.795912
Si Si3 0.394655 0.530584 0.450006
Si Si4 0.816222 0.539083 0.496303
Si Si5 0.000000 0.410351 0.250000
Si Si6 0.500000 0.834073 0.750000
Si Si7 0.928171 0.285088 0.150720
Si Si8 0.709173 0.526244 0.269557
O O1 0.126585 0.890119 0.597875
O O2 0.070637 0.789542 0.778666
O O3 0.598569 0.784084 0.743650
O O4 0.783069 0.729408 0.708434
O O5 0.732166 0.887860 0.748068
O O6 0.557738 0.786565 0.971762
O O7 0.340713 0.456551 0.425974
O O8 0.561375 0.530473 0.332874
O O9 0.308567 0.528560 0.620824
O O10 0.908499 0.615126 0.400908
O O11 0.816361 0.522103 0.613157
O O12 0.876355 0.462960 0.392233
O O13 0.070522 0.361279 0.281496
#
# Coordination Sequence:
#
# PCOD8149570 Si02
#       8
#     4   8   8   8   4   4   8   8
#     4  11  22  41  68 113 140 177 234 294 364 431
#     4  12  25  49  66 103 139 197 243 295 344 423
#     4  11  21  37  68 105 142 179 218 299 355 432
#     4  11  21  42  67 105 142 176 230 302 360 424
#     4  10  24  36  70 110 134 182 232 292 370 422
#     4  11  28  45  70  91 140 189 252 294 344 405
#     4  11  26  42  74  99 148 189 235 295 349 430
#     4  11  22  39  69 103 145 177 232 287 370 417
#
# _framework density 23.710311999999998
#
# number of rings (size 3 to 8) (size 9 to 14) (size 15 to 20)
#    0.000    0.923    6.154    0.000    2.154    3.692 
#    0.000    0.000    0.000    0.000    0.000    0.000 
#    0.000    0.000    0.000    0.000    0.000    0.000 
#
# Total GULP energy -322228.780869 kJ/mol
# GULP energy per Si atom -12393.414649 kJ/mol
# Density = 2.365635 g / cm^3
# Si number density = 23.710312 Si / 1000 Ang^3
#
#
#
# Elastic Constant Matrix: (Units=GPa)
#
#
# Indices 1 2 3 4 5 6 
#
# 1 131.2208 27.7310 33.8295 0.0006 -8.1013 -0.0003
# 2 27.7310 50.7150 33.3413 0.0010 -0.7505 -0.0005
# 3 33.8295 33.3413 137.3872 0.0009 16.9074 -0.0004
# 4 0.0006 0.0010 0.0009 26.1134 -0.0006 1.3894
# 5 -8.1013 -0.7505 16.9074 -0.0006 38.6993 0.0002
# 6 -0.0003 -0.0005 -0.0004 1.3894 0.0002 18.3195
#
#
#
# Elastic Compliance Matrix: (Units=1/GPa)
#
#
# Indices 1 2 3 4 5 6 
#
# 1 0.008996 -0.003835 -0.001593 0.000000 0.002505 0.000000
# 2 -0.003835 0.025456 -0.005490 -0.000001 0.002090 0.000001
# 3 -0.001593 -0.005490 0.009572 0.000000 -0.004622 0.000000
# 4 0.000000 -0.000001 0.000000 0.038450 0.000001 -0.002916
# 5 0.002505 0.002090 -0.004622 0.000001 0.028424 0.000000
# 6 0.000000 0.000001 0.000000 -0.002916 0.000000 0.054808
#
#
# Mechanical properties :
#
#
# Convention : Reuss Voigt Hill
#
# Bulk Modulus (GPa) = 45.07031 56.56963 50.81997
# Shear Modulus (GPa) = 25.64913 31.58785 28.61849
#
# Velocity S-wave (km/s) = 3.29260 3.65395 3.47797
# Velocity P-wave (km/s) = 5.78834 6.45850 6.13258
#
# Compressibility (1/GPa) = 0.02218755
#
# Stress axis : x y z
#
# Youngs Moduli (GPa) = 111.15454 39.28422 104.47018
#
# Poissons Ratio (x) = 0.15066 0.16640
# Poissons Ratio (y) = 0.42629 0.57358
# Poissons Ratio (z) = 0.17705 0.21569
#
# Static dielectric constant tensor:
#      x y z
#    x 4.680450 0.000000 0.122580 
#    y 0.000000 3.983140 0.000000 
#    z 0.122580 0.000000 4.515460 
# 
# 
# High freq. dielectric constant tensor:
#      x y z
#    x 1.962590 0.000000 0.008610 
#    y 0.000000 1.905330 0.000000 
#    z 0.008610 0.000000 1.952850 
# 
# From -- ./inp_files/155459.got.cif
#   From: 2010.06.25/outbox.cif.g09.slc.cpg/sg15_78_cif.got.tgz:155459.got - 2010.06.28 07:06:18.
