data_PCOD8149978
_publ_section_title
;
Structure prediction by ZEFSAII (Michael W. Deem and Ramdas Pophale) SiO2 
 PCOD8149978
Probable space group: C 2/C
;
_chemical_formula_sum "Si O2"
_cell_formula_units_Z 64
_cell_length_a 13.688774
_cell_length_b 25.861397
_cell_length_c 8.774733
_cell_angle_alpha 90.000000
_cell_angle_beta 70.570038
_cell_angle_gamma 90.000000
_cell_volume 2929.440124
_symmetry_space_group_name_H-M "C 2/C"
_symmetry_group_IT_number 15
_symmetry_cell_setting 'monoclinic'
loop_
_space_group_symop_operation_xyz
x,y,z
-x,y,1/2-z
-x,-y,-z
x,-y,1/2+z
1/2+x,1/2+y,z
1/2-x,1/2+y,1/2-z
1/2-x,1/2-y,-z
1/2+x,1/2-y,1/2+z
loop_
_atom_site_type_symbol
_atom_site_label
_atom_site_fract_x
_atom_site_fract_y
_atom_site_fract_z
Si Si1 0.037855 0.705232 0.890250
Si Si2 0.893102 0.129227 0.726369
Si Si3 0.714818 0.946197 0.818975
Si Si4 0.718306 0.056705 0.953760
Si Si5 0.087025 0.752590 0.315425
Si Si6 0.003244 0.400016 0.569477
Si Si7 0.708820 0.271454 0.679813
Si Si8 0.110562 0.124501 0.132210
O O1 0.153103 0.726764 0.807788
O O2 0.000000 0.683523 0.750000
O O3 0.022016 0.659277 0.016626
O O4 0.965743 0.752806 0.988177
O O5 0.798055 0.100224 0.855189
O O6 0.880621 0.190628 0.757801
O O7 0.891278 0.118674 0.548013
O O8 0.000000 0.110213 0.750000
O O9 0.723498 0.945934 0.632923
O O10 0.602854 0.925823 0.938221
O O11 0.799918 0.910008 0.847140
O O12 0.744557 0.002362 0.864909
O O13 0.602520 0.069195 0.954839
O O14 0.189132 0.715682 0.270062
O O15 0.000000 0.728291 0.250000
O O16 0.000000 0.403685 0.750000
O O17 0.750000 0.250000 0.500000
O O18 0.633028 0.318643 0.687368
O O19 0.000000 0.105659 0.250000
#
# Coordination Sequence:
#
# PCOD8149978 Si02
#       8
#     8   8   8   8   8   8   8   8
#     4  12  23  38  65  97 133 180 226 274 334 402
#     4  11  23  42  68  98 134 176 226 279 340 402
#     4  11  25  45  70  99 135 175 226 285 349 406
#     4  11  24  45  70 100 135 177 229 287 343 407
#     4  11  24  41  62  96 138 176 225 275 330 401
#     4  10  24  43  67 101 140 177 225 282 342 409
#     4  12  23  41  67  97 137 178 229 276 329 401
#     4  12  25  44  69  99 137 180 226 284 340 406
#
# _framework density 21.847176999999999
#
# number of rings (size 3 to 8) (size 9 to 14) (size 15 to 20)
#    0.000    0.750    2.500    4.875    0.000    4.000 
#    0.000    2.500    0.000    0.000    0.000    0.000 
#    0.000    0.000    0.000    0.000    0.000    0.000 
#
# Total GULP energy -396671.561594 kJ/mol
# GULP energy per Si atom -12395.986300 kJ/mol
# Density = 2.179745 g / cm^3
# Si number density = 21.847177 Si / 1000 Ang^3
#
#
#
# Elastic Constant Matrix: (Units=GPa)
#
#
# Indices 1 2 3 4 5 6 
#
# 1 150.3819 15.4900 40.0139 0.0000 6.0413 0.0000
# 2 15.4900 73.5234 24.9744 0.0000 5.2227 0.0000
# 3 40.0139 24.9744 84.1110 0.0000 -4.9553 0.0000
# 4 0.0000 0.0000 0.0000 31.5465 0.0000 2.4792
# 5 6.0413 5.2227 -4.9553 0.0000 31.9052 0.0000
# 6 0.0000 0.0000 0.0000 2.4792 0.0000 27.5587
#
#
#
# Elastic Compliance Matrix: (Units=1/GPa)
#
#
# Indices 1 2 3 4 5 6 
#
# 1 0.007748 -0.000219 -0.003739 0.000000 -0.002012 0.000000
# 2 -0.000219 0.015464 -0.004677 0.000000 -0.003216 0.000000
# 3 -0.003739 -0.004677 0.015283 0.000000 0.003847 0.000000
# 4 0.000000 0.000000 0.000000 0.031925 0.000000 -0.002872
# 5 -0.002012 -0.003216 0.003847 0.000000 0.032848 0.000000
# 6 0.000000 0.000000 0.000000 -0.002872 0.000000 0.036545
#
#
# Mechanical properties :
#
#
# Convention : Reuss Voigt Hill
#
# Bulk Modulus (GPa) = 47.11490 52.10811 49.61150
# Shear Modulus (GPa) = 30.45819 33.37127 31.91473
#
# Velocity S-wave (km/s) = 3.73788 3.91255 3.82621
# Velocity P-wave (km/s) = 6.34362 6.65685 6.50212
#
# Compressibility (1/GPa) = 0.02122471
#
# Stress axis : x y z
#
# Youngs Moduli (GPa) = 129.06314 64.66451 65.43069
#
# Poissons Ratio (x) = 0.01418 0.24467
# Poissons Ratio (y) = 0.02830 0.30601
# Poissons Ratio (z) = 0.48262 0.30243
#
# Static dielectric constant tensor:
#      x y z
#    x 4.510820 0.000000 -0.004870 
#    y 0.000000 3.461910 0.000000 
#    z -0.004870 0.000000 3.946500 
# 
# 
# High freq. dielectric constant tensor:
#      x y z
#    x 1.883570 0.000000 -0.001600 
#    y 0.000000 1.847000 0.000000 
#    z -0.001600 0.000000 1.866140 
# 
# From -- ./inp_files/43511.got.cif
#   From: 2010.06.25/outbox.cif.g09.slc.cpg/sg15_22_cif.got.tgz:43511.got - 2010.06.28 07:06:18.
