data_PCOD8149307
_publ_section_title
;
Structure prediction by ZEFSAII (Michael W. Deem and Ramdas Pophale) SiO2 
 PCOD8149307
Probable space group: C 2/C
;
_chemical_formula_sum "Si O2"
_cell_formula_units_Z 56
_cell_length_a 12.425075
_cell_length_b 7.793200
_cell_length_c 25.970862
_cell_angle_alpha 90.000000
_cell_angle_beta 69.286786
_cell_angle_gamma 90.000000
_cell_volume 2352.237410
_symmetry_space_group_name_H-M "C 2/C"
_symmetry_group_IT_number 15
_symmetry_cell_setting 'monoclinic'
loop_
_space_group_symop_operation_xyz
x,y,z
-x,y,1/2-z
-x,-y,-z
x,-y,1/2+z
1/2+x,1/2+y,z
1/2-x,1/2+y,1/2-z
1/2-x,1/2-y,-z
1/2+x,1/2-y,1/2+z
loop_
_atom_site_type_symbol
_atom_site_label
_atom_site_fract_x
_atom_site_fract_y
_atom_site_fract_z
Si Si1 0.332988 0.239112 0.175052
Si Si2 0.579088 0.688451 0.192210
Si Si3 0.378475 0.305073 0.280252
Si Si4 0.013605 0.426390 0.373881
Si Si5 0.946555 0.212599 0.039789
Si Si6 0.192871 0.677613 0.104800
Si Si7 0.971924 0.883216 0.426988
O O1 0.208836 0.259620 0.170105
O O2 0.315403 0.313718 0.235929
O O3 0.418779 0.358149 0.128498
O O4 0.381749 0.042203 0.167270
O O5 0.500000 0.770795 0.250000
O O6 0.587230 0.484839 0.198750
O O7 0.511337 0.748054 0.152160
O O8 0.500000 0.206814 0.250000
O O9 0.301515 0.200322 0.334017
O O10 0.895403 0.529542 0.395314
O O11 0.048815 0.383768 0.426686
O O12 0.817922 0.133038 0.062622
O O13 0.979883 0.247986 0.974709
O O14 0.033985 0.074064 0.049372
O O15 0.144617 0.850944 0.085678
#
# Coordination Sequence:
#
# PCOD8149307 Si02
#       7
#     8   8   8   8   8   8   8
#     4  11  25  44  67  97 136 170 213 274 324 377
#     4  11  27  40  65  97 131 172 217 258 322 395
#     4  11  22  44  64  94 138 174 206 268 327 387
#     4  11  25  42  66 100 125 168 225 266 316 394
#     4  11  24  43  70  94 129 176 217 268 325 378
#     4  11  23  42  68  95 133 167 217 268 325 381
#     4  10  23  45  66  95 134 171 217 269 324 386
#
# _framework density 23.807120999999999
#
# number of rings (size 3 to 8) (size 9 to 14) (size 15 to 20)
#    0.000    1.143    2.857    3.000    8.000    2.286 
#    0.000    7.857    0.000    0.000    0.000    0.000 
#    0.000    0.000    0.000    0.000    0.000    0.000 
#
# Total GULP energy -347090.744521 kJ/mol
# GULP energy per Si atom -12396.098019 kJ/mol
# Density = 2.375293 g / cm^3
# Si number density = 23.807121 Si / 1000 Ang^3
#
#
#
# Elastic Constant Matrix: (Units=GPa)
#
#
# Indices 1 2 3 4 5 6 
#
# 1 78.8060 5.5318 24.3088 0.0000 3.7268 0.0000
# 2 5.5318 52.0964 15.9449 0.0000 5.1384 0.0000
# 3 24.3088 15.9449 118.6135 0.0000 24.9257 0.0000
# 4 0.0000 0.0000 0.0000 22.7783 0.0000 10.1014
# 5 3.7268 5.1384 24.9257 0.0000 36.6831 0.0000
# 6 0.0000 0.0000 0.0000 10.1014 0.0000 26.2139
#
#
#
# Elastic Compliance Matrix: (Units=1/GPa)
#
#
# Indices 1 2 3 4 5 6 
#
# 1 0.013577 -0.000638 -0.002830 0.000000 0.000633 0.000000
# 2 -0.000638 0.020090 -0.002324 0.000000 -0.001170 0.000000
# 3 -0.002830 -0.002324 0.010726 0.000000 -0.006675 0.000000
# 4 0.000000 0.000000 0.000000 0.052950 0.000000 -0.020404
# 5 0.000633 -0.001170 -0.006675 0.000000 0.031896 0.000000
# 6 0.000000 0.000000 0.000000 -0.020404 0.000000 0.046010
#
#
# Mechanical properties :
#
#
# Convention : Reuss Voigt Hill
#
# Bulk Modulus (GPa) = 30.47928 37.89852 34.18890
# Shear Modulus (GPa) = 25.28210 30.71709 27.99960
#
# Velocity S-wave (km/s) = 3.26230 3.59590 3.43315
# Velocity P-wave (km/s) = 5.19813 5.76144 5.48702
#
# Compressibility (1/GPa) = 0.03280918
#
# Stress axis : x y z
#
# Youngs Moduli (GPa) = 73.65332 49.77698 93.23330
#
# Poissons Ratio (x) = 0.03176 0.26382
# Poissons Ratio (y) = 0.04699 0.21667
# Poissons Ratio (z) = 0.20842 0.11568
#
# Static dielectric constant tensor:
#      x y z
#    x 4.310980 0.000000 0.140180 
#    y 0.000000 4.034320 0.000000 
#    z 0.140180 0.000000 4.513050 
# 
# 
# High freq. dielectric constant tensor:
#      x y z
#    x 1.942170 0.000000 0.008030 
#    y 0.000000 1.924140 0.000000 
#    z 0.008030 0.000000 1.953990 
# 
# From -- ./inp_files/295065.got.cif
#   From: 2010.06.25/outbox.cif.g09.slc.cpg/sg15_148_cif.got.tgz:295065.got - 2010.06.28 07:06:18.
