data_PCOD8149529
_publ_section_title
;
Structure prediction by ZEFSAII (Michael W. Deem and Ramdas Pophale) SiO2 
 PCOD8149529
Probable space group: C 2/C
;
_chemical_formula_sum "Si O2"
_cell_formula_units_Z 40
_cell_length_a 5.145997
_cell_length_b 17.585539
_cell_length_c 19.887731
_cell_angle_alpha 90.000000
_cell_angle_beta 72.382808
_cell_angle_gamma 90.000000
_cell_volume 1715.334697
_symmetry_space_group_name_H-M "C 2/C"
_symmetry_group_IT_number 15
_symmetry_cell_setting 'monoclinic'
loop_
_space_group_symop_operation_xyz
x,y,z
-x,y,1/2-z
-x,-y,-z
x,-y,1/2+z
1/2+x,1/2+y,z
1/2-x,1/2+y,1/2-z
1/2-x,1/2-y,-z
1/2+x,1/2-y,1/2+z
loop_
_atom_site_type_symbol
_atom_site_label
_atom_site_fract_x
_atom_site_fract_y
_atom_site_fract_z
Si Si1 0.421227 0.701230 0.680332
Si Si2 0.953885 0.313287 0.059815
Si Si3 0.224117 0.678848 0.406594
Si Si4 0.859664 0.573461 0.856869
Si Si5 0.605817 0.475844 0.669140
O O1 0.500000 0.713044 0.750000
O O2 0.659891 0.667614 0.613795
O O3 0.343911 0.784223 0.659711
O O4 0.172544 0.640884 0.696344
O O5 0.037499 0.228152 0.076804
O O6 0.160525 0.379699 0.070868
O O7 0.963218 0.318732 0.977854
O O8 0.301582 0.593005 0.384963
O O9 0.620381 0.513757 0.861163
O O10 0.150787 0.532693 0.830055
O O11 0.500000 0.447374 0.750000
#
# Coordination Sequence:
#
# PCOD8149529 Si02
#       5
#     8   8   8   8   8
#     4  11  24  43  77 103 142 187 246 285 354 420
#     4  10  23  48  72 102 143 190 240 288 346 436
#     4  10  26  44  70 108 144 188 232 298 359 411
#     4  11  25  46  71 102 138 192 233 290 347 423
#     4  12  27  44  70 103 148 179 238 297 358 409
#
# _framework density 23.319064999999998
#
# number of rings (size 3 to 8) (size 9 to 14) (size 15 to 20)
#    0.000    1.200    2.000    1.800    8.400    3.200 
#    0.000    0.000    0.000    0.000    0.000    0.000 
#    0.000    0.000    0.000    0.000    0.000    0.000 
#
# Total GULP energy -247821.152097 kJ/mol
# GULP energy per Si atom -12391.057605 kJ/mol
# Density = 2.326599 g / cm^3
# Si number density = 23.319065 Si / 1000 Ang^3
#
#
#
# Elastic Constant Matrix: (Units=GPa)
#
#
# Indices 1 2 3 4 5 6 
#
# 1 80.9970 5.7737 9.7833 0.0000 -5.6858 0.0000
# 2 5.7737 81.0559 30.6053 0.0000 0.3492 0.0000
# 3 9.7833 30.6053 92.0004 0.0000 -2.7540 0.0000
# 4 0.0000 0.0000 0.0000 4.0115 0.0000 -11.7384
# 5 -5.6858 0.3492 -2.7540 0.0000 34.1804 0.0000
# 6 0.0000 0.0000 0.0000 -11.7384 0.0000 8.2820
#
#
#
# Elastic Compliance Matrix: (Units=1/GPa)
#
#
# Indices 1 2 3 4 5 6 
#
# 1 0.012658 -0.000486 -0.001124 0.000000 0.002020 0.000000
# 2 -0.000486 0.014137 -0.004669 0.000000 -0.000601 0.000000
# 3 -0.001124 -0.004669 0.012569 0.000000 0.000873 0.000000
# 4 0.000000 0.000000 0.000000 -0.079203 0.000000 -0.112258
# 5 0.002020 -0.000601 0.000873 0.000000 0.029669 0.000000
# 6 0.000000 0.000000 0.000000 -0.112258 0.000000 -0.038364
#
#
# Mechanical properties :
#
#
# Convention : Reuss Voigt Hill
#
# Bulk Modulus (GPa) = 37.30546 38.48643 37.89595
# Shear Modulus (GPa) = -184.91317 23.15419 -80.87949
#
# Velocity S-wave (km/s) = -8.91455 3.15450 -5.89569
# Velocity P-wave (km/s) = 9.48295 5.45966 5.48263
#
# Compressibility (1/GPa) = 0.02680573
#
# Stress axis : x y z
#
# Youngs Moduli (GPa) = 78.99928 70.73420 79.56395
#
# Poissons Ratio (x) = 0.03438 0.08943
# Poissons Ratio (y) = 0.03839 0.37151
# Poissons Ratio (z) = 0.08879 0.33028
#
# Static dielectric constant tensor:
#      x y z
#    x 4.412270 0.000000 0.140510 
#    y 0.000000 4.179010 0.000000 
#    z 0.140510 0.000000 4.133010 
# 
# 
# High freq. dielectric constant tensor:
#      x y z
#    x 1.925880 0.000000 0.009360 
#    y 0.000000 1.927410 0.000000 
#    z 0.009360 0.000000 1.918850 
# 
# From -- ./inp_files/226726.got.cif
#   From: 2010.06.25/outbox.cif.g09.slc.cpg/sg15_114_cif.got.tgz:226726.got - 2010.06.28 07:06:18.
