data_PCOD8149243
_publ_section_title
;
Structure prediction by ZEFSAII (Michael W. Deem and Ramdas Pophale) SiO2 
 PCOD8149243
Probable space group: C 2/C
;
_chemical_formula_sum "Si O2"
_cell_formula_units_Z 56
_cell_length_a 14.841264
_cell_length_b 10.780587
_cell_length_c 15.769091
_cell_angle_alpha 90.000000
_cell_angle_beta 101.307209
_cell_angle_gamma 90.000000
_cell_volume 2474.043989
_symmetry_space_group_name_H-M "C 2/C"
_symmetry_group_IT_number 15
_symmetry_cell_setting 'monoclinic'
loop_
_space_group_symop_operation_xyz
x,y,z
-x,y,1/2-z
-x,-y,-z
x,-y,1/2+z
1/2+x,1/2+y,z
1/2-x,1/2+y,1/2-z
1/2-x,1/2-y,-z
1/2+x,1/2-y,1/2+z
loop_
_atom_site_type_symbol
_atom_site_label
_atom_site_fract_x
_atom_site_fract_y
_atom_site_fract_z
Si Si1 0.500000 0.431587 0.250000
Si Si2 0.162394 0.928725 0.708050
Si Si3 0.239573 0.687485 0.129742
Si Si4 0.881157 0.216649 0.460241
Si Si5 0.318394 0.063908 0.644718
Si Si6 0.030901 0.268183 0.616629
Si Si7 0.763004 0.437481 0.472916
Si Si8 0.500000 0.029078 0.250000
O O1 0.408713 0.515492 0.236778
O O2 0.500298 0.350045 0.334841
O O3 0.229741 0.832259 0.767251
O O4 0.104511 0.857344 0.624609
O O5 0.227491 0.036379 0.683397
O O6 0.304494 0.797211 0.104733
O O7 0.135889 0.734652 0.108145
O O8 0.256840 0.561599 0.082095
O O9 0.820056 0.338412 0.428341
O O10 0.832663 0.125985 0.519079
O O11 0.976372 0.263655 0.517803
O O12 0.323020 0.966613 0.568255
O O13 0.410456 0.056095 0.718400
O O14 0.013037 0.391273 0.667602
#
# Coordination Sequence:
#
# PCOD8149243 Si02
#       8
#     4   8   8   8   8   8   8   4
#     4  11  24  45  68 102 138 191 233 290 350 422
#     4  11  25  43  70 100 142 182 237 285 353 416
#     4  12  25  43  70 102 139 186 231 294 342 422
#     4  10  23  44  72 104 137 185 231 291 351 422
#     4  11  23  46  67 106 137 185 227 293 349 418
#     4  11  23  42  74 100 137 186 239 286 348 424
#     4  10  23  44  72  99 142 181 231 285 357 423
#     4  11  22  43  74 100 142 183 239 284 352 420
#
# _framework density 22.635006000000001
#
# number of rings (size 3 to 8) (size 9 to 14) (size 15 to 20)
#    0.000    1.143    4.286    1.286    2.000    1.714 
#    7.714    0.000    0.000    0.000    0.000    0.000 
#    0.000    0.000    0.000    0.000    0.000    0.000 
#
# Total GULP energy -347245.875780 kJ/mol
# GULP energy per Si atom -12401.638421 kJ/mol
# Density = 2.258349 g / cm^3
# Si number density = 22.635006 Si / 1000 Ang^3
#
#
#
# Elastic Constant Matrix: (Units=GPa)
#
#
# Indices 1 2 3 4 5 6 
#
# 1 128.9267 63.0333 51.0840 0.0000 20.3782 0.0000
# 2 63.0333 135.2277 31.7286 0.0000 4.4949 0.0000
# 3 51.0840 31.7286 66.7741 0.0000 19.4439 0.0000
# 4 0.0000 0.0000 0.0000 26.9365 0.0000 -1.8962
# 5 20.3782 4.4949 19.4439 0.0000 36.8038 0.0000
# 6 0.0000 0.0000 0.0000 -1.8962 0.0000 24.5444
#
#
#
# Elastic Compliance Matrix: (Units=1/GPa)
#
#
# Indices 1 2 3 4 5 6 
#
# 1 0.013202 -0.004377 -0.007147 0.000000 -0.003000 0.000000
# 2 -0.004377 0.009825 -0.001980 0.000000 0.002270 0.000000
# 3 -0.007147 -0.001980 0.023827 0.000000 -0.008389 0.000000
# 4 0.000000 0.000000 0.000000 0.037327 0.000000 0.002884
# 5 -0.003000 0.002270 -0.008389 0.000000 0.032987 0.000000
# 6 0.000000 0.000000 0.000000 0.002884 0.000000 0.040965
#
#
# Mechanical properties :
#
#
# Convention : Reuss Voigt Hill
#
# Bulk Modulus (GPa) = 50.39063 69.18004 59.78533
# Shear Modulus (GPa) = 26.07456 29.99577 28.03517
#
# Velocity S-wave (km/s) = 3.39773 3.64427 3.52316
# Velocity P-wave (km/s) = 6.14031 6.95250 6.55899
#
# Compressibility (1/GPa) = 0.01984496
#
# Stress axis : x y z
#
# Youngs Moduli (GPa) = 75.74420 101.78525 41.96901
#
# Poissons Ratio (x) = 0.44556 0.29994
# Poissons Ratio (y) = 0.33157 0.08312
# Poissons Ratio (z) = 0.54131 0.20159
#
# Static dielectric constant tensor:
#      x y z
#    x 3.906630 0.000000 0.116450 
#    y 0.000000 4.102980 0.000000 
#    z 0.116450 0.000000 3.910500 
# 
# 
# High freq. dielectric constant tensor:
#      x y z
#    x 1.886650 0.000000 0.013710 
#    y 0.000000 1.899870 0.000000 
#    z 0.013710 0.000000 1.886470 
# 
# From -- ./inp_files/152643.got.cif
#   From: 2010.06.25/outbox.cif.g09.slc.cpg/sg15_77_cif.got.tgz:152643.got - 2010.06.28 07:06:18.
