data_PCOD8149952
_publ_section_title
;
Structure prediction by ZEFSAII (Michael W. Deem and Ramdas Pophale) SiO2 
 PCOD8149952
Probable space group: C 2/C
;
_chemical_formula_sum "Si O2"
_cell_formula_units_Z 40
_cell_length_a 24.914032
_cell_length_b 11.180481
_cell_length_c 20.883803
_cell_angle_alpha 90.000000
_cell_angle_beta 161.839324
_cell_angle_gamma 90.000000
_cell_volume 1813.121871
_symmetry_space_group_name_H-M "C 2/C"
_symmetry_group_IT_number 15
_symmetry_cell_setting 'monoclinic'
loop_
_space_group_symop_operation_xyz
x,y,z
-x,y,1/2-z
-x,-y,-z
x,-y,1/2+z
1/2+x,1/2+y,z
1/2-x,1/2+y,1/2-z
1/2-x,1/2-y,-z
1/2+x,1/2-y,1/2+z
loop_
_atom_site_type_symbol
_atom_site_label
_atom_site_fract_x
_atom_site_fract_y
_atom_site_fract_z
Si Si1 0.521860 0.598051 0.347885
Si Si2 0.201124 0.129887 0.081968
Si Si3 0.562825 0.875111 0.539741
Si Si4 0.584585 0.183655 0.286273
Si Si5 0.729710 0.698493 0.340143
O O1 0.500000 0.551147 0.250000
O O2 0.617173 0.498752 0.498827
O O3 0.345917 0.620952 0.187178
O O4 0.631719 0.717609 0.468937
O O5 0.298025 0.181407 0.253717
O O6 0.349818 0.102211 0.197136
O O7 0.055801 0.222293 0.897301
O O8 0.411203 0.778936 0.357378
O O9 0.670137 0.890730 0.595104
O O10 0.500000 0.000000 0.500000
O O11 0.500000 0.109710 0.250000
O O12 0.750000 0.250000 0.500000
#
# Coordination Sequence:
#
# PCOD8149952 Si02
#       5
#     8   8   8   8   8
#     4  11  22  42  64  92 123 165 211 260 316 370
#     4  11  21  39  62  90 127 163 205 258 315 372
#     4  11  22  44  62  93 124 162 212 254 316 375
#     4   9  19  37  57  89 125 159 204 251 306 372
#     4  10  24  43  65  88 127 165 211 265 306 372
#
# _framework density 22.061395000000001
#
# number of rings (size 3 to 8) (size 9 to 14) (size 15 to 20)
#    0.000    1.600    2.000    3.600    0.000    0.800 
#   14.400    1.000    0.000    0.000    0.000    0.000 
#    0.000    0.000    0.000    0.000    0.000    0.000 
#
# Total GULP energy -247820.657598 kJ/mol
# GULP energy per Si atom -12391.032880 kJ/mol
# Density = 2.201118 g / cm^3
# Si number density = 22.061395 Si / 1000 Ang^3
#
#
#
# Elastic Constant Matrix: (Units=GPa)
#
#
# Indices 1 2 3 4 5 6 
#
# 1 111.8220 22.1577 38.0347 0.0092 22.5666 -0.0002
# 2 22.1577 53.6843 5.5060 0.0363 17.9656 0.0066
# 3 38.0347 5.5060 93.8161 0.0270 5.1195 0.0093
# 4 0.0092 0.0363 0.0270 26.0973 0.0236 10.1722
# 5 22.5666 17.9656 5.1195 0.0236 47.3542 0.0090
# 6 -0.0002 0.0066 0.0093 10.1722 0.0090 24.8833
#
#
#
# Elastic Compliance Matrix: (Units=1/GPa)
#
#
# Indices 1 2 3 4 5 6 
#
# 1 0.011865 -0.003107 -0.004410 0.000008 -0.003999 0.000001
# 2 -0.003107 0.022212 0.000337 -0.000027 -0.006983 0.000007
# 3 -0.004410 0.000337 0.012393 -0.000012 0.000634 0.000000
# 4 0.000008 -0.000027 -0.000012 0.045581 -0.000012 -0.018633
# 5 -0.003999 -0.006983 0.000634 -0.000012 0.025604 -0.000003
# 6 0.000001 0.000007 0.000000 -0.018633 -0.000003 0.047805
#
#
# Mechanical properties :
#
#
# Convention : Reuss Voigt Hill
#
# Bulk Modulus (GPa) = 31.14225 43.41324 37.27775
# Shear Modulus (GPa) = 26.24361 32.57523 29.40942
#
# Velocity S-wave (km/s) = 3.45276 3.84679 3.65509
# Velocity P-wave (km/s) = 5.48108 6.28104 5.89464
#
# Compressibility (1/GPa) = 0.03211072
#
# Stress axis : x y z
#
# Youngs Moduli (GPa) = 84.27872 45.02068 80.69306
#
# Poissons Ratio (x) = 0.13987 0.35585
# Poissons Ratio (y) = 0.26184 -0.02719
# Poissons Ratio (z) = 0.37166 -0.01517
#
# Static dielectric constant tensor:
#      x y z
#    x 4.645600 -0.000020 0.241920 
#    y -0.000020 3.503560 -0.000030 
#    z 0.241920 -0.000030 4.297190 
# 
# 
# High freq. dielectric constant tensor:
#      x y z
#    x 1.884480 0.000000 0.006810 
#    y 0.000000 1.832240 0.000000 
#    z 0.006810 0.000000 1.890570 
# 
# From -- ./inp_files/46202.got.cif
#   From: 2010.06.25/outbox.cif.g09.slc.cpg/sg15_24_cif.got.tgz:46202.got - 2010.06.28 07:06:18.
