data_PCOD8149305
_publ_section_title
;
Structure prediction by ZEFSAII (Michael W. Deem and Ramdas Pophale) SiO2 
 PCOD8149305
Probable space group: C 2/C
;
_chemical_formula_sum "Si O2"
_cell_formula_units_Z 60
_cell_length_a 22.434996
_cell_length_b 21.733838
_cell_length_c 11.958461
_cell_angle_alpha 90.000000
_cell_angle_beta 151.742790
_cell_angle_gamma 90.000000
_cell_volume 2760.539456
_symmetry_space_group_name_H-M "C 2/C"
_symmetry_group_IT_number 15
_symmetry_cell_setting 'monoclinic'
loop_
_space_group_symop_operation_xyz
x,y,z
-x,y,1/2-z
-x,-y,-z
x,-y,1/2+z
1/2+x,1/2+y,z
1/2-x,1/2+y,1/2-z
1/2-x,1/2-y,-z
1/2+x,1/2-y,1/2+z
loop_
_atom_site_type_symbol
_atom_site_label
_atom_site_fract_x
_atom_site_fract_y
_atom_site_fract_z
Si Si1 0.064290 0.140133 0.092779
Si Si2 0.734961 0.802371 0.732553
Si Si3 0.195480 0.630401 0.385901
Si Si4 0.921282 0.046112 0.722388
Si Si5 0.543033 0.068137 0.589154
Si Si6 0.674668 0.586536 0.481549
Si Si7 0.500000 0.124958 0.750000
Si Si8 0.325818 0.329976 0.313893
O O1 0.136080 0.173766 0.110288
O O2 0.160633 0.132820 0.354350
O O3 0.003356 0.072691 0.961949
O O4 0.948989 0.184016 0.941365
O O5 0.737189 0.816027 0.868878
O O6 0.616520 0.833455 0.477918
O O7 0.721757 0.729122 0.696163
O O8 0.279108 0.570951 0.492412
O O9 0.214694 0.649111 0.546499
O O10 0.049205 0.614723 0.128113
O O11 0.000000 0.073806 0.750000
O O12 0.909372 0.972950 0.687490
O O13 0.679033 0.073697 0.759094
O O14 0.545086 0.081271 0.724539
O O15 0.500000 0.000000 0.500000
O O16 0.631242 0.617365 0.526617
#
# Coordination Sequence:
#
# PCOD8149305 Si02
#       8
#     8   8   8   8   8   8   4   8
#     4  11  24  44  69 100 137 178 233 281 355 405
#     4  11  23  45  73  94 136 186 238 281 342 414
#     4  10  23  45  66 104 134 180 233 273 352 407
#     4  11  21  41  70  98 137 176 228 286 345 412
#     4  11  23  44  68  99 138 178 225 284 345 417
#     4  12  25  43  66 105 138 182 224 288 353 400
#     4  10  24  42  68  98 132 182 240 278 338 424
#     4  11  27  43  69 105 140 179 229 294 339 415
#
# _framework density 21.734881999999999
#
# number of rings (size 3 to 8) (size 9 to 14) (size 15 to 20)
#    0.000    1.067    4.000    2.000    1.867    5.333 
#    0.000    2.667    0.000    0.000    0.000    0.000 
#    0.000    0.000    0.000    0.000    0.000    0.000 
#
# Total GULP energy -371972.553990 kJ/mol
# GULP energy per Si atom -12399.085133 kJ/mol
# Density = 2.168541 g / cm^3
# Si number density = 21.734882 Si / 1000 Ang^3
#
#
#
# Elastic Constant Matrix: (Units=GPa)
#
#
# Indices 1 2 3 4 5 6 
#
# 1 99.3447 47.1655 44.0967 0.0000 1.3775 0.0000
# 2 47.1655 116.0806 34.9230 0.0000 -7.6723 0.0000
# 3 44.0967 34.9230 104.8990 0.0000 -9.6156 0.0000
# 4 0.0000 0.0000 0.0000 17.6130 0.0000 -1.4040
# 5 1.3775 -7.6723 -9.6156 0.0000 43.6358 0.0000
# 6 0.0000 0.0000 0.0000 -1.4040 0.0000 30.6188
#
#
#
# Elastic Compliance Matrix: (Units=1/GPa)
#
#
# Indices 1 2 3 4 5 6 
#
# 1 0.014365 -0.004566 -0.004729 0.000000 -0.002298 0.000000
# 2 -0.004566 0.011068 -0.001606 0.000000 0.001736 0.000000
# 3 -0.004729 -0.001606 0.012292 0.000000 0.002575 0.000000
# 4 0.000000 0.000000 0.000000 0.056984 0.000000 0.002613
# 5 -0.002298 0.001736 0.002575 0.000000 0.023862 0.000000
# 6 0.000000 0.000000 0.000000 0.002613 0.000000 0.032780
#
#
# Mechanical properties :
#
#
# Convention : Reuss Voigt Hill
#
# Bulk Modulus (GPa) = 62.80610 63.63275 63.21942
# Shear Modulus (GPa) = 28.01745 31.31612 29.66679
#
# Velocity S-wave (km/s) = 3.59424 3.79994 3.69852
# Velocity P-wave (km/s) = 6.79587 6.97087 6.88393
#
# Compressibility (1/GPa) = 0.01592202
#
# Stress axis : x y z
#
# Youngs Moduli (GPa) = 69.61540 90.35185 81.35496
#
# Poissons Ratio (x) = 0.41252 0.38474
# Poissons Ratio (y) = 0.31785 0.13068
# Poissons Ratio (z) = 0.32922 0.14513
#
# Static dielectric constant tensor:
#      x y z
#    x 4.016600 0.000000 0.053650 
#    y 0.000000 3.647830 0.000000 
#    z 0.053650 0.000000 4.264710 
# 
# 
# High freq. dielectric constant tensor:
#      x y z
#    x 1.857520 0.000000 -0.000560 
#    y 0.000000 1.837400 0.000000 
#    z -0.000560 0.000000 1.868560 
# 
# From -- ./inp_files/119984.got.cif
#   From: 2010.06.25/outbox.cif.g09.slc.cpg/sg15_60_cif.got.tgz:119984.got - 2010.06.28 07:06:18.
