data_PCOD8149644
_publ_section_title
;
Structure prediction by ZEFSAII (Michael W. Deem and Ramdas Pophale) SiO2 
 PCOD8149644
Probable space group: C 2/C
;
_chemical_formula_sum "Si O2"
_cell_formula_units_Z 44
_cell_length_a 6.669972
_cell_length_b 22.724341
_cell_length_c 13.000299
_cell_angle_alpha 90.000000
_cell_angle_beta 92.655309
_cell_angle_gamma 90.000000
_cell_volume 1968.348996
_symmetry_space_group_name_H-M "C 2/C"
_symmetry_group_IT_number 15
_symmetry_cell_setting 'monoclinic'
loop_
_space_group_symop_operation_xyz
x,y,z
-x,y,1/2-z
-x,-y,-z
x,-y,1/2+z
1/2+x,1/2+y,z
1/2-x,1/2+y,1/2-z
1/2-x,1/2-y,-z
1/2+x,1/2-y,1/2+z
loop_
_atom_site_type_symbol
_atom_site_label
_atom_site_fract_x
_atom_site_fract_y
_atom_site_fract_z
Si Si1 0.135965 0.232215 0.349285
Si Si2 0.094734 0.895244 0.864847
Si Si3 0.000000 0.218464 0.750000
Si Si4 0.690624 0.804942 0.068680
Si Si5 0.252005 0.431603 0.996522
Si Si6 0.918900 0.486908 0.856914
O O1 0.126697 0.170733 0.412105
O O2 0.366588 0.242838 0.324448
O O3 0.000000 0.217452 0.250000
O O4 0.037844 0.288838 0.402716
O O5 0.000000 0.896270 0.750000
O O6 0.969576 0.931498 0.947860
O O7 0.309164 0.924449 0.853228
O O8 0.843143 0.184101 0.670381
O O9 0.750000 0.750000 0.000000
O O10 0.677202 0.864086 0.001817
O O11 0.115353 0.475969 0.928697
O O12 0.235919 0.461814 0.108645
O O13 0.000000 0.508417 0.750000
#
# Coordination Sequence:
#
# PCOD8149644 Si02
#       6
#     8   8   4   8   8   8
#     4   9  21  37  64  97 129 168 218 270 327 395
#     4  11  21  39  67  97 129 167 224 279 324 395
#     4  10  24  40  62  98 136 182 212 268 354 384
#     4  11  23  43  65  98 135 170 223 275 330 407
#     4  11  25  45  65 100 132 172 227 271 336 406
#     4  11  25  43  69  93 131 180 219 275 336 393
#
# _framework density 22.353760000000001
#
# number of rings (size 3 to 8) (size 9 to 14) (size 15 to 20)
#    0.000    1.455    3.636    0.545    3.818    4.364 
#    1.636    0.000    0.000    0.000    0.000    0.000 
#    0.000    0.000    0.000    0.000    0.000    0.000 
#
# Total GULP energy -272540.739308 kJ/mol
# GULP energy per Si atom -12388.215423 kJ/mol
# Density = 2.230288 g / cm^3
# Si number density = 22.353760 Si / 1000 Ang^3
#
#
#
# Elastic Constant Matrix: (Units=GPa)
#
#
# Indices 1 2 3 4 5 6 
#
# 1 94.9207 8.0333 26.5879 0.0000 -35.7031 0.0000
# 2 8.0333 75.0251 26.8346 0.0000 -13.2803 0.0000
# 3 26.5879 26.8346 106.7619 0.0000 -27.9857 0.0000
# 4 0.0000 0.0000 0.0000 8.7713 0.0000 -36.8855
# 5 -35.7031 -13.2803 -27.9857 0.0000 39.8616 0.0000
# 6 0.0000 0.0000 0.0000 -36.8855 0.0000 -4.6890
#
#
#
# Elastic Compliance Matrix: (Units=1/GPa)
#
#
# Indices 1 2 3 4 5 6 
#
# 1 0.015960 0.000992 -0.000478 0.000000 0.014290 0.000000
# 2 0.000992 0.014969 -0.003026 0.000000 0.003750 0.000000
# 3 -0.000478 -0.003026 0.012096 0.000000 0.007056 0.000000
# 4 0.000000 0.000000 0.000000 0.003345 0.000000 -0.026315
# 5 0.014290 0.003750 0.007056 0.000000 0.044089 0.000000
# 6 0.000000 0.000000 0.000000 -0.026315 0.000000 -0.006258
#
#
# Mechanical properties :
#
#
# Convention : Reuss Voigt Hill
#
# Bulk Modulus (GPa) = 26.31639 44.40217 35.35928
# Shear Modulus (GPa) = 49.07097 23.13891 36.10494
#
# Velocity S-wave (km/s) = 4.69038 3.22082 4.02327
# Velocity P-wave (km/s) = 6.41335 5.80845 6.11838
#
# Compressibility (1/GPa) = 0.03799913
#
# Stress axis : x y z
#
# Youngs Moduli (GPa) = 62.65686 66.80475 82.67274
#
# Poissons Ratio (x) = -0.06624 0.03953
# Poissons Ratio (y) = -0.06212 0.25019
# Poissons Ratio (z) = 0.02996 0.20217
#
# Static dielectric constant tensor:
#      x y z
#    x 4.090280 0.000000 -0.271020 
#    y 0.000000 3.939860 0.000000 
#    z -0.271020 0.000000 4.272290 
# 
# 
# High freq. dielectric constant tensor:
#      x y z
#    x 1.878880 0.000000 -0.019340 
#    y 0.000000 1.867980 0.000000 
#    z -0.019340 0.000000 1.882650 
# 
# From -- ./inp_files/129395.got.cif
#   From: 2010.06.25/outbox.cif.g09.slc.cpg/sg15_65_cif.got.tgz:129395.got - 2010.06.28 07:06:18.
