data_PCOD8149413
_publ_section_title
;
Structure prediction by ZEFSAII (Michael W. Deem and Ramdas Pophale) SiO2 
 PCOD8149413
Probable space group: C 2/C
;
_chemical_formula_sum "Si O2"
_cell_formula_units_Z 44
_cell_length_a 10.443752
_cell_length_b 26.468303
_cell_length_c 9.612663
_cell_angle_alpha 90.000000
_cell_angle_beta 49.078942
_cell_angle_gamma 90.000000
_cell_volume 2007.824087
_symmetry_space_group_name_H-M "C 2/C"
_symmetry_group_IT_number 15
_symmetry_cell_setting 'monoclinic'
loop_
_space_group_symop_operation_xyz
x,y,z
-x,y,1/2-z
-x,-y,-z
x,-y,1/2+z
1/2+x,1/2+y,z
1/2-x,1/2+y,1/2-z
1/2-x,1/2-y,-z
1/2+x,1/2-y,1/2+z
loop_
_atom_site_type_symbol
_atom_site_label
_atom_site_fract_x
_atom_site_fract_y
_atom_site_fract_z
Si Si1 0.884101 0.500928 0.717838
Si Si2 0.022002 0.273174 0.032285
Si Si3 0.000000 0.315660 0.750000
Si Si4 0.738007 0.598817 0.451503
Si Si5 0.652069 0.411866 0.327829
Si Si6 0.258327 0.684976 0.580423
O O1 0.842732 0.445034 0.801609
O O2 0.707692 0.531510 0.830189
O O3 0.000000 0.528771 0.750000
O O4 0.000000 0.500000 0.500000
O O5 0.063149 0.214790 0.042587
O O6 0.996783 0.279723 0.886004
O O7 0.165549 0.310592 0.996807
O O8 0.844329 0.285030 0.228651
O O9 0.830357 0.348888 0.851368
O O10 0.548101 0.595615 0.529570
O O11 0.738478 0.596033 0.617500
O O12 0.724530 0.373434 0.391244
#
# Coordination Sequence:
#
# PCOD8149413 Si02
#       6
#     8   8   4   8   8   8
#     4  12  24  44  70  97 136 178 223 279 345 406
#     4  10  24  41  67  93 140 170 232 276 342 399
#     4  12  22  42  68 102 130 184 222 278 348 408
#     4  11  24  43  65 101 142 169 227 290 331 412
#     4  11  24  43  69  98 137 180 228 281 347 401
#     4  10  23  46  65  97 132 183 223 286 332 410
#
# _framework density 21.914270999999999
#
# number of rings (size 3 to 8) (size 9 to 14) (size 15 to 20)
#    0.000    1.091    4.545    0.545    5.091    2.182 
#    0.000    1.818    0.000    0.000    0.000    0.000 
#    0.000    0.000    0.000    0.000    0.000    0.000 
#
# Total GULP energy -272725.686607 kJ/mol
# GULP energy per Si atom -12396.622119 kJ/mol
# Density = 2.186439 g / cm^3
# Si number density = 21.914271 Si / 1000 Ang^3
#
#
#
# Elastic Constant Matrix: (Units=GPa)
#
#
# Indices 1 2 3 4 5 6 
#
# 1 86.4646 10.6295 30.6048 0.0000 13.9752 0.0000
# 2 10.6295 67.6118 5.9218 0.0000 6.4321 0.0000
# 3 30.6048 5.9218 85.6388 0.0000 10.5323 0.0000
# 4 0.0000 0.0000 0.0000 30.8062 0.0000 2.1419
# 5 13.9752 6.4321 10.5323 0.0000 42.5764 0.0000
# 6 0.0000 0.0000 0.0000 2.1419 0.0000 36.0348
#
#
#
# Elastic Compliance Matrix: (Units=1/GPa)
#
#
# Indices 1 2 3 4 5 6 
#
# 1 0.013842 -0.001480 -0.004449 0.000000 -0.003220 0.000000
# 2 -0.001480 0.015215 -0.000310 0.000000 -0.001736 0.000000
# 3 -0.004449 -0.000310 0.013514 0.000000 -0.001836 0.000000
# 4 0.000000 0.000000 0.000000 0.032596 0.000000 -0.001938
# 5 -0.003220 -0.001736 -0.001836 0.000000 0.025260 0.000000
# 6 0.000000 0.000000 0.000000 -0.001938 0.000000 0.027866
#
#
# Mechanical properties :
#
#
# Convention : Reuss Voigt Hill
#
# Bulk Modulus (GPa) = 33.22837 37.11417 35.17127
# Shear Modulus (GPa) = 33.15599 34.72076 33.93837
#
# Velocity S-wave (km/s) = 3.89393 3.98476 3.93961
# Velocity P-wave (km/s) = 5.95086 6.17608 6.06451
#
# Compressibility (1/GPa) = 0.03009477
#
# Stress axis : x y z
#
# Youngs Moduli (GPa) = 72.24194 65.72326 73.99762
#
# Poissons Ratio (x) = 0.09729 0.32918
# Poissons Ratio (y) = 0.10694 0.02291
# Poissons Ratio (z) = 0.32137 0.02035
#
# Static dielectric constant tensor:
#      x y z
#    x 4.121100 0.000000 -0.001590 
#    y 0.000000 3.807830 0.000000 
#    z -0.001590 0.000000 3.971530 
# 
# 
# High freq. dielectric constant tensor:
#      x y z
#    x 1.873980 0.000000 -0.001830 
#    y 0.000000 1.847140 0.000000 
#    z -0.001830 0.000000 1.867500 
# 
# From -- ./inp_files/35043.got.cif
#   From: 2010.06.25/outbox.cif.g09.slc.cpg/sg15_18_cif.got.tgz:35043.got - 2010.06.28 07:06:18.
