data_PCOD8149099
_publ_section_title
;
Structure prediction by ZEFSAII (Michael W. Deem and Ramdas Pophale) SiO2 
 PCOD8149099
Probable space group: C 2/C
;
_chemical_formula_sum "Si O2"
_cell_formula_units_Z 48
_cell_length_a 11.418303
_cell_length_b 9.267030
_cell_length_c 21.073465
_cell_angle_alpha 90.000000
_cell_angle_beta 73.481638
_cell_angle_gamma 90.000000
_cell_volume 2137.833091
_symmetry_space_group_name_H-M "C 2/C"
_symmetry_group_IT_number 15
_symmetry_cell_setting 'monoclinic'
loop_
_space_group_symop_operation_xyz
x,y,z
-x,y,1/2-z
-x,-y,-z
x,-y,1/2+z
1/2+x,1/2+y,z
1/2-x,1/2+y,1/2-z
1/2-x,1/2-y,-z
1/2+x,1/2-y,1/2+z
loop_
_atom_site_type_symbol
_atom_site_label
_atom_site_fract_x
_atom_site_fract_y
_atom_site_fract_z
Si Si1 0.035980 0.242975 0.654718
Si Si2 0.832987 0.870138 0.022034
Si Si3 0.670394 0.463065 0.339161
Si Si4 0.405077 0.031529 0.717159
Si Si5 0.195860 0.276545 0.370977
Si Si6 0.103306 0.813763 0.007827
O O1 0.162413 0.216944 0.673776
O O2 0.078443 0.271908 0.576418
O O3 0.950664 0.103239 0.673933
O O4 0.961457 0.375450 0.694686
O O5 0.792716 0.874035 0.102879
O O6 0.973826 0.828132 0.992667
O O7 0.750000 0.750000 0.000000
O O8 0.827028 0.031750 0.992937
O O9 0.776432 0.470763 0.271712
O O10 0.635008 0.623473 0.364527
O O11 0.500000 0.113010 0.750000
O O12 0.386527 0.106811 0.652375
O O13 0.185135 0.291200 0.449712
#
# Coordination Sequence:
#
# PCOD8149099 Si02
#       6
#     8   8   8   8   8   8
#     4  11  24  46  69  98 138 171 226 288 336 407
#     4   9  19  37  67  99 139 174 219 285 338 400
#     4  10  23  44  66  96 132 177 224 276 338 402
#     4  12  26  44  65  96 134 180 230 275 334 406
#     4  11  24  45  69  97 138 176 219 283 341 404
#     4   9  21  39  65 104 132 172 226 275 345 409
#
# _framework density 22.452641
#
# number of rings (size 3 to 8) (size 9 to 14) (size 15 to 20)
#    0.000    1.667    1.667    2.500    2.333    3.333 
#    6.000    0.000    0.000    0.000    0.000    0.000 
#    0.000    0.000    0.000    0.000    0.000    0.000 
#
# Total GULP energy -297411.479178 kJ/mol
# GULP energy per Si atom -12392.144966 kJ/mol
# Density = 2.240154 g / cm^3
# Si number density = 22.452641 Si / 1000 Ang^3
#
#
#
# Elastic Constant Matrix: (Units=GPa)
#
#
# Indices 1 2 3 4 5 6 
#
# 1 131.5041 66.6610 27.8657 0.0000 -13.5841 0.0000
# 2 66.6610 79.7375 35.5671 0.0000 3.9944 0.0000
# 3 27.8657 35.5671 129.6785 0.0000 -18.8515 0.0000
# 4 0.0000 0.0000 0.0000 30.8352 0.0000 -5.2133
# 5 -13.5841 3.9944 -18.8515 0.0000 31.8949 0.0000
# 6 0.0000 0.0000 0.0000 -5.2133 0.0000 34.6467
#
#
#
# Elastic Compliance Matrix: (Units=1/GPa)
#
#
# Indices 1 2 3 4 5 6 
#
# 1 0.015365 -0.014200 0.001972 0.000000 0.009488 0.000000
# 2 -0.014200 0.028026 -0.006591 0.000000 -0.013453 0.000000
# 3 0.001972 -0.006591 0.010215 0.000000 0.007703 0.000000
# 4 0.000000 0.000000 0.000000 0.033277 0.000000 0.005007
# 5 0.009488 -0.013453 0.007703 0.000000 0.041632 0.000000
# 6 0.000000 0.000000 0.000000 0.005007 0.000000 0.029616
#
#
# Mechanical properties :
#
#
# Convention : Reuss Voigt Hill
#
# Bulk Modulus (GPa) = 62.62373 66.78972 64.70673
# Shear Modulus (GPa) = 24.86428 33.53043 29.19736
#
# Velocity S-wave (km/s) = 3.33139 3.86863 3.61001
# Velocity P-wave (km/s) = 6.53831 7.05454 6.80133
#
# Compressibility (1/GPa) = 0.01596839
#
# Stress axis : x y z
#
# Youngs Moduli (GPa) = 65.08470 35.68069 97.89360
#
# Poissons Ratio (x) = 0.50666 -0.19308
# Poissons Ratio (y) = 0.92420 0.64524
# Poissons Ratio (z) = -0.12837 0.23518
#
# Static dielectric constant tensor:
#      x y z
#    x 4.306130 0.000000 -0.071490 
#    y 0.000000 3.861220 0.000000 
#    z -0.071490 0.000000 4.551400 
# 
# 
# High freq. dielectric constant tensor:
#      x y z
#    x 1.894060 0.000000 -0.011630 
#    y 0.000000 1.857570 0.000000 
#    z -0.011630 0.000000 1.904620 
# 
# From -- ./inp_files/268003.got.cif
#   From: 2010.06.25/outbox.cif.g09.slc.cpg/sg15_135_cif.got.tgz:268003.got - 2010.06.28 07:06:18.
