data_PCOD8149746
_publ_section_title
;
Structure prediction by ZEFSAII (Michael W. Deem and Ramdas Pophale) SiO2 
 PCOD8149746
Probable space group: C 2/C
;
_chemical_formula_sum "Si O2"
_cell_formula_units_Z 40
_cell_length_a 14.099486
_cell_length_b 13.103271
_cell_length_c 10.029998
_cell_angle_alpha 90.000000
_cell_angle_beta 69.047656
_cell_angle_gamma 90.000000
_cell_volume 1730.509857
_symmetry_space_group_name_H-M "C 2/C"
_symmetry_group_IT_number 15
_symmetry_cell_setting 'monoclinic'
loop_
_space_group_symop_operation_xyz
x,y,z
-x,y,1/2-z
-x,-y,-z
x,-y,1/2+z
1/2+x,1/2+y,z
1/2-x,1/2+y,1/2-z
1/2-x,1/2-y,-z
1/2+x,1/2-y,1/2+z
loop_
_atom_site_type_symbol
_atom_site_label
_atom_site_fract_x
_atom_site_fract_y
_atom_site_fract_z
Si Si1 0.833949 0.840043 0.310590
Si Si2 0.384493 0.083698 0.831973
Si Si3 0.007849 0.119629 0.536374
Si Si4 0.293571 0.967072 0.647468
Si Si5 0.669323 0.283743 0.784883
O O1 0.915044 0.851684 0.385256
O O2 0.760746 0.739417 0.347101
O O3 0.756673 0.930154 0.375010
O O4 0.895184 0.845460 0.137491
O O5 0.500000 0.103080 0.750000
O O6 0.328220 0.187219 0.814851
O O7 0.347046 0.986031 0.763822
O O8 0.373532 0.064798 0.994492
O O9 0.055182 0.190455 0.395265
O O10 0.000000 0.000000 0.500000
O O11 0.203353 0.885557 0.693894
#
# Coordination Sequence:
#
# PCOD8149746 Si02
#       5
#     8   8   8   8   8
#     4  10  24  41  67 102 137 184 230 286 351 405
#     4  11  26  44  69 101 136 183 233 282 344 412
#     4  11  22  42  68 100 137 184 236 284 342 415
#     4  11  23  46  69  97 143 182 227 287 346 407
#     4  11  24  42  69  99 140 178 230 287 347 407
#
# _framework density 23.114574999999999
#
# number of rings (size 3 to 8) (size 9 to 14) (size 15 to 20)
#    0.000    1.200    2.000    3.000    5.600    3.200 
#    3.600    0.000    0.000    0.000    0.000    0.000 
#    0.000    0.000    0.000    0.000    0.000    0.000 
#
# Total GULP energy -247786.020990 kJ/mol
# GULP energy per Si atom -12389.301049 kJ/mol
# Density = 2.306196 g / cm^3
# Si number density = 23.114575 Si / 1000 Ang^3
#
#
#
# Elastic Constant Matrix: (Units=GPa)
#
#
# Indices 1 2 3 4 5 6 
#
# 1 54.3230 6.3095 -7.0072 0.0000 -13.5491 0.0000
# 2 6.3095 88.0595 19.7769 0.0000 -7.2951 0.0000
# 3 -7.0072 19.7769 74.9853 0.0000 -8.6932 0.0000
# 4 0.0000 0.0000 0.0000 39.4435 0.0000 -37.1916
# 5 -13.5491 -7.2951 -8.6932 0.0000 31.0226 0.0000
# 6 0.0000 0.0000 0.0000 -37.1916 0.0000 40.7657
#
#
#
# Elastic Compliance Matrix: (Units=1/GPa)
#
#
# Indices 1 2 3 4 5 6 
#
# 1 0.021556 -0.001515 0.003580 0.000000 0.010061 0.000000
# 2 -0.001515 0.012300 -0.003232 0.000000 0.001325 0.000000
# 3 0.003580 -0.003232 0.015107 0.000000 0.005037 0.000000
# 4 0.000000 0.000000 0.000000 0.181403 0.000000 0.165499
# 5 0.010061 0.001325 0.005037 0.000000 0.038352 0.000000
# 6 0.000000 0.000000 0.000000 0.165499 0.000000 0.175520
#
#
# Mechanical properties :
#
#
# Convention : Reuss Voigt Hill
#
# Bulk Modulus (GPa) = 21.44578 28.39183 24.91881
# Shear Modulus (GPa) = 10.81984 35.46559 23.14272
#
# Velocity S-wave (km/s) = 2.16590 3.92131 3.16763
# Velocity P-wave (km/s) = 3.94373 5.72818 4.91757
#
# Compressibility (1/GPa) = 0.04662921
#
# Stress axis : x y z
#
# Youngs Moduli (GPa) = 46.39149 81.29980 66.19492
#
# Poissons Ratio (x) = 0.12317 -0.23700
# Poissons Ratio (y) = 0.07029 0.21395
# Poissons Ratio (z) = -0.16610 0.26277
#
# Static dielectric constant tensor:
#      x y z
#    x 4.658380 0.000000 -0.152360 
#    y 0.000000 4.305890 0.000000 
#    z -0.152360 0.000000 4.573400 
# 
# 
# High freq. dielectric constant tensor:
#      x y z
#    x 1.917170 0.000000 -0.015960 
#    y 0.000000 1.914020 0.000000 
#    z -0.015960 0.000000 1.914390 
# 
# From -- ./inp_files/37797.got.cif
#   From: 2010.06.25/outbox.cif.g09.slc.cpg/sg15_19_cif.got.tgz:37797.got - 2010.06.28 07:06:18.
