data_PCOD8149714
_publ_section_title
;
Structure prediction by ZEFSAII (Michael W. Deem and Ramdas Pophale) SiO2 
 PCOD8149714
Probable space group: C 2/C
;
_chemical_formula_sum "Si O2"
_cell_formula_units_Z 52
_cell_length_a 18.009439
_cell_length_b 9.560527
_cell_length_c 16.102150
_cell_angle_alpha 90.000000
_cell_angle_beta 118.831206
_cell_angle_gamma 90.000000
_cell_volume 2428.800736
_symmetry_space_group_name_H-M "C 2/C"
_symmetry_group_IT_number 15
_symmetry_cell_setting 'monoclinic'
loop_
_space_group_symop_operation_xyz
x,y,z
-x,y,1/2-z
-x,-y,-z
x,-y,1/2+z
1/2+x,1/2+y,z
1/2-x,1/2+y,1/2-z
1/2-x,1/2-y,-z
1/2+x,1/2-y,1/2+z
loop_
_atom_site_type_symbol
_atom_site_label
_atom_site_fract_x
_atom_site_fract_y
_atom_site_fract_z
Si Si1 0.291856 0.373296 0.972044
Si Si2 0.730974 0.510099 0.309234
Si Si3 0.910605 0.871510 0.177862
Si Si4 0.338370 0.764916 0.325151
Si Si5 0.500000 0.895969 0.750000
Si Si6 0.803487 0.611345 0.515893
Si Si7 0.503800 0.077565 0.911422
O O1 0.318906 0.315084 0.899093
O O2 0.250000 0.250000 0.000000
O O3 0.375406 0.423034 0.069419
O O4 0.225984 0.503452 0.927281
O O5 0.651159 0.410511 0.280605
O O6 0.698279 0.660924 0.263225
O O7 0.793734 0.416528 0.286493
O O8 0.782282 0.532840 0.420272
O O9 0.919675 0.702450 0.183056
O O10 0.000000 0.944414 0.250000
O O11 0.439427 0.790931 0.376193
O O12 0.475355 0.979630 0.819710
O O13 0.750000 0.750000 0.500000
O O14 0.904148 0.638420 0.565307
O O15 0.500000 0.000000 0.000000
#
# Coordination Sequence:
#
# PCOD8149714 Si02
#       7
#     8   8   8   8   4   8   8
#     4  11  20  46  69  96 135 191 226 286 357 427
#     4  11  26  43  66 101 141 183 230 293 356 427
#     4   9  21  40  69  93 133 180 237 269 350 421
#     4  12  27  43  72 103 148 180 244 296 358 429
#     4  10  24  40  76  98 142 190 230 294 358 420
#     4  11  26  46  74  98 142 182 242 295 358 421
#     4  12  25  47  72 108 140 188 247 291 350 436
#
# _framework density 21.409742999999999
#
# number of rings (size 3 to 8) (size 9 to 14) (size 15 to 20)
#    0.462    0.615    4.615    1.846    6.462    2.462 
#    0.000    1.538    0.000    0.000    0.000    0.000 
#    0.000    0.000    0.000    0.000    0.000    0.000 
#
# Total GULP energy -322128.332381 kJ/mol
# GULP energy per Si atom -12389.551245 kJ/mol
# Density = 2.136101 g / cm^3
# Si number density = 21.409743 Si / 1000 Ang^3
#
#
#
# Elastic Constant Matrix: (Units=GPa)
#
#
# Indices 1 2 3 4 5 6 
#
# 1 141.3452 56.9095 27.6015 0.0000 22.1103 0.0000
# 2 56.9095 121.1861 10.0813 0.0000 2.4855 0.0000
# 3 27.6015 10.0813 63.7457 0.0000 -0.3642 0.0000
# 4 0.0000 0.0000 0.0000 32.2629 0.0000 -8.9896
# 5 22.1103 2.4855 -0.3642 0.0000 38.3979 0.0000
# 6 0.0000 0.0000 0.0000 -8.9896 0.0000 30.2753
#
#
#
# Elastic Compliance Matrix: (Units=1/GPa)
#
#
# Indices 1 2 3 4 5 6 
#
# 1 0.010566 -0.004519 -0.003894 0.000000 -0.005829 0.000000
# 2 -0.004519 0.010306 0.000338 0.000000 0.001938 0.000000
# 3 -0.003894 0.000338 0.017334 0.000000 0.002385 0.000000
# 4 0.000000 0.000000 0.000000 0.033791 0.000000 0.010034
# 5 -0.005829 0.001938 0.002385 0.000000 0.029297 0.000000
# 6 0.000000 0.000000 0.000000 0.010034 0.000000 0.036009
#
#
# Mechanical properties :
#
#
# Convention : Reuss Voigt Hill
#
# Bulk Modulus (GPa) = 45.33830 57.27350 51.30590
# Shear Modulus (GPa) = 31.09369 35.63287 33.36328
#
# Velocity S-wave (km/s) = 3.81506 4.08405 3.95184
# Velocity P-wave (km/s) = 6.37406 7.00346 6.69616
#
# Compressibility (1/GPa) = 0.02205641
#
# Stress axis : x y z
#
# Youngs Moduli (GPa) = 94.64032 97.03232 57.69151
#
# Poissons Ratio (x) = 0.43844 0.22464
# Poissons Ratio (y) = 0.42763 -0.01948
# Poissons Ratio (z) = 0.36852 -0.03277
#
# Static dielectric constant tensor:
#      x y z
#    x 4.028720 0.000000 0.418000 
#    y 0.000000 3.849760 0.000000 
#    z 0.418000 0.000000 3.519130 
# 
# 
# High freq. dielectric constant tensor:
#      x y z
#    x 1.846290 0.000000 0.011620 
#    y 0.000000 1.834350 0.000000 
#    z 0.011620 0.000000 1.839980 
# 
# From -- ./inp_files/209251.got.cif
#   From: 2010.06.25/outbox.cif.g09.slc.cpg/sg15_105_cif.got.tgz:209251.got - 2010.06.28 07:06:18.
