data_PCOD8149185
_publ_section_title
;
Structure prediction by ZEFSAII (Michael W. Deem and Ramdas Pophale) SiO2 
 PCOD8149185
Probable space group: C 2/C
;
_chemical_formula_sum "Si O2"
_cell_formula_units_Z 36
_cell_length_a 9.773845
_cell_length_b 25.641082
_cell_length_c 7.598143
_cell_angle_alpha 90.000000
_cell_angle_beta 60.563307
_cell_angle_gamma 90.000000
_cell_volume 1658.353741
_symmetry_space_group_name_H-M "C 2/C"
_symmetry_group_IT_number 15
_symmetry_cell_setting 'monoclinic'
loop_
_space_group_symop_operation_xyz
x,y,z
-x,y,1/2-z
-x,-y,-z
x,-y,1/2+z
1/2+x,1/2+y,z
1/2-x,1/2+y,1/2-z
1/2-x,1/2-y,-z
1/2+x,1/2-y,1/2+z
loop_
_atom_site_type_symbol
_atom_site_label
_atom_site_fract_x
_atom_site_fract_y
_atom_site_fract_z
Si Si1 0.500000 0.244177 0.250000
Si Si2 0.457765 0.165813 0.581010
Si Si3 0.829485 0.571546 0.126163
Si Si4 0.114412 0.844242 0.321060
Si Si5 0.000000 0.497676 0.750000
Si Si6 0.000000 0.888157 0.750000
O O1 0.429935 0.210415 0.453616
O O2 0.627780 0.282531 0.262364
O O3 0.500000 0.187662 0.750000
O O4 0.597622 0.129565 0.420546
O O5 0.292566 0.133785 0.702577
O O6 0.855101 0.541259 0.293067
O O7 0.645993 0.573978 0.198081
O O8 0.932442 0.536378 0.934654
O O9 0.000000 0.872723 0.250000
O O10 0.038381 0.851255 0.560820
#
# Coordination Sequence:
#
# PCOD8149185 Si02
#       6
#     4   8   8   8   4   4
#     4  10  27  38  68  97 130 181 222 270 317 376
#     4  12  23  44  68  94 132 177 219 268 328 390
#     4  11  24  43  70  97 128 172 215 268 337 387
#     4  10  26  42  63  98 137 171 225 266 319 380
#     4  10  23  44  69  98 128 164 217 272 327 406
#     4  12  24  46  67  99 134 175 215 270 324 390
#
# _framework density 21.708275
#
# number of rings (size 3 to 8) (size 9 to 14) (size 15 to 20)
#    0.667    0.444    3.333    1.333    7.778    1.778 
#    0.000    0.000    0.000    0.000    0.000    0.000 
#    0.000    0.000    0.000    0.000    0.000    0.000 
#
# Total GULP energy -222995.245665 kJ/mol
# GULP energy per Si atom -12388.624759 kJ/mol
# Density = 2.165887 g / cm^3
# Si number density = 21.708275 Si / 1000 Ang^3
#
#
#
# Elastic Constant Matrix: (Units=GPa)
#
#
# Indices 1 2 3 4 5 6 
#
# 1 147.8546 23.4159 31.9013 0.0000 -14.2096 0.0000
# 2 23.4159 71.4357 7.1530 0.0000 3.1275 0.0000
# 3 31.9013 7.1530 44.7537 0.0000 -1.2980 0.0000
# 4 0.0000 0.0000 0.0000 15.2875 0.0000 1.1999
# 5 -14.2096 3.1275 -1.2980 0.0000 46.5090 0.0000
# 6 0.0000 0.0000 0.0000 1.1999 0.0000 28.6511
#
#
#
# Elastic Compliance Matrix: (Units=1/GPa)
#
#
# Indices 1 2 3 4 5 6 
#
# 1 0.008619 -0.002371 -0.005689 0.000000 0.002634 0.000000
# 2 -0.002371 0.014927 -0.000746 0.000000 -0.001749 0.000000
# 3 -0.005689 -0.000746 0.026491 0.000000 -0.000949 0.000000
# 4 0.000000 0.000000 0.000000 0.065629 0.000000 -0.002749
# 5 0.002634 -0.001749 -0.000949 0.000000 0.022397 0.000000
# 6 0.000000 0.000000 0.000000 -0.002749 0.000000 0.035018
#
#
# Mechanical properties :
#
#
# Convention : Reuss Voigt Hill
#
# Bulk Modulus (GPa) = 30.83989 43.22050 37.03019
# Shear Modulus (GPa) = 24.81358 31.52778 28.17068
#
# Velocity S-wave (km/s) = 3.38457 3.81509 3.60626
# Velocity P-wave (km/s) = 5.43241 6.27371 5.86816
#
# Compressibility (1/GPa) = 0.03242553
#
# Stress axis : x y z
#
# Youngs Moduli (GPa) = 116.01622 66.99213 37.74815
#
# Poissons Ratio (x) = 0.15884 0.21474
# Poissons Ratio (y) = 0.27508 0.02817
# Poissons Ratio (z) = 0.65999 0.05000
#
# Static dielectric constant tensor:
#      x y z
#    x 4.397030 0.000000 0.394810 
#    y 0.000000 3.762630 0.000000 
#    z 0.394810 0.000000 4.062560 
# 
# 
# High freq. dielectric constant tensor:
#      x y z
#    x 1.867070 0.000000 0.011170 
#    y 0.000000 1.826880 0.000000 
#    z 0.011170 0.000000 1.856630 
# 
# From -- ./inp_files/24346.got.cif
#   From: 2010.06.25/outbox.cif.g09.slc.cpg/sg15_13_cif.got.tgz:24346.got - 2010.06.28 07:06:18.
