data_PCOD8149171
_publ_section_title
;
Structure prediction by ZEFSAII (Michael W. Deem and Ramdas Pophale) SiO2 
 PCOD8149171
Probable space group: C 2/C
;
_chemical_formula_sum "Si O2"
_cell_formula_units_Z 52
_cell_length_a 20.460832
_cell_length_b 6.728701
_cell_length_c 18.448009
_cell_angle_alpha 90.000000
_cell_angle_beta 110.549753
_cell_angle_gamma 90.000000
_cell_volume 2378.211423
_symmetry_space_group_name_H-M "C 2/C"
_symmetry_group_IT_number 15
_symmetry_cell_setting 'monoclinic'
loop_
_space_group_symop_operation_xyz
x,y,z
-x,y,1/2-z
-x,-y,-z
x,-y,1/2+z
1/2+x,1/2+y,z
1/2-x,1/2+y,1/2-z
1/2-x,1/2-y,-z
1/2+x,1/2-y,1/2+z
loop_
_atom_site_type_symbol
_atom_site_label
_atom_site_fract_x
_atom_site_fract_y
_atom_site_fract_z
Si Si1 0.865827 0.380063 0.187688
Si Si2 0.377710 0.613054 0.065116
Si Si3 0.285495 0.468357 0.404526
Si Si4 0.500000 0.140847 0.250000
Si Si5 0.017489 0.906487 0.122040
Si Si6 0.891583 0.653054 0.439864
Si Si7 0.122186 0.255738 0.147323
O O1 0.868629 0.169132 0.145851
O O2 0.797478 0.489517 0.130112
O O3 0.852520 0.347944 0.267264
O O4 0.935915 0.503422 0.198589
O O5 0.435950 0.444510 0.080256
O O6 0.309596 0.516276 0.998977
O O7 0.397563 0.818809 0.029506
O O8 0.318325 0.259818 0.385905
O O9 0.314532 0.644119 0.366092
O O10 0.530889 0.278998 0.199286
O O11 0.043548 0.781344 0.064255
O O12 0.056720 0.117506 0.141113
O O13 0.899626 0.429478 0.416631
#
# Coordination Sequence:
#
# PCOD8149171 Si02
#       7
#     8   8   8   4   8   8   8
#     4  12  24  45  69  97 138 174 229 271 339 399
#     4  10  23  44  69 100 136 177 214 284 332 392
#     4   9  25  43  68  99 132 175 221 275 333 394
#     4  12  26  42  66 106 130 182 216 284 330 396
#     4  11  22  44  65 100 137 167 232 269 330 394
#     4   9  22  43  67  99 132 170 231 264 335 395
#     4  11  23  42  72  97 130 182 219 278 332 391
#
# _framework density 21.865172000000001
#
# number of rings (size 3 to 8) (size 9 to 14) (size 15 to 20)
#    0.923    0.615    1.538    2.769    2.154    1.846 
#    2.769    1.538    0.000    0.000    0.000    0.000 
#    0.000    0.000    0.000    0.000    0.000    0.000 
#
# Total GULP energy -322220.241222 kJ/mol
# GULP energy per Si atom -12393.086201 kJ/mol
# Density = 2.181541 g / cm^3
# Si number density = 21.865172 Si / 1000 Ang^3
#
#
#
# Elastic Constant Matrix: (Units=GPa)
#
#
# Indices 1 2 3 4 5 6 
#
# 1 102.1637 31.9498 17.1676 0.0000 28.0552 0.0000
# 2 31.9498 79.7738 11.0183 0.0000 8.3895 0.0000
# 3 17.1676 11.0183 69.1581 0.0000 4.5227 0.0000
# 4 0.0000 0.0000 0.0000 30.8565 0.0000 -7.8371
# 5 28.0552 8.3895 4.5227 0.0000 38.9407 0.0000
# 6 0.0000 0.0000 0.0000 -7.8371 0.0000 20.6852
#
#
#
# Elastic Compliance Matrix: (Units=1/GPa)
#
#
# Indices 1 2 3 4 5 6 
#
# 1 0.013950 -0.004353 -0.002190 0.000000 -0.008858 0.000000
# 2 -0.004353 0.014431 -0.001230 0.000000 0.000170 0.000000
# 3 -0.002190 -0.001230 0.015194 0.000000 0.000078 0.000000
# 4 0.000000 0.000000 0.000000 0.035859 0.000000 0.013586
# 5 -0.008858 0.000170 0.000078 0.000000 0.032016 0.000000
# 6 0.000000 0.000000 0.000000 0.013586 0.000000 0.053491
#
#
# Mechanical properties :
#
#
# Convention : Reuss Voigt Hill
#
# Bulk Modulus (GPa) = 35.67674 41.26299 38.46987
# Shear Modulus (GPa) = 26.33936 30.82715 28.58326
#
# Velocity S-wave (km/s) = 3.47454 3.75890 3.61951
# Velocity P-wave (km/s) = 5.69637 6.14424 5.92454
#
# Compressibility (1/GPa) = 0.02802947
#
# Stress axis : x y z
#
# Youngs Moduli (GPa) = 71.68379 69.29617 65.81509
#
# Poissons Ratio (x) = 0.30165 0.14414
# Poissons Ratio (y) = 0.31204 0.08093
# Poissons Ratio (z) = 0.15700 0.08521
#
# Static dielectric constant tensor:
#      x y z
#    x 3.817890 0.000000 -0.117730 
#    y 0.000000 3.772780 0.000000 
#    z -0.117730 0.000000 3.912800 
# 
# 
# High freq. dielectric constant tensor:
#      x y z
#    x 1.856770 0.000000 -0.005350 
#    y 0.000000 1.845070 0.000000 
#    z -0.005350 0.000000 1.861130 
# 
# From -- ./inp_files/251116.got.cif
#   From: 2010.06.25/outbox.cif.g09.slc.cpg/sg15_126_cif.got.tgz:251116.got - 2010.06.28 07:06:18.
