data_PCOD8149441
_publ_section_title
;
Structure prediction by ZEFSAII (Michael W. Deem and Ramdas Pophale) SiO2 
 PCOD8149441
Probable space group: C 2/C
;
_chemical_formula_sum "Si O2"
_cell_formula_units_Z 48
_cell_length_a 16.574630
_cell_length_b 17.048578
_cell_length_c 17.185426
_cell_angle_alpha 90.000000
_cell_angle_beta 153.252106
_cell_angle_gamma 90.000000
_cell_volume 2185.587218
_symmetry_space_group_name_H-M "C 2/C"
_symmetry_group_IT_number 15
_symmetry_cell_setting 'monoclinic'
loop_
_space_group_symop_operation_xyz
x,y,z
-x,y,1/2-z
-x,-y,-z
x,-y,1/2+z
1/2+x,1/2+y,z
1/2-x,1/2+y,1/2-z
1/2-x,1/2-y,-z
1/2+x,1/2-y,1/2+z
loop_
_atom_site_type_symbol
_atom_site_label
_atom_site_fract_x
_atom_site_fract_y
_atom_site_fract_z
Si Si1 0.617286 0.201329 0.705011
Si Si2 0.515995 0.498165 0.605535
Si Si3 0.410916 0.204100 0.100714
Si Si4 0.799808 0.588801 0.588529
Si Si5 0.172417 0.836905 0.265694
Si Si6 0.770943 0.860900 0.642473
O O1 0.685167 0.162624 0.842342
O O2 0.762628 0.183193 0.764583
O O3 0.431068 0.166098 0.513749
O O4 0.597810 0.293319 0.710424
O O5 0.500000 0.500000 0.500000
O O6 0.328511 0.476287 0.484635
O O7 0.557882 0.584675 0.671318
O O8 0.677976 0.439812 0.767558
O O9 0.500000 0.155665 0.250000
O O10 0.553080 0.264304 0.188049
O O11 0.250000 0.250000 0.000000
O O12 0.339365 0.149956 0.969050
O O13 0.708136 0.621781 0.431203
O O14 0.000000 0.552489 0.750000
#
# Coordination Sequence:
#
# PCOD8149441 Si02
#       6
#     8   8   8   8   8   8
#     4  11  22  43  71 107 137 180 229 284 342 420
#     4  12  26  46  68 100 143 182 226 285 346 404
#     4   9  21  42  66  95 126 174 235 282 331 396
#     4  10  23  46  70 106 138 183 227 280 347 418
#     4  11  23  43  72  97 140 181 232 288 348 403
#     4  11  25  41  73 102 144 179 227 279 350 415
#
# _framework density 21.962060999999999
#
# number of rings (size 3 to 8) (size 9 to 14) (size 15 to 20)
#    0.000    1.333    1.667    3.000    2.333    7.333 
#    0.000    5.000    0.000    0.000    0.000    0.000 
#    0.000    0.000    0.000    0.000    0.000    0.000 
#
# Total GULP energy -297540.379595 kJ/mol
# GULP energy per Si atom -12397.515816 kJ/mol
# Density = 2.191207 g / cm^3
# Si number density = 21.962061 Si / 1000 Ang^3
#
#
#
# Elastic Constant Matrix: (Units=GPa)
#
#
# Indices 1 2 3 4 5 6 
#
# 1 138.6446 37.4658 50.9418 -0.0253 1.6460 -0.0288
# 2 37.4658 84.1840 36.9768 0.0240 -6.8345 -0.0410
# 3 50.9418 36.9768 120.3574 -0.0130 -8.8867 -0.0283
# 4 -0.0253 0.0240 -0.0130 42.7957 0.0326 2.5095
# 5 1.6460 -6.8345 -8.8867 0.0326 42.0895 0.0165
# 6 -0.0288 -0.0410 -0.0283 2.5095 0.0165 30.2880
#
#
#
# Elastic Compliance Matrix: (Units=1/GPa)
#
#
# Indices 1 2 3 4 5 6 
#
# 1 0.009134 -0.002819 -0.003109 0.000007 -0.001471 0.000002
# 2 -0.002819 0.014679 -0.003182 -0.000013 0.001822 0.000014
# 3 -0.003109 -0.003182 0.010740 0.000002 0.001873 0.000002
# 4 0.000007 -0.000013 0.000002 0.023481 -0.000019 -0.001946
# 5 -0.001471 0.001822 0.001873 -0.000019 0.024508 -0.000009
# 6 0.000002 0.000014 0.000002 -0.001946 -0.000009 0.033178
#
#
# Mechanical properties :
#
#
# Convention : Reuss Voigt Hill
#
# Bulk Modulus (GPa) = 61.22276 65.99498 63.60887
# Shear Modulus (GPa) = 35.87223 37.55476 36.71350
#
# Velocity S-wave (km/s) = 4.04589 4.13968 4.09305
# Velocity P-wave (km/s) = 7.05427 7.27764 7.16682
#
# Compressibility (1/GPa) = 0.01633379
#
# Stress axis : x y z
#
# Youngs Moduli (GPa) = 109.47925 68.12461 93.10847
#
# Poissons Ratio (x) = 0.19205 0.28944
# Poissons Ratio (y) = 0.30864 0.29627
# Poissons Ratio (z) = 0.34033 0.21677
#
# Static dielectric constant tensor:
#      x y z
#    x 4.250800 -0.000180 -0.166860 
#    y -0.000180 3.744190 -0.000200 
#    z -0.166860 -0.000200 4.696450 
# 
# 
# High freq. dielectric constant tensor:
#      x y z
#    x 1.879380 -0.000010 -0.008290 
#    y -0.000010 1.840400 -0.000020 
#    z -0.008290 -0.000020 1.888370 
# 
# From -- ./inp_files/211443.got.cif
#   From: 2010.06.25/outbox.cif.g09.slc.cpg/sg15_106_cif.got.tgz:211443.got - 2010.06.28 07:06:18.
