data_PCOD8149374
_publ_section_title
;
Structure prediction by ZEFSAII (Michael W. Deem and Ramdas Pophale) SiO2 
 PCOD8149374
Probable space group: C 2/C
;
_chemical_formula_sum "Si O2"
_cell_formula_units_Z 28
_cell_length_a 7.510772
_cell_length_b 30.703126
_cell_length_c 5.257510
_cell_angle_alpha 90.000000
_cell_angle_beta 101.649229
_cell_angle_gamma 90.000000
_cell_volume 1187.430830
_symmetry_space_group_name_H-M "C 2/C"
_symmetry_group_IT_number 15
_symmetry_cell_setting 'monoclinic'
loop_
_space_group_symop_operation_xyz
x,y,z
-x,y,1/2-z
-x,-y,-z
x,-y,1/2+z
1/2+x,1/2+y,z
1/2-x,1/2+y,1/2-z
1/2-x,1/2-y,-z
1/2+x,1/2-y,1/2+z
loop_
_atom_site_type_symbol
_atom_site_label
_atom_site_fract_x
_atom_site_fract_y
_atom_site_fract_z
Si Si1 0.342203 0.188688 0.374933
Si Si2 0.214774 0.525679 0.815244
Si Si3 0.500000 0.262675 0.750000
Si Si4 0.385368 0.381446 0.457289
O O1 0.500000 0.166656 0.250000
O O2 0.430537 0.232538 0.506240
O O3 0.282865 0.152330 0.562548
O O4 0.157687 0.205419 0.182483
O O5 0.278966 0.504129 0.569490
O O6 0.000000 0.532204 0.750000
O O7 0.308104 0.571904 0.864002
O O8 0.500000 0.384152 0.750000
O O9 0.500000 0.364388 0.250000
#
# Coordination Sequence:
#
# PCOD8149374 Si02
#       4
#     8   8   4   8
#     4  11  25  44  74 102 145 190 242 301 362 427
#     4  10  23  45  72 102 140 189 241 292 356 429
#     4  10  24  46  70 106 138 188 250 296 364 430
#     4  12  28  45  70 109 150 186 242 299 357 431
#
# _framework density 23.580323
#
# number of rings (size 3 to 8) (size 9 to 14) (size 15 to 20)
#    0.000    1.143    1.429    2.571    6.000   11.429 
#    0.000    0.000    0.000    0.000    0.000    0.000 
#    0.000    0.000    0.000    0.000    0.000    0.000 
#
# Total GULP energy -173557.773977 kJ/mol
# GULP energy per Si atom -12396.983856 kJ/mol
# Density = 2.352665 g / cm^3
# Si number density = 23.580323 Si / 1000 Ang^3
#
#
#
# Elastic Constant Matrix: (Units=GPa)
#
#
# Indices 1 2 3 4 5 6 
#
# 1 164.0495 82.9420 66.0371 0.0000 -32.7005 0.0000
# 2 82.9420 145.5053 48.5130 0.0000 -13.3234 0.0000
# 3 66.0371 48.5130 146.0329 0.0000 -20.0603 0.0000
# 4 0.0000 0.0000 0.000044364.9880 0.000045253.6918
# 5 -32.7005 -13.3234 -20.0603 0.0000 41.0887 0.0000
# 6 0.0000 0.0000 0.000045253.6918 0.000046237.7008
#
#
#
# Elastic Compliance Matrix: (Units=1/GPa)
#
#
# Indices 1 2 3 4 5 6 
#
# 1 0.010596 -0.004702 -0.002445 0.000000 0.005715 0.000000
# 2 -0.004702 0.009885 -0.001320 0.000000 -0.001181 0.000000
# 3 -0.002445 -0.001320 0.008645 0.000000 0.001847 0.000000
# 4 0.000000 0.000000 0.000000 0.013447 0.000000 -0.013161
# 5 0.005715 -0.001181 0.001847 0.000000 0.029405 0.000000
# 6 0.000000 0.000000 0.000000 -0.013161 0.000000 0.012903
#
#
# Mechanical properties :
#
#
# Convention : Reuss Voigt Hill
#
# Bulk Modulus (GPa) = 82.00880 94.50800 88.25840
# Shear Modulus (GPa) = 47.22420 18145.96188 9096.59304
#
# Velocity S-wave (km/s) = 4.48000 87.81850 62.17781
# Velocity P-wave (km/s) = 7.84949 101.60193 72.05750
#
# Compressibility (1/GPa) = 0.01219381
#
# Stress axis : x y z
#
# Youngs Moduli (GPa) = 94.37429 101.16752 115.66737
#
# Poissons Ratio (x) = 0.47566 0.28277
# Poissons Ratio (y) = 0.44372 0.15266
# Poissons Ratio (z) = 0.23071 0.13352
#
# Static dielectric constant tensor:
#      x y z
#    x 4.859070 0.000000 0.023420 
#    y 0.000000 4.341880 0.000000 
#    z 0.023420 0.000000 4.229810 
# 
# 
# High freq. dielectric constant tensor:
#      x y z
#    x 1.955200 0.000000 0.004590 
#    y 0.000000 1.947580 0.000000 
#    z 0.004590 0.000000 1.919920 
# 
# From -- ./inp_files/1933.got.cif
#   From: 2010.06.25/outbox.cif.g09.slc.cpg/sg15_1_cif.got.tgz:1933.got - 2010.06.28 07:06:18.
