data_PCOD8149787
_publ_section_title
;
Structure prediction by ZEFSAII (Michael W. Deem and Ramdas Pophale) SiO2 
 PCOD8149787
Probable space group: C 2/C
;
_chemical_formula_sum "Si O2"
_cell_formula_units_Z 40
_cell_length_a 11.946374
_cell_length_b 17.673680
_cell_length_c 8.781633
_cell_angle_alpha 90.000000
_cell_angle_beta 102.182556
_cell_angle_gamma 90.000000
_cell_volume 1812.367815
_symmetry_space_group_name_H-M "C 2/C"
_symmetry_group_IT_number 15
_symmetry_cell_setting 'monoclinic'
loop_
_space_group_symop_operation_xyz
x,y,z
-x,y,1/2-z
-x,-y,-z
x,-y,1/2+z
1/2+x,1/2+y,z
1/2-x,1/2+y,1/2-z
1/2-x,1/2-y,-z
1/2+x,1/2-y,1/2+z
loop_
_atom_site_type_symbol
_atom_site_label
_atom_site_fract_x
_atom_site_fract_y
_atom_site_fract_z
Si Si1 0.311422 0.965737 0.248356
Si Si2 0.870767 0.393935 0.941290
Si Si3 0.217313 0.183441 0.179271
Si Si4 0.579766 0.457319 0.637211
Si Si5 0.615428 0.171734 0.539373
O O1 0.329767 0.904715 0.383976
O O2 0.384449 0.040768 0.315367
O O3 0.177381 0.984152 0.217113
O O4 0.350515 0.934738 0.096448
O O5 0.762208 0.341473 0.860526
O O6 0.980106 0.339569 0.981559
O O7 0.137093 0.118044 0.083914
O O8 0.143845 0.260645 0.166939
O O9 0.329606 0.193944 0.106408
O O10 0.500000 0.429597 0.750000
O O11 0.500000 0.500000 0.500000
#
# Coordination Sequence:
#
# PCOD8149787 Si02
#       5
#     8   8   8   8   8
#     4  11  23  40  65  96 123 160 216 260 309 378
#     4  11  23  42  67  94 128 164 208 263 313 367
#     4  10  24  42  61  92 127 165 214 253 309 384
#     4  11  22  39  61  85 121 163 205 257 308 365
#     4  11  23  41  64  91 129 168 203 260 318 367
#
# _framework density 22.070575000000002
#
# number of rings (size 3 to 8) (size 9 to 14) (size 15 to 20)
#    0.000    1.200    0.000    7.800    0.000    7.200 
#    0.000    2.000    0.000    0.000    0.000    0.000 
#    0.000    0.000    0.000    0.000    0.000    0.000 
#
# Total GULP energy -247994.315769 kJ/mol
# GULP energy per Si atom -12399.715788 kJ/mol
# Density = 2.202034 g / cm^3
# Si number density = 22.070575 Si / 1000 Ang^3
#
#
#
# Elastic Constant Matrix: (Units=GPa)
#
#
# Indices 1 2 3 4 5 6 
#
# 1 124.2499 53.0232 32.9969 0.0000 17.6960 0.0000
# 2 53.0232 121.7497 25.3343 0.0000 35.2879 0.0000
# 3 32.9969 25.3343 80.0296 0.0000 10.6323 0.0000
# 4 0.0000 0.0000 0.0000 34.5643 0.0000 6.9367
# 5 17.6960 35.2879 10.6323 0.0000 43.3092 0.0000
# 6 0.0000 0.0000 0.0000 6.9367 0.0000 39.4841
#
#
#
# Elastic Compliance Matrix: (Units=1/GPa)
#
#
# Indices 1 2 3 4 5 6 
#
# 1 0.010565 -0.003833 -0.003085 0.000000 -0.000437 0.000000
# 2 -0.003833 0.012575 -0.001289 0.000000 -0.008364 0.000000
# 3 -0.003085 -0.001289 0.014336 0.000000 -0.001208 0.000000
# 4 0.000000 0.000000 0.000000 0.029989 0.000000 -0.005269
# 5 -0.000437 -0.008364 -0.001208 0.000000 0.030379 0.000000
# 6 0.000000 0.000000 0.000000 -0.005269 0.000000 0.026252
#
#
# Mechanical properties :
#
#
# Convention : Reuss Voigt Hill
#
# Bulk Modulus (GPa) = 47.47790 60.97089 54.22439
# Shear Modulus (GPa) = 33.89093 37.78317 35.83705
#
# Velocity S-wave (km/s) = 3.92289 4.14203 4.03395
# Velocity P-wave (km/s) = 6.48670 7.11060 6.80580
#
# Compressibility (1/GPa) = 0.02106243
#
# Stress axis : x y z
#
# Youngs Moduli (GPa) = 94.64869 79.52157 69.75441
#
# Poissons Ratio (x) = 0.30479 0.21518
# Poissons Ratio (y) = 0.36277 0.08994
# Poissons Ratio (z) = 0.29198 0.10253
#
# Static dielectric constant tensor:
#      x y z
#    x 3.973840 0.000000 0.205140 
#    y 0.000000 4.211640 0.000000 
#    z 0.205140 0.000000 4.143670 
# 
# 
# High freq. dielectric constant tensor:
#      x y z
#    x 1.870960 0.000000 0.012810 
#    y 0.000000 1.871770 0.000000 
#    z 0.012810 0.000000 1.865740 
# 
# From -- ./inp_files/29095.got.cif
#   From: 2010.06.25/outbox.cif.g09.slc.cpg/sg15_15_cif.got.tgz:29095.got - 2010.06.28 07:06:18.
