data_PCOD8149013
_publ_section_title
;
Structure prediction by ZEFSAII (Michael W. Deem and Ramdas Pophale) SiO2 
 PCOD8149013
Probable space group: C 2/C
;
_chemical_formula_sum "Si O2"
_cell_formula_units_Z 36
_cell_length_a 16.244783
_cell_length_b 21.862293
_cell_length_c 9.196865
_cell_angle_alpha 90.000000
_cell_angle_beta 28.783452
_cell_angle_gamma 90.000000
_cell_volume 1572.701259
_symmetry_space_group_name_H-M "C 2/C"
_symmetry_group_IT_number 15
_symmetry_cell_setting 'monoclinic'
loop_
_space_group_symop_operation_xyz
x,y,z
-x,y,1/2-z
-x,-y,-z
x,-y,1/2+z
1/2+x,1/2+y,z
1/2-x,1/2+y,1/2-z
1/2-x,1/2-y,-z
1/2+x,1/2-y,1/2+z
loop_
_atom_site_type_symbol
_atom_site_label
_atom_site_fract_x
_atom_site_fract_y
_atom_site_fract_z
Si Si1 0.154323 0.528824 0.350187
Si Si2 0.986613 0.292527 0.987372
Si Si3 0.500000 0.137764 0.750000
Si Si4 0.345132 0.456381 0.274209
Si Si5 0.212770 0.177996 0.674291
O O1 0.134090 0.593769 0.462254
O O2 0.185309 0.479669 0.428075
O O3 0.000000 0.500000 0.500000
O O4 0.312181 0.539190 0.997208
O O5 0.054140 0.222871 0.887997
O O6 0.148144 0.329917 0.671172
O O7 0.927020 0.318162 0.236429
O O8 0.816389 0.297161 0.153628
O O9 0.377837 0.387432 0.167779
O O10 0.500000 0.500000 0.000000
#
# Coordination Sequence:
#
# PCOD8149013 Si02
#       5
#     8   8   4   8   8
#     4  12  24  44  71 102 140 194 239 287 359 436
#     4  10  23  43  72 100 135 193 242 296 352 423
#     4  12  22  40  72 102 138 188 252 284 346 440
#     4  12  26  45  70 107 146 182 231 304 362 416
#     4  10  23  46  70  98 142 187 241 293 359 424
#
# _framework density 22.890552
#
# number of rings (size 3 to 8) (size 9 to 14) (size 15 to 20)
#    0.000    0.889    4.444    2.000    3.111    2.667 
#   12.000    0.000    0.000    0.000    0.000    0.000 
#    0.000    0.000    0.000    0.000    0.000    0.000 
#
# Total GULP energy -223096.466497 kJ/mol
# GULP energy per Si atom -12394.248139 kJ/mol
# Density = 2.283845 g / cm^3
# Si number density = 22.890552 Si / 1000 Ang^3
#
#
#
# Elastic Constant Matrix: (Units=GPa)
#
#
# Indices 1 2 3 4 5 6 
#
# 1 100.2363 52.3705 47.5092 0.0035 24.2163 0.0028
# 2 52.3705 147.5584 43.5231 -0.0029 -2.4514 -0.0035
# 3 47.5092 43.5231 110.4276 -0.0089 23.3651 -0.0070
# 4 0.0035 -0.0029 -0.0089 42.3720 -0.0044 4.6725
# 5 24.2163 -2.4514 23.3651 -0.0044 41.3414 0.0014
# 6 0.0028 -0.0035 -0.0070 4.6725 0.0014 39.2923
#
#
#
# Elastic Compliance Matrix: (Units=1/GPa)
#
#
# Indices 1 2 3 4 5 6 
#
# 1 0.015930 -0.004802 -0.003324 -0.000003 -0.007737 -0.000002
# 2 -0.004802 0.009342 -0.002645 0.000001 0.004861 0.000000
# 3 -0.003324 -0.002645 0.012664 0.000002 -0.005367 0.000002
# 4 -0.000003 0.000001 0.000002 0.023914 0.000003 -0.002844
# 5 -0.007737 0.004861 -0.005367 0.000003 0.032043 -0.000002
# 6 -0.000002 0.000000 0.000002 -0.002844 -0.000002 0.025788
#
#
# Mechanical properties :
#
#
# Convention : Reuss Voigt Hill
#
# Bulk Modulus (GPa) = 60.99486 71.66978 66.33232
# Shear Modulus (GPa) = 34.08622 38.92244 36.50433
#
# Velocity S-wave (km/s) = 3.86307 4.12803 3.99774
# Velocity P-wave (km/s) = 6.82656 7.35517 7.09579
#
# Compressibility (1/GPa) = 0.01639483
#
# Stress axis : x y z
#
# Youngs Moduli (GPa) = 62.77471 107.04246 78.96602
#
# Poissons Ratio (x) = 0.51401 0.26247
# Poissons Ratio (y) = 0.30144 0.20884
# Poissons Ratio (z) = 0.20865 0.28310
#
# Static dielectric constant tensor:
#      x y z
#    x 4.678760 0.000030 0.558950 
#    y 0.000030 4.253890 0.000000 
#    z 0.558950 0.000000 4.035170 
# 
# 
# High freq. dielectric constant tensor:
#      x y z
#    x 1.912090 0.000000 0.021370 
#    y 0.000000 1.913320 0.000000 
#    z 0.021370 0.000000 1.890830 
# 
# From -- ./inp_files/29756.got.cif
#   From: 2010.06.25/outbox.cif.g09.slc.cpg/sg15_15_cif.got.tgz:29756.got - 2010.06.28 07:06:18.
