data_PCOD8149154
_publ_section_title
;
Structure prediction by ZEFSAII (Michael W. Deem and Ramdas Pophale) SiO2 
 PCOD8149154
Probable space group: C 2/C
;
_chemical_formula_sum "Si O2"
_cell_formula_units_Z 52
_cell_length_a 17.907817
_cell_length_b 25.620712
_cell_length_c 7.877993
_cell_angle_alpha 90.000000
_cell_angle_beta 137.883714
_cell_angle_gamma 90.000000
_cell_volume 2424.025942
_symmetry_space_group_name_H-M "C 2/C"
_symmetry_group_IT_number 15
_symmetry_cell_setting 'monoclinic'
loop_
_space_group_symop_operation_xyz
x,y,z
-x,y,1/2-z
-x,-y,-z
x,-y,1/2+z
1/2+x,1/2+y,z
1/2-x,1/2+y,1/2-z
1/2-x,1/2-y,-z
1/2+x,1/2-y,1/2+z
loop_
_atom_site_type_symbol
_atom_site_label
_atom_site_fract_x
_atom_site_fract_y
_atom_site_fract_z
Si Si1 0.685028 0.943543 0.475996
Si Si2 0.038578 0.298786 0.632127
Si Si3 0.741339 0.351497 0.474017
Si Si4 0.000000 0.633329 0.750000
Si Si5 0.371528 0.059135 0.010191
Si Si6 0.398685 0.395898 0.969018
Si Si7 0.472690 0.687896 0.017437
O O1 0.610251 0.902539 0.457561
O O2 0.666841 0.933444 0.247155
O O3 0.645281 0.000570 0.456881
O O4 0.816200 0.938286 0.744973
O O5 0.008858 0.237835 0.571793
O O6 0.000000 0.320639 0.750000
O O7 0.980440 0.331790 0.384267
O O8 0.170689 0.306063 0.840357
O O9 0.798187 0.404708 0.507878
O O10 0.672428 0.359238 0.529098
O O11 0.655118 0.330702 0.189068
O O12 0.500000 0.074614 0.250000
O O13 0.500000 0.422368 0.250000
O O14 0.448517 0.359482 0.906573
O O15 0.500000 0.706990 0.250000
#
# Coordination Sequence:
#
# PCOD8149154 Si02
#       7
#     8   8   8   4   8   8   8
#     4  12  24  43  67 100 137 173 226 274 341 403
#     4  12  24  43  67 100 138 177 229 280 340 401
#     4  11  22  43  67  95 134 177 224 279 335 397
#     4  12  24  42  68 102 132 178 224 282 338 406
#     4  12  25  42  70 104 134 177 217 283 345 405
#     4  10  23  44  68  94 136 181 224 278 331 397
#     4  11  24  44  66  97 133 180 228 275 334 402
#
# _framework density 21.451915
#
# number of rings (size 3 to 8) (size 9 to 14) (size 15 to 20)
#    0.000    0.615    3.077    6.462    0.000    0.000 
#    0.000   10.000    0.000    0.000    0.000    0.000 
#    0.000    0.000    0.000    0.000    0.000    0.000 
#
# Total GULP energy -322489.399388 kJ/mol
# GULP energy per Si atom -12403.438438 kJ/mol
# Density = 2.140309 g / cm^3
# Si number density = 21.451915 Si / 1000 Ang^3
#
#
#
# Elastic Constant Matrix: (Units=GPa)
#
#
# Indices 1 2 3 4 5 6 
#
# 1 75.7769 15.5442 37.2388 0.0000 -6.7793 0.0000
# 2 15.5442 89.5621 25.7945 0.0000 3.3349 0.0000
# 3 37.2388 25.7945 142.7357 0.0000 1.7148 0.0000
# 4 0.0000 0.0000 0.0000 39.9001 0.0000 14.2470
# 5 -6.7793 3.3349 1.7148 0.0000 41.6969 0.0000
# 6 0.0000 0.0000 0.0000 14.2470 0.0000 87.8357
#
#
#
# Elastic Compliance Matrix: (Units=1/GPa)
#
#
# Indices 1 2 3 4 5 6 
#
# 1 0.015679 -0.001729 -0.003812 0.000000 0.002844 0.000000
# 2 -0.001729 0.012000 -0.001703 0.000000 -0.001171 0.000000
# 3 -0.003812 -0.001703 0.008318 0.000000 -0.000826 0.000000
# 4 0.000000 0.000000 0.000000 0.026603 0.000000 -0.004315
# 5 0.002844 -0.001171 -0.000826 0.000000 0.024573 0.000000
# 6 0.000000 0.000000 0.000000 -0.004315 0.000000 0.012085
#
#
# Mechanical properties :
#
#
# Convention : Reuss Voigt Hill
#
# Bulk Modulus (GPa) = 46.49513 51.69220 49.09367
# Shear Modulus (GPa) = 41.35067 49.18633 45.26850
#
# Velocity S-wave (km/s) = 4.39521 4.79358 4.59871
# Velocity P-wave (km/s) = 6.89045 7.40182 7.15071
#
# Compressibility (1/GPa) = 0.02150763
#
# Stress axis : x y z
#
# Youngs Moduli (GPa) = 63.77847 83.33525 120.21687
#
# Poissons Ratio (x) = 0.14410 0.45830
# Poissons Ratio (y) = 0.11029 0.20477
# Poissons Ratio (z) = 0.24314 0.14195
#
# Static dielectric constant tensor:
#      x y z
#    x 3.857360 0.000000 0.108410 
#    y 0.000000 3.724570 0.000000 
#    z 0.108410 0.000000 4.287290 
# 
# 
# High freq. dielectric constant tensor:
#      x y z
#    x 1.845410 0.000000 -0.003670 
#    y 0.000000 1.838350 0.000000 
#    z -0.003670 0.000000 1.857600 
# 
# From -- ./inp_files/52219.got.cif
#   From: 2010.06.25/outbox.cif.g09.slc.cpg/sg15_27_cif.got.tgz:52219.got - 2010.06.28 07:06:18.
