data_PCOD8149296
_publ_section_title
;
Structure prediction by ZEFSAII (Michael W. Deem and Ramdas Pophale) SiO2 
 PCOD8149296
Probable space group: C 2/C
;
_chemical_formula_sum "Si O2"
_cell_formula_units_Z 44
_cell_length_a 29.490399
_cell_length_b 8.320511
_cell_length_c 10.336917
_cell_angle_alpha 90.000000
_cell_angle_beta 125.370542
_cell_angle_gamma 90.000000
_cell_volume 2068.264013
_symmetry_space_group_name_H-M "C 2/C"
_symmetry_group_IT_number 15
_symmetry_cell_setting 'monoclinic'
loop_
_space_group_symop_operation_xyz
x,y,z
-x,y,1/2-z
-x,-y,-z
x,-y,1/2+z
1/2+x,1/2+y,z
1/2-x,1/2+y,1/2-z
1/2-x,1/2-y,-z
1/2+x,1/2-y,1/2+z
loop_
_atom_site_type_symbol
_atom_site_label
_atom_site_fract_x
_atom_site_fract_y
_atom_site_fract_z
Si Si1 0.860781 0.927152 0.073636
Si Si2 0.794706 0.078806 0.731985
Si Si3 0.000000 0.447693 0.250000
Si Si4 0.907389 0.759157 0.724361
Si Si5 0.315015 0.099538 0.406004
Si Si6 0.402381 0.851940 0.490858
O O1 0.823982 0.924224 0.141663
O O2 0.889523 0.754194 0.097825
O O3 0.824939 0.969872 0.888374
O O4 0.909404 0.059784 0.172473
O O5 0.790364 0.262634 0.772419
O O6 0.733603 0.005763 0.610288
O O7 0.037307 0.335276 0.221637
O O8 0.038612 0.560008 0.401201
O O9 0.851194 0.674944 0.581137
O O10 0.904303 0.767864 0.873422
O O11 0.354685 0.984149 0.387549
#
# Coordination Sequence:
#
# PCOD8149296 Si02
#       6
#     8   8   4   8   8   8
#     4  11  24  43  67  99 137 171 219 265 325 389
#     4  11  24  41  66 102 134 178 216 264 321 390
#     4  10  24  44  70  96 124 166 222 272 344 380
#     4  10  23  45  65  96 130 171 217 277 323 390
#     4  10  25  39  69  96 135 172 222 264 324 386
#     4  11  23  44  67  97 129 173 214 278 323 394
#
# _framework density 21.273879999999998
#
# number of rings (size 3 to 8) (size 9 to 14) (size 15 to 20)
#    0.000    1.455    1.818    1.636    7.636    3.636 
#    3.273    1.818    0.000    0.000    0.000    0.000 
#    0.000    0.000    0.000    0.000    0.000    0.000 
#
# Total GULP energy -272843.861787 kJ/mol
# GULP energy per Si atom -12401.993718 kJ/mol
# Density = 2.122546 g / cm^3
# Si number density = 21.273880 Si / 1000 Ang^3
#
#
#
# Elastic Constant Matrix: (Units=GPa)
#
#
# Indices 1 2 3 4 5 6 
#
# 1 125.1407 58.1756 74.6170 0.0000 2.4101 0.0000
# 2 58.1756 134.7318 43.0115 0.0000 15.5858 0.0000
# 3 74.6170 43.0115 69.2431 0.0000 -1.8613 0.0000
# 4 0.0000 0.0000 0.0000 25.2373 0.0000 0.9063
# 5 2.4101 15.5858 -1.8613 0.0000 38.4513 0.0000
# 6 0.0000 0.0000 0.0000 0.9063 0.0000 31.7175
#
#
#
# Elastic Compliance Matrix: (Units=1/GPa)
#
#
# Indices 1 2 3 4 5 6 
#
# 1 0.023121 -0.002273 -0.023548 0.000000 -0.001668 0.000000
# 2 -0.002273 0.010152 -0.003969 0.000000 -0.004165 0.000000
# 3 -0.023548 -0.003969 0.042421 0.000000 0.005138 0.000000
# 4 0.000000 0.000000 0.000000 0.039665 0.000000 -0.001133
# 5 -0.001668 -0.004165 0.005138 0.000000 0.028048 0.000000
# 6 0.000000 0.000000 0.000000 -0.001133 0.000000 0.031561
#
#
# Mechanical properties :
#
#
# Convention : Reuss Voigt Hill
#
# Bulk Modulus (GPa) = 62.05705 75.63599 68.84652
# Shear Modulus (GPa) = 20.84040 29.30199 25.07119
#
# Velocity S-wave (km/s) = 3.13329 3.71532 3.43665
# Velocity P-wave (km/s) = 6.50568 7.35088 6.94116
#
# Compressibility (1/GPa) = 0.01611420
#
# Stress axis : x y z
#
# Youngs Moduli (GPa) = 43.25155 98.49888 23.57325
#
# Poissons Ratio (x) = 0.22387 0.55510
# Poissons Ratio (y) = 0.09830 0.09356
# Poissons Ratio (z) = 1.01849 0.39095
#
# Static dielectric constant tensor:
#      x y z
#    x 3.729350 0.000000 0.062300 
#    y 0.000000 4.156340 0.000000 
#    z 0.062300 0.000000 3.741490 
# 
# 
# High freq. dielectric constant tensor:
#      x y z
#    x 1.832360 0.000000 -0.001080 
#    y 0.000000 1.851150 0.000000 
#    z -0.001080 0.000000 1.828200 
# 
# From -- ./inp_files/115965.got.cif
#   From: 2010.06.25/outbox.cif.g09.slc.cpg/sg15_58_cif.got.tgz:115965.got - 2010.06.28 07:06:18.
