data_PCOD8149661
_publ_section_title
;
Structure prediction by ZEFSAII (Michael W. Deem and Ramdas Pophale) SiO2 
 PCOD8149661
Probable space group: C 2/C
;
_chemical_formula_sum "Si O2"
_cell_formula_units_Z 40
_cell_length_a 22.945299
_cell_length_b 9.576220
_cell_length_c 11.373706
_cell_angle_alpha 90.000000
_cell_angle_beta 124.837094
_cell_angle_gamma 90.000000
_cell_volume 2051.239455
_symmetry_space_group_name_H-M "C 2/C"
_symmetry_group_IT_number 15
_symmetry_cell_setting 'monoclinic'
loop_
_space_group_symop_operation_xyz
x,y,z
-x,y,1/2-z
-x,-y,-z
x,-y,1/2+z
1/2+x,1/2+y,z
1/2-x,1/2+y,1/2-z
1/2-x,1/2-y,-z
1/2+x,1/2-y,1/2+z
loop_
_atom_site_type_symbol
_atom_site_label
_atom_site_fract_x
_atom_site_fract_y
_atom_site_fract_z
Si Si1 0.465500 0.328498 0.836949
Si Si2 0.656651 0.871422 0.341485
Si Si3 0.404854 0.606039 0.855644
Si Si4 0.687817 0.817155 0.852569
Si Si5 0.710059 0.724572 0.634956
O O1 0.500000 0.352472 0.750000
O O2 0.420795 0.183934 0.788526
O O3 0.412630 0.455999 0.804614
O O4 0.524030 0.328273 0.006628
O O5 0.675337 0.798903 0.484469
O O6 0.713135 0.836152 0.305554
O O7 0.658639 0.036537 0.367468
O O8 0.379393 0.711494 0.723302
O O9 0.343307 0.599352 0.885553
O O10 0.716260 0.833754 0.750638
O O11 0.750000 0.750000 0.000000
#
# Coordination Sequence:
#
# PCOD8149661 Si02
#       5
#     8   8   8   8   8
#     4  11  21  43  65  92 130 170 212 256 323 390
#     4  11  23  39  70  91 130 174 205 278 314 379
#     4   9  23  41  62  92 128 166 216 260 311 390
#     4  10  24  40  64  96 128 159 217 273 313 373
#     4   9  23  40  62  99 122 168 221 253 330 374
#
# _framework density 19.500405000000001
#
# number of rings (size 3 to 8) (size 9 to 14) (size 15 to 20)
#    1.200    0.800    2.000    0.000   11.200    0.800 
#    3.600    1.000    0.000    0.000    0.000    0.000 
#    0.000    0.000    0.000    0.000    0.000    0.000 
#
# Total GULP energy -247828.275576 kJ/mol
# GULP energy per Si atom -12391.413779 kJ/mol
# Density = 1.945602 g / cm^3
# Si number density = 19.500405 Si / 1000 Ang^3
#
#
#
# Elastic Constant Matrix: (Units=GPa)
#
#
# Indices 1 2 3 4 5 6 
#
# 1 112.2188 50.3304 30.9997 0.0000 0.5220 0.0000
# 2 50.3304 124.1782 46.0570 0.0000 11.9915 0.0000
# 3 30.9997 46.0570 91.0833 0.0000 21.8502 0.0000
# 4 0.0000 0.0000 0.0000 23.4634 0.0000 5.0709
# 5 0.5220 11.9915 21.8502 0.0000 22.2009 0.0000
# 6 0.0000 0.0000 0.0000 5.0709 0.0000 39.7676
#
#
#
# Elastic Compliance Matrix: (Units=1/GPa)
#
#
# Indices 1 2 3 4 5 6 
#
# 1 0.011538 -0.004009 -0.003081 0.000000 0.004927 0.000000
# 2 -0.004009 0.011310 -0.003812 0.000000 -0.002263 0.000000
# 3 -0.003081 -0.003812 0.017599 0.000000 -0.015190 0.000000
# 4 0.000000 0.000000 0.000000 0.043827 0.000000 -0.005589
# 5 0.004927 -0.002263 -0.015190 0.000000 0.061099 0.000000
# 6 0.000000 0.000000 0.000000 -0.005589 0.000000 0.025859
#
#
# Mechanical properties :
#
#
# Convention : Reuss Voigt Hill
#
# Bulk Modulus (GPa) = 53.64143 64.69493 59.16818
# Shear Modulus (GPa) = 25.09401 30.42594 27.75997
#
# Velocity S-wave (km/s) = 3.59115 3.95431 3.77710
# Velocity P-wave (km/s) = 6.69050 7.35507 7.03064
#
# Compressibility (1/GPa) = 0.01864231
#
# Stress axis : x y z
#
# Youngs Moduli (GPa) = 86.67325 88.41611 56.82157
#
# Poissons Ratio (x) = 0.35448 0.17509
# Poissons Ratio (y) = 0.34749 0.21658
# Poissons Ratio (z) = 0.26708 0.33701
#
# Static dielectric constant tensor:
#      x y z
#    x 3.588070 0.000000 0.054200 
#    y 0.000000 3.450110 0.000000 
#    z 0.054200 0.000000 3.549170 
# 
# 
# High freq. dielectric constant tensor:
#      x y z
#    x 1.755060 0.000000 0.004510 
#    y 0.000000 1.744260 0.000000 
#    z 0.004510 0.000000 1.768050 
# 
# From -- ./inp_files/115901.got.cif
#   From: 2010.06.25/outbox.cif.g09.slc.cpg/sg15_58_cif.got.tgz:115901.got - 2010.06.28 07:06:18.
