data_PCOD8149782
_publ_section_title
;
Structure prediction by ZEFSAII (Michael W. Deem and Ramdas Pophale) SiO2 
 PCOD8149782
Probable space group: C 2/C
;
_chemical_formula_sum "Si O2"
_cell_formula_units_Z 40
_cell_length_a 19.403581
_cell_length_b 10.442429
_cell_length_c 8.805872
_cell_angle_alpha 90.000000
_cell_angle_beta 93.068469
_cell_angle_gamma 90.000000
_cell_volume 1781.692221
_symmetry_space_group_name_H-M "C 2/C"
_symmetry_group_IT_number 15
_symmetry_cell_setting 'monoclinic'
loop_
_space_group_symop_operation_xyz
x,y,z
-x,y,1/2-z
-x,-y,-z
x,-y,1/2+z
1/2+x,1/2+y,z
1/2-x,1/2+y,1/2-z
1/2-x,1/2-y,-z
1/2+x,1/2-y,1/2+z
loop_
_atom_site_type_symbol
_atom_site_label
_atom_site_fract_x
_atom_site_fract_y
_atom_site_fract_z
Si Si1 0.927087 0.332587 0.801307
Si Si2 0.346112 0.324896 0.738630
Si Si3 0.712279 0.681676 0.734730
Si Si4 0.680018 0.482248 0.498264
Si Si5 0.569219 0.909711 0.349413
O O1 0.867487 0.226192 0.790615
O O2 0.905154 0.446949 0.684255
O O3 0.000000 0.273715 0.750000
O O4 0.938713 0.389492 0.971629
O O5 0.262742 0.302976 0.725283
O O6 0.367019 0.390567 0.900744
O O7 0.368054 0.425755 0.610840
O O8 0.377301 0.187435 0.718198
O O9 0.727809 0.575658 0.606275
O O10 0.725494 0.610622 0.896820
O O11 0.500000 0.882115 0.250000
#
# Coordination Sequence:
#
# PCOD8149782 Si02
#       5
#     8   8   8   8   8
#     4  11  25  43  67  96 129 170 218 266 318 379
#     4  11  24  42  69  94 134 168 217 265 320 382
#     4  11  24  42  69  94 134 168 217 265 320 382
#     4  10  24  42  61 102 129 166 218 260 328 380
#     4  11  25  43  67  96 129 170 218 266 318 379
#
# _framework density 22.450564
#
# number of rings (size 3 to 8) (size 9 to 14) (size 15 to 20)
#    0.000    1.200    2.000    3.600   11.200    0.000 
#    0.000    6.000    0.000    0.000    0.000    0.000 
#    0.000    0.000    0.000    0.000    0.000    0.000 
#
# Total GULP energy -247896.301000 kJ/mol
# GULP energy per Si atom -12394.815050 kJ/mol
# Density = 2.239947 g / cm^3
# Si number density = 22.450564 Si / 1000 Ang^3
#
#
#
# Elastic Constant Matrix: (Units=GPa)
#
#
# Indices 1 2 3 4 5 6 
#
# 1 80.8892 46.7171 25.1886 0.0000 -5.9293 0.0000
# 2 46.7171 90.2936 43.9029 0.0000 -4.7046 0.0000
# 3 25.1886 43.9029 164.9361 0.0000 -9.1915 0.0000
# 4 0.0000 0.0000 0.0000 40.4844 0.0000 -5.0281
# 5 -5.9293 -4.7046 -9.1915 0.0000 18.2209 0.0000
# 6 0.0000 0.0000 0.0000 -5.0281 0.0000 27.0931
#
#
#
# Elastic Compliance Matrix: (Units=1/GPa)
#
#
# Indices 1 2 3 4 5 6 
#
# 1 0.017848 -0.008987 -0.000143 0.000000 0.003415 0.000000
# 2 -0.008987 0.017293 -0.003236 0.000000 -0.000092 0.000000
# 3 -0.000143 -0.003236 0.007096 0.000000 0.002698 0.000000
# 4 0.000000 0.000000 0.000000 0.025284 0.000000 0.004692
# 5 0.003415 -0.000092 0.002698 0.000000 0.057331 0.000000
# 6 0.000000 0.000000 0.000000 0.004692 0.000000 0.037781
#
#
# Mechanical properties :
#
#
# Convention : Reuss Voigt Hill
#
# Bulk Modulus (GPa) = 57.12345 63.08179 60.10262
# Shear Modulus (GPa) = 25.88005 31.84703 28.86354
#
# Velocity S-wave (km/s) = 3.39891 3.77044 3.58948
# Velocity P-wave (km/s) = 6.39553 6.86396 6.63388
#
# Compressibility (1/GPa) = 0.01750595
#
# Stress axis : x y z
#
# Youngs Moduli (GPa) = 56.02945 57.82630 140.91501
#
# Poissons Ratio (x) = 0.51967 0.02019
# Poissons Ratio (y) = 0.50352 0.45597
# Poissons Ratio (z) = 0.00803 0.18711
#
# Static dielectric constant tensor:
#      x y z
#    x 3.629970 0.000000 -0.157480 
#    y 0.000000 4.169220 0.000000 
#    z -0.157480 0.000000 4.454040 
# 
# 
# High freq. dielectric constant tensor:
#      x y z
#    x 1.837420 0.000000 -0.010540 
#    y 0.000000 1.899880 0.000000 
#    z -0.010540 0.000000 1.913760 
# 
# From -- ./inp_files/29338.got.cif
#   From: 2010.06.25/outbox.cif.g09.slc.cpg/sg15_15_cif.got.tgz:29338.got - 2010.06.28 07:06:18.
