data_PCOD8149577
_publ_section_title
;
Structure prediction by ZEFSAII (Michael W. Deem and Ramdas Pophale) SiO2 
 PCOD8149577
Probable space group: C 2/C
;
_chemical_formula_sum "Si O2"
_cell_formula_units_Z 52
_cell_length_a 27.043020
_cell_length_b 12.470551
_cell_length_c 8.540531
_cell_angle_alpha 90.000000
_cell_angle_beta 67.472741
_cell_angle_gamma 90.000000
_cell_volume 2660.451886
_symmetry_space_group_name_H-M "C 2/C"
_symmetry_group_IT_number 15
_symmetry_cell_setting 'monoclinic'
loop_
_space_group_symop_operation_xyz
x,y,z
-x,y,1/2-z
-x,-y,-z
x,-y,1/2+z
1/2+x,1/2+y,z
1/2-x,1/2+y,1/2-z
1/2-x,1/2-y,-z
1/2+x,1/2-y,1/2+z
loop_
_atom_site_type_symbol
_atom_site_label
_atom_site_fract_x
_atom_site_fract_y
_atom_site_fract_z
Si Si1 0.500000 0.055545 0.750000
Si Si2 0.284304 0.587439 0.523033
Si Si3 0.663260 0.048026 0.617584
Si Si4 0.069220 0.592834 0.944801
Si Si5 0.670860 0.210636 0.359419
Si Si6 0.853712 0.312442 0.942850
Si Si7 0.214587 0.869355 0.828674
O O1 0.529120 0.125797 0.850974
O O2 0.542876 0.982909 0.607280
O O3 0.219928 0.592532 0.612244
O O4 0.309405 0.673828 0.609164
O O5 0.305202 0.470319 0.545785
O O6 0.305034 0.614818 0.324962
O O7 0.620645 0.032533 0.808517
O O8 0.640656 0.141857 0.529188
O O9 0.669008 0.934324 0.523369
O O10 0.092049 0.694396 0.016308
O O11 0.633466 0.224408 0.251096
O O12 0.721207 0.137971 0.242243
O O13 0.808818 0.238556 0.072311
#
# Coordination Sequence:
#
# PCOD8149577 Si02
#       7
#     4   8   8   8   8   8   8
#     4  10  24  38  58  84 116 150 176 244 312 368
#     4  11  23  38  52  80 121 164 208 241 271 318
#     4  11  22  36  57  82 117 163 197 237 284 345
#     4  11  22  38  57  83 116 152 189 235 300 365
#     4  11  23  34  55  80 114 160 208 240 275 327
#     4  12  22  35  57  82 112 156 197 237 290 343
#     4  11  23  35  53  78 117 160 208 245 276 321
#
# _framework density 19.545553000000002
#
# number of rings (size 3 to 8) (size 9 to 14) (size 15 to 20)
#    0.000    0.923    3.077    6.000    6.462    0.000 
#    0.000    0.000    0.000    0.000    0.000    0.000 
#    0.000   33.231    0.000    0.154    0.000    0.000 
#
# Total GULP energy -322267.341886 kJ/mol
# GULP energy per Si atom -12394.897765 kJ/mol
# Density = 1.950107 g / cm^3
# Si number density = 19.545553 Si / 1000 Ang^3
#
#
#
# Elastic Constant Matrix: (Units=GPa)
#
#
# Indices 1 2 3 4 5 6 
#
# 1 88.5539 22.9766 43.9805 0.0000 35.0762 0.0000
# 2 22.9766 96.8904 43.9054 0.0000 5.2527 0.0000
# 3 43.9805 43.9054 117.8437 0.0000 12.8892 0.0000
# 4 0.0000 0.0000 0.0000 30.3226 0.0000 12.2927
# 5 35.0762 5.2527 12.8892 0.0000 43.1911 0.0000
# 6 0.0000 0.0000 0.0000 12.2927 0.0000 22.0623
#
#
#
# Elastic Compliance Matrix: (Units=1/GPa)
#
#
# Indices 1 2 3 4 5 6 
#
# 1 0.020109 -0.001564 -0.005331 0.000000 -0.014550 0.000000
# 2 -0.001564 0.012540 -0.004197 0.000000 0.000998 0.000000
# 3 -0.005331 -0.004197 0.011898 0.000000 0.001289 0.000000
# 4 0.000000 0.000000 0.000000 0.042602 0.000000 -0.023737
# 5 -0.014550 0.000998 0.001289 0.000000 0.034463 0.000000
# 6 0.000000 0.000000 0.000000 -0.023737 0.000000 0.058552
#
#
# Mechanical properties :
#
#
# Convention : Reuss Voigt Hill
#
# Bulk Modulus (GPa) = 44.71795 58.33479 51.52637
# Shear Modulus (GPa) = 23.83191 31.94355 27.88773
#
# Velocity S-wave (km/s) = 3.49564 4.04705 3.78141
# Velocity P-wave (km/s) = 6.26268 7.19364 6.74424
#
# Compressibility (1/GPa) = 0.02236238
#
# Stress axis : x y z
#
# Youngs Moduli (GPa) = 49.72850 79.74613 84.04680
#
# Poissons Ratio (x) = 0.12475 0.44803
# Poissons Ratio (y) = 0.07779 0.35277
# Poissons Ratio (z) = 0.26509 0.33472
#
# Static dielectric constant tensor:
#      x y z
#    x 3.692960 0.000000 0.445890 
#    y 0.000000 3.361680 0.000000 
#    z 0.445890 0.000000 3.883860 
# 
# 
# High freq. dielectric constant tensor:
#      x y z
#    x 1.737180 0.000000 0.041630 
#    y 0.000000 1.731980 0.000000 
#    z 0.041630 0.000000 1.779150 
# 
# From -- ./inp_files/69013.got.cif
#   From: 2010.06.25/outbox.cif.g09.slc.cpg/sg15_35_cif.got.tgz:69013.got - 2010.06.28 07:06:18.
