data_PCOD8149292
_publ_section_title
;
Structure prediction by ZEFSAII (Michael W. Deem and Ramdas Pophale) SiO2 
 PCOD8149292
Probable space group: C 2/C
;
_chemical_formula_sum "Si O2"
_cell_formula_units_Z 44
_cell_length_a 16.751636
_cell_length_b 5.508032
_cell_length_c 24.344059
_cell_angle_alpha 90.000000
_cell_angle_beta 127.591903
_cell_angle_gamma 90.000000
_cell_volume 1779.827492
_symmetry_space_group_name_H-M "C 2/C"
_symmetry_group_IT_number 15
_symmetry_cell_setting 'monoclinic'
loop_
_space_group_symop_operation_xyz
x,y,z
-x,y,1/2-z
-x,-y,-z
x,-y,1/2+z
1/2+x,1/2+y,z
1/2-x,1/2+y,1/2-z
1/2-x,1/2-y,-z
1/2+x,1/2-y,1/2+z
loop_
_atom_site_type_symbol
_atom_site_label
_atom_site_fract_x
_atom_site_fract_y
_atom_site_fract_z
Si Si1 0.293673 0.264336 0.832865
Si Si2 0.199692 0.761554 0.792677
Si Si3 0.000000 0.436455 0.250000
Si Si4 0.113809 0.654025 0.397132
Si Si5 0.817168 0.046042 0.002180
Si Si6 0.484217 0.843903 0.046376
O O1 0.243188 0.015325 0.836740
O O2 0.273361 0.264896 0.759670
O O3 0.247631 0.513996 0.838730
O O4 0.411722 0.274886 0.892749
O O5 0.080842 0.743078 0.755845
O O6 0.949385 0.618585 0.184678
O O7 0.235309 0.622380 0.437357
O O8 0.064807 0.485357 0.423192
O O9 0.113338 0.926316 0.420423
O O10 0.750000 0.250000 0.000000
O O11 0.901107 0.141231 0.994571
O O12 0.500000 0.000000 0.000000
#
# Coordination Sequence:
#
# PCOD8149292 Si02
#       6
#     8   8   4   8   8   8
#     4  10  23  45  65 102 143 183 240 298 373 436
#     4  10  24  43  69  98 143 187 233 306 368 442
#     4  12  24  44  74 104 136 198 244 306 374 448
#     4  10  23  45  67 102 142 187 245 305 367 451
#     4   9  22  44  67  99 143 181 238 301 367 437
#     4  11  24  41  70 100 134 194 238 301 365 446
#
# _framework density 24.721495999999998
#
# number of rings (size 3 to 8) (size 9 to 14) (size 15 to 20)
#    0.000    1.818    1.818    0.000    5.091    7.273 
#    3.273    0.000    0.000    0.000    0.000    0.000 
#    0.000    0.000    0.000    0.000    0.000    0.000 
#
# Total GULP energy -272558.053193 kJ/mol
# GULP energy per Si atom -12389.002418 kJ/mol
# Density = 2.466523 g / cm^3
# Si number density = 24.721496 Si / 1000 Ang^3
#
#
#
# Elastic Constant Matrix: (Units=GPa)
#
#
# Indices 1 2 3 4 5 6 
#
# 1 109.5453 47.5363 34.6999 0.0001 40.0536 -0.0001
# 2 47.5363 142.0996 28.5369 -0.0002 28.3076 -0.0002
# 3 34.6999 28.5369 114.1493 0.0003 15.5991 -0.0003
# 4 0.0001 -0.0002 0.0003 23.1795 0.0000 14.3349
# 5 40.0536 28.3076 15.5991 0.0000 47.2309 0.0000
# 6 -0.0001 -0.0002 -0.0003 14.3349 0.0000 32.8212
#
#
#
# Elastic Compliance Matrix: (Units=1/GPa)
#
#
# Indices 1 2 3 4 5 6 
#
# 1 0.014675 -0.002380 -0.002472 0.000000 -0.010202 0.000000
# 2 -0.002380 0.008599 -0.001045 0.000000 -0.002790 0.000000
# 3 -0.002472 -0.001045 0.009845 0.000000 -0.000529 0.000000
# 4 0.000000 0.000000 0.000000 0.059107 0.000000 -0.025815
# 5 -0.010202 -0.002790 -0.000529 0.000000 0.031671 0.000000
# 6 0.000000 0.000000 0.000000 -0.025815 0.000000 0.041743
#
#
# Mechanical properties :
#
#
# Convention : Reuss Voigt Hill
#
# Bulk Modulus (GPa) = 46.89277 65.26005 56.07641
# Shear Modulus (GPa) = 27.09404 37.64770 32.37087
#
# Velocity S-wave (km/s) = 3.31414 3.90663 3.62252
# Velocity P-wave (km/s) = 5.80123 6.84138 6.34266
#
# Compressibility (1/GPa) = 0.02132525
#
# Stress axis : x y z
#
# Youngs Moduli (GPa) = 68.14487 116.28844 101.57061
#
# Poissons Ratio (x) = 0.27682 0.25105
# Poissons Ratio (y) = 0.16221 0.10613
# Poissons Ratio (z) = 0.16843 0.12151
#
# Static dielectric constant tensor:
#      x y z
#    x 4.893750 0.000000 0.521420 
#    y 0.000000 4.992130 -0.000010 
#    z 0.521420 -0.000010 4.923890 
# 
# 
# High freq. dielectric constant tensor:
#      x y z
#    x 1.997660 0.000000 0.014030 
#    y 0.000000 1.985870 0.000000 
#    z 0.014030 0.000000 1.975620 
# 
# From -- ./inp_files/297873.got.cif
#   From: 2010.06.25/outbox.cif.g09.slc.cpg/sg15_149_cif.got.tgz:297873.got - 2010.06.28 07:06:18.
