data_PCOD8149517
_publ_section_title
;
Structure prediction by ZEFSAII (Michael W. Deem and Ramdas Pophale) SiO2 
 PCOD8149517
Probable space group: C 2/C
;
_chemical_formula_sum "Si O2"
_cell_formula_units_Z 24
_cell_length_a 4.847545
_cell_length_b 18.575286
_cell_length_c 9.285668
_cell_angle_alpha 90.000000
_cell_angle_beta 67.808706
_cell_angle_gamma 90.000000
_cell_volume 774.190292
_symmetry_space_group_name_H-M "C 2/C"
_symmetry_group_IT_number 15
_symmetry_cell_setting 'monoclinic'
loop_
_space_group_symop_operation_xyz
x,y,z
-x,y,1/2-z
-x,-y,-z
x,-y,1/2+z
1/2+x,1/2+y,z
1/2-x,1/2+y,1/2-z
1/2-x,1/2-y,-z
1/2+x,1/2-y,1/2+z
loop_
_atom_site_type_symbol
_atom_site_label
_atom_site_fract_x
_atom_site_fract_y
_atom_site_fract_z
Si Si1 0.883097 0.066404 0.933839
Si Si2 0.677484 0.130454 0.359321
Si Si3 0.678908 0.708288 0.860871
O O1 0.000000 0.059492 0.750000
O O2 0.025285 0.140500 0.978473
O O3 0.479826 0.926499 0.991500
O O4 0.000000 0.000000 0.000000
O O5 0.500000 0.143337 0.250000
O O6 0.684264 0.210718 0.436992
O O7 0.000000 0.098443 0.250000
O O8 0.500000 0.719256 0.750000
O O9 0.000000 0.682144 0.750000
#
# Coordination Sequence:
#
# PCOD8149517 Si02
#       3
#     8   8   8
#     4  11  26  50  78 116 163 214 262 324 402 484
#     4  10  23  47  81 116 152 202 268 335 396 468
#     4   9  20  43  77 114 151 200 266 333 393 464
#
# _framework density 31.000129000000001
#
# number of rings (size 3 to 8) (size 9 to 14) (size 15 to 20)
#    0.000    2.000    0.000    1.000    0.000    8.000 
#    0.000   36.667    0.000   12.000    0.000    0.000 
#    0.000    0.000    0.000    0.000    0.000    0.000 
#
# Total GULP energy -148842.817667 kJ/mol
# GULP energy per Si atom -12403.568139 kJ/mol
# Density = 3.092957 g / cm^3
# Si number density = 31.000129 Si / 1000 Ang^3
#
#
#
# Elastic Constant Matrix: (Units=GPa)
#
#
# Indices 1 2 3 4 5 6 
#
# 1 265.2652 84.8459 92.2120 0.0000 -57.3070 0.0000
# 2 84.8459 222.5829 94.4635 0.0000 0.3193 0.0000
# 3 92.2120 94.4635 187.4133 0.0000 -44.2157 0.0000
# 4 0.0000 0.0000 0.0000 46.6906 0.0000 31.6139
# 5 -57.3070 0.3193 -44.2157 0.0000 62.5936 0.0000
# 6 0.0000 0.0000 0.0000 31.6139 0.0000 30.0881
#
#
#
# Elastic Compliance Matrix: (Units=1/GPa)
#
#
# Indices 1 2 3 4 5 6 
#
# 1 0.005613 -0.001827 -0.000751 0.000000 0.004618 0.000000
# 2 -0.001827 0.006649 -0.003426 0.000000 -0.004127 0.000000
# 3 -0.000751 -0.003426 0.008729 0.000000 0.005496 0.000000
# 4 0.000000 0.000000 0.000000 0.074220 0.000000 -0.077984
# 5 0.004618 -0.004127 0.005496 0.000000 0.024107 0.000000
# 6 0.000000 0.000000 0.000000 -0.077984 0.000000 0.115175
#
#
# Mechanical properties :
#
#
# Convention : Reuss Voigt Hill
#
# Bulk Modulus (GPa) = 111.33701 135.36710 123.35206
# Shear Modulus (GPa) = 20.04036 54.79046 37.41541
#
# Velocity S-wave (km/s) = 2.54532 4.20864 3.47788
# Velocity P-wave (km/s) = 6.68066 8.20843 7.48363
#
# Compressibility (1/GPa) = 0.00898174
#
# Stress axis : x y z
#
# Youngs Moduli (GPa) = 178.15644 150.39385 114.56258
#
# Poissons Ratio (x) = 0.27483 0.08607
# Poissons Ratio (y) = 0.32557 0.39249
# Poissons Ratio (z) = 0.13384 0.51525
#
# Static dielectric constant tensor:
#      x y z
#    x 7.383400 0.000000 0.659030 
#    y 0.000000 6.874170 0.000000 
#    z 0.659030 0.000000 6.496150 
# 
# 
# High freq. dielectric constant tensor:
#      x y z
#    x 2.308510 0.000000 0.042440 
#    y 0.000000 2.291530 0.000000 
#    z 0.042440 0.000000 2.324890 
# 
# From -- ./inp_files/71431.got.cif
#   From: 2010.06.25/outbox.cif.g09.slc.cpg/sg15_36_cif.got.tgz:71431.got - 2010.06.28 07:06:18.
