data_PCOD8149790
_publ_section_title
;
Structure prediction by ZEFSAII (Michael W. Deem and Ramdas Pophale) SiO2 
 PCOD8149790
Probable space group: C 2/C
;
_chemical_formula_sum "Si O2"
_cell_formula_units_Z 44
_cell_length_a 11.612687
_cell_length_b 8.731344
_cell_length_c 22.930161
_cell_angle_alpha 90.000000
_cell_angle_beta 130.522992
_cell_angle_gamma 90.000000
_cell_volume 1767.329523
_symmetry_space_group_name_H-M "C 2/C"
_symmetry_group_IT_number 15
_symmetry_cell_setting 'monoclinic'
loop_
_space_group_symop_operation_xyz
x,y,z
-x,y,1/2-z
-x,-y,-z
x,-y,1/2+z
1/2+x,1/2+y,z
1/2-x,1/2+y,1/2-z
1/2-x,1/2-y,-z
1/2+x,1/2-y,1/2+z
loop_
_atom_site_type_symbol
_atom_site_label
_atom_site_fract_x
_atom_site_fract_y
_atom_site_fract_z
Si Si1 0.000000 0.524580 0.750000
Si Si2 0.461448 0.462444 0.114903
Si Si3 0.847786 0.574161 0.516913
Si Si4 0.422125 0.775464 0.327819
Si Si5 0.713527 0.236795 0.360957
Si Si6 0.006300 0.731236 0.468722
O O1 0.096369 0.634010 0.738598
O O2 0.880815 0.418319 0.676913
O O3 0.572327 0.590560 0.178429
O O4 0.390954 0.365896 0.144571
O O5 0.550550 0.354903 0.097714
O O6 0.330652 0.548618 0.034414
O O7 0.917476 0.672150 0.592018
O O8 0.927230 0.409881 0.545764
O O9 0.870928 0.665249 0.463365
O O10 0.275314 0.808121 0.320168
O O11 0.860340 0.196031 0.447823
#
# Coordination Sequence:
#
# PCOD8149790 Si02
#       6
#     4   8   8   8   8   8
#     4  12  26  44  60  78 120 168 208 248 286 336
#     4  11  21  37  65  93 121 153 190 243 310 360
#     4   9  18  36  62  94 125 149 186 244 305 362
#     4  11  25  40  61  92 118 155 205 246 292 352
#     4  10  24  42  62  87 119 160 201 243 293 352
#     4   9  18  36  63  94 123 152 189 240 305 365
#
# _framework density 24.896321
#
# number of rings (size 3 to 8) (size 9 to 14) (size 15 to 20)
#    0.000    1.818    0.000    6.000    0.000    8.000 
#    0.000    0.000    0.000    2.182    0.000    0.000 
#    0.000    0.000    0.000    0.000    0.000    0.000 
#
# Total GULP energy -272760.704182 kJ/mol
# GULP energy per Si atom -12398.213826 kJ/mol
# Density = 2.483966 g / cm^3
# Si number density = 24.896321 Si / 1000 Ang^3
#
#
#
# Elastic Constant Matrix: (Units=GPa)
#
#
# Indices 1 2 3 4 5 6 
#
# 1 37.8429 5.3708 13.5252 0.0000 2.7795 0.0000
# 2 5.3708 105.2271 44.2748 0.0000 31.9934 0.0000
# 3 13.5252 44.2748 44.3264 0.0000 -19.0718 0.0000
# 4 0.0000 0.0000 0.0000 72.0975 0.0000 -20.3197
# 5 2.7795 31.9934 -19.0718 0.0000 -11.9065 0.0000
# 6 0.0000 0.0000 0.0000 -20.3197 0.0000 35.1506
#
#
#
# Elastic Compliance Matrix: (Units=1/GPa)
#
#
# Indices 1 2 3 4 5 6 
#
# 1 0.027465 -0.001972 -0.003512 0.000000 0.006737 0.000000
# 2 -0.001972 0.005390 0.000741 0.000000 0.012835 0.000000
# 3 -0.003512 0.000741 0.013850 0.000000 -0.021014 0.000000
# 4 0.000000 0.000000 0.000000 0.016570 0.000000 0.009579
# 5 0.006737 0.012835 -0.021014 0.000000 -0.014266 0.000000
# 6 0.000000 0.000000 0.000000 0.009579 0.000000 0.033986
#
#
# Mechanical properties :
#
#
# Convention : Reuss Voigt Hill
#
# Bulk Modulus (GPa) = 26.86843 34.85978 30.86410
# Shear Modulus (GPa) = 47.66999 27.35001 37.51000
#
# Velocity S-wave (km/s) = 4.38052 3.31804 3.88577
# Velocity P-wave (km/s) = 6.03331 5.35832 5.70581
#
# Compressibility (1/GPa) = 0.03721840
#
# Stress axis : x y z
#
# Youngs Moduli (GPa) = 36.40955 185.53774 72.20194
#
# Poissons Ratio (x) = 0.36597 0.25356
# Poissons Ratio (y) = 0.07182 -0.05349
# Poissons Ratio (z) = 0.12786 -0.13746
#
# Static dielectric constant tensor:
#      x y z
#    x 4.377380 0.000000 -0.226660 
#    y 0.000000 4.717920 0.000000 
#    z -0.226660 0.000000 4.082610 
# 
# 
# High freq. dielectric constant tensor:
#      x y z
#    x 1.985700 0.000000 -0.019140 
#    y 0.000000 2.010870 0.000000 
#    z -0.019140 0.000000 1.955150 
# 
# From -- ./inp_files/236226.got.cif
#   From: 2010.06.25/outbox.cif.g09.slc.cpg/sg15_119_cif.got.tgz:236226.got - 2010.06.28 07:06:18.
