data_PCOD8149508
_publ_section_title
;
Structure prediction by ZEFSAII (Michael W. Deem and Ramdas Pophale) SiO2 
 PCOD8149508
Probable space group: C 2/C
;
_chemical_formula_sum "Si O2"
_cell_formula_units_Z 28
_cell_length_a 16.422895
_cell_length_b 6.559255
_cell_length_c 18.955245
_cell_angle_alpha 90.000000
_cell_angle_beta 147.103940
_cell_angle_gamma 90.000000
_cell_volume 1108.987879
_symmetry_space_group_name_H-M "C 2/C"
_symmetry_group_IT_number 15
_symmetry_cell_setting 'monoclinic'
loop_
_space_group_symop_operation_xyz
x,y,z
-x,y,1/2-z
-x,-y,-z
x,-y,1/2+z
1/2+x,1/2+y,z
1/2-x,1/2+y,1/2-z
1/2-x,1/2-y,-z
1/2+x,1/2-y,1/2+z
loop_
_atom_site_type_symbol
_atom_site_label
_atom_site_fract_x
_atom_site_fract_y
_atom_site_fract_z
Si Si1 0.210880 0.835432 0.653432
Si Si2 0.389529 0.792269 0.274001
Si Si3 0.955113 0.686693 0.101835
Si Si4 0.000000 0.024469 0.750000
O O1 0.104583 0.807412 0.643826
O O2 0.142414 0.716671 0.537999
O O3 0.373794 0.735565 0.787764
O O4 0.235748 0.075731 0.653714
O O5 0.390676 0.618083 0.216076
O O6 0.534358 0.944885 0.371104
O O7 0.896472 0.827377 0.124985
#
# Coordination Sequence:
#
# PCOD8149508 Si02
#       4
#     8   8   8   4
#     4  10  23  47  73  95 137 173 240 266 337 391
#     4  10  24  44  69 104 132 180 221 285 326 407
#     4  10  25  46  69 102 132 182 221 286 325 408
#     4  12  24  46  66 104 144 172 222 278 348 392
#
# _framework density 25.248245000000001
#
# number of rings (size 3 to 8) (size 9 to 14) (size 15 to 20)
#    1.714    0.000    0.000    3.429    0.000    6.857 
#    5.143    0.000    0.000    0.000    0.000    0.000 
#    0.000    0.000    0.000    0.000    0.000    0.000 
#
# Total GULP energy -173454.232365 kJ/mol
# GULP energy per Si atom -12389.588026 kJ/mol
# Density = 2.519078 g / cm^3
# Si number density = 25.248245 Si / 1000 Ang^3
#
#
#
# Elastic Constant Matrix: (Units=GPa)
#
#
# Indices 1 2 3 4 5 6 
#
# 1 67.0216 51.1511 12.5535 0.0000 -40.9983 0.0000
# 2 51.1511 131.9685 2.0193 0.0000 -21.8276 0.0000
# 3 12.5535 2.0193 68.4861 0.0000 -7.2734 -0.0001
# 4 0.0000 0.0000 0.0000 4.7190 -0.0001 -17.8845
# 5 -40.9983 -21.8276 -7.2734 -0.0001 36.7057 -0.0001
# 6 0.0000 0.0000 -0.0001 -17.8845 -0.0001 54.8647
#
#
#
# Elastic Compliance Matrix: (Units=1/GPa)
#
#
# Indices 1 2 3 4 5 6 
#
# 1 0.067385 -0.015257 -0.004977 -0.000006 0.065206 -0.000002
# 2 -0.015257 0.011864 0.001416 0.000001 -0.009706 0.000000
# 3 -0.004977 0.001416 0.015293 -0.000001 -0.001686 0.000000
# 4 -0.000006 0.000001 -0.000001 -0.900180 -0.000009 -0.293436
# 5 0.065206 -0.009706 -0.001686 -0.000009 0.093970 -0.000003
# 6 -0.000002 0.000000 0.000000 -0.293436 -0.000003 -0.077426
#
#
# Mechanical properties :
#
#
# Convention : Reuss Voigt Hill
#
# Bulk Modulus (GPa) = 17.57268 44.32490 30.94879
# Shear Modulus (GPa) = -6.82603 32.70803 12.94100
#
# Velocity S-wave (km/s) = -1.64604 3.60315 2.26641
# Velocity P-wave (km/s) = 1.83371 5.90796 4.37416
#
# Compressibility (1/GPa) = 0.05690651
#
# Stress axis : x y z
#
# Youngs Moduli (GPa) = 14.84014 84.28674 65.38989
#
# Poissons Ratio (x) = 1.28597 0.32542
# Poissons Ratio (y) = 0.22642 -0.09260
# Poissons Ratio (z) = 0.07385 -0.11935
#
# Static dielectric constant tensor:
#      x y z
#    x 4.465540 0.000000 -0.265540 
#    y 0.000000 4.673680 0.000000 
#    z -0.265540 0.000000 4.016920 
# 
# 
# High freq. dielectric constant tensor:
#      x y z
#    x 1.995620 0.000000 -0.022990 
#    y 0.000000 2.020950 0.000000 
#    z -0.022990 0.000000 1.980090 
# 
# From -- ./inp_files/93027.got.cif
#   From: 2010.06.25/outbox.cif.g09.slc.cpg/sg15_47_cif.got.tgz:93027.got - 2010.06.28 07:06:18.
