data_PCOD8149417
_publ_section_title
;
Structure prediction by ZEFSAII (Michael W. Deem and Ramdas Pophale) SiO2 
 PCOD8149417
Probable space group: C 2/C
;
_chemical_formula_sum "Si O2"
_cell_formula_units_Z 28
_cell_length_a 10.156075
_cell_length_b 16.798308
_cell_length_c 11.928114
_cell_angle_alpha 90.000000
_cell_angle_beta 142.748133
_cell_angle_gamma 90.000000
_cell_volume 1231.822664
_symmetry_space_group_name_H-M "C 2/C"
_symmetry_group_IT_number 15
_symmetry_cell_setting 'monoclinic'
loop_
_space_group_symop_operation_xyz
x,y,z
-x,y,1/2-z
-x,-y,-z
x,-y,1/2+z
1/2+x,1/2+y,z
1/2-x,1/2+y,1/2-z
1/2-x,1/2-y,-z
1/2+x,1/2-y,1/2+z
loop_
_atom_site_type_symbol
_atom_site_label
_atom_site_fract_x
_atom_site_fract_y
_atom_site_fract_z
Si Si1 0.807885 0.359688 0.826905
Si Si2 0.130420 0.305840 0.229583
Si Si3 0.395767 0.440738 0.515008
Si Si4 0.000000 0.544452 0.250000
O O1 0.734055 0.270998 0.739901
O O2 0.598406 0.410839 0.729906
O O3 0.919792 0.400267 0.796089
O O4 0.972939 0.355276 0.041723
O O5 0.323204 0.363145 0.397310
O O6 0.000000 0.275303 0.250000
O O7 0.500000 0.500000 0.500000
O O8 0.189578 0.486638 0.430115
#
# Coordination Sequence:
#
# PCOD8149417 Si02
#       4
#     8   8   8   4
#     4  11  25  44  74 100 137 181 229 286 338 405
#     4  12  24  44  69 103 135 181 236 276 336 413
#     4  10  23  46  66 103 138 178 229 277 346 403
#     4  10  24  48  68 104 144 174 230 282 350 404
#
# _framework density 22.730544999999999
#
# number of rings (size 3 to 8) (size 9 to 14) (size 15 to 20)
#    0.000    1.143    4.286    0.857    0.000    5.714 
#    5.143    0.000    0.000    0.000    0.000    0.000 
#    0.000    0.000    0.000    0.000    0.000    0.000 
#
# Total GULP energy -173495.586556 kJ/mol
# GULP energy per Si atom -12392.541897 kJ/mol
# Density = 2.267881 g / cm^3
# Si number density = 22.730545 Si / 1000 Ang^3
#
#
#
# Elastic Constant Matrix: (Units=GPa)
#
#
# Indices 1 2 3 4 5 6 
#
# 1 109.2516 49.5321 27.6343 0.0000 16.1957 0.0000
# 2 49.5321 110.8829 -12.3114 0.0000 25.6134 0.0000
# 3 27.6343 -12.3114 54.1758 0.0002 15.6523 0.0002
# 4 0.0000 0.0000 0.0002 -12.1329 0.0001 -4.2675
# 5 16.1957 25.6134 15.6523 0.0001 33.2285 0.0000
# 6 0.0000 0.0000 0.0002 -4.2675 0.0000 40.6138
#
#
#
# Elastic Compliance Matrix: (Units=1/GPa)
#
#
# Indices 1 2 3 4 5 6 
#
# 1 0.015605 -0.009443 -0.011588 0.000000 0.005132 0.000000
# 2 -0.009443 0.018462 0.013652 0.000000 -0.016059 0.000000
# 3 -0.011588 0.013652 0.033430 0.000000 -0.020622 0.000000
# 4 0.000000 0.000000 0.000000 -0.079483 0.000000 -0.008352
# 5 0.005132 -0.016059 -0.020622 0.000000 0.049687 0.000000
# 6 0.000000 0.000000 0.000000 -0.008352 0.000000 0.023745
#
#
# Mechanical properties :
#
#
# Convention : Reuss Voigt Hill
#
# Bulk Modulus (GPa) = 18.96139 44.89115 31.92627
# Shear Modulus (GPa) = 53.31464 26.30555 39.81009
#
# Velocity S-wave (km/s) = 4.84830 3.40557 4.18950
# Velocity P-wave (km/s) = 6.30089 5.93768 6.12198
#
# Compressibility (1/GPa) = 0.05273874
#
# Stress axis : x y z
#
# Youngs Moduli (GPa) = 64.08319 54.16508 29.91334
#
# Poissons Ratio (x) = 0.51147 0.34664
# Poissons Ratio (y) = 0.60512 -0.40837
# Poissons Ratio (z) = 0.74261 -0.73946
#
# Static dielectric constant tensor:
#      x y z
#    x 3.939510 0.000000 0.580190 
#    y 0.000000 4.525880 0.000000 
#    z 0.580190 0.000000 4.908880 
# 
# 
# High freq. dielectric constant tensor:
#      x y z
#    x 1.871270 0.000000 0.022290 
#    y 0.000000 1.923490 0.000000 
#    z 0.022290 0.000000 1.919380 
# 
# From -- ./inp_files/21518.got.cif
#   From: 2010.06.25/outbox.cif.g09.slc.cpg/sg15_11_cif.got.tgz:21518.got - 2010.06.28 07:06:18.
