data_PCOD8149505
_publ_section_title
;
Structure prediction by ZEFSAII (Michael W. Deem and Ramdas Pophale) SiO2 
 PCOD8149505
Probable space group: C 2/C
;
_chemical_formula_sum "Si O2"
_cell_formula_units_Z 40
_cell_length_a 12.299422
_cell_length_b 23.191514
_cell_length_c 8.785828
_cell_angle_alpha 90.000000
_cell_angle_beta 48.699202
_cell_angle_gamma 90.000000
_cell_volume 1882.711790
_symmetry_space_group_name_H-M "C 2/C"
_symmetry_group_IT_number 15
_symmetry_cell_setting 'monoclinic'
loop_
_space_group_symop_operation_xyz
x,y,z
-x,y,1/2-z
-x,-y,-z
x,-y,1/2+z
1/2+x,1/2+y,z
1/2-x,1/2+y,1/2-z
1/2-x,1/2-y,-z
1/2+x,1/2-y,1/2+z
loop_
_atom_site_type_symbol
_atom_site_label
_atom_site_fract_x
_atom_site_fract_y
_atom_site_fract_z
Si Si1 0.481029 0.151543 0.587387
Si Si2 0.892005 0.972879 0.717717
Si Si3 0.613689 0.250294 0.020798
Si Si4 0.141292 0.435961 0.524767
Si Si5 0.228355 0.136216 0.336735
O O1 0.500000 0.146720 0.750000
O O2 0.382612 0.205910 0.625340
O O3 0.413035 0.091771 0.584524
O O4 0.637076 0.164896 0.372948
O O5 0.826555 0.915132 0.714796
O O6 0.000000 0.955646 0.750000
O O7 0.000000 0.000000 0.500000
O O8 0.755926 0.013138 0.889163
O O9 0.500000 0.230676 0.250000
O O10 0.750000 0.250000 0.000000
O O11 0.601361 0.315871 0.968338
O O12 0.223104 0.386088 0.542245
O O13 0.000000 0.458775 0.750000
#
# Coordination Sequence:
#
# PCOD8149505 Si02
#       5
#     8   8   8   8   8
#     4  11  25  43  72 107 136 176 236 287 340 407
#     4  12  27  45  68 106 143 180 231 291 347 401
#     4  12  23  46  75  98 135 187 229 277 344 422
#     4  10  23  47  72  96 139 193 231 269 344 433
#     4  11  25  45  70 101 139 185 231 275 345 423
#
# _framework density 21.245950000000001
#
# number of rings (size 3 to 8) (size 9 to 14) (size 15 to 20)
#    0.000    0.800    6.000    0.600    5.600    5.600 
#    0.000    0.000    0.000    0.000    0.000    0.000 
#    0.000    0.000    0.000    0.000    0.000    0.000 
#
# Total GULP energy -247854.481968 kJ/mol
# GULP energy per Si atom -12392.724098 kJ/mol
# Density = 2.119759 g / cm^3
# Si number density = 21.245950 Si / 1000 Ang^3
#
#
#
# Elastic Constant Matrix: (Units=GPa)
#
#
# Indices 1 2 3 4 5 6 
#
# 1 150.5612 51.5589 55.2608 0.0000 23.6020 0.0000
# 2 51.5589 110.8398 46.1934 0.0000 6.8852 0.0000
# 3 55.2608 46.1934 91.1448 0.0000 11.3136 0.0000
# 4 0.0000 0.0000 0.0000 27.8406 0.0000 -0.1993
# 5 23.6020 6.8852 11.3136 0.0000 43.4563 0.0000
# 6 0.0000 0.0000 0.0000 -0.1993 0.0000 42.4222
#
#
#
# Elastic Compliance Matrix: (Units=1/GPa)
#
#
# Indices 1 2 3 4 5 6 
#
# 1 0.009589 -0.002534 -0.004064 0.000000 -0.003748 0.000000
# 2 -0.002534 0.012112 -0.004686 0.000000 0.000677 0.000000
# 3 -0.004064 -0.004686 0.015960 0.000000 -0.001205 0.000000
# 4 0.000000 0.000000 0.000000 0.035920 0.000000 0.000169
# 5 -0.003748 0.000677 -0.001205 0.000000 0.025254 0.000000
# 6 0.000000 0.000000 0.000000 0.000169 0.000000 0.023573
#
#
# Mechanical properties :
#
#
# Convention : Reuss Voigt Hill
#
# Bulk Modulus (GPa) = 66.25863 73.17467 69.71665
# Shear Modulus (GPa) = 33.33178 36.04599 34.68889
#
# Velocity S-wave (km/s) = 3.96517 4.12346 4.04509
# Velocity P-wave (km/s) = 7.22618 7.56221 7.39610
#
# Compressibility (1/GPa) = 0.01509237
#
# Stress axis : x y z
#
# Youngs Moduli (GPa) = 104.28871 82.56562 62.65542
#
# Poissons Ratio (x) = 0.20920 0.25465
# Poissons Ratio (y) = 0.26424 0.29361
# Poissons Ratio (z) = 0.42385 0.38692
#
# Static dielectric constant tensor:
#      x y z
#    x 4.012130 0.000000 -0.063500 
#    y 0.000000 4.949520 0.000000 
#    z -0.063500 0.000000 4.348360 
# 
# 
# High freq. dielectric constant tensor:
#      x y z
#    x 1.847830 0.000000 -0.000890 
#    y 0.000000 1.839240 0.000000 
#    z -0.000890 0.000000 1.829900 
# 
# From -- ./inp_files/33314.got.cif
#   From: 2010.06.25/outbox.cif.g09.slc.cpg/sg15_17_cif.got.tgz:33314.got - 2010.06.28 07:06:18.
