data_PCOD8149284
_publ_section_title
;
Structure prediction by ZEFSAII (Michael W. Deem and Ramdas Pophale) SiO2 
 PCOD8149284
Probable space group: C 2/C
;
_chemical_formula_sum "Si O2"
_cell_formula_units_Z 40
_cell_length_a 19.230258
_cell_length_b 5.575712
_cell_length_c 19.650057
_cell_angle_alpha 90.000000
_cell_angle_beta 129.179928
_cell_angle_gamma 90.000000
_cell_volume 1633.217005
_symmetry_space_group_name_H-M "C 2/C"
_symmetry_group_IT_number 15
_symmetry_cell_setting 'monoclinic'
loop_
_space_group_symop_operation_xyz
x,y,z
-x,y,1/2-z
-x,-y,-z
x,-y,1/2+z
1/2+x,1/2+y,z
1/2-x,1/2+y,1/2-z
1/2-x,1/2-y,-z
1/2+x,1/2-y,1/2+z
loop_
_atom_site_type_symbol
_atom_site_label
_atom_site_fract_x
_atom_site_fract_y
_atom_site_fract_z
Si Si1 0.960810 0.653712 0.661122
Si Si2 0.982962 0.640315 0.420361
Si Si3 0.352756 0.464354 0.023995
Si Si4 0.302239 0.679259 0.770530
Si Si5 0.178895 0.309528 0.865292
O O1 0.910054 0.456701 0.674632
O O2 0.000000 0.812320 0.750000
O O3 0.034107 0.536128 0.655273
O O4 0.894664 0.778955 0.566733
O O5 0.893075 0.801765 0.372410
O O6 0.000000 0.500000 0.500000
O O7 0.070495 0.796385 0.459342
O O8 0.309791 0.384534 0.068718
O O9 0.269479 0.476862 0.919663
O O10 0.254520 0.426314 0.756340
O O11 0.332033 0.663723 0.710783
#
# Coordination Sequence:
#
# PCOD8149284 Si02
#       5
#     8   8   8   8   8
#     4  11  23  40  71 101 135 181 233 300 350 426
#     4  11  26  45  67 102 139 187 241 290 360 423
#     4  10  24  41  73  93 138 181 236 295 355 420
#     4  12  29  46  72 102 147 190 236 295 359 425
#     4  10  23  45  64 103 134 182 237 289 354 424
#
# _framework density 24.491540000000001
#
# number of rings (size 3 to 8) (size 9 to 14) (size 15 to 20)
#    0.000    1.200    2.000    1.800   11.200    0.800 
#    0.000    0.000    0.000    0.000    0.000    0.000 
#    0.000    0.000    0.000    0.000    0.000    0.000 
#
# Total GULP energy -247799.515143 kJ/mol
# GULP energy per Si atom -12389.975757 kJ/mol
# Density = 2.443580 g / cm^3
# Si number density = 24.491540 Si / 1000 Ang^3
#
#
#
# Elastic Constant Matrix: (Units=GPa)
#
#
# Indices 1 2 3 4 5 6 
#
# 1 113.0465 21.2509 20.3359 -0.0002 -4.1939 0.0002
# 2 21.2509 64.7469 -15.2943 -0.0014 -9.6377 0.0008
# 3 20.3359 -15.2943 77.4056 0.0000 -1.3707 0.0005
# 4 -0.0002 -0.0014 0.0000 27.3694 0.0000 2.0417
# 5 -4.1939 -9.6377 -1.3707 0.0000 43.6079 -0.0001
# 6 0.0002 0.0008 0.0005 2.0417 -0.0001 17.9671
#
#
#
# Elastic Compliance Matrix: (Units=1/GPa)
#
#
# Indices 1 2 3 4 5 6 
#
# 1 0.010271 -0.004214 -0.003532 0.000000 -0.000054 0.000000
# 2 -0.004214 0.018543 0.004839 0.000001 0.003845 -0.000001
# 3 -0.003532 0.004839 0.014824 0.000000 0.001196 -0.000001
# 4 0.000000 0.000001 0.000000 0.036850 0.000000 -0.004187
# 5 -0.000054 0.003845 0.001196 0.000000 0.023814 0.000000
# 6 0.000000 -0.000001 -0.000001 -0.004187 0.000000 0.056133
#
#
# Mechanical properties :
#
#
# Convention : Reuss Voigt Hill
#
# Bulk Modulus (GPa) = 26.43735 34.19824 30.31780
# Shear Modulus (GPa) = 27.95530 33.04931 30.50230
#
# Velocity S-wave (km/s) = 3.38217 3.67743 3.53288
# Velocity P-wave (km/s) = 5.10588 5.65905 5.38957
#
# Compressibility (1/GPa) = 0.03782527
#
# Stress axis : x y z
#
# Youngs Moduli (GPa) = 97.35806 53.92840 67.45739
#
# Poissons Ratio (x) = 0.22723 0.23826
# Poissons Ratio (y) = 0.41023 -0.32642
# Poissons Ratio (z) = 0.34387 -0.26096
#
# Static dielectric constant tensor:
#      x y z
#    x 4.739250 0.000000 0.105440 
#    y 0.000000 4.175700 0.000000 
#    z 0.105440 0.000000 4.816510 
# 
# 
# High freq. dielectric constant tensor:
#      x y z
#    x 1.988760 0.000000 -0.003230 
#    y 0.000000 1.948020 0.000000 
#    z -0.003230 0.000000 1.992710 
# 
# From -- ./inp_files/251148.got.cif
#   From: 2010.06.25/outbox.cif.g09.slc.cpg/sg15_126_cif.got.tgz:251148.got - 2010.06.28 07:06:18.
