data_PCOD8149035
_publ_section_title
;
Structure prediction by ZEFSAII (Michael W. Deem and Ramdas Pophale) SiO2 
 PCOD8149035
Probable space group: C 2/C
;
_chemical_formula_sum "Si O2"
_cell_formula_units_Z 48
_cell_length_a 14.603306
_cell_length_b 15.184676
_cell_length_c 30.292600
_cell_angle_alpha 90.000000
_cell_angle_beta 160.787704
_cell_angle_gamma 90.000000
_cell_volume 2210.449732
_symmetry_space_group_name_H-M "C 2/C"
_symmetry_group_IT_number 15
_symmetry_cell_setting 'monoclinic'
loop_
_space_group_symop_operation_xyz
x,y,z
-x,y,1/2-z
-x,-y,-z
x,-y,1/2+z
1/2+x,1/2+y,z
1/2-x,1/2+y,1/2-z
1/2-x,1/2-y,-z
1/2+x,1/2-y,1/2+z
loop_
_atom_site_type_symbol
_atom_site_label
_atom_site_fract_x
_atom_site_fract_y
_atom_site_fract_z
Si Si1 0.544324 0.290776 0.142227
Si Si2 0.721485 0.411008 0.068661
Si Si3 0.906948 0.094298 0.758486
Si Si4 0.650600 0.957421 0.527271
Si Si5 0.662803 0.546644 0.639230
Si Si6 0.941096 0.772040 0.672448
O O1 0.584650 0.311253 0.212930
O O2 0.541864 0.386190 0.119167
O O3 0.775863 0.224770 0.227498
O O4 0.250000 0.250000 0.000000
O O5 0.597509 0.412223 0.061428
O O6 0.762959 0.309886 0.072099
O O7 0.010684 0.466342 0.201754
O O8 0.506575 0.454266 0.935741
O O9 0.590961 0.056412 0.619031
O O10 0.000000 0.107999 0.750000
O O11 0.103621 0.024258 0.873955
O O12 0.778800 0.862823 0.597020
O O13 0.500000 0.000000 0.500000
O O14 0.000000 0.747961 0.750000
#
# Coordination Sequence:
#
# PCOD8149035 Si02
#       6
#     8   8   8   8   8   8
#     4  11  25  41  67 102 136 181 232 285 351 416
#     4   9  17  36  63  92 126 169 215 264 330 404
#     4  10  24  43  66  99 137 178 237 287 354 422
#     4  10  23  43  73  97 130 186 229 293 357 410
#     4   9  18  36  59  91 126 169 215 259 327 403
#     4  11  21  41  70  97 137 179 226 283 350 415
#
# _framework density 21.715039000000001
#
# number of rings (size 3 to 8) (size 9 to 14) (size 15 to 20)
#    0.000    2.000    3.333    1.500    7.000    3.333 
#    3.000    0.000    3.667    0.000    0.000    0.000 
#    0.000    0.000    0.000    0.000    0.000    0.000 
#
# Total GULP energy -297448.576391 kJ/mol
# GULP energy per Si atom -12393.690683 kJ/mol
# Density = 2.166561 g / cm^3
# Si number density = 21.715039 Si / 1000 Ang^3
#
#
#
# Elastic Constant Matrix: (Units=GPa)
#
#
# Indices 1 2 3 4 5 6 
#
# 1 69.6184 35.0996 44.2749 -0.0003 8.7404 -0.0070
# 2 35.0996 107.7495 62.8953 -0.0114 23.0395 -0.0160
# 3 44.2749 62.8953 121.9459 -0.0183 14.7036 -0.0079
# 4 -0.0003 -0.0114 -0.0183 56.9323 -0.0112 3.3850
# 5 8.7404 23.0395 14.7036 -0.0112 26.4808 -0.0035
# 6 -0.0070 -0.0160 -0.0079 3.3850 -0.0035 27.6605
#
#
#
# Elastic Compliance Matrix: (Units=1/GPa)
#
#
# Indices 1 2 3 4 5 6 
#
# 1 0.019414 -0.002998 -0.005406 -0.000003 -0.000798 0.000002
# 2 -0.002998 0.015697 -0.005873 -0.000001 -0.009407 0.000006
# 3 -0.005406 -0.005873 0.013248 0.000003 -0.000462 -0.000001
# 4 -0.000003 -0.000001 0.000003 0.017693 0.000007 -0.002165
# 5 -0.000798 -0.009407 -0.000462 0.000007 0.046467 -0.000001
# 6 0.000002 0.000006 -0.000001 -0.002165 -0.000001 0.036418
#
#
# Mechanical properties :
#
#
# Convention : Reuss Voigt Hill
#
# Bulk Modulus (GPa) = 50.49437 64.87261 57.68349
# Shear Modulus (GPa) = 27.16016 32.68432 29.92224
#
# Velocity S-wave (km/s) = 3.54044 3.88383 3.71610
# Velocity P-wave (km/s) = 6.32587 7.07471 6.71074
#
# Compressibility (1/GPa) = 0.01980419
#
# Stress axis : x y z
#
# Youngs Moduli (GPa) = 51.50992 63.70619 75.48239
#
# Poissons Ratio (x) = 0.19098 0.40807
# Poissons Ratio (y) = 0.15441 0.44334
# Poissons Ratio (z) = 0.27847 0.37417
#
# Static dielectric constant tensor:
#      x y z
#    x 3.732440 -0.000160 0.076200 
#    y -0.000160 4.001170 -0.000210 
#    z 0.076200 -0.000210 4.275510 
# 
# 
# High freq. dielectric constant tensor:
#      x y z
#    x 1.849350 0.000000 0.012980 
#    y 0.000000 1.840900 -0.000010 
#    z 0.012980 -0.000010 1.853770 
# 
# From -- ./inp_files/314154.got.cif
#   From: 2010.06.25/outbox.cif.g09.slc.cpg/sg15_158_cif.got.tgz:314154.got - 2010.06.28 07:06:18.
