data_PCOD8149748
_publ_section_title
;
Structure prediction by ZEFSAII (Michael W. Deem and Ramdas Pophale) SiO2 
 PCOD8149748
Probable space group: C 2/C
;
_chemical_formula_sum "Si O2"
_cell_formula_units_Z 64
_cell_length_a 26.022953
_cell_length_b 15.644436
_cell_length_c 12.033396
_cell_angle_alpha 90.000000
_cell_angle_beta 145.395182
_cell_angle_gamma 90.000000
_cell_volume 2782.188026
_symmetry_space_group_name_H-M "C 2/C"
_symmetry_group_IT_number 15
_symmetry_cell_setting 'monoclinic'
loop_
_space_group_symop_operation_xyz
x,y,z
-x,y,1/2-z
-x,-y,-z
x,-y,1/2+z
1/2+x,1/2+y,z
1/2-x,1/2+y,1/2-z
1/2-x,1/2-y,-z
1/2+x,1/2-y,1/2+z
loop_
_atom_site_type_symbol
_atom_site_label
_atom_site_fract_x
_atom_site_fract_y
_atom_site_fract_z
Si Si1 0.629852 0.049656 0.087036
Si Si2 0.897881 0.372591 0.561139
Si Si3 0.237067 0.027947 0.526357
Si Si4 0.495395 0.810012 0.114693
Si Si5 0.169132 0.702155 0.770559
Si Si6 0.141945 0.746555 0.315852
Si Si7 0.598261 0.407424 0.382634
Si Si8 0.229693 0.876153 0.806527
O O1 0.678394 0.123914 0.100957
O O2 0.681618 0.037811 0.297498
O O3 0.529062 0.087151 0.926542
O O4 0.647038 0.962672 0.050484
O O5 0.882610 0.300344 0.439859
O O6 0.869581 0.336906 0.629324
O O7 0.000000 0.398590 0.750000
O O8 0.262135 0.123056 0.611086
O O9 0.223833 0.037278 0.370455
O O10 0.144967 0.993511 0.418442
O O11 0.500000 0.774040 0.250000
O O12 0.593686 0.802049 0.233461
O O13 0.413553 0.765197 0.898810
O O14 0.227014 0.790786 0.879401
O O15 0.250000 0.750000 0.500000
O O16 0.100265 0.832727 0.294315
O O17 0.500000 0.433501 0.250000
O O18 0.645243 0.372820 0.576160
#
# Coordination Sequence:
#
# PCOD8149748 Si02
#       8
#     8   8   8   8   8   8   8   8
#     4  10  25  42  67 106 147 180 231 300 369 438
#     4  11  22  43  73 107 132 189 240 291 367 431
#     4  10  24  41  67 103 132 189 234 296 364 431
#     4  12  26  46  69 110 150 192 231 313 367 431
#     4  11  23  43  71 100 145 190 238 294 372 438
#     4  12  25  44  78 109 145 192 253 300 362 444
#     4  11  24  47  72  98 140 191 247 304 363 438
#     4  11  22  44  69  97 141 184 244 297 368 437
#
# _framework density 23.003478000000001
#
# number of rings (size 3 to 8) (size 9 to 14) (size 15 to 20)
#    0.000    1.000    2.500    4.125    3.500    2.500 
#    2.250    1.875    0.000    0.000    0.000    0.000 
#    0.000    0.000    0.000    0.000    0.000    0.000 
#
# Total GULP energy -396534.570767 kJ/mol
# GULP energy per Si atom -12391.705336 kJ/mol
# Density = 2.295112 g / cm^3
# Si number density = 23.003478 Si / 1000 Ang^3
#
#
#
# Elastic Constant Matrix: (Units=GPa)
#
#
# Indices 1 2 3 4 5 6 
#
# 1 128.7666 77.5854 59.3803 0.0000 3.1541 0.0000
# 2 77.5854 115.9985 48.1573 0.0000 2.7023 0.0000
# 3 59.3803 48.1573 92.6817 0.0000 -18.8558 0.0000
# 4 0.0000 0.0000 0.0000 37.9065 0.0000 22.7943
# 5 3.1541 2.7023 -18.8558 0.0000 48.6873 0.0000
# 6 0.0000 0.0000 0.0000 22.7943 0.0000 193.4396
#
#
#
# Elastic Compliance Matrix: (Units=1/GPa)
#
#
# Indices 1 2 3 4 5 6 
#
# 1 0.015404 -0.007480 -0.006623 0.000000 -0.003148 0.000000
# 2 -0.007480 0.015062 -0.003371 0.000000 -0.001657 0.000000
# 3 -0.006623 -0.003371 0.018356 0.000000 0.007725 0.000000
# 4 0.000000 0.000000 0.000000 0.028393 0.000000 -0.003346
# 5 -0.003148 -0.001657 0.007725 0.000000 0.023827 0.000000
# 6 0.000000 0.000000 0.000000 -0.003346 0.000000 0.005564
#
#
# Mechanical properties :
#
#
# Convention : Reuss Voigt Hill
#
# Bulk Modulus (GPa) = 72.07616 78.63254 75.35435
# Shear Modulus (GPa) = 34.20474 66.16159 50.18317
#
# Velocity S-wave (km/s) = 3.86027 5.36880 4.67577
# Velocity P-wave (km/s) = 7.16028 8.52579 7.87270
#
# Compressibility (1/GPa) = 0.01387421
#
# Stress axis : x y z
#
# Youngs Moduli (GPa) = 64.91654 66.39262 54.47785
#
# Poissons Ratio (x) = 0.49663 0.36081
# Poissons Ratio (y) = 0.48559 0.18363
# Poissons Ratio (z) = 0.42995 0.22379
#
# Static dielectric constant tensor:
#      x y z
#    x 4.045690 0.000000 -0.303800 
#    y 0.000000 4.160020 0.000000 
#    z -0.303800 0.000000 4.652720 
# 
# 
# High freq. dielectric constant tensor:
#      x y z
#    x 1.905170 0.000000 -0.014660 
#    y 0.000000 1.900700 0.000000 
#    z -0.014660 0.000000 1.933340 
# 
# From -- ./inp_files/123552.got.cif
#   From: 2010.06.25/outbox.cif.g09.slc.cpg/sg15_62_cif.got.tgz:123552.got - 2010.06.28 07:06:18.
