data_PCOD8149432
_publ_section_title
;
Structure prediction by ZEFSAII (Michael W. Deem and Ramdas Pophale) SiO2 
 PCOD8149432
Probable space group: C 2/C
;
_chemical_formula_sum "Si O2"
_cell_formula_units_Z 44
_cell_length_a 5.179188
_cell_length_b 13.649913
_cell_length_c 26.260436
_cell_angle_alpha 90.000000
_cell_angle_beta 89.999972
_cell_angle_gamma 90.000000
_cell_volume 1856.493750
_symmetry_space_group_name_H-M "C 2/C"
_symmetry_group_IT_number 15
_symmetry_cell_setting 'monoclinic'
loop_
_space_group_symop_operation_xyz
x,y,z
-x,y,1/2-z
-x,-y,-z
x,-y,1/2+z
1/2+x,1/2+y,z
1/2-x,1/2+y,1/2-z
1/2-x,1/2-y,-z
1/2+x,1/2-y,1/2+z
loop_
_atom_site_type_symbol
_atom_site_label
_atom_site_fract_x
_atom_site_fract_y
_atom_site_fract_z
Si Si1 0.752407 0.434772 0.000000
Si Si2 0.249104 0.638734 0.110546
Si Si3 0.250895 0.138734 0.610546
Si Si4 0.245394 0.867533 0.668305
Si Si5 0.500000 0.500000 0.750000
Si Si6 0.254604 0.632467 0.668305
O O1 0.767423 0.368239 0.950130
O O2 0.500000 0.500000 0.000000
O O3 0.767423 0.368239 0.049870
O O4 0.000000 0.500000 0.000000
O O5 0.249998 0.750000 0.126550
O O6 0.519778 0.596145 0.130056
O O7 0.005595 0.593045 0.140844
O O8 0.494403 0.093045 0.640844
O O9 0.980220 0.096145 0.630056
O O10 0.249999 0.750000 0.678817
O O11 0.193973 0.927638 0.719806
O O12 0.306026 0.572362 0.719806
#
# Coordination Sequence:
#
# PCOD8149432 Si02
#       6
#     8   8   8   8   4   8
#     4  12  25  38  69 106 138 175 225 278 338 430
#     4  10  23  46  68  97 140 181 223 280 345 416
#     4  10  23  46  68  97 140 181 223 280 345 416
#     4  10  25  45  71 104 138 181 237 290 345 422
#     4  12  28  46  80  98 144 190 240 302 372 406
#     4  10  25  45  71 104 138 181 237 290 345 422
#
# _framework density 23.700593999999999
#
# number of rings (size 3 to 8) (size 9 to 14) (size 15 to 20)
#    0.000    1.455    0.000    2.727    7.636    7.273 
#    0.000    7.273    0.000    0.000    0.000    0.000 
#    0.000    0.000    0.000    0.000    0.000    0.000 
#
# Total GULP energy -272699.149591 kJ/mol
# GULP energy per Si atom -12395.415890 kJ/mol
# Density = 2.364665 g / cm^3
# Si number density = 23.700594 Si / 1000 Ang^3
#
#
#
# Elastic Constant Matrix: (Units=GPa)
#
#
# Indices 1 2 3 4 5 6 
#
# 1 197.4152 26.4140 66.4979 0.0000 4.3242 0.0000
# 2 26.4140 89.2325 48.2055 0.0000 -1.6900 0.0000
# 3 66.4979 48.2055 179.0920 0.0000 -2.9026 0.0000
# 4 0.0000 0.0000 0.0000 45.5798 0.0000 -4.3831
# 5 4.3242 -1.6900 -2.9026 0.0000 38.1421 0.0000
# 6 0.0000 0.0000 0.0000 -4.3831 0.0000 -10.9324
#
#
#
# Elastic Compliance Matrix: (Units=1/GPa)
#
#
# Indices 1 2 3 4 5 6 
#
# 1 0.005849 -0.000663 -0.002007 0.000000 -0.000845 0.000000
# 2 -0.000663 0.013192 -0.003298 0.000000 0.000409 0.000000
# 3 -0.002007 -0.003298 0.007227 0.000000 0.000631 0.000000
# 4 0.000000 0.000000 0.000000 0.021125 0.000000 -0.008470
# 5 -0.000845 0.000409 0.000631 0.000000 0.026380 0.000000
# 6 0.000000 0.000000 0.000000 -0.008470 0.000000 -0.088076
#
#
# Mechanical properties :
#
#
# Convention : Reuss Voigt Hill
#
# Bulk Modulus (GPa) = 69.77504 83.10829 76.44166
# Shear Modulus (GPa) = 2074.11539 36.19940 1055.15739
#
# Velocity S-wave (km/s) = 29.61473 3.91239 21.12272
# Velocity P-wave (km/s) = 34.62485 7.45326 25.04427
#
# Compressibility (1/GPa) = 0.01433177
#
# Stress axis : x y z
#
# Youngs Moduli (GPa) = 170.97804 75.80098 138.37282
#
# Poissons Ratio (x) = 0.05027 0.27769
# Poissons Ratio (y) = 0.11338 0.45637
# Poissons Ratio (z) = 0.34313 0.25000
#
# Static dielectric constant tensor:
#      x y z
#    x 4.944300 0.000000 0.068990 
#    y 0.000000 4.315360 0.000000 
#    z 0.068990 0.000000 4.054710 
# 
# 
# High freq. dielectric constant tensor:
#      x y z
#    x 1.957430 0.000000 0.001510 
#    y 0.000000 1.955920 0.000000 
#    z 0.001510 0.000000 1.938000 
# 
# From -- ./inp_files/260443.got.cif
#   From: 2010.06.25/outbox.cif.g09.slc.cpg/sg15_131_cif.got.tgz:260443.got - 2010.06.28 07:06:18.
