data_PCOD8149928
_publ_section_title
;
Structure prediction by ZEFSAII (Michael W. Deem and Ramdas Pophale) SiO2 
 PCOD8149928
Probable space group: C 2/C
;
_chemical_formula_sum "Si O2"
_cell_formula_units_Z 44
_cell_length_a 6.482831
_cell_length_b 28.101953
_cell_length_c 11.615321
_cell_angle_alpha 90.000000
_cell_angle_beta 89.804704
_cell_angle_gamma 90.000000
_cell_volume 2116.069350
_symmetry_space_group_name_H-M "C 2/C"
_symmetry_group_IT_number 15
_symmetry_cell_setting 'monoclinic'
loop_
_space_group_symop_operation_xyz
x,y,z
-x,y,1/2-z
-x,-y,-z
x,-y,1/2+z
1/2+x,1/2+y,z
1/2-x,1/2+y,1/2-z
1/2-x,1/2-y,-z
1/2+x,1/2-y,1/2+z
loop_
_atom_site_type_symbol
_atom_site_label
_atom_site_fract_x
_atom_site_fract_y
_atom_site_fract_z
Si Si1 0.304215 0.642025 0.559835
Si Si2 0.034915 0.367043 0.617377
Si Si3 0.817319 0.530974 0.456241
Si Si4 0.781838 0.197568 0.954045
Si Si5 0.000000 0.668826 0.750000
Si Si6 0.473504 0.547400 0.623131
O O1 0.480566 0.682670 0.574645
O O2 0.384167 0.588714 0.542961
O O3 0.173202 0.650576 0.445013
O O4 0.157267 0.638489 0.672416
O O5 0.095160 0.422630 0.608119
O O6 0.218735 0.338292 0.556299
O O7 0.000000 0.353274 0.750000
O O8 0.701257 0.540519 0.575155
O O9 0.664094 0.500671 0.374049
O O10 0.000000 0.500000 0.500000
O O11 0.641729 0.198042 0.839273
O O12 0.750000 0.250000 0.000000
O O13 0.500000 0.567649 0.750000
#
# Coordination Sequence:
#
# PCOD8149928 Si02
#       6
#     8   8   8   8   4   8
#     4  11  23  44  67 100 133 174 226 280 336 399
#     4  11  26  43  66  98 139 182 225 283 340 409
#     4  11  24  42  60  96 134 177 226 268 338 397
#     4  11  25  46  71  99 135 174 226 278 344 409
#     4  10  24  42  74 100 132 168 216 284 334 400
#     4  11  24  38  67  95 132 177 228 277 326 403
#
# _framework density 20.793271000000001
#
# number of rings (size 3 to 8) (size 9 to 14) (size 15 to 20)
#    0.000    1.091    3.636    1.636    5.091    6.545 
#    0.000    0.000    0.000    0.000    0.000    0.000 
#    0.000    0.000    0.000    0.000    0.000    0.000 
#
# Total GULP energy -272644.956206 kJ/mol
# GULP energy per Si atom -12392.952555 kJ/mol
# Density = 2.074594 g / cm^3
# Si number density = 20.793271 Si / 1000 Ang^3
#
#
#
# Elastic Constant Matrix: (Units=GPa)
#
#
# Indices 1 2 3 4 5 6 
#
# 1 134.7120 38.4849 55.6464 0.0000 -11.2383 0.0000
# 2 38.4849 107.6134 28.4685 0.0000 -5.9209 0.0000
# 3 55.6464 28.4685 138.2468 0.0000 4.3442 0.0000
# 4 0.0000 0.0000 0.0000 22.5451 0.0000 -1.3339
# 5 -11.2383 -5.9209 4.3442 0.0000 28.3275 0.0000
# 6 0.0000 0.0000 0.0000 -1.3339 0.0000 26.0428
#
#
#
# Elastic Compliance Matrix: (Units=1/GPa)
#
#
# Indices 1 2 3 4 5 6 
#
# 1 0.009937 -0.002371 -0.003637 0.000000 0.004005 0.000000
# 2 -0.002371 0.010555 -0.001265 0.000000 0.001460 0.000000
# 3 -0.003637 -0.001265 0.009055 0.000000 -0.003096 0.000000
# 4 0.000000 0.000000 0.000000 0.044490 0.000000 0.002279
# 5 0.004005 0.001460 -0.003096 0.000000 0.037670 0.000000
# 6 0.000000 0.000000 0.000000 0.002279 0.000000 0.038515
#
#
# Mechanical properties :
#
#
# Convention : Reuss Voigt Hill
#
# Bulk Modulus (GPa) = 66.66347 69.53018 68.09682
# Shear Modulus (GPa) = 29.45140 32.58124 31.01632
#
# Velocity S-wave (km/s) = 3.76758 3.96272 3.86638
# Velocity P-wave (km/s) = 7.14534 7.37895 7.26309
#
# Compressibility (1/GPa) = 0.01500072
#
# Stress axis : x y z
#
# Youngs Moduli (GPa) = 100.63113 94.73751 110.43162
#
# Poissons Ratio (x) = 0.22464 0.40169
# Poissons Ratio (y) = 0.23861 0.13970
# Poissons Ratio (z) = 0.36604 0.11985
#
# Static dielectric constant tensor:
#      x y z
#    x 4.154390 0.000000 0.090830 
#    y 0.000000 3.780080 0.000000 
#    z 0.090830 0.000000 3.667500 
# 
# 
# High freq. dielectric constant tensor:
#      x y z
#    x 1.833780 0.000000 -0.005530 
#    y 0.000000 1.805330 0.000000 
#    z -0.005530 0.000000 1.813900 
# 
# From -- ./inp_files/73874.got.cif
#   From: 2010.06.25/outbox.cif.g09.slc.cpg/sg15_37_cif.got.tgz:73874.got - 2010.06.28 07:06:18.
