data_PCOD8149141
_publ_section_title
;
Structure prediction by ZEFSAII (Michael W. Deem and Ramdas Pophale) SiO2 
 PCOD8149141
Probable space group: C 2/C
;
_chemical_formula_sum "Si O2"
_cell_formula_units_Z 32
_cell_length_a 19.014266
_cell_length_b 7.672757
_cell_length_c 10.327815
_cell_angle_alpha 90.000000
_cell_angle_beta 126.830691
_cell_angle_gamma 90.000000
_cell_volume 1206.013511
_symmetry_space_group_name_H-M "C 2/C"
_symmetry_group_IT_number 15
_symmetry_cell_setting 'monoclinic'
loop_
_space_group_symop_operation_xyz
x,y,z
-x,y,1/2-z
-x,-y,-z
x,-y,1/2+z
1/2+x,1/2+y,z
1/2-x,1/2+y,1/2-z
1/2-x,1/2-y,-z
1/2+x,1/2-y,1/2+z
loop_
_atom_site_type_symbol
_atom_site_label
_atom_site_fract_x
_atom_site_fract_y
_atom_site_fract_z
Si Si1 0.584283 0.190024 0.674682
Si Si2 0.734259 0.379734 0.242152
Si Si3 0.578414 0.200345 0.175798
Si Si4 0.348080 0.497602 0.604777
O O1 0.668511 0.188587 0.673613
O O2 0.503744 0.261519 0.501204
O O3 0.597606 0.319459 0.810478
O O4 0.565430 0.997084 0.710480
O O5 0.667230 0.214375 0.185657
O O6 0.728269 0.492809 0.368306
O O7 0.698573 0.498330 0.084392
O O8 0.588215 0.332780 0.309009
#
# Coordination Sequence:
#
# PCOD8149141 Si02
#       4
#     8   8   8   8
#     4  11  20  44  67  99 140 178 235 289 340 419
#     4  10  23  44  72 100 140 183 232 287 356 418
#     4   9  24  41  68 104 134 184 231 286 353 413
#     4  10  23  44  68 101 139 183 228 290 350 422
#
# _framework density 26.533698999999999
#
# number of rings (size 3 to 8) (size 9 to 14) (size 15 to 20)
#    1.500    0.500    0.000    3.000    0.000    2.000 
#    4.500    2.500    0.000    0.000    0.000    0.000 
#    0.000    0.000    0.000    0.000    0.000    0.000 
#
# Total GULP energy -198329.797955 kJ/mol
# GULP energy per Si atom -12395.612372 kJ/mol
# Density = 2.647331 g / cm^3
# Si number density = 26.533699 Si / 1000 Ang^3
#
#
#
# Elastic Constant Matrix: (Units=GPa)
#
#
# Indices 1 2 3 4 5 6 
#
# 1 55.2033 -4.2610 34.4545 0.0000 15.5313 0.0000
# 2 -4.2610 116.6633 20.3503 0.0000 -2.7106 0.0000
# 3 34.4545 20.3503 95.1089 0.0000 4.8331 0.0000
# 4 0.0000 0.0000 0.0000 25.0054 0.0000 9.7121
# 5 15.5313 -2.7106 4.8331 0.0000 52.1143 0.0000
# 6 0.0000 0.0000 0.0000 9.7121 0.0000 7.3452
#
#
#
# Elastic Compliance Matrix: (Units=1/GPa)
#
#
# Indices 1 2 3 4 5 6 
#
# 1 0.026281 0.002495 -0.009709 0.000000 -0.006802 0.000000
# 2 0.002495 0.009162 -0.002864 0.000000 -0.000001 0.000000
# 3 -0.009709 -0.002864 0.014574 0.000000 0.001393 0.000000
# 4 0.000000 0.000000 0.000000 0.082212 0.000000 -0.108704
# 5 -0.006802 -0.000001 0.001393 0.000000 0.021087 0.000000
# 6 0.000000 0.000000 0.000000 -0.108704 0.000000 0.279876
#
#
# Mechanical properties :
#
#
# Convention : Reuss Voigt Hill
#
# Bulk Modulus (GPa) = 33.48832 40.89590 37.19211
# Shear Modulus (GPa) = 10.79212 31.32176 21.05694
#
# Velocity S-wave (km/s) = 2.01895 3.43950 2.82013
# Velocity P-wave (km/s) = 4.25245 5.58747 4.96503
#
# Compressibility (1/GPa) = 0.02986116
#
# Stress axis : x y z
#
# Youngs Moduli (GPa) = 38.05037 109.14123 68.61736
#
# Poissons Ratio (x) = -0.27235 0.66620
# Poissons Ratio (y) = -0.09495 0.19655
# Poissons Ratio (z) = 0.36943 0.31262
#
# Static dielectric constant tensor:
#      x y z
#    x 4.552410 0.000000 0.279850 
#    y 0.000000 4.770880 0.000000 
#    z 0.279850 0.000000 4.383690 
# 
# 
# High freq. dielectric constant tensor:
#      x y z
#    x 2.050970 0.000000 0.017330 
#    y 0.000000 2.075470 0.000000 
#    z 0.017330 0.000000 2.052060 
# 
# From -- ./inp_files/102147.got.cif
#   From: 2010.06.25/outbox.cif.g09.slc.cpg/sg15_52_cif.got.tgz:102147.got - 2010.06.28 07:06:18.
