data_PCOD8149559
_publ_section_title
;
Structure prediction by ZEFSAII (Michael W. Deem and Ramdas Pophale) SiO2 
 PCOD8149559
Probable space group: C 2/C
;
_chemical_formula_sum "Si O2"
_cell_formula_units_Z 40
_cell_length_a 27.372794
_cell_length_b 7.405808
_cell_length_c 8.748336
_cell_angle_alpha 90.000000
_cell_angle_beta 101.913201
_cell_angle_gamma 90.000000
_cell_volume 1735.244801
_symmetry_space_group_name_H-M "C 2/C"
_symmetry_group_IT_number 15
_symmetry_cell_setting 'monoclinic'
loop_
_space_group_symop_operation_xyz
x,y,z
-x,y,1/2-z
-x,-y,-z
x,-y,1/2+z
1/2+x,1/2+y,z
1/2-x,1/2+y,1/2-z
1/2-x,1/2-y,-z
1/2+x,1/2-y,1/2+z
loop_
_atom_site_type_symbol
_atom_site_label
_atom_site_fract_x
_atom_site_fract_y
_atom_site_fract_z
Si Si1 0.100027 0.366991 0.926006
Si Si2 0.681229 0.418211 0.442880
Si Si3 0.746068 0.767006 0.241921
Si Si4 0.464572 0.925806 0.347565
Si Si5 0.182030 0.666869 0.967181
O O1 0.130412 0.193745 0.891875
O O2 0.059371 0.412027 0.769253
O O3 0.134817 0.542625 0.968016
O O4 0.077454 0.319530 0.081457
O O5 0.714080 0.348046 0.603698
O O6 0.713165 0.396781 0.309456
O O7 0.665161 0.624482 0.454305
O O8 0.776189 0.631178 0.375672
O O9 0.708348 0.886474 0.323063
O O10 0.500000 0.811735 0.250000
O O11 0.500000 0.000000 0.500000
#
# Coordination Sequence:
#
# PCOD8149559 Si02
#       5
#     8   8   8   8   8
#     4  11  22  38  64  88 112 160 202 238 312 359
#     4  11  24  37  57  84 123 163 204 255 275 347
#     4  10  24  36  52  84 120 168 210 238 286 324
#     4   9  20  40  66  90 114 144 190 256 318 371
#     4  11  24  37  57  84 123 163 204 255 275 347
#
# _framework density 23.051503
#
# number of rings (size 3 to 8) (size 9 to 14) (size 15 to 20)
#    0.000    1.600    0.000    3.600   16.800    0.000 
#    0.000    0.000    0.000   24.000    0.000    0.000 
#    0.000    0.000    0.000    0.000    0.000    0.000 
#
# Total GULP energy -247847.569078 kJ/mol
# GULP energy per Si atom -12392.378454 kJ/mol
# Density = 2.299904 g / cm^3
# Si number density = 23.051503 Si / 1000 Ang^3
#
#
#
# Elastic Constant Matrix: (Units=GPa)
#
#
# Indices 1 2 3 4 5 6 
#
# 1 135.9512 33.2247 70.8998 0.0000 1.9739 0.0000
# 2 33.2247 45.3063 19.4390 0.0000 21.3043 0.0000
# 3 70.8998 19.4390 104.1065 0.0000 -61.3992 0.0000
# 4 0.0000 0.0000 0.0000 23.0532 0.0000 0.8837
# 5 1.9739 21.3043 -61.3992 0.0000 -27.2275 0.0000
# 6 0.0000 0.0000 0.0000 0.8837 0.0000 12.3882
#
#
#
# Elastic Compliance Matrix: (Units=1/GPa)
#
#
# Indices 1 2 3 4 5 6 
#
# 1 0.011505 -0.008364 -0.004138 0.000000 0.003621 0.000000
# 2 -0.008364 0.023145 0.005021 0.000000 0.006182 0.000000
# 3 -0.004138 0.005021 0.005848 0.000000 -0.009560 0.000000
# 4 0.000000 0.000000 0.000000 0.043497 0.000000 -0.003103
# 5 0.003621 0.006182 -0.009560 0.000000 -0.010071 0.000000
# 6 0.000000 0.000000 0.000000 -0.003103 0.000000 0.080944
#
#
# Mechanical properties :
#
#
# Convention : Reuss Voigt Hill
#
# Bulk Modulus (GPa) = 39.16249 59.16566 49.16408
# Shear Modulus (GPa) = 28.03581 12.42946 20.23263
#
# Velocity S-wave (km/s) = 3.49122 2.32460 2.96584
# Velocity P-wave (km/s) = 5.76867 5.73824 5.75348
#
# Compressibility (1/GPa) = 0.02553464
#
# Stress axis : x y z
#
# Youngs Moduli (GPa) = 86.91734 43.20610 170.99167
#
# Poissons Ratio (x) = 0.36139 0.70758
# Poissons Ratio (y) = 0.72701 -0.85848
# Poissons Ratio (z) = 0.35967 -0.21692
#
# Static dielectric constant tensor:
#      x y z
#    x 4.973920 0.000000 -0.571210 
#    y 0.000000 3.921350 0.000000 
#    z -0.571210 0.000000 4.937510 
# 
# 
# High freq. dielectric constant tensor:
#      x y z
#    x 1.914720 0.000000 -0.014200 
#    y 0.000000 1.872840 0.000000 
#    z -0.014200 0.000000 1.947550 
# 
# From -- ./inp_files/68183.got.cif
#   From: 2010.06.25/outbox.cif.g09.slc.cpg/sg15_35_cif.got.tgz:68183.got - 2010.06.28 07:06:18.
