data_PCOD8149096
_publ_section_title
;
Structure prediction by ZEFSAII (Michael W. Deem and Ramdas Pophale) SiO2 
 PCOD8149096
Probable space group: C 2/C
;
_chemical_formula_sum "Si O2"
_cell_formula_units_Z 44
_cell_length_a 7.488730
_cell_length_b 26.981659
_cell_length_c 11.013519
_cell_angle_alpha 90.000000
_cell_angle_beta 71.399615
_cell_angle_gamma 90.000000
_cell_volume 2109.134008
_symmetry_space_group_name_H-M "C 2/C"
_symmetry_group_IT_number 15
_symmetry_cell_setting 'monoclinic'
loop_
_space_group_symop_operation_xyz
x,y,z
-x,y,1/2-z
-x,-y,-z
x,-y,1/2+z
1/2+x,1/2+y,z
1/2-x,1/2+y,1/2-z
1/2-x,1/2-y,-z
1/2+x,1/2-y,1/2+z
loop_
_atom_site_type_symbol
_atom_site_label
_atom_site_fract_x
_atom_site_fract_y
_atom_site_fract_z
Si Si1 0.628491 0.448145 0.838241
Si Si2 0.500000 0.110122 0.250000
Si Si3 0.407754 0.822164 0.984457
Si Si4 0.479399 0.284982 0.389533
Si Si5 0.917593 0.062817 0.634533
Si Si6 0.832662 0.349195 0.369489
O O1 0.500000 0.434525 0.750000
O O2 0.653166 0.506806 0.845987
O O3 0.827730 0.425663 0.754147
O O4 0.554681 0.428438 0.986705
O O5 0.589993 0.148685 0.139002
O O6 0.448098 0.763368 0.977423
O O7 0.191384 0.825179 0.077393
O O8 0.570904 0.851012 0.020710
O O9 0.500000 0.264906 0.250000
O O10 0.660566 0.311459 0.404772
O O11 0.732887 0.096214 0.655175
O O12 0.000000 0.077417 0.750000
O O13 0.000000 0.328342 0.250000
#
# Coordination Sequence:
#
# PCOD8149096 Si02
#       6
#     8   4   8   8   8   8
#     4  10  23  45  65  92 135 171 220 268 330 390
#     4  12  24  40  68  96 128 174 216 266 330 392
#     4  11  25  42  65  95 128 170 217 266 328 389
#     4  11  22  45  63  90 133 169 213 272 320 388
#     4  10  23  44  66  95 131 173 215 280 325 380
#     4  12  24  38  65  96 126 163 218 262 325 384
#
# _framework density 20.861642
#
# number of rings (size 3 to 8) (size 9 to 14) (size 15 to 20)
#    0.000    1.091    2.727    3.273    3.818    0.000 
#    0.000    4.545    0.000    0.000    0.000    0.000 
#    0.000    0.000    0.000    0.000    0.000    0.000 
#
# Total GULP energy -272592.642287 kJ/mol
# GULP energy per Si atom -12390.574649 kJ/mol
# Density = 2.081416 g / cm^3
# Si number density = 20.861642 Si / 1000 Ang^3
#
#
#
# Elastic Constant Matrix: (Units=GPa)
#
#
# Indices 1 2 3 4 5 6 
#
# 1 166.3699 59.0387 43.7534 0.0000 -3.5118 0.0000
# 2 59.0387 80.0828 20.4436 0.0000 -3.9346 0.0000
# 3 43.7534 20.4436 102.4681 0.0000 4.1407 0.0000
# 4 0.0000 0.0000 0.0000 25.2934 0.0000 5.4085
# 5 -3.5118 -3.9346 4.1407 0.0000 38.2295 0.0000
# 6 0.0000 0.0000 0.0000 5.4085 0.0000 36.5132
#
#
#
# Elastic Compliance Matrix: (Units=1/GPa)
#
#
# Indices 1 2 3 4 5 6 
#
# 1 0.008751 -0.005762 -0.002607 0.000000 0.000493 0.000000
# 2 -0.005762 0.017055 -0.000996 0.000000 0.001334 0.000000
# 3 -0.002607 -0.000996 0.011134 0.000000 -0.001548 0.000000
# 4 0.000000 0.000000 0.000000 0.040829 0.000000 -0.006048
# 5 0.000493 0.001334 -0.001548 0.000000 0.026508 0.000000
# 6 0.000000 0.000000 0.000000 -0.006048 0.000000 0.028283
#
#
# Mechanical properties :
#
#
# Convention : Reuss Voigt Hill
#
# Bulk Modulus (GPa) = 54.91723 66.15469 60.53596
# Shear Modulus (GPa) = 31.77411 35.05291 33.41351
#
# Velocity S-wave (km/s) = 3.90691 4.10354 4.00643
# Velocity P-wave (km/s) = 6.83620 7.36424 7.10513
#
# Compressibility (1/GPa) = 0.01820922
#
# Stress axis : x y z
#
# Youngs Moduli (GPa) = 114.26619 58.63464 89.81742
#
# Poissons Ratio (x) = 0.33785 0.23417
# Poissons Ratio (y) = 0.65840 0.08948
# Poissons Ratio (z) = 0.29791 0.05841
#
# Static dielectric constant tensor:
#      x y z
#    x 4.025670 0.000000 -0.008960 
#    y 0.000000 3.701220 0.000000 
#    z -0.008960 0.000000 4.062720 
# 
# 
# High freq. dielectric constant tensor:
#      x y z
#    x 1.823220 0.000000 -0.001440 
#    y 0.000000 1.824710 0.000000 
#    z -0.001440 0.000000 1.822890 
# 
# From -- ./inp_files/73880.got.cif
#   From: 2010.06.25/outbox.cif.g09.slc.cpg/sg15_37_cif.got.tgz:73880.got - 2010.06.28 07:06:18.
