data_PCOD8149614
_publ_section_title
;
Structure prediction by ZEFSAII (Michael W. Deem and Ramdas Pophale) SiO2 
 PCOD8149614
Probable space group: C 2/C
;
_chemical_formula_sum "Si O2"
_cell_formula_units_Z 64
_cell_length_a 13.874936
_cell_length_b 18.673429
_cell_length_c 11.452427
_cell_angle_alpha 90.000000
_cell_angle_beta 89.179541
_cell_angle_gamma 90.000000
_cell_volume 2966.935240
_symmetry_space_group_name_H-M "C 2/C"
_symmetry_group_IT_number 15
_symmetry_cell_setting 'monoclinic'
loop_
_space_group_symop_operation_xyz
x,y,z
-x,y,1/2-z
-x,-y,-z
x,-y,1/2+z
1/2+x,1/2+y,z
1/2-x,1/2+y,1/2-z
1/2-x,1/2-y,-z
1/2+x,1/2-y,1/2+z
loop_
_atom_site_type_symbol
_atom_site_label
_atom_site_fract_x
_atom_site_fract_y
_atom_site_fract_z
Si Si1 0.834472 0.583050 0.856147
Si Si2 0.883312 0.072082 0.573712
Si Si3 0.055731 0.631435 0.424591
Si Si4 0.689823 0.342976 0.936972
Si Si5 0.478999 0.566355 0.126712
Si Si6 0.363450 0.920836 0.814471
Si Si7 0.268042 0.198772 0.679793
Si Si8 0.085179 0.776571 0.334215
O O1 0.731332 0.578323 0.921554
O O2 0.864039 0.506569 0.804790
O O3 0.833782 0.642543 0.752060
O O4 0.914509 0.600429 0.951219
O O5 0.931393 0.145675 0.613125
O O6 0.920079 0.054130 0.442355
O O7 0.923305 0.008352 0.654081
O O8 0.122246 0.604437 0.317761
O O9 0.075381 0.716818 0.435485
O O10 0.945309 0.609521 0.400674
O O11 0.586725 0.380295 0.946221
O O12 0.762033 0.392195 0.862098
O O13 0.673873 0.265905 0.875144
O O14 0.721791 0.341291 0.070656
O O15 0.500000 0.602708 0.250000
O O16 0.186301 0.230072 0.765727
O O17 0.000000 0.755556 0.250000
#
# Coordination Sequence:
#
# PCOD8149614 Si02
#       8
#     8   8   8   8   8   8   8   8
#     4  11  25  42  69  98 132 169 224 283 323 396
#     4  10  24  39  62  96 129 170 214 267 328 388
#     4  11  24  42  70  96 128 170 230 270 337 395
#     4  11  22  44  66  94 138 174 217 265 336 401
#     4  11  24  40  63  97 128 169 216 267 326 391
#     4  11  23  44  67  96 129 180 213 280 337 399
#     4  10  24  41  66  97 130 182 220 266 335 398
#     4  11  19  40  64  92 129 174 218 270 319 399
#
# _framework density 21.571082000000001
#
# number of rings (size 3 to 8) (size 9 to 14) (size 15 to 20)
#    0.000    1.250    3.750    1.500    3.500    7.000 
#    0.000    0.000    0.000    0.000    0.000    0.000 
#    0.000    0.000    0.000    0.000    0.000    0.000 
#
# Total GULP energy -396787.441691 kJ/mol
# GULP energy per Si atom -12399.607553 kJ/mol
# Density = 2.152198 g / cm^3
# Si number density = 21.571082 Si / 1000 Ang^3
#
#
#
# Elastic Constant Matrix: (Units=GPa)
#
#
# Indices 1 2 3 4 5 6 
#
# 1 54.3687 21.0978 19.1274 0.0000 0.5578 0.0000
# 2 21.0978 142.7955 33.3541 0.0000 15.8281 0.0000
# 3 19.1274 33.3541 93.8414 0.0000 20.3059 0.0000
# 4 0.0000 0.0000 0.0000 27.6274 0.0000 4.1789
# 5 0.5578 15.8281 20.3059 0.0000 28.6889 0.0000
# 6 0.0000 0.0000 0.0000 4.1789 0.0000 -20.7493
#
#
#
# Elastic Compliance Matrix: (Units=1/GPa)
#
#
# Indices 1 2 3 4 5 6 
#
# 1 0.020813 -0.002534 -0.004200 0.000000 0.003966 0.000000
# 2 -0.002534 0.008128 -0.001668 0.000000 -0.003254 0.000000
# 3 -0.004200 -0.001668 0.014039 0.000000 -0.008934 0.000000
# 4 0.000000 0.000000 0.000000 0.035126 0.000000 0.007074
# 5 0.003966 -0.003254 -0.008934 0.000000 0.042899 0.000000
# 6 0.000000 0.000000 0.000000 0.007074 0.000000 -0.046770
#
#
# Mechanical properties :
#
#
# Convention : Reuss Voigt Hill
#
# Bulk Modulus (GPa) = 38.20336 48.68490 43.44413
# Shear Modulus (GPa) = 50.11879 21.60849 35.86364
#
# Velocity S-wave (km/s) = 4.82542 3.16845 4.08190
# Velocity P-wave (km/s) = 6.98535 6.00033 6.51149
#
# Compressibility (1/GPa) = 0.02617571
#
# Stress axis : x y z
#
# Youngs Moduli (GPa) = 48.04691 123.03529 71.23252
#
# Poissons Ratio (x) = 0.31173 0.29916
# Poissons Ratio (y) = 0.12174 0.11884
# Poissons Ratio (z) = 0.20179 0.20526
#
# Static dielectric constant tensor:
#      x y z
#    x 3.770730 0.000000 -0.074350 
#    y 0.000000 4.171390 0.000000 
#    z -0.074350 0.000000 3.759260 
# 
# 
# High freq. dielectric constant tensor:
#      x y z
#    x 1.839830 0.000000 -0.007620 
#    y 0.000000 1.866130 0.000000 
#    z -0.007620 0.000000 1.838650 
# 
# From -- ./inp_files/98777.got.cif
#   From: 2010.06.25/outbox.cif.g09.slc.cpg/sg15_50_cif.got.tgz:98777.got - 2010.06.28 07:06:18.
