data_PCOD8149064
_publ_section_title
;
Structure prediction by ZEFSAII (Michael W. Deem and Ramdas Pophale) SiO2 
 PCOD8149064
Probable space group: C 2/C
;
_chemical_formula_sum "Si O2"
_cell_formula_units_Z 40
_cell_length_a 4.816406
_cell_length_b 25.479542
_cell_length_c 13.215736
_cell_angle_alpha 90.000000
_cell_angle_beta 82.975679
_cell_angle_gamma 90.000000
_cell_volume 1609.659790
_symmetry_space_group_name_H-M "C 2/C"
_symmetry_group_IT_number 15
_symmetry_cell_setting 'monoclinic'
loop_
_space_group_symop_operation_xyz
x,y,z
-x,y,1/2-z
-x,-y,-z
x,-y,1/2+z
1/2+x,1/2+y,z
1/2-x,1/2+y,1/2-z
1/2-x,1/2-y,-z
1/2+x,1/2-y,1/2+z
loop_
_atom_site_type_symbol
_atom_site_label
_atom_site_fract_x
_atom_site_fract_y
_atom_site_fract_z
Si Si1 0.284468 0.941660 0.526139
Si Si2 0.798999 0.155324 0.850363
Si Si3 0.000000 0.266736 0.250000
Si Si4 0.000000 0.306072 0.750000
Si Si5 0.597172 0.540085 0.641486
Si Si6 0.293388 0.372608 0.563830
O O1 0.588152 0.915540 0.520433
O O2 0.172637 0.946395 0.416023
O O3 0.060123 0.904259 0.595950
O O4 0.305292 0.999138 0.577012
O O5 0.535692 0.194424 0.845814
O O6 0.738055 0.093529 0.835317
O O7 0.000000 0.175293 0.750000
O O8 0.894157 0.163684 0.963837
O O9 0.738620 0.229565 0.289108
O O10 0.139485 0.341221 0.657421
O O11 0.500000 0.512913 0.750000
#
# Coordination Sequence:
#
# PCOD8149064 Si02
#       6
#     8   8   4   4   8   8
#     4  10  23  44  64 108 138 185 226 270 339 421
#     4  10  24  46  69 102 135 178 224 288 339 406
#     4  12  26  48  71 100 137 174 248 292 350 408
#     4  12  28  48  69 104 133 186 238 290 356 404
#     4   9  21  40  69 103 141 183 222 276 338 414
#     4  11  26  45  73  97 146 179 230 284 342 416
#
# _framework density 24.849974
#
# number of rings (size 3 to 8) (size 9 to 14) (size 15 to 20)
#    0.000    1.600    1.000    1.200   11.200    8.800 
#    0.000    0.000    0.000    0.000    0.000    0.000 
#    0.000    0.000    0.000    0.000    0.000    0.000 
#
# Total GULP energy -247817.074470 kJ/mol
# GULP energy per Si atom -12390.853724 kJ/mol
# Density = 2.479341 g / cm^3
# Si number density = 24.849974 Si / 1000 Ang^3
#
#
#
# Elastic Constant Matrix: (Units=GPa)
#
#
# Indices 1 2 3 4 5 6 
#
# 1 74.4619 15.5885 -4.1091 0.0000 -7.0367 0.0000
# 2 15.5885 108.1217 40.6563 0.0000 -0.8311 0.0000
# 3 -4.1091 40.6563 137.0131 0.0000 -32.7697 0.0000
# 4 0.0000 0.0000 0.0000 16.5260 0.0000 13.0724
# 5 -7.0367 -0.8311 -32.7697 0.0000 32.2184 0.0000
# 6 0.0000 0.0000 0.0000 13.0724 0.0000 25.0292
#
#
#
# Elastic Compliance Matrix: (Units=1/GPa)
#
#
# Indices 1 2 3 4 5 6 
#
# 1 0.014814 -0.003149 0.002819 0.000000 0.006021 0.000000
# 2 -0.003149 0.011444 -0.004736 0.000000 -0.005210 0.000000
# 3 0.002819 -0.004736 0.011770 0.000000 0.012465 0.000000
# 4 0.000000 0.000000 0.000000 0.103110 0.000000 -0.053853
# 5 0.006021 -0.005210 0.012465 0.000000 0.044897 0.000000
# 6 0.000000 0.000000 0.000000 -0.053853 0.000000 0.068080
#
#
# Mechanical properties :
#
#
# Convention : Reuss Voigt Hill
#
# Bulk Modulus (GPa) = 35.85061 47.09646 41.47353
# Shear Modulus (GPa) = 18.27850 32.58545 25.43197
#
# Velocity S-wave (km/s) = 2.71505 3.62510 3.20257
# Velocity P-wave (km/s) = 4.92817 6.04278 5.51371
#
# Compressibility (1/GPa) = 0.02789353
#
# Stress axis : x y z
#
# Youngs Moduli (GPa) = 67.50547 87.38328 84.96369
#
# Poissons Ratio (x) = 0.27521 -0.23951
# Poissons Ratio (y) = 0.21261 0.40242
# Poissons Ratio (z) = -0.19030 0.41388
#
# Static dielectric constant tensor:
#      x y z
#    x 4.491900 0.000000 -0.075300 
#    y 0.000000 4.643290 0.000000 
#    z -0.075300 0.000000 4.590170 
# 
# 
# High freq. dielectric constant tensor:
#      x y z
#    x 1.985620 0.000000 -0.015380 
#    y 0.000000 1.997210 0.000000 
#    z -0.015380 0.000000 1.981900 
# 
# From -- ./inp_files/73257.got.cif
#   From: 2010.06.25/outbox.cif.g09.slc.cpg/sg15_37_cif.got.tgz:73257.got - 2010.06.28 07:06:18.
