data_PCOD8149620
_publ_section_title
;
Structure prediction by ZEFSAII (Michael W. Deem and Ramdas Pophale) SiO2 
 PCOD8149620
Probable space group: C 2/C
;
_chemical_formula_sum "Si O2"
_cell_formula_units_Z 56
_cell_length_a 30.054068
_cell_length_b 19.488653
_cell_length_c 8.800077
_cell_angle_alpha 90.000000
_cell_angle_beta 30.013195
_cell_angle_gamma 90.000000
_cell_volume 2578.189003
_symmetry_space_group_name_H-M "C 2/C"
_symmetry_group_IT_number 15
_symmetry_cell_setting 'monoclinic'
loop_
_space_group_symop_operation_xyz
x,y,z
-x,y,1/2-z
-x,-y,-z
x,-y,1/2+z
1/2+x,1/2+y,z
1/2-x,1/2+y,1/2-z
1/2-x,1/2-y,-z
1/2+x,1/2-y,1/2+z
loop_
_atom_site_type_symbol
_atom_site_label
_atom_site_fract_x
_atom_site_fract_y
_atom_site_fract_z
Si Si1 0.824713 0.241834 0.410081
Si Si2 0.500000 0.678907 0.750000
Si Si3 0.305267 0.128716 0.142159
Si Si4 0.625933 0.974781 0.623402
Si Si5 0.897820 0.972217 0.083217
Si Si6 0.628791 0.589366 0.531198
Si Si7 0.500000 0.988456 0.750000
Si Si8 0.267233 0.625728 0.817040
O O1 0.750000 0.250000 0.500000
O O2 0.856498 0.310066 0.406389
O O3 0.788170 0.188965 0.645314
O O4 0.917198 0.220616 0.060282
O O5 0.539665 0.633464 0.770120
O O6 0.211134 0.136138 0.332865
O O7 0.293250 0.145414 0.356988
O O8 0.350839 0.054902 0.978667
O O9 0.714961 0.931370 0.373884
O O10 0.567467 0.944551 0.655655
O O11 0.563341 0.965220 0.955649
O O12 0.886238 0.967232 0.295940
O O13 0.857970 0.906662 0.113127
O O14 0.000000 0.979058 0.750000
O O15 0.848751 0.043541 0.184074
#
# Coordination Sequence:
#
# PCOD8149620 Si02
#       8
#     8   4   8   8   8   8   4   8
#     4  12  28  47  70  97 139 184 236 288 347 416
#     4  12  26  47  66 100 137 182 236 288 346 421
#     4  11  24  46  69 101 137 184 229 278 348 416
#     4  11  22  44  71 107 137 185 228 296 346 412
#     4  11  22  36  64 106 135 172 209 280 338 403
#     4  11  23  37  67  98 139 169 229 270 343 409
#     4  10  24  39  66 108 147 170 240 294 346 395
#     4  11  25  44  74 100 139 181 224 282 353 411
#
# _framework density 21.720673000000001
#
# number of rings (size 3 to 8) (size 9 to 14) (size 15 to 20)
#    0.000    0.857    5.000    1.714    4.000    0.571 
#    2.571    0.000    1.571    0.000    0.000    0.000 
#    0.000    0.000    0.000    0.000    0.000    0.000 
#
# Total GULP energy -346953.176842 kJ/mol
# GULP energy per Si atom -12391.184887 kJ/mol
# Density = 2.167124 g / cm^3
# Si number density = 21.720673 Si / 1000 Ang^3
#
#
#
# Elastic Constant Matrix: (Units=GPa)
#
#
# Indices 1 2 3 4 5 6 
#
# 1 132.8601 47.3674 51.8645 0.0000 2.6345 0.0000
# 2 47.3674 112.7506 45.5283 0.0000 13.9498 0.0000
# 3 51.8645 45.5283 108.8143 0.0000 11.5492 0.0000
# 4 0.0000 0.0000 0.0000 33.1880 0.0000 2.5907
# 5 2.6345 13.9498 11.5492 0.0000 34.7207 0.0000
# 6 0.0000 0.0000 0.0000 2.5907 0.0000 43.8897
#
#
#
# Elastic Compliance Matrix: (Units=1/GPa)
#
#
# Indices 1 2 3 4 5 6 
#
# 1 0.009978 -0.002893 -0.003720 0.000000 0.001642 0.000000
# 2 -0.002893 0.011801 -0.003192 0.000000 -0.003460 0.000000
# 3 -0.003720 -0.003192 0.012576 0.000000 -0.002619 0.000000
# 4 0.000000 0.000000 0.000000 0.030271 0.000000 -0.001787
# 5 0.001642 -0.003460 -0.002619 0.000000 0.030938 0.000000
# 6 0.000000 0.000000 0.000000 -0.001787 0.000000 0.022890
#
#
# Mechanical properties :
#
#
# Convention : Reuss Voigt Hill
#
# Bulk Modulus (GPa) = 67.81083 71.54949 69.68016
# Shear Modulus (GPa) = 34.97057 36.33734 35.65395
#
# Velocity S-wave (km/s) = 4.01685 4.09459 4.05591
# Velocity P-wave (km/s) = 7.26641 7.44087 7.35416
#
# Compressibility (1/GPa) = 0.01474691
#
# Stress axis : x y z
#
# Youngs Moduli (GPa) = 100.22522 84.73617 79.51563
#
# Poissons Ratio (x) = 0.24513 0.29576
# Poissons Ratio (y) = 0.28994 0.25378
# Poissons Ratio (z) = 0.37279 0.27044
#
# Static dielectric constant tensor:
#      x y z
#    x 5.311610 0.000000 1.512380 
#    y 0.000000 3.798740 0.000000 
#    z 1.512380 0.000000 6.834900 
# 
# 
# High freq. dielectric constant tensor:
#      x y z
#    x 1.882610 0.000000 0.002610 
#    y 0.000000 1.827800 0.000000 
#    z 0.002610 0.000000 1.856190 
# 
# From -- ./inp_files/50378.got.cif
#   From: 2010.06.25/outbox.cif.g09.slc.cpg/sg15_26_cif.got.tgz:50378.got - 2010.06.28 07:06:18.
