data_PCOD8150877
_publ_section_title
;
Structure prediction by ZEFSAII (Michael W. Deem and Ramdas Pophale) SiO2 
 PCOD8150877
Probable space group: C 2/C
;
_chemical_formula_sum "Si O2"
_cell_formula_units_Z 44
_cell_length_a 12.592745
_cell_length_b 20.022922
_cell_length_c 8.097010
_cell_angle_alpha 90.000000
_cell_angle_beta 94.693912
_cell_angle_gamma 90.000000
_cell_volume 2034.761476
_symmetry_space_group_name_H-M "C 2/C"
_symmetry_group_IT_number 15
_symmetry_cell_setting 'monoclinic'
loop_
_space_group_symop_operation_xyz
x,y,z
-x,y,1/2-z
-x,-y,-z
x,-y,1/2+z
1/2+x,1/2+y,z
1/2-x,1/2+y,1/2-z
1/2-x,1/2-y,-z
1/2+x,1/2-y,1/2+z
loop_
_atom_site_type_symbol
_atom_site_label
_atom_site_fract_x
_atom_site_fract_y
_atom_site_fract_z
Si Si1 0.034017 0.322384 0.580326
Si Si2 0.749207 0.599962 0.405027
Si Si3 0.217412 0.973447 0.234106
Si Si4 0.551313 0.683353 0.431438
Si Si5 0.562119 0.939283 0.092618
Si Si6 0.000000 0.896073 0.250000
O O1 0.136708 0.368952 0.612397
O O2 0.049590 0.263049 0.452139
O O3 0.000000 0.289976 0.750000
O O4 0.939430 0.371921 0.515803
O O5 0.710062 0.554686 0.244528
O O6 0.749753 0.547758 0.555881
O O7 0.673413 0.661730 0.435616
O O8 0.313600 0.953068 0.367591
O O9 0.104731 0.942018 0.273159
O O10 0.500000 0.663215 0.250000
O O11 0.496519 0.647839 0.582109
O O12 0.500000 0.921306 0.250000
O O13 0.500000 0.000000 0.000000
#
# Coordination Sequence:
#
# PCOD8150877 Si02
#       6
#     8   8   8   8   8   4
#     4  12  25  44  69  98 142 185 239 289 354 422
#     4  11  26  43  69 103 138 184 228 297 356 422
#     4  11  24  43  70 100 145 173 238 288 359 413
#     4  11  26  48  70  97 143 188 243 286 350 418
#     4  12  22  40  65 103 139 178 227 291 357 415
#     4  10  26  48  70 104 140 190 236 294 344 426
#
# _framework density 21.624155999999999
#
# number of rings (size 3 to 8) (size 9 to 14) (size 15 to 20)
#    0.000    0.727    4.545    1.636    6.364    1.455 
#    0.000    1.818    0.000    0.000    0.000    0.000 
#    0.000    0.000    0.000    0.000    0.000    0.000 
#
# Total GULP energy -272750.620111 kJ/mol
# GULP energy per Si atom -12397.755460 kJ/mol
# Density = 2.157494 g / cm^3
# Si number density = 21.624156 Si / 1000 Ang^3
#
#
#
# Elastic Constant Matrix: (Units=GPa)
#
#
# Indices 1 2 3 4 5 6 
#
# 1 132.5709 41.1023 37.7671 0.0000 3.8518 0.0000
# 2 41.1023 101.5851 22.6288 0.0000 8.4484 0.0000
# 3 37.7671 22.6288 106.2239 0.0000 -0.0860 0.0000
# 4 0.0000 0.0000 0.0000 31.8714 0.0000 4.0705
# 5 3.8518 8.4484 -0.0860 0.0000 31.2076 0.0000
# 6 0.0000 0.0000 0.0000 4.0705 0.0000 28.4795
#
#
#
# Elastic Compliance Matrix: (Units=1/GPa)
#
#
# Indices 1 2 3 4 5 6 
#
# 1 0.009275 -0.003142 -0.002628 0.000000 -0.000301 0.000000
# 2 -0.003142 0.011650 -0.001367 0.000000 -0.002770 0.000000
# 3 -0.002628 -0.001367 0.010640 0.000000 0.000724 0.000000
# 4 0.000000 0.000000 0.000000 0.031959 0.000000 -0.004568
# 5 -0.000301 -0.002770 0.000724 0.000000 0.032833 0.000000
# 6 0.000000 0.000000 0.000000 -0.004568 0.000000 0.035766
#
#
# Mechanical properties :
#
#
# Convention : Reuss Voigt Hill
#
# Bulk Modulus (GPa) = 57.83565 60.37513 59.10539
# Shear Modulus (GPa) = 32.85977 34.23715 33.54846
#
# Velocity S-wave (km/s) = 3.90242 3.98336 3.94310
# Velocity P-wave (km/s) = 6.86360 7.00979 6.93708
#
# Compressibility (1/GPa) = 0.01729038
#
# Stress axis : x y z
#
# Youngs Moduli (GPa) = 107.81799 85.83581 93.98146
#
# Poissons Ratio (x) = 0.26971 0.24703
# Poissons Ratio (y) = 0.33878 0.12846
# Poissons Ratio (z) = 0.28340 0.11733
#
# Static dielectric constant tensor:
#      x y z
#    x 3.879210 0.000000 0.041850 
#    y 0.000000 3.903210 0.000000 
#    z 0.041850 0.000000 4.183170 
# 
# 
# High freq. dielectric constant tensor:
#      x y z
#    x 1.852660 0.000000 -0.006870 
#    y 0.000000 1.854990 0.000000 
#    z -0.006870 0.000000 1.857750 
# 
# From -- ./inp_files/39269.got.cif
#   From: 2010.06.25/outbox.cif.g09.slc.cpg/sg15_20_cif.got.tgz:39269.got - 2010.06.28 07:06:18.
