data_PCOD8150754
_publ_section_title
;
Structure prediction by ZEFSAII (Michael W. Deem and Ramdas Pophale) SiO2 
 PCOD8150754
Probable space group: C 2/C
;
_chemical_formula_sum "Si O2"
_cell_formula_units_Z 52
_cell_length_a 19.975903
_cell_length_b 11.403905
_cell_length_c 21.367612
_cell_angle_alpha 90.000000
_cell_angle_beta 30.328248
_cell_angle_gamma 90.000000
_cell_volume 2457.916690
_symmetry_space_group_name_H-M "C 2/C"
_symmetry_group_IT_number 15
_symmetry_cell_setting 'monoclinic'
loop_
_space_group_symop_operation_xyz
x,y,z
-x,y,1/2-z
-x,-y,-z
x,-y,1/2+z
1/2+x,1/2+y,z
1/2-x,1/2+y,1/2-z
1/2-x,1/2-y,-z
1/2+x,1/2-y,1/2+z
loop_
_atom_site_type_symbol
_atom_site_label
_atom_site_fract_x
_atom_site_fract_y
_atom_site_fract_z
Si Si1 0.719196 0.705880 0.656912
Si Si2 0.591414 0.889776 0.236625
Si Si3 0.867694 0.479683 0.958961
Si Si4 0.886444 0.976728 0.176892
Si Si5 0.181975 0.042622 0.399621
Si Si6 0.869211 0.122766 0.315779
Si Si7 0.000000 0.682294 0.250000
O O1 0.825589 0.610041 0.547085
O O2 0.650571 0.656816 0.775385
O O3 0.802176 0.819624 0.605891
O O4 0.599756 0.731040 0.705386
O O5 0.500000 0.911015 0.250000
O O6 0.643312 0.757588 0.195529
O O7 0.495817 0.936094 0.370884
O O8 0.717959 0.974477 0.135366
O O9 0.906751 0.398239 0.868586
O O10 0.748758 0.574612 0.044031
O O11 0.794764 0.011517 0.192003
O O12 0.859474 0.055022 0.258971
O O13 0.037753 0.995216 0.037100
O O14 0.000000 0.099050 0.250000
#
# Coordination Sequence:
#
# PCOD8150754 Si02
#       7
#     8   8   8   8   8   8   4
#     4  11  24  41  68  99 135 168 221 277 329 396
#     4  11  24  42  67  99 128 175 220 272 332 383
#     4  11  23  41  63 106 128 174 220 267 342 383
#     4  10  26  45  66  97 128 184 217 266 340 384
#     4  11  24  45  68  91 136 171 225 272 324 406
#     4  10  26  41  67  96 137 174 224 273 324 397
#     4  12  22  40  70 102 136 172 218 276 338 382
#
# _framework density 21.156129
#
# number of rings (size 3 to 8) (size 9 to 14) (size 15 to 20)
#    0.000    1.231    2.308    1.385   12.923    1.231 
#    0.000    3.077    0.000    0.000    0.000    0.000 
#    0.000    0.000    0.000    0.000    0.000    0.000 
#
# Total GULP energy -322138.268269 kJ/mol
# GULP energy per Si atom -12389.933395 kJ/mol
# Density = 2.110798 g / cm^3
# Si number density = 21.156129 Si / 1000 Ang^3
#
#
#
# Elastic Constant Matrix: (Units=GPa)
#
#
# Indices 1 2 3 4 5 6 
#
# 1 78.6284 36.4536 32.0206 -0.0001 4.0469 0.0002
# 2 36.4536 142.8749 47.3303 -0.0001 -4.1518 0.0003
# 3 32.0206 47.3303 107.1919 -0.0002 -4.9933 0.0003
# 4 -0.0001 -0.0001 -0.0002 40.6293 0.0002 12.6815
# 5 4.0469 -4.1518 -4.9933 0.0002 30.1863 -0.0003
# 6 0.0002 0.0003 0.0003 12.6815 -0.0003 11.0889
#
#
#
# Elastic Compliance Matrix: (Units=1/GPa)
#
#
# Indices 1 2 3 4 5 6 
#
# 1 0.015669 -0.002916 -0.003537 0.000000 -0.003087 0.000000
# 2 -0.002916 0.008749 -0.002941 0.000000 0.001108 0.000000
# 3 -0.003537 -0.002941 0.011778 0.000000 0.002018 0.000000
# 4 0.000000 0.000000 0.000000 0.038275 -0.000001 -0.043772
# 5 -0.003087 0.001108 0.002018 -0.000001 0.034028 0.000002
# 6 0.000000 0.000000 0.000000 -0.043772 0.000002 0.140239
#
#
# Mechanical properties :
#
#
# Convention : Reuss Voigt Hill
#
# Bulk Modulus (GPa) = 57.43949 62.25600 59.84774
# Shear Modulus (GPa) = 18.29301 30.57362 24.43331
#
# Velocity S-wave (km/s) = 2.94371 3.80563 3.40208
# Velocity P-wave (km/s) = 6.22601 6.98579 6.61681
#
# Compressibility (1/GPa) = 0.01740963
#
# Stress axis : x y z
#
# Youngs Moduli (GPa) = 63.81946 114.29304 84.90341
#
# Poissons Ratio (x) = 0.33326 0.30031
# Poissons Ratio (y) = 0.18609 0.24967
# Poissons Ratio (z) = 0.22573 0.33610
#
# Static dielectric constant tensor:
#      x y z
#    x 3.698580 0.000000 0.051650 
#    y 0.000000 4.253800 0.000000 
#    z 0.051650 0.000000 4.442040 
# 
# 
# High freq. dielectric constant tensor:
#      x y z
#    x 1.806260 0.000000 -0.006000 
#    y 0.000000 1.850100 0.000000 
#    z -0.006000 0.000000 1.843770 
# 
# From -- ./inp_files/252731.got.cif
#   From: 2010.06.25/outbox.cif.g09.slc.cpg/sg15_127_cif.got.tgz:252731.got - 2010.06.28 07:06:18.
