data_PCOD8150467
_publ_section_title
;
Structure prediction by ZEFSAII (Michael W. Deem and Ramdas Pophale) SiO2 
 PCOD8150467
Probable space group: C 2/C
;
_chemical_formula_sum "Si O2"
_cell_formula_units_Z 44
_cell_length_a 29.429919
_cell_length_b 10.294316
_cell_length_c 8.085428
_cell_angle_alpha 90.000000
_cell_angle_beta 56.452064
_cell_angle_gamma 90.000000
_cell_volume 2041.528525
_symmetry_space_group_name_H-M "C 2/C"
_symmetry_group_IT_number 15
_symmetry_cell_setting 'monoclinic'
loop_
_space_group_symop_operation_xyz
x,y,z
-x,y,1/2-z
-x,-y,-z
x,-y,1/2+z
1/2+x,1/2+y,z
1/2-x,1/2+y,1/2-z
1/2-x,1/2-y,-z
1/2+x,1/2-y,1/2+z
loop_
_atom_site_type_symbol
_atom_site_label
_atom_site_fract_x
_atom_site_fract_y
_atom_site_fract_z
Si Si1 0.192440 0.316940 0.638480
Si Si2 0.353694 0.996704 0.523789
Si Si3 0.424459 0.872574 0.131809
Si Si4 0.561886 0.615607 0.597350
Si Si5 0.906459 0.152579 0.598392
Si Si6 0.000000 0.677554 0.750000
O O1 0.250000 0.250000 0.500000
O O2 0.193657 0.438881 0.763087
O O3 0.170005 0.371031 0.508207
O O4 0.153087 0.212738 0.804093
O O5 0.370719 0.888383 0.355008
O O6 0.411148 0.028793 0.507185
O O7 0.478461 0.906543 0.134716
O O8 0.432307 0.726931 0.051564
O O9 0.500000 0.571414 0.750000
O O10 0.583334 0.664813 0.727786
O O11 0.595778 0.494704 0.459564
O O12 0.949852 0.232623 0.405826
#
# Coordination Sequence:
#
# PCOD8150467 Si02
#       6
#     8   8   8   8   8   4
#     4  11  25  48  72  97 132 177 229 281 341 395
#     4  10  24  48  67  98 139 171 228 284 326 417
#     4  11  23  42  67  96 141 180 217 277 340 396
#     4  12  23  40  65 100 139 175 223 280 332 401
#     4  12  24  41  66 100 137 175 225 279 336 398
#     4  12  22  40  68 102 136 186 216 270 344 408
#
# _framework density 21.552479999999999
#
# number of rings (size 3 to 8) (size 9 to 14) (size 15 to 20)
#    0.000    0.727    6.364    1.636    0.000    2.182 
#    1.636    1.818    0.000    0.000    0.000    0.000 
#    0.000    0.000    0.000    0.000    0.000    0.000 
#
# Total GULP energy -272660.972119 kJ/mol
# GULP energy per Si atom -12393.680551 kJ/mol
# Density = 2.150343 g / cm^3
# Si number density = 21.552480 Si / 1000 Ang^3
#
#
#
# Elastic Constant Matrix: (Units=GPa)
#
#
# Indices 1 2 3 4 5 6 
#
# 1 94.1917 36.4579 55.0655 0.0000 1.3975 0.0000
# 2 36.4579 102.9951 58.5248 0.0000 -4.7883 0.0000
# 3 55.0655 58.5248 115.7358 0.0000 -9.9006 0.0000
# 4 0.0000 0.0000 0.0000 13.1100 0.0000 -7.8488
# 5 1.3975 -4.7883 -9.9006 0.0000 41.6551 0.0000
# 6 0.0000 0.0000 0.0000 -7.8488 0.0000 24.6306
#
#
#
# Elastic Compliance Matrix: (Units=1/GPa)
#
#
# Indices 1 2 3 4 5 6 
#
# 1 0.015134 -0.001769 -0.006499 0.000000 -0.002256 0.000000
# 2 -0.001769 0.013831 -0.006136 0.000000 0.000191 0.000000
# 3 -0.006499 -0.006136 0.015101 0.000000 0.003102 0.000000
# 4 0.000000 0.000000 0.000000 0.094261 0.000000 0.030037
# 5 -0.002256 0.000191 0.003102 0.000000 0.024842 0.000000
# 6 0.000000 0.000000 0.000000 0.030037 0.000000 0.050172
#
#
# Mechanical properties :
#
#
# Convention : Reuss Voigt Hill
#
# Bulk Modulus (GPa) = 65.54073 68.11322 66.82698
# Shear Modulus (GPa) = 20.22380 26.73745 23.48062
#
# Velocity S-wave (km/s) = 3.06658 3.52600 3.30428
# Velocity P-wave (km/s) = 6.55853 6.94614 6.75512
#
# Compressibility (1/GPa) = 0.01525769
#
# Stress axis : x y z
#
# Youngs Moduli (GPa) = 66.07512 72.30193 66.22236
#
# Poissons Ratio (x) = 0.12791 0.43038
# Poissons Ratio (y) = 0.11689 0.40633
# Poissons Ratio (z) = 0.42943 0.44364
#
# Static dielectric constant tensor:
#      x y z
#    x 4.000330 0.000000 0.387460 
#    y 0.000000 3.824050 0.000000 
#    z 0.387460 0.000000 4.108570 
# 
# 
# High freq. dielectric constant tensor:
#      x y z
#    x 1.829540 0.000000 0.031480 
#    y 0.000000 1.846340 0.000000 
#    z 0.031480 0.000000 1.853730 
# 
# From -- ./inp_files/68975.got.cif
#   From: 2010.06.25/outbox.cif.g09.slc.cpg/sg15_35_cif.got.tgz:68975.got - 2010.06.28 07:06:18.
