data_PCOD8150392
_publ_section_title
;
Structure prediction by ZEFSAII (Michael W. Deem and Ramdas Pophale) SiO2 
 PCOD8150392
Probable space group: C 2/C
;
_chemical_formula_sum "Si O2"
_cell_formula_units_Z 48
_cell_length_a 17.405069
_cell_length_b 7.875637
_cell_length_c 17.328115
_cell_angle_alpha 90.000000
_cell_angle_beta 69.858708
_cell_angle_gamma 90.000000
_cell_volume 2230.012404
_symmetry_space_group_name_H-M "C 2/C"
_symmetry_group_IT_number 15
_symmetry_cell_setting 'monoclinic'
loop_
_space_group_symop_operation_xyz
x,y,z
-x,y,1/2-z
-x,-y,-z
x,-y,1/2+z
1/2+x,1/2+y,z
1/2-x,1/2+y,1/2-z
1/2-x,1/2-y,-z
1/2+x,1/2-y,1/2+z
loop_
_atom_site_type_symbol
_atom_site_label
_atom_site_fract_x
_atom_site_fract_y
_atom_site_fract_z
Si Si1 0.325266 0.150516 0.941984
Si Si2 0.160812 0.694402 0.004529
Si Si3 0.357070 0.292956 0.662594
Si Si4 0.803461 0.482788 0.785183
Si Si5 0.027744 0.851678 0.665193
Si Si6 0.081574 0.783018 0.185973
O O1 0.407309 0.260846 0.911362
O O2 0.342086 0.008183 0.000026
O O3 0.301257 0.080119 0.866833
O O4 0.250000 0.250000 0.000000
O O5 0.092919 0.744171 0.091450
O O6 0.250000 0.750000 0.000000
O O7 0.141903 0.773633 0.929356
O O8 0.286982 0.427421 0.712070
O O9 0.444322 0.383547 0.647181
O O10 0.344770 0.108760 0.708132
O O11 0.848129 0.300533 0.784598
O O12 0.000000 0.739198 0.750000
O O13 0.073366 0.012893 0.689964
O O14 0.000000 0.699457 0.250000
#
# Coordination Sequence:
#
# PCOD8150392 Si02
#       6
#     8   8   8   8   8   8
#     4  11  24  44  72 100 143 192 233 292 364 423
#     4  11  23  45  71 101 143 189 238 293 355 429
#     4  12  27  45  72 111 143 184 248 294 356 435
#     4  11  27  44  73 101 144 189 236 296 361 428
#     4  11  25  45  71 104 144 183 243 295 351 425
#     4  10  24  46  73  94 140 191 231 287 368 411
#
# _framework density 21.524543000000001
#
# number of rings (size 3 to 8) (size 9 to 14) (size 15 to 20)
#    0.000    1.000    5.000    1.000   11.667    1.333 
#    0.000    0.000    0.000    0.000    0.000    0.000 
#    0.000    0.000    0.000    0.000    0.000    0.000 
#
# Total GULP energy -297353.559543 kJ/mol
# GULP energy per Si atom -12389.731648 kJ/mol
# Density = 2.147555 g / cm^3
# Si number density = 21.524543 Si / 1000 Ang^3
#
#
#
# Elastic Constant Matrix: (Units=GPa)
#
#
# Indices 1 2 3 4 5 6 
#
# 1 138.4032 39.9448 37.6724 0.0000 -18.6794 0.0000
# 2 39.9448 87.3826 18.2895 0.0000 -18.0537 -0.0002
# 3 37.6724 18.2895 119.2328 0.0000 -17.0087 0.0000
# 4 0.0000 0.0000 0.0000 34.7389 0.0000 -3.5790
# 5 -18.6794 -18.0537 -17.0087 0.0000 45.3193 0.0000
# 6 0.0000 -0.0002 0.0000 -3.5790 0.0000 26.7997
#
#
#
# Elastic Compliance Matrix: (Units=1/GPa)
#
#
# Indices 1 2 3 4 5 6 
#
# 1 0.008972 -0.003336 -0.002098 0.000000 0.001582 0.000000
# 2 -0.003336 0.013896 -0.000511 0.000000 0.003969 0.000000
# 3 -0.002098 -0.000511 0.009483 0.000000 0.002491 0.000000
# 4 0.000000 0.000000 0.000000 0.029188 0.000000 0.003898
# 5 0.001582 0.003969 0.002491 0.000000 0.025234 0.000000
# 6 0.000000 0.000000 0.000000 0.003898 0.000000 0.037834
#
#
# Mechanical properties :
#
#
# Convention : Reuss Voigt Hill
#
# Bulk Modulus (GPa) = 48.87003 59.64801 54.25902
# Shear Modulus (GPa) = 34.88757 37.97904 36.43330
#
# Velocity S-wave (km/s) = 4.03032 4.20510 4.11863
# Velocity P-wave (km/s) = 6.66420 7.16581 6.91955
#
# Compressibility (1/GPa) = 0.02046244
#
# Stress axis : x y z
#
# Youngs Moduli (GPa) = 111.45240 71.96444 105.44657
#
# Poissons Ratio (x) = 0.24005 0.22118
# Poissons Ratio (y) = 0.37176 0.05393
# Poissons Ratio (z) = 0.23378 0.03681
#
# Static dielectric constant tensor:
#      x y z
#    x 4.214770 0.000000 0.064190 
#    y 0.000000 4.011450 0.000000 
#    z 0.064190 0.000000 4.261520 
# 
# 
# High freq. dielectric constant tensor:
#      x y z
#    x 1.840230 0.000000 -0.014520 
#    y 0.000000 1.844070 0.000000 
#    z -0.014520 0.000000 1.860150 
# 
# From -- ./inp_files/208922.got.cif
#   From: 2010.06.25/outbox.cif.g09.slc.cpg/sg15_105_cif.got.tgz:208922.got - 2010.06.28 07:06:18.
