data_PCOD8150613
_publ_section_title
;
Structure prediction by ZEFSAII (Michael W. Deem and Ramdas Pophale) SiO2 
 PCOD8150613
Probable space group: C 2/C
;
_chemical_formula_sum "Si O2"
_cell_formula_units_Z 40
_cell_length_a 9.721391
_cell_length_b 18.827941
_cell_length_c 10.866956
_cell_angle_alpha 90.000000
_cell_angle_beta 121.547038
_cell_angle_gamma 90.000000
_cell_volume 1695.064562
_symmetry_space_group_name_H-M "C 2/C"
_symmetry_group_IT_number 15
_symmetry_cell_setting 'monoclinic'
loop_
_space_group_symop_operation_xyz
x,y,z
-x,y,1/2-z
-x,-y,-z
x,-y,1/2+z
1/2+x,1/2+y,z
1/2-x,1/2+y,1/2-z
1/2-x,1/2-y,-z
1/2+x,1/2-y,1/2+z
loop_
_atom_site_type_symbol
_atom_site_label
_atom_site_fract_x
_atom_site_fract_y
_atom_site_fract_z
Si Si1 0.863133 0.608091 0.843039
Si Si2 0.641111 0.685645 0.571777
Si Si3 0.307744 0.154376 0.413479
Si Si4 0.111130 0.910241 0.410722
Si Si5 0.820628 0.543944 0.215246
O O1 0.811209 0.661110 0.710451
O O2 0.763140 0.629429 0.918561
O O3 0.814929 0.527478 0.789738
O O4 0.053451 0.609821 0.951922
O O5 0.618635 0.769010 0.585923
O O6 0.654485 0.666233 0.432566
O O7 0.489908 0.647810 0.562623
O O8 0.259602 0.110332 0.269701
O O9 0.189333 0.966238 0.543283
O O10 0.000000 0.945759 0.250000
O O11 0.000000 0.559870 0.250000
#
# Coordination Sequence:
#
# PCOD8150613 Si02
#       5
#     8   8   8   8   8
#     4  11  24  46  72  98 142 184 235 288 347 423
#     4  10  25  44  68 103 143 185 227 294 351 412
#     4  11  24  44  72 102 139 187 239 285 347 420
#     4  10  25  47  66 103 140 179 227 289 354 404
#     4  12  25  43  76 104 135 190 241 287 350 422
#
# _framework density 23.597919999999998
#
# number of rings (size 3 to 8) (size 9 to 14) (size 15 to 20)
#    0.000    1.200    2.000    2.400    5.600    7.200 
#    3.600    0.000    0.000    0.000    0.000    0.000 
#    0.000    0.000    0.000    0.000    0.000    0.000 
#
# Total GULP energy -247953.576368 kJ/mol
# GULP energy per Si atom -12397.678818 kJ/mol
# Density = 2.354421 g / cm^3
# Si number density = 23.597920 Si / 1000 Ang^3
#
#
#
# Elastic Constant Matrix: (Units=GPa)
#
#
# Indices 1 2 3 4 5 6 
#
# 1 111.1020 40.0403 35.3184 0.0000 -23.2932 0.0000
# 2 40.0403 118.5651 48.7813 0.0000 -5.8847 0.0000
# 3 35.3184 48.7813 136.9259 0.0000 8.2876 0.0000
# 4 0.0000 0.0000 0.0000 27.3523 0.0000 0.5803
# 5 -23.2932 -5.8847 8.2876 0.0000 32.1243 0.0000
# 6 0.0000 0.0000 0.0000 0.5803 0.0000 24.8273
#
#
#
# Elastic Compliance Matrix: (Units=1/GPa)
#
#
# Indices 1 2 3 4 5 6 
#
# 1 0.012929 -0.002665 -0.002970 0.000000 0.009653 0.000000
# 2 -0.002665 0.010679 -0.003168 0.000000 0.000841 0.000000
# 3 -0.002970 -0.003168 0.009512 0.000000 -0.005187 0.000000
# 4 0.000000 0.000000 0.000000 0.036578 0.000000 -0.000855
# 5 0.009653 0.000841 -0.005187 0.000000 0.039621 0.000000
# 6 0.000000 0.000000 0.000000 -0.000855 0.000000 0.040298
#
#
# Mechanical properties :
#
#
# Convention : Reuss Voigt Hill
#
# Bulk Modulus (GPa) = 64.45660 68.31924 66.38792
# Shear Modulus (GPa) = 29.00319 33.02431 31.01375
#
# Velocity S-wave (km/s) = 3.50959 3.74499 3.62920
# Velocity P-wave (km/s) = 6.61792 6.90755 6.76428
#
# Compressibility (1/GPa) = 0.01551432
#
# Stress axis : x y z
#
# Youngs Moduli (GPa) = 77.34516 93.63744 105.13227
#
# Poissons Ratio (x) = 0.24958 0.31220
# Poissons Ratio (y) = 0.20615 0.33307
# Poissons Ratio (z) = 0.22968 0.29665
#
# Static dielectric constant tensor:
#      x y z
#    x 4.493890 0.000000 -0.174550 
#    y 0.000000 3.930780 0.000000 
#    z -0.174550 0.000000 4.541160 
# 
# 
# High freq. dielectric constant tensor:
#      x y z
#    x 1.950640 0.000000 -0.011900 
#    y 0.000000 1.912910 0.000000 
#    z -0.011900 0.000000 1.939750 
# 
# From -- ./inp_files/87600.got.cif
#   From: 2010.06.25/outbox.cif.g09.slc.cpg/sg15_44_cif.got.tgz:87600.got - 2010.06.28 07:06:18.
