data_PCOD8150461
_publ_section_title
;
Structure prediction by ZEFSAII (Michael W. Deem and Ramdas Pophale) SiO2 
 PCOD8150461
Probable space group: C 2/C
;
_chemical_formula_sum "Si O2"
_cell_formula_units_Z 52
_cell_length_a 27.864215
_cell_length_b 11.408069
_cell_length_c 9.385897
_cell_angle_alpha 90.000000
_cell_angle_beta 129.697806
_cell_angle_gamma 90.000000
_cell_volume 2295.622500
_symmetry_space_group_name_H-M "C 2/C"
_symmetry_group_IT_number 15
_symmetry_cell_setting 'monoclinic'
loop_
_space_group_symop_operation_xyz
x,y,z
-x,y,1/2-z
-x,-y,-z
x,-y,1/2+z
1/2+x,1/2+y,z
1/2-x,1/2+y,1/2-z
1/2-x,1/2-y,-z
1/2+x,1/2-y,1/2+z
loop_
_atom_site_type_symbol
_atom_site_label
_atom_site_fract_x
_atom_site_fract_y
_atom_site_fract_z
Si Si1 0.046095 0.023201 0.464244
Si Si2 0.849908 0.147991 0.401268
Si Si3 0.854123 0.194663 0.733509
Si Si4 0.919366 0.571990 0.350282
Si Si5 0.249903 0.526527 0.618733
Si Si6 0.676953 0.099833 0.741171
Si Si7 0.000000 0.497854 0.250000
O O1 0.086225 0.904283 0.537398
O O2 0.000000 0.051985 0.250000
O O3 0.092178 0.132838 0.572678
O O4 0.000000 0.000000 0.500000
O O5 0.866402 0.172580 0.593486
O O6 0.796078 0.051677 0.298532
O O7 0.827688 0.259662 0.266661
O O8 0.863033 0.334782 0.767390
O O9 0.785111 0.149370 0.646780
O O10 0.888839 0.445497 0.323237
O O11 0.951222 0.577778 0.252223
O O12 0.969150 0.586994 0.572839
O O13 0.190249 0.558329 0.603257
O O14 0.231438 0.449689 0.446321
#
# Coordination Sequence:
#
# PCOD8150461 Si02
#       7
#     8   8   8   8   8   8   4
#     4  11  24  45  69  99 134 178 230 283 343 403
#     4  11  24  44  69 102 136 183 230 275 351 409
#     4  11  24  43  72 102 137 181 229 285 342 418
#     4  11  25  45  71 102 136 181 236 270 357 405
#     4  11  25  45  69 102 142 176 230 287 344 403
#     4  12  25  45  72 100 140 184 227 285 340 420
#     4  10  24  48  66 100 146 176 224 300 328 414
#
# _framework density 22.651807999999999
#
# number of rings (size 3 to 8) (size 9 to 14) (size 15 to 20)
#    0.000    0.923    3.077    3.231    3.231    4.923 
#    6.923    0.000    0.000    0.000    0.000    0.000 
#    0.000    0.000    0.000    0.000    0.000    0.000 
#
# Total GULP energy -322279.207092 kJ/mol
# GULP energy per Si atom -12395.354119 kJ/mol
# Density = 2.260025 g / cm^3
# Si number density = 22.651808 Si / 1000 Ang^3
#
#
#
# Elastic Constant Matrix: (Units=GPa)
#
#
# Indices 1 2 3 4 5 6 
#
# 1 133.7057 32.3554 28.7824 0.0000 -9.6714 0.0000
# 2 32.3554 100.9902 22.5657 0.0000 -5.3673 0.0000
# 3 28.7824 22.5657 102.8625 0.0000 -11.8368 0.0000
# 4 0.0000 0.0000 0.0000 23.6049 0.0000 4.2201
# 5 -9.6714 -5.3673 -11.8368 0.0000 33.0952 0.0000
# 6 0.0000 0.0000 0.0000 4.2201 0.0000 33.4161
#
#
#
# Elastic Compliance Matrix: (Units=1/GPa)
#
#
# Indices 1 2 3 4 5 6 
#
# 1 0.008504 -0.002262 -0.001710 0.000000 0.001507 0.000000
# 2 -0.002262 0.011041 -0.001730 0.000000 0.000511 0.000000
# 3 -0.001710 -0.001730 0.010940 0.000000 0.003133 0.000000
# 4 0.000000 0.000000 0.000000 0.043343 0.000000 -0.005474
# 5 0.001507 0.000511 0.003133 0.000000 0.031859 0.000000
# 6 0.000000 0.000000 0.000000 -0.005474 0.000000 0.030617
#
#
# Mechanical properties :
#
#
# Convention : Reuss Voigt Hill
#
# Bulk Modulus (GPa) = 52.41183 56.10727 54.25955
# Shear Modulus (GPa) = 32.45325 34.94689 33.70007
#
# Velocity S-wave (km/s) = 3.78921 3.93209 3.86131
# Velocity P-wave (km/s) = 6.50634 6.74080 6.62460
#
# Compressibility (1/GPa) = 0.01907966
#
# Stress axis : x y z
#
# Youngs Moduli (GPa) = 117.59724 90.57560 91.40601
#
# Poissons Ratio (x) = 0.20491 0.15628
# Poissons Ratio (y) = 0.26604 0.15816
# Poissons Ratio (z) = 0.20106 0.15672
#
# Static dielectric constant tensor:
#      x y z
#    x 4.067850 0.000000 0.065280 
#    y 0.000000 4.131250 0.000000 
#    z 0.065280 0.000000 4.221450 
# 
# 
# High freq. dielectric constant tensor:
#      x y z
#    x 1.899170 0.000000 0.005580 
#    y 0.000000 1.881810 0.000000 
#    z 0.005580 0.000000 1.913670 
# 
# From -- ./inp_files/65621.got.cif
#   From: 2010.06.25/outbox.cif.g09.slc.cpg/sg15_33_cif.got.tgz:65621.got - 2010.06.28 07:06:18.
