data_PCOD8150351
_publ_section_title
;
Structure prediction by ZEFSAII (Michael W. Deem and Ramdas Pophale) SiO2 
 PCOD8150351
Probable space group: C 2/C
;
_chemical_formula_sum "Si O2"
_cell_formula_units_Z 44
_cell_length_a 25.479272
_cell_length_b 7.662739
_cell_length_c 15.610192
_cell_angle_alpha 90.000000
_cell_angle_beta 40.329670
_cell_angle_gamma 90.000000
_cell_volume 1972.456751
_symmetry_space_group_name_H-M "C 2/C"
_symmetry_group_IT_number 15
_symmetry_cell_setting 'monoclinic'
loop_
_space_group_symop_operation_xyz
x,y,z
-x,y,1/2-z
-x,-y,-z
x,-y,1/2+z
1/2+x,1/2+y,z
1/2-x,1/2+y,1/2-z
1/2-x,1/2-y,-z
1/2+x,1/2-y,1/2+z
loop_
_atom_site_type_symbol
_atom_site_label
_atom_site_fract_x
_atom_site_fract_y
_atom_site_fract_z
Si Si1 0.736503 0.043295 0.112184
Si Si2 0.053043 0.543963 0.351659
Si Si3 0.854330 0.754999 0.026570
Si Si4 0.500000 0.147568 0.750000
Si Si5 0.742540 0.449750 0.113767
Si Si6 0.921329 0.110121 0.615615
O O1 0.645717 0.979107 0.246130
O O2 0.754865 0.243225 0.117744
O O3 0.794748 0.918429 0.093217
O O4 0.752893 0.013008 0.992038
O O5 0.012175 0.472473 0.317374
O O6 0.056732 0.753988 0.336111
O O7 0.000000 0.500000 0.500000
O O8 0.808875 0.567682 0.079751
O O9 0.898670 0.771236 0.062001
O O10 0.921252 0.765961 0.867232
O O11 0.653950 0.508000 0.259216
O O12 0.000000 0.000000 0.500000
#
# Coordination Sequence:
#
# PCOD8150351 Si02
#       6
#     8   8   8   4   8   8
#     4  10  24  46  72 106 135 187 240 296 362 438
#     4  11  24  47  72 102 147 182 241 304 358 437
#     4  12  26  44  76 102 142 194 239 295 368 437
#     4  12  26  44  74 110 136 198 244 290 380 430
#     4  10  24  46  70 101 144 182 241 294 361 434
#     4  11  28  46  68 111 145 190 242 304 363 432
#
# _framework density 22.307206999999998
#
# number of rings (size 3 to 8) (size 9 to 14) (size 15 to 20)
#    0.000    1.091    3.636    0.545   10.182    1.455 
#    0.000    0.909    0.000    0.000    0.000    0.000 
#    0.000    0.000    0.000    0.000    0.000    0.000 
#
# Total GULP energy -272788.100238 kJ/mol
# GULP energy per Si atom -12399.459102 kJ/mol
# Density = 2.225643 g / cm^3
# Si number density = 22.307207 Si / 1000 Ang^3
#
#
#
# Elastic Constant Matrix: (Units=GPa)
#
#
# Indices 1 2 3 4 5 6 
#
# 1 105.5551 57.9223 55.0897 0.0177 -8.8394 -0.0074
# 2 57.9223 97.5517 38.9802 -0.0038 -16.0333 -0.0097
# 3 55.0897 38.9802 200.4975 0.0063 -28.8415 -0.0147
# 4 0.0177 -0.0038 0.0063 37.4963 -0.0071 -6.8056
# 5 -8.8394 -16.0333 -28.8415 -0.0071 43.3931 0.0060
# 6 -0.0074 -0.0097 -0.0147 -6.8056 0.0060 39.4515
#
#
#
# Elastic Compliance Matrix: (Units=1/GPa)
#
#
# Indices 1 2 3 4 5 6 
#
# 1 0.015361 -0.008274 -0.002877 -0.000008 -0.001840 -0.000001
# 2 -0.008274 0.015924 -0.000242 0.000007 0.004038 0.000003
# 3 -0.002877 -0.000242 0.006333 0.000001 0.003534 0.000001
# 4 -0.000008 0.000007 0.000001 0.027531 0.000006 0.004749
# 5 -0.001840 0.004038 0.003534 0.000006 0.026511 -0.000001
# 6 -0.000001 0.000003 0.000001 0.004749 -0.000001 0.026167
#
#
# Mechanical properties :
#
#
# Convention : Reuss Voigt Hill
#
# Bulk Modulus (GPa) = 67.41355 78.62097 73.01726
# Shear Modulus (GPa) = 34.35079 40.84233 37.59656
#
# Velocity S-wave (km/s) = 3.92841 4.28355 4.10982
# Velocity P-wave (km/s) = 7.13181 7.73215 7.43804
#
# Compressibility (1/GPa) = 0.01483381
#
# Stress axis : x y z
#
# Youngs Moduli (GPa) = 65.09897 62.79906 157.89209
#
# Poissons Ratio (x) = 0.51958 0.45423
# Poissons Ratio (y) = 0.53861 0.03817
# Poissons Ratio (z) = 0.18728 0.01518
#
# Static dielectric constant tensor:
#      x y z
#    x 3.948740 0.000620 -0.137760 
#    y 0.000620 4.283020 0.000020 
#    z -0.137760 0.000020 4.564840 
# 
# 
# High freq. dielectric constant tensor:
#      x y z
#    x 1.870590 0.000000 -0.007450 
#    y 0.000000 1.870440 0.000000 
#    z -0.007450 0.000000 1.909960 
# 
# From -- ./inp_files/176443.got.cif
#   From: 2010.06.25/outbox.cif.g09.slc.cpg/sg15_89_cif.got.tgz:176443.got - 2010.06.28 07:06:18.
