data_PCOD8150104
_publ_section_title
;
Structure prediction by ZEFSAII (Michael W. Deem and Ramdas Pophale) SiO2 
 PCOD8150104
Probable space group: C 2/C
;
_chemical_formula_sum "Si O2"
_cell_formula_units_Z 60
_cell_length_a 14.671032
_cell_length_b 11.312991
_cell_length_c 18.074498
_cell_angle_alpha 90.000000
_cell_angle_beta 111.074866
_cell_angle_gamma 90.000000
_cell_volume 2799.225135
_symmetry_space_group_name_H-M "C 2/C"
_symmetry_group_IT_number 15
_symmetry_cell_setting 'monoclinic'
loop_
_space_group_symop_operation_xyz
x,y,z
-x,y,1/2-z
-x,-y,-z
x,-y,1/2+z
1/2+x,1/2+y,z
1/2-x,1/2+y,1/2-z
1/2-x,1/2-y,-z
1/2+x,1/2-y,1/2+z
loop_
_atom_site_type_symbol
_atom_site_label
_atom_site_fract_x
_atom_site_fract_y
_atom_site_fract_z
Si Si1 0.645810 0.363681 0.220260
Si Si2 0.353318 0.090059 0.756959
Si Si3 0.640185 0.027259 0.088938
Si Si4 0.556018 0.844141 0.952528
Si Si5 0.000000 0.219986 0.250000
Si Si6 0.971253 0.910031 0.056353
Si Si7 0.859494 0.038338 0.145870
Si Si8 0.396044 0.154220 0.198576
O O1 0.742694 0.383933 0.199477
O O2 0.558096 0.370009 0.136447
O O3 0.626105 0.464264 0.275145
O O4 0.671093 0.240241 0.271275
O O5 0.424163 0.200940 0.772577
O O6 0.350683 0.063885 0.842355
O O7 0.390114 0.982273 0.718276
O O8 0.560377 0.126564 0.087257
O O9 0.747216 0.084620 0.105445
O O10 0.608206 0.949945 0.009884
O O11 0.565416 0.713447 0.991737
O O12 0.614403 0.836166 0.892226
O O13 0.063381 0.145553 0.327441
O O14 0.883952 0.964349 0.079443
O O15 0.000000 0.000000 0.000000
O O16 0.500000 0.208474 0.250000
#
# Coordination Sequence:
#
# PCOD8150104 Si02
#       8
#     8   8   8   8   4   8   8   8
#     4  11  23  43  69  97 130 176 228 274 329 405
#     4  11  25  40  69 101 129 173 229 282 338 399
#     4  10  24  44  67 100 132 173 223 287 342 398
#     4  11  23  43  72  94 136 177 229 282 335 405
#     4  12  24  40  66 100 136 172 220 292 332 400
#     4  12  25  42  64  98 137 178 221 275 343 404
#     4  11  24  44  66  95 138 177 219 273 346 396
#     4  12  20  43  72  95 124 176 236 271 327 406
#
# _framework density 21.434502999999999
#
# number of rings (size 3 to 8) (size 9 to 14) (size 15 to 20)
#    0.000    0.800    6.000    0.000    7.467    1.600 
#    2.400    0.667    0.000    0.000    0.000    0.000 
#    0.000    0.000    0.000    0.000    0.000    0.000 
#
# Total GULP energy -371859.555058 kJ/mol
# GULP energy per Si atom -12395.318502 kJ/mol
# Density = 2.138572 g / cm^3
# Si number density = 21.434503 Si / 1000 Ang^3
#
#
#
# Elastic Constant Matrix: (Units=GPa)
#
#
# Indices 1 2 3 4 5 6 
#
# 1 112.9712 36.4410 27.5877 0.0000 2.2762 0.0000
# 2 36.4410 118.7736 25.4638 0.0000 -2.0051 0.0000
# 3 27.5877 25.4638 66.7498 0.0000 -11.4442 0.0000
# 4 0.0000 0.0000 0.0000 19.4808 0.0000 7.6402
# 5 2.2762 -2.0051 -11.4442 0.0000 24.1761 0.0000
# 6 0.0000 0.0000 0.0000 7.6402 0.0000 11.4790
#
#
#
# Elastic Compliance Matrix: (Units=1/GPa)
#
#
# Indices 1 2 3 4 5 6 
#
# 1 0.010691 -0.002473 -0.004008 0.000000 -0.003109 0.000000
# 2 -0.002473 0.009763 -0.002746 0.000000 -0.000257 0.000000
# 3 -0.004008 -0.002746 0.019276 0.000000 0.009274 0.000000
# 4 0.000000 0.000000 0.000000 0.069465 0.000000 -0.046235
# 5 -0.003109 -0.000257 0.009274 0.000000 0.046025 0.000000
# 6 0.000000 0.000000 0.000000 -0.046235 0.000000 0.117888
#
#
# Mechanical properties :
#
#
# Convention : Reuss Voigt Hill
#
# Bulk Modulus (GPa) = 47.00581 53.05329 50.02955
# Shear Modulus (GPa) = 16.74179 24.96066 20.85123
#
# Velocity S-wave (km/s) = 2.79779 3.41619 3.12234
# Velocity P-wave (km/s) = 5.69337 6.35339 6.03241
#
# Compressibility (1/GPa) = 0.02127397
#
# Stress axis : x y z
#
# Youngs Moduli (GPa) = 93.53608 102.43151 51.87929
#
# Poissons Ratio (x) = 0.25335 0.20794
# Poissons Ratio (y) = 0.23134 0.14247
# Poissons Ratio (z) = 0.37490 0.28129
#
# Static dielectric constant tensor:
#      x y z
#    x 4.196690 0.000000 0.063420 
#    y 0.000000 3.942210 0.000000 
#    z 0.063420 0.000000 3.661830 
# 
# 
# High freq. dielectric constant tensor:
#      x y z
#    x 1.852280 0.000000 -0.003500 
#    y 0.000000 1.849110 0.000000 
#    z -0.003500 0.000000 1.821460 
# 
# From -- ./inp_files/204511.got.cif
#   From: 2010.06.25/outbox.cif.g09.slc.cpg/sg15_103_cif.got.tgz:204511.got - 2010.06.28 07:06:18.
