data_PCOD8150243
_publ_section_title
;
Structure prediction by ZEFSAII (Michael W. Deem and Ramdas Pophale) SiO2 
 PCOD8150243
Probable space group: C 2/C
;
_chemical_formula_sum "Si O2"
_cell_formula_units_Z 44
_cell_length_a 11.200981
_cell_length_b 8.552707
_cell_length_c 25.993980
_cell_angle_alpha 90.000000
_cell_angle_beta 130.193242
_cell_angle_gamma 90.000000
_cell_volume 1902.186583
_symmetry_space_group_name_H-M "C 2/C"
_symmetry_group_IT_number 15
_symmetry_cell_setting 'monoclinic'
loop_
_space_group_symop_operation_xyz
x,y,z
-x,y,1/2-z
-x,-y,-z
x,-y,1/2+z
1/2+x,1/2+y,z
1/2-x,1/2+y,1/2-z
1/2-x,1/2-y,-z
1/2+x,1/2-y,1/2+z
loop_
_atom_site_type_symbol
_atom_site_label
_atom_site_fract_x
_atom_site_fract_y
_atom_site_fract_z
Si Si1 0.000000 0.202368 0.250000
Si Si2 0.253069 0.938926 0.206347
Si Si3 0.827450 0.788662 0.213227
Si Si4 0.529774 0.840563 0.073709
Si Si5 0.561650 0.569133 0.378997
Si Si6 0.846336 0.377363 0.495084
O O1 0.153277 0.310359 0.300046
O O2 0.005735 0.103149 0.304521
O O3 0.339634 0.105054 0.227933
O O4 0.074156 0.953540 0.136550
O O5 0.258143 0.881249 0.265808
O O6 0.715923 0.831914 0.135170
O O7 0.000000 0.854230 0.250000
O O8 0.435286 0.721185 0.083431
O O9 0.531982 0.802108 0.012608
O O10 0.449376 0.010577 0.061058
O O11 0.727738 0.488085 0.430018
O O12 0.750000 0.250000 0.500000
#
# Coordination Sequence:
#
# PCOD8150243 Si02
#       6
#     4   8   8   8   8   8
#     4  12  24  42  68 102 142 180 222 284 354 420
#     4  11  23  39  65 100 135 181 216 276 344 416
#     4  11  23  39  66  99 139 175 220 277 340 410
#     4  10  24  45  68 101 136 178 233 283 340 415
#     4  11  26  44  69 102 139 182 225 286 350 412
#     4  11  26  46  73  97 132 188 237 293 335 402
#
# _framework density 23.131276
#
# number of rings (size 3 to 8) (size 9 to 14) (size 15 to 20)
#    0.000    1.091    4.545    1.636    3.818    9.455 
#    0.000    0.000    0.000    0.000    0.000    0.000 
#    0.000    0.000    0.000    0.000    0.000    0.000 
#
# Total GULP energy -272584.824056 kJ/mol
# GULP energy per Si atom -12390.219275 kJ/mol
# Density = 2.307863 g / cm^3
# Si number density = 23.131276 Si / 1000 Ang^3
#
#
#
# Elastic Constant Matrix: (Units=GPa)
#
#
# Indices 1 2 3 4 5 6 
#
# 1 103.2551 38.9429 18.4767 0.0000 -0.4794 0.0000
# 2 38.9429 95.5825 37.4049 0.0000 0.4321 0.0000
# 3 18.4767 37.4049 65.0158 0.0000 4.8700 0.0000
# 4 0.0000 0.0000 0.0000 -44.4618 0.0000 -25.9167
# 5 -0.4794 0.4321 4.8700 0.0000 37.0890 0.0000
# 6 0.0000 0.0000 0.0000 -25.9167 0.0000 25.3686
#
#
#
# Elastic Compliance Matrix: (Units=1/GPa)
#
#
# Indices 1 2 3 4 5 6 
#
# 1 0.011474 -0.004377 -0.000765 0.000000 0.000300 0.000000
# 2 -0.004377 0.015199 -0.007558 0.000000 0.000759 0.000000
# 3 -0.000765 -0.007558 0.020139 0.000000 -0.002566 0.000000
# 4 0.000000 0.000000 0.000000 -0.014097 0.000000 -0.014401
# 5 0.000300 0.000759 -0.002566 0.000000 0.027294 0.000000
# 6 0.000000 0.000000 0.000000 -0.014401 0.000000 0.024706
#
#
# Mechanical properties :
#
#
# Convention : Reuss Voigt Hill
#
# Bulk Modulus (GPa) = 46.70070 50.38914 48.54492
# Shear Modulus (GPa) = 42.64320 14.86775 28.75547
#
# Velocity S-wave (km/s) = 4.29829 2.53801 3.52965
# Velocity P-wave (km/s) = 6.69828 5.51543 6.13543
#
# Compressibility (1/GPa) = 0.02141296
#
# Stress axis : x y z
#
# Youngs Moduli (GPa) = 87.15570 65.79198 49.65591
#
# Poissons Ratio (x) = 0.28794 0.03800
# Poissons Ratio (y) = 0.38145 0.37528
# Poissons Ratio (z) = 0.06669 0.49723
#
# Static dielectric constant tensor:
#      x y z
#    x 4.083490 0.000000 -0.108680 
#    y 0.000000 4.225630 0.000000 
#    z -0.108680 0.000000 3.760390 
# 
# 
# High freq. dielectric constant tensor:
#      x y z
#    x 1.934440 0.000000 0.008420 
#    y 0.000000 1.915740 0.000000 
#    z 0.008420 0.000000 1.896950 
# 
# From -- ./inp_files/236044.got.cif
#   From: 2010.06.25/outbox.cif.g09.slc.cpg/sg15_119_cif.got.tgz:236044.got - 2010.06.28 07:06:18.
