data_PCOD8150808
_publ_section_title
;
Structure prediction by ZEFSAII (Michael W. Deem and Ramdas Pophale) SiO2 
 PCOD8150808
Probable space group: C 2/C
;
_chemical_formula_sum "Si O2"
_cell_formula_units_Z 36
_cell_length_a 18.739912
_cell_length_b 7.842701
_cell_length_c 21.362493
_cell_angle_alpha 90.000000
_cell_angle_beta 151.407119
_cell_angle_gamma 90.000000
_cell_volume 1502.595877
_symmetry_space_group_name_H-M "C 2/C"
_symmetry_group_IT_number 15
_symmetry_cell_setting 'monoclinic'
loop_
_space_group_symop_operation_xyz
x,y,z
-x,y,1/2-z
-x,-y,-z
x,-y,1/2+z
1/2+x,1/2+y,z
1/2-x,1/2+y,1/2-z
1/2-x,1/2-y,-z
1/2+x,1/2-y,1/2+z
loop_
_atom_site_type_symbol
_atom_site_label
_atom_site_fract_x
_atom_site_fract_y
_atom_site_fract_z
Si Si1 0.128882 0.793841 0.692871
Si Si2 0.074512 0.929505 0.428125
Si Si3 0.026609 0.310367 0.545402
Si Si4 0.000000 0.776910 0.250000
Si Si5 0.123486 0.545210 0.798335
O O1 0.300115 0.792575 0.805681
O O2 0.097805 0.624483 0.710234
O O3 0.026366 0.806655 0.552623
O O4 0.082620 0.966661 0.693292
O O5 0.103323 0.883440 0.377218
O O6 0.063534 0.759110 0.463251
O O7 0.205094 0.064252 0.547423
O O8 0.000000 0.500000 0.500000
O O9 0.101425 0.660197 0.281915
O O10 0.000000 0.629730 0.750000
#
# Coordination Sequence:
#
# PCOD8150808 Si02
#       5
#     8   8   8   4   8
#     4  12  26  47  74 106 146 191 241 306 358 432
#     4  12  26  48  73 107 147 188 248 294 369 427
#     4  12  28  45  76 106 147 190 244 301 367 432
#     4  10  26  44  74 100 148 190 236 300 356 430
#     4  10  26  46  70 104 146 188 247 290 360 431
#
# _framework density 23.958535999999999
#
# number of rings (size 3 to 8) (size 9 to 14) (size 15 to 20)
#    0.667    0.000    2.222    4.000   10.889    2.667 
#    0.000    0.000    0.000    0.000    0.000    0.000 
#    0.000    0.000    0.000    0.000    0.000    0.000 
#
# Total GULP energy -223034.646460 kJ/mol
# GULP energy per Si atom -12390.813692 kJ/mol
# Density = 2.390401 g / cm^3
# Si number density = 23.958536 Si / 1000 Ang^3
#
#
#
# Elastic Constant Matrix: (Units=GPa)
#
#
# Indices 1 2 3 4 5 6 
#
# 1 110.7904 36.1236 47.9265 0.0003 -10.0995 0.0001
# 2 36.1236 88.7742 25.0229 0.0003 -9.0307 0.0001
# 3 47.9265 25.0229 116.6076 0.0019 -3.3756 0.0005
# 4 0.0003 0.0003 0.0019 37.0394 0.0004 -3.0935
# 5 -10.0995 -9.0307 -3.3756 0.0004 51.7393 0.0001
# 6 0.0001 0.0001 0.0005 -3.0935 0.0001 38.0962
#
#
#
# Elastic Compliance Matrix: (Units=1/GPa)
#
#
# Indices 1 2 3 4 5 6 
#
# 1 0.012144 -0.003616 -0.004173 0.000000 0.001467 0.000000
# 2 -0.003616 0.013262 -0.001315 0.000000 0.001523 0.000000
# 3 -0.004173 -0.001315 0.010563 0.000000 -0.000355 0.000000
# 4 0.000000 0.000000 0.000000 0.027183 0.000000 0.002207
# 5 0.001467 0.001523 -0.000355 0.000000 0.019857 0.000000
# 6 0.000000 0.000000 0.000000 0.002207 0.000000 0.026429
#
#
# Mechanical properties :
#
#
# Convention : Reuss Voigt Hill
#
# Bulk Modulus (GPa) = 56.30734 59.36869 57.83802
# Shear Modulus (GPa) = 37.43492 39.18159 38.30826
#
# Velocity S-wave (km/s) = 3.95712 4.04838 4.00301
# Velocity P-wave (km/s) = 6.66569 6.83272 6.74972
#
# Compressibility (1/GPa) = 0.01775967
#
# Stress axis : x y z
#
# Youngs Moduli (GPa) = 82.34563 75.40492 94.67165
#
# Poissons Ratio (x) = 0.27267 0.39504
# Poissons Ratio (y) = 0.29777 0.12454
# Poissons Ratio (z) = 0.34361 0.09919
#
# Static dielectric constant tensor:
#      x y z
#    x 4.120930 0.000000 -0.075830 
#    y 0.000000 4.160290 0.000000 
#    z -0.075830 0.000000 4.495040 
# 
# 
# High freq. dielectric constant tensor:
#      x y z
#    x 1.949280 0.000000 -0.002800 
#    y 0.000000 1.940390 0.000000 
#    z -0.002800 0.000000 1.955770 
# 
# From -- ./inp_files/247923.got.cif
#   From: 2010.06.25/outbox.cif.g09.slc.cpg/sg15_124_cif.got.tgz:247923.got - 2010.06.28 07:06:18.
