data_PCOD8150673
_publ_section_title
;
Structure prediction by ZEFSAII (Michael W. Deem and Ramdas Pophale) SiO2 
 PCOD8150673
Probable space group: C 2/C
;
_chemical_formula_sum "Si O2"
_cell_formula_units_Z 48
_cell_length_a 24.996499
_cell_length_b 9.543997
_cell_length_c 13.896582
_cell_angle_alpha 90.000000
_cell_angle_beta 40.464735
_cell_angle_gamma 90.000000
_cell_volume 2151.536521
_symmetry_space_group_name_H-M "C 2/C"
_symmetry_group_IT_number 15
_symmetry_cell_setting 'monoclinic'
loop_
_space_group_symop_operation_xyz
x,y,z
-x,y,1/2-z
-x,-y,-z
x,-y,1/2+z
1/2+x,1/2+y,z
1/2-x,1/2+y,1/2-z
1/2-x,1/2-y,-z
1/2+x,1/2-y,1/2+z
loop_
_atom_site_type_symbol
_atom_site_label
_atom_site_fract_x
_atom_site_fract_y
_atom_site_fract_z
Si Si1 0.162489 0.825544 0.593076
Si Si2 0.331737 0.117974 0.067668
Si Si3 0.143727 0.803101 0.826941
Si Si4 0.406207 0.893609 0.849124
Si Si5 0.595897 0.993636 0.857832
Si Si6 0.408688 0.414459 0.401367
O O1 0.250000 0.750000 0.500000
O O2 0.120989 0.720551 0.572542
O O3 0.112411 0.846354 0.761820
O O4 0.161657 0.975637 0.538394
O O5 0.237526 0.154244 0.210463
O O6 0.372225 0.131780 0.117471
O O7 0.344135 0.960039 0.011634
O O8 0.136250 0.636161 0.841701
O O9 0.093871 0.881904 0.979991
O O10 0.500000 0.929189 0.750000
O O11 0.379924 0.960131 0.783793
O O12 0.391550 0.727791 0.866399
O O13 0.500000 0.000000 0.000000
O O14 0.500000 0.472170 0.250000
#
# Coordination Sequence:
#
# PCOD8150673 Si02
#       6
#     8   8   8   8   8   8
#     4  10  25  46  68 100 145 186 238 292 357 435
#     4  11  24  42  72 104 142 192 236 297 354 430
#     4  11  25  43  72 100 148 186 239 297 361 424
#     4  11  22  43  72 108 144 183 245 299 354 425
#     4  12  23  43  76 105 140 193 243 292 358 432
#     4  11  25  45  69 104 145 180 237 309 361 422
#
# _framework density 22.309636000000001
#
# number of rings (size 3 to 8) (size 9 to 14) (size 15 to 20)
#    0.000    1.000    5.000    1.000    4.667    4.000 
#    3.000    4.167    0.000    0.000    0.000    0.000 
#    0.000    0.000    0.000    0.000    0.000    0.000 
#
# Total GULP energy -297389.576048 kJ/mol
# GULP energy per Si atom -12391.232335 kJ/mol
# Density = 2.225886 g / cm^3
# Si number density = 22.309636 Si / 1000 Ang^3
#
#
#
# Elastic Constant Matrix: (Units=GPa)
#
#
# Indices 1 2 3 4 5 6 
#
# 1 138.7673 64.3822 62.1752 -0.0001 28.1902 0.0001
# 2 64.3822 121.4156 40.8792 0.0007 -0.4825 -0.0004
# 3 62.1752 40.8792 112.1243 0.0000 22.3124 0.0000
# 4 -0.0001 0.0007 0.0000 36.9500 -0.0001 4.6932
# 5 28.1902 -0.4825 22.3124 -0.0001 54.0949 0.0000
# 6 0.0001 -0.0004 0.0000 4.6932 0.0000 45.4872
#
#
#
# Elastic Compliance Matrix: (Units=1/GPa)
#
#
# Indices 1 2 3 4 5 6 
#
# 1 0.012433 -0.005264 -0.004005 0.000000 -0.004874 0.000000
# 2 -0.005264 0.011751 -0.002105 0.000000 0.003716 0.000000
# 3 -0.004005 -0.002105 0.012523 0.000000 -0.003097 0.000000
# 4 0.000000 0.000000 0.000000 0.027423 0.000000 -0.002829
# 5 -0.004874 0.003716 -0.003097 0.000000 0.022337 0.000000
# 6 0.000000 0.000000 0.000000 -0.002829 0.000000 0.022276
#
#
# Mechanical properties :
#
#
# Convention : Reuss Voigt Hill
#
# Bulk Modulus (GPa) = 71.63592 78.57560 75.10576
# Shear Modulus (GPa) = 36.72572 40.96446 38.84509
#
# Velocity S-wave (km/s) = 4.06172 4.28971 4.17727
# Velocity P-wave (km/s) = 7.36046 7.73514 7.55012
#
# Compressibility (1/GPa) = 0.01395948
#
# Stress axis : x y z
#
# Youngs Moduli (GPa) = 80.42944 85.10098 79.84994
#
# Poissons Ratio (x) = 0.44794 0.31984
# Poissons Ratio (y) = 0.42335 0.16807
# Poissons Ratio (z) = 0.32216 0.17912
#
# Static dielectric constant tensor:
#      x y z
#    x 3.676440 0.000000 0.161620 
#    y 0.000000 4.302820 0.000000 
#    z 0.161620 0.000000 3.903850 
# 
# 
# High freq. dielectric constant tensor:
#      x y z
#    x 1.880880 0.000000 0.031370 
#    y 0.000000 1.873950 0.000000 
#    z 0.031370 0.000000 1.881220 
# 
# From -- ./inp_files/176853.got.cif
#   From: 2010.06.25/outbox.cif.g09.slc.cpg/sg15_89_cif.got.tgz:176853.got - 2010.06.28 07:06:18.
