data_PCOD8150802
_publ_section_title
;
Structure prediction by ZEFSAII (Michael W. Deem and Ramdas Pophale) SiO2 
 PCOD8150802
Probable space group: C 2/C
;
_chemical_formula_sum "Si O2"
_cell_formula_units_Z 60
_cell_length_a 20.783338
_cell_length_b 22.000354
_cell_length_c 9.139301
_cell_angle_alpha 90.000000
_cell_angle_beta 38.107192
_cell_angle_gamma 90.000000
_cell_volume 2578.920067
_symmetry_space_group_name_H-M "C 2/C"
_symmetry_group_IT_number 15
_symmetry_cell_setting 'monoclinic'
loop_
_space_group_symop_operation_xyz
x,y,z
-x,y,1/2-z
-x,-y,-z
x,-y,1/2+z
1/2+x,1/2+y,z
1/2-x,1/2+y,1/2-z
1/2-x,1/2-y,-z
1/2+x,1/2-y,1/2+z
loop_
_atom_site_type_symbol
_atom_site_label
_atom_site_fract_x
_atom_site_fract_y
_atom_site_fract_z
Si Si1 0.000000 0.016377 0.750000
Si Si2 0.387048 0.255568 0.394218
Si Si3 0.923303 0.082144 0.173383
Si Si4 0.921269 0.510676 0.266963
Si Si5 0.678788 0.123006 0.946902
Si Si6 0.812739 0.392092 0.401319
Si Si7 0.198308 0.728325 0.444155
Si Si8 0.395903 0.675872 0.580789
O O1 0.056676 0.059567 0.529319
O O2 0.923775 0.973647 0.789112
O O3 0.500000 0.276206 0.250000
O O4 0.380863 0.182940 0.393453
O O5 0.292740 0.280545 0.661146
O O6 0.372876 0.283286 0.261304
O O7 0.811574 0.112788 0.376652
O O8 0.999952 0.135733 0.093118
O O9 0.847843 0.569849 0.390066
O O10 0.847705 0.452717 0.422175
O O11 0.000000 0.525450 0.250000
O O12 0.000000 0.500000 0.000000
O O13 0.643836 0.108914 0.842202
O O14 0.803220 0.127745 0.728796
O O15 0.856941 0.335809 0.418654
O O16 0.250000 0.750000 0.500000
O O17 0.110668 0.776507 0.544629
#
# Coordination Sequence:
#
# PCOD8150802 Si02
#       8
#     4   8   8   8   8   8   8   8
#     4  10  26  44  70 108 150 200 246 290 390 444
#     4  11  24  45  73 103 146 198 244 301 370 444
#     4  11  26  47  73 110 152 194 248 309 376 454
#     4  12  28  49  75 105 139 193 248 305 367 435
#     4  11  24  48  73 102 148 189 244 306 368 437
#     4  12  26  46  77 107 148 188 246 311 371 446
#     4  11  23  46  71 108 142 190 246 303 372 438
#     4  11  25  47  74 110 150 196 245 305 377 449
#
# _framework density 23.265554000000002
#
# number of rings (size 3 to 8) (size 9 to 14) (size 15 to 20)
#    0.000    0.800    4.000    3.600    8.400    2.133 
#    2.400    0.000    2.933    0.000    0.000    0.000 
#    0.000    0.000    0.000    0.000    0.000    0.000 
#
# Total GULP energy -371863.481014 kJ/mol
# GULP energy per Si atom -12395.449367 kJ/mol
# Density = 2.321260 g / cm^3
# Si number density = 23.265554 Si / 1000 Ang^3
#
#
#
# Elastic Constant Matrix: (Units=GPa)
#
#
# Indices 1 2 3 4 5 6 
#
# 1 69.4465 31.7695 27.1858 0.0000 7.1115 0.0000
# 2 31.7695 158.0147 53.5575 0.0000 11.8888 0.0000
# 3 27.1858 53.5575 86.3727 0.0000 10.2455 0.0000
# 4 0.0000 0.0000 0.0000 38.8752 0.0000 7.8472
# 5 7.1115 11.8888 10.2455 0.0000 46.3274 0.0000
# 6 0.0000 0.0000 0.0000 7.8472 0.0000 31.8303
#
#
#
# Elastic Compliance Matrix: (Units=1/GPa)
#
#
# Indices 1 2 3 4 5 6 
#
# 1 0.016985 -0.001975 -0.003976 0.000000 -0.001221 0.000000
# 2 -0.001975 0.008286 -0.004416 0.000000 -0.000847 0.000000
# 3 -0.003976 -0.004416 0.015774 0.000000 -0.001745 0.000000
# 4 0.000000 0.000000 0.000000 0.027070 0.000000 -0.006674
# 5 -0.001221 -0.000847 -0.001745 0.000000 0.022376 0.000000
# 6 0.000000 0.000000 0.000000 -0.006674 0.000000 0.033062
#
#
# Mechanical properties :
#
#
# Convention : Reuss Voigt Hill
#
# Bulk Modulus (GPa) = 49.23576 59.87326 54.55451
# Shear Modulus (GPa) = 33.09970 36.82799 34.96384
#
# Velocity S-wave (km/s) = 3.77595 3.98293 3.88082
# Velocity P-wave (km/s) = 6.34183 6.85144 6.60156
#
# Compressibility (1/GPa) = 0.02031044
#
# Stress axis : x y z
#
# Youngs Moduli (GPa) = 58.87610 120.68465 63.39383
#
# Poissons Ratio (x) = 0.23838 0.25207
# Poissons Ratio (y) = 0.11630 0.27994
# Poissons Ratio (z) = 0.23411 0.53292
#
# Static dielectric constant tensor:
#      x y z
#    x 4.476440 0.000000 0.091280 
#    y 0.000000 4.519780 0.000000 
#    z 0.091280 0.000000 4.095780 
# 
# 
# High freq. dielectric constant tensor:
#      x y z
#    x 1.922340 0.000000 0.008520 
#    y 0.000000 1.934340 0.000000 
#    z 0.008520 0.000000 1.922950 
# 
# From -- ./inp_files/58733.got.cif
#   From: 2010.06.25/outbox.cif.g09.slc.cpg/sg15_30_cif.got.tgz:58733.got - 2010.06.28 07:06:18.
