data_PCOD8150058
_publ_section_title
;
Structure prediction by ZEFSAII (Michael W. Deem and Ramdas Pophale) SiO2 
 PCOD8150058
Probable space group: C 2/C
;
_chemical_formula_sum "Si O2"
_cell_formula_units_Z 64
_cell_length_a 9.449682
_cell_length_b 28.762648
_cell_length_c 14.924177
_cell_angle_alpha 90.000000
_cell_angle_beta 48.927490
_cell_angle_gamma 90.000000
_cell_volume 3058.003155
_symmetry_space_group_name_H-M "C 2/C"
_symmetry_group_IT_number 15
_symmetry_cell_setting 'monoclinic'
loop_
_space_group_symop_operation_xyz
x,y,z
-x,y,1/2-z
-x,-y,-z
x,-y,1/2+z
1/2+x,1/2+y,z
1/2-x,1/2+y,1/2-z
1/2-x,1/2-y,-z
1/2+x,1/2-y,1/2+z
loop_
_atom_site_type_symbol
_atom_site_label
_atom_site_fract_x
_atom_site_fract_y
_atom_site_fract_z
Si Si1 0.499149 0.691257 0.106096
Si Si2 0.032547 0.412590 0.001364
Si Si3 0.141249 0.432241 0.613139
Si Si4 0.167700 0.461980 0.115276
Si Si5 0.313796 0.354732 0.284674
Si Si6 0.960778 0.887628 0.043141
Si Si7 0.651553 0.228653 0.954213
Si Si8 0.213308 0.323630 0.873184
O O1 0.454493 0.731786 0.056017
O O2 0.669532 0.705722 0.101424
O O3 0.311350 0.679621 0.237430
O O4 0.560642 0.643874 0.034419
O O5 0.863789 0.386307 0.121205
O O6 0.113894 0.451344 0.034513
O O7 0.966368 0.435633 0.936433
O O8 0.201023 0.377050 0.909505
O O9 0.211787 0.483661 0.608592
O O10 0.319484 0.397884 0.528265
O O11 0.000000 0.413912 0.750000
O O12 0.354328 0.435705 0.069662
O O13 0.000000 0.446221 0.250000
O O14 0.500000 0.377257 0.250000
O O15 0.357649 0.356158 0.161111
O O16 0.287202 0.301641 0.332677
O O17 0.750000 0.250000 0.000000
O O18 0.495077 0.194302 0.056967
#
# Coordination Sequence:
#
# PCOD8150058 Si02
#       8
#     8   8   8   8   8   8   8   8
#     4  11  24  42  67  89 132 172 217 265 325 396
#     4  11  21  44  67  91 134 174 215 270 329 393
#     4  11  25  42  66 100 137 176 224 272 333 395
#     4  11  23  42  68 103 134 171 223 277 331 396
#     4  11  23  41  68  98 128 168 223 265 336 387
#     4  12  23  43  70  96 135 176 217 278 327 399
#     4  11  26  43  67  98 131 167 216 280 325 396
#     4  10  24  44  62  93 127 171 220 262 325 397
#
# _framework density 20.928691000000001
#
# number of rings (size 3 to 8) (size 9 to 14) (size 15 to 20)
#    0.000    1.000    3.750    2.625    5.250    0.000 
#    0.000    0.000    2.750    0.000    0.000    0.000 
#    0.000    0.000    0.000    0.000    0.000    0.000 
#
# Total GULP energy -396800.549711 kJ/mol
# GULP energy per Si atom -12400.017178 kJ/mol
# Density = 2.088106 g / cm^3
# Si number density = 20.928691 Si / 1000 Ang^3
#
#
#
# Elastic Constant Matrix: (Units=GPa)
#
#
# Indices 1 2 3 4 5 6 
#
# 1 85.1036 9.9171 36.0607 0.0000 9.6641 0.0000
# 2 9.9171 67.7503 32.1124 0.0000 3.1347 0.0000
# 3 36.0607 32.1124 109.0303 0.0000 7.5443 0.0000
# 4 0.0000 0.0000 0.0000 23.3506 0.0000 2.8499
# 5 9.6641 3.1347 7.5443 0.0000 35.5767 0.0000
# 6 0.0000 0.0000 0.0000 2.8499 0.0000 36.7827
#
#
#
# Elastic Compliance Matrix: (Units=1/GPa)
#
#
# Indices 1 2 3 4 5 6 
#
# 1 0.013948 0.000213 -0.004478 0.000000 -0.002858 0.000000
# 2 0.000213 0.017165 -0.005092 0.000000 -0.000491 0.000000
# 3 -0.004478 -0.005092 0.012217 0.000000 -0.000926 0.000000
# 4 0.000000 0.000000 0.000000 0.043234 0.000000 -0.003350
# 5 -0.002858 -0.000491 -0.000926 0.000000 0.029124 0.000000
# 6 0.000000 0.000000 0.000000 -0.003350 0.000000 0.027446
#
#
# Mechanical properties :
#
#
# Convention : Reuss Voigt Hill
#
# Bulk Modulus (GPa) = 40.62525 46.45164 43.53845
# Shear Modulus (GPa) = 29.40258 31.39495 30.39877
#
# Velocity S-wave (km/s) = 3.75226 3.87730 3.81529
# Velocity P-wave (km/s) = 6.18272 6.50292 6.34484
#
# Compressibility (1/GPa) = 0.02461523
#
# Stress axis : x y z
#
# Youngs Moduli (GPa) = 71.69716 58.25750 81.85545
#
# Poissons Ratio (x) = -0.01242 0.36655
# Poissons Ratio (y) = -0.01528 0.41682
# Poissons Ratio (z) = 0.32106 0.29666
#
# Static dielectric constant tensor:
#      x y z
#    x 3.818060 0.000000 -0.038230 
#    y 0.000000 3.646920 0.000000 
#    z -0.038230 0.000000 3.985750 
# 
# 
# High freq. dielectric constant tensor:
#      x y z
#    x 1.826910 0.000000 0.001520 
#    y 0.000000 1.810810 0.000000 
#    z 0.001520 0.000000 1.833410 
# 
# From -- ./inp_files/139811.got.cif
#   From: 2010.06.25/outbox.cif.g09.slc.cpg/sg15_70_cif.got.tgz:139811.got - 2010.06.28 07:06:18.
