data_PCOD8150642
_publ_section_title
;
Structure prediction by ZEFSAII (Michael W. Deem and Ramdas Pophale) SiO2 
 PCOD8150642
Probable space group: C 2/C
;
_chemical_formula_sum "Si O2"
_cell_formula_units_Z 48
_cell_length_a 19.667157
_cell_length_b 11.830616
_cell_length_c 27.950236
_cell_angle_alpha 90.000000
_cell_angle_beta 19.469148
_cell_angle_gamma 90.000000
_cell_volume 2167.548029
_symmetry_space_group_name_H-M "C 2/C"
_symmetry_group_IT_number 15
_symmetry_cell_setting 'monoclinic'
loop_
_space_group_symop_operation_xyz
x,y,z
-x,y,1/2-z
-x,-y,-z
x,-y,1/2+z
1/2+x,1/2+y,z
1/2-x,1/2+y,1/2-z
1/2-x,1/2-y,-z
1/2+x,1/2-y,1/2+z
loop_
_atom_site_type_symbol
_atom_site_label
_atom_site_fract_x
_atom_site_fract_y
_atom_site_fract_z
Si Si1 0.063038 0.656662 0.821602
Si Si2 0.511929 0.596025 0.911909
Si Si3 0.734688 0.542910 0.102112
Si Si4 0.024317 0.656923 0.090954
Si Si5 0.612304 0.043146 0.224440
Si Si6 0.816917 0.903716 0.759342
O O1 0.267300 0.617647 0.712834
O O2 0.051921 0.583907 0.780325
O O3 0.059426 0.788739 0.811667
O O4 0.871317 0.632381 0.982684
O O5 0.425322 0.710979 0.945888
O O6 0.524084 0.499772 0.863074
O O7 0.355803 0.554663 0.056197
O O8 0.500000 0.573101 0.250000
O O9 0.791883 0.554603 0.120076
O O10 0.777309 0.415811 0.055151
O O11 0.955453 0.632603 0.190573
O O12 0.846418 0.618020 0.173332
O O13 0.500000 0.073469 0.250000
#
# Coordination Sequence:
#
# PCOD8150642 Si02
#       6
#     8   8   8   8   8   8
#     4  10  25  45  67 103 136 179 241 280 339 411
#     4  11  24  42  74  97 135 183 233 286 337 406
#     4  11  25  44  66 100 143 179 226 287 347 409
#     4  10  25  45  67 103 136 179 241 280 339 411
#     4  11  25  44  66 100 143 179 226 287 347 409
#     4  11  24  42  74  97 135 183 233 286 337 406
#
# _framework density 22.144838
#
# number of rings (size 3 to 8) (size 9 to 14) (size 15 to 20)
#    0.000    1.333    3.333    1.000    9.333    5.333 
#    0.000    0.000    0.000    0.000    0.000    0.000 
#    0.000    0.000    0.000    0.000    0.000    0.000 
#
# Total GULP energy -297681.304798 kJ/mol
# GULP energy per Si atom -12403.387700 kJ/mol
# Density = 2.209444 g / cm^3
# Si number density = 22.144838 Si / 1000 Ang^3
#
#
#
# Elastic Constant Matrix: (Units=GPa)
#
#
# Indices 1 2 3 4 5 6 
#
# 1 108.6434 22.2347 53.1542 -0.2028 20.3914 0.0798
# 2 22.2347 133.3822 55.4020 0.1020 23.9598 0.0170
# 3 53.1542 55.4020 169.2092 0.0516 23.0177 -0.0336
# 4 -0.2028 0.1020 0.0516 21.5092 0.0526 2.4411
# 5 20.3914 23.9598 23.0177 0.0526 44.0453 -0.0503
# 6 0.0798 0.0170 -0.0336 2.4411 -0.0503 18.1580
#
#
#
# Elastic Compliance Matrix: (Units=1/GPa)
#
#
# Indices 1 2 3 4 5 6 
#
# 1 0.011402 0.000047 -0.003096 0.000133 -0.003687 -0.000084
# 2 0.000047 0.009204 -0.002524 -0.000026 -0.003710 -0.000020
# 3 -0.003096 -0.002524 0.007888 -0.000037 -0.001316 0.000032
# 4 0.000133 -0.000026 -0.000037 0.047214 -0.000092 -0.006348
# 5 -0.003687 -0.003710 -0.001316 -0.000092 0.027117 0.000105
# 6 -0.000084 -0.000020 0.000032 -0.006348 0.000105 0.055926
#
#
# Mechanical properties :
#
#
# Convention : Reuss Voigt Hill
#
# Bulk Modulus (GPa) = 57.63983 74.75741 66.19862
# Shear Modulus (GPa) = 28.46122 35.43875 31.94998
#
# Velocity S-wave (km/s) = 3.58890 4.00474 3.80251
# Velocity P-wave (km/s) = 6.57713 7.43072 7.01692
#
# Compressibility (1/GPa) = 0.01734912
#
# Stress axis : x y z
#
# Youngs Moduli (GPa) = 87.70716 108.64742 126.78055
#
# Poissons Ratio (x) = -0.00515 0.39247
# Poissons Ratio (y) = -0.00415 0.31997
# Poissons Ratio (z) = 0.27151 0.27420
#
# Static dielectric constant tensor:
#      x y z
#    x 3.786240 -0.000040 0.171650 
#    y -0.000040 4.351250 0.000550 
#    z 0.171650 0.000550 4.026460 
# 
# 
# High freq. dielectric constant tensor:
#      x y z
#    x 1.865520 0.000000 0.009870 
#    y 0.000000 1.880020 0.000040 
#    z 0.009870 0.000040 1.879290 
# 
# From -- ./inp_files/300926.got.cif
#   From: 2010.06.25/outbox.cif.g09.slc.cpg/sg15_151_cif.got.tgz:300926.got - 2010.06.28 07:06:18.
