data_PCOD8150696
_publ_section_title
;
Structure prediction by ZEFSAII (Michael W. Deem and Ramdas Pophale) SiO2 
 PCOD8150696
Probable space group: C 2/C
;
_chemical_formula_sum "Si O2"
_cell_formula_units_Z 40
_cell_length_a 19.986877
_cell_length_b 5.056623
_cell_length_c 25.175391
_cell_angle_alpha 90.000000
_cell_angle_beta 136.354705
_cell_angle_gamma 90.000000
_cell_volume 1756.109320
_symmetry_space_group_name_H-M "C 2/C"
_symmetry_group_IT_number 15
_symmetry_cell_setting 'monoclinic'
loop_
_space_group_symop_operation_xyz
x,y,z
-x,y,1/2-z
-x,-y,-z
x,-y,1/2+z
1/2+x,1/2+y,z
1/2-x,1/2+y,1/2-z
1/2-x,1/2-y,-z
1/2+x,1/2-y,1/2+z
loop_
_atom_site_type_symbol
_atom_site_label
_atom_site_fract_x
_atom_site_fract_y
_atom_site_fract_z
Si Si1 0.291995 0.191832 0.300484
Si Si2 0.898901 0.543698 0.169675
Si Si3 0.712412 0.441096 0.866440
Si Si4 0.999374 0.248852 0.961338
Si Si5 0.838312 0.600039 0.023009
O O1 0.234053 0.465585 0.257504
O O2 0.406672 0.250322 0.368514
O O3 0.263414 0.065155 0.339738
O O4 0.820181 0.758770 0.142006
O O5 0.904082 0.491650 0.109049
O O6 0.000000 0.646617 0.250000
O O7 0.875606 0.263509 0.183174
O O8 0.790044 0.370618 0.958167
O O9 0.093297 0.229025 0.977008
O O10 0.000000 0.500000 0.000000
O O11 0.000000 0.000000 0.000000
O O12 0.750000 0.750000 0.000000
#
# Coordination Sequence:
#
# PCOD8150696 Si02
#       5
#     8   8   8   8   8
#     4  12  27  46  73 105 149 189 241 305 370 429
#     4  11  25  44  70 104 139 185 240 299 359 427
#     4  11  24  45  70  98 144 186 237 298 358 426
#     4  12  27  48  76 107 144 193 247 298 365 441
#     4  10  25  46  75 103 142 189 243 291 360 430
#
# _framework density 22.777625
#
# number of rings (size 3 to 8) (size 9 to 14) (size 15 to 20)
#    0.000    0.800    2.000    3.600   11.200    3.200 
#    0.000    0.000    0.000    0.000    0.000    0.000 
#    0.000    0.000    0.000    0.000    0.000    0.000 
#
# Total GULP energy -247932.872401 kJ/mol
# GULP energy per Si atom -12396.643620 kJ/mol
# Density = 2.272578 g / cm^3
# Si number density = 22.777625 Si / 1000 Ang^3
#
#
#
# Elastic Constant Matrix: (Units=GPa)
#
#
# Indices 1 2 3 4 5 6 
#
# 1 158.1948 30.9746 44.0791 0.0068 1.8223 0.0025
# 2 30.9746 114.4745 30.1875 0.0181 4.3911 -0.0276
# 3 44.0791 30.1875 153.2160 0.0036 8.5446 -0.0154
# 4 0.0068 0.0181 0.0036 37.9919 -0.0054 -4.7861
# 5 1.8223 4.3911 8.5446 -0.0054 35.6099 0.0094
# 6 0.0025 -0.0276 -0.0154 -4.7861 0.0094 27.7689
#
#
#
# Elastic Compliance Matrix: (Units=1/GPa)
#
#
# Indices 1 2 3 4 5 6 
#
# 1 0.007097 -0.001464 -0.001767 -0.000001 0.000241 -0.000003
# 2 -0.001464 0.009534 -0.001415 -0.000003 -0.000761 0.000009
# 3 -0.001767 -0.001415 0.007398 0.000001 -0.001510 0.000003
# 4 -0.000001 -0.000003 0.000001 0.026906 0.000003 0.004637
# 5 0.000241 -0.000761 -0.001510 0.000003 0.028526 -0.000011
# 6 -0.000003 0.000009 0.000003 0.004637 -0.000011 0.036811
#
#
# Mechanical properties :
#
#
# Convention : Reuss Voigt Hill
#
# Bulk Modulus (GPa) = 67.85015 70.70750 69.27882
# Shear Modulus (GPa) = 38.32128 41.65041 39.98585
#
# Velocity S-wave (km/s) = 4.10617 4.28081 4.19440
# Velocity P-wave (km/s) = 7.23419 7.45277 7.34429
#
# Compressibility (1/GPa) = 0.01473836
#
# Stress axis : x y z
#
# Youngs Moduli (GPa) = 140.89500 104.88838 135.17054
#
# Poissons Ratio (x) = 0.15353 0.23884
# Poissons Ratio (y) = 0.20623 0.19125
# Poissons Ratio (z) = 0.24895 0.14840
#
# Static dielectric constant tensor:
#      x y z
#    x 4.177800 -0.000190 -0.155530 
#    y -0.000190 3.741280 0.000120 
#    z -0.155530 0.000120 4.757080 
# 
# 
# High freq. dielectric constant tensor:
#      x y z
#    x 1.904720 -0.000010 -0.007420 
#    y -0.000010 1.886090 0.000000 
#    z -0.007420 0.000000 1.921790 
# 
# From -- ./inp_files/279099.got.cif
#   From: 2010.06.25/outbox.cif.g09.slc.cpg/sg15_140_cif.got.tgz:279099.got - 2010.06.28 07:06:18.
