data_PCOD8150311
_publ_section_title
;
Structure prediction by ZEFSAII (Michael W. Deem and Ramdas Pophale) SiO2 
 PCOD8150311
Probable space group: C 2/C
;
_chemical_formula_sum "Si O2"
_cell_formula_units_Z 44
_cell_length_a 13.817604
_cell_length_b 28.492249
_cell_length_c 10.673528
_cell_angle_alpha 90.000000
_cell_angle_beta 32.152309
_cell_angle_gamma 90.000000
_cell_volume 2236.244490
_symmetry_space_group_name_H-M "C 2/C"
_symmetry_group_IT_number 15
_symmetry_cell_setting 'monoclinic'
loop_
_space_group_symop_operation_xyz
x,y,z
-x,y,1/2-z
-x,-y,-z
x,-y,1/2+z
1/2+x,1/2+y,z
1/2-x,1/2+y,1/2-z
1/2-x,1/2-y,-z
1/2+x,1/2-y,1/2+z
loop_
_atom_site_type_symbol
_atom_site_label
_atom_site_fract_x
_atom_site_fract_y
_atom_site_fract_z
Si Si1 0.190230 0.474054 0.792588
Si Si2 0.187201 0.634805 0.311051
Si Si3 0.985345 0.193107 0.617559
Si Si4 0.000000 0.393619 0.250000
Si Si5 0.803170 0.035823 0.449872
Si Si6 0.073616 0.705928 0.034380
O O1 0.172500 0.418869 0.784182
O O2 0.305605 0.493811 0.549114
O O3 0.279019 0.482255 0.832786
O O4 0.000000 0.500000 0.000000
O O5 0.108270 0.639794 0.537342
O O6 0.062418 0.666552 0.362052
O O7 0.395126 0.652487 0.078951
O O8 0.058614 0.243229 0.483591
O O9 0.000000 0.187079 0.750000
O O10 0.776873 0.186011 0.805063
O O11 0.854077 0.427278 0.340447
O O12 0.000000 0.060419 0.250000
O O13 0.000000 0.719611 0.250000
#
# Coordination Sequence:
#
# PCOD8150311 Si02
#       6
#     8   8   8   4   8   8
#     4  11  22  44  64  92 132 168 211 266 315 376
#     4  11  23  39  64  92 124 164 212 251 304 383
#     4  11  20  39  63  96 125 158 200 258 326 371
#     4  10  24  46  60  86 132 176 210 250 320 372
#     4  11  22  42  67  89 126 175 211 266 320 374
#     4  11  20  38  66  90 129 161 194 260 327 374
#
# _framework density 19.675844000000001
#
# number of rings (size 3 to 8) (size 9 to 14) (size 15 to 20)
#    0.000    1.091    7.273    1.636    0.000    5.091 
#    3.273    0.909    0.000    0.000    0.000    0.000 
#    0.000    0.000    0.000    0.000    0.000    0.000 
#
# Total GULP energy -272670.887508 kJ/mol
# GULP energy per Si atom -12394.131250 kJ/mol
# Density = 1.963106 g / cm^3
# Si number density = 19.675844 Si / 1000 Ang^3
#
#
#
# Elastic Constant Matrix: (Units=GPa)
#
#
# Indices 1 2 3 4 5 6 
#
# 1 76.3194 16.1726 37.1181 0.0000 -2.7086 0.0001
# 2 16.1726 104.3529 51.7845 0.0000 0.7179 0.0000
# 3 37.1181 51.7845 131.3331 0.0000 -21.5218 0.0002
# 4 0.0000 0.0000 0.0000 40.4947 0.0000 11.3495
# 5 -2.7086 0.7179 -21.5218 0.0000 49.2353 -0.0001
# 6 0.0001 0.0000 0.0002 11.3495 -0.0001 15.8345
#
#
#
# Elastic Compliance Matrix: (Units=1/GPa)
#
#
# Indices 1 2 3 4 5 6 
#
# 1 0.015251 -0.000159 -0.004427 0.000000 -0.001094 0.000000
# 2 -0.000159 0.012185 -0.005160 0.000000 -0.002442 0.000000
# 3 -0.004427 -0.005160 0.011711 0.000000 0.004951 0.000000
# 4 0.000000 0.000000 0.000000 0.030902 0.000000 -0.022149
# 5 -0.001094 -0.002442 0.004951 0.000000 0.022450 0.000000
# 6 0.000000 0.000000 0.000000 -0.022149 0.000000 0.079029
#
#
# Mechanical properties :
#
#
# Convention : Reuss Voigt Hill
#
# Bulk Modulus (GPa) = 50.87652 58.01729 54.44690
# Shear Modulus (GPa) = 25.30739 34.90825 30.10782
#
# Velocity S-wave (km/s) = 3.59028 4.21666 3.91601
# Velocity P-wave (km/s) = 6.56508 7.29777 6.94110
#
# Compressibility (1/GPa) = 0.01965543
#
# Stress axis : x y z
#
# Youngs Moduli (GPa) = 65.57089 82.06981 85.38971
#
# Poissons Ratio (x) = 0.01308 0.37799
# Poissons Ratio (y) = 0.01045 0.44057
# Poissons Ratio (z) = 0.29026 0.42344
#
# Static dielectric constant tensor:
#      x y z
#    x 3.583270 0.000000 -0.042240 
#    y 0.000000 3.636560 0.000000 
#    z -0.042240 0.000000 3.760630 
# 
# 
# High freq. dielectric constant tensor:
#      x y z
#    x 1.750740 0.000000 -0.012320 
#    y 0.000000 1.759420 0.000000 
#    z -0.012320 0.000000 1.785090 
# 
# From -- ./inp_files/101063.got.cif
#   From: 2010.06.25/outbox.cif.g09.slc.cpg/sg15_51_cif.got.tgz:101063.got - 2010.06.28 07:06:18.
