data_PCOD8150699
_publ_section_title
;
Structure prediction by ZEFSAII (Michael W. Deem and Ramdas Pophale) SiO2 
 PCOD8150699
Probable space group: C 2/C
;
_chemical_formula_sum "Si O2"
_cell_formula_units_Z 48
_cell_length_a 9.140300
_cell_length_b 11.186911
_cell_length_c 22.372837
_cell_angle_alpha 90.000000
_cell_angle_beta 69.718965
_cell_angle_gamma 90.000000
_cell_volume 2145.834642
_symmetry_space_group_name_H-M "C 2/C"
_symmetry_group_IT_number 15
_symmetry_cell_setting 'monoclinic'
loop_
_space_group_symop_operation_xyz
x,y,z
-x,y,1/2-z
-x,-y,-z
x,-y,1/2+z
1/2+x,1/2+y,z
1/2-x,1/2+y,1/2-z
1/2-x,1/2-y,-z
1/2+x,1/2-y,1/2+z
loop_
_atom_site_type_symbol
_atom_site_label
_atom_site_fract_x
_atom_site_fract_y
_atom_site_fract_z
Si Si1 0.358306 0.804876 0.532930
Si Si2 0.674896 0.138169 0.292454
Si Si3 0.184220 0.274472 0.444163
Si Si4 0.638852 0.628821 0.860731
Si Si5 0.332245 0.501964 0.871133
Si Si6 0.176004 0.415175 0.654643
O O1 0.250000 0.750000 0.500000
O O2 0.515262 0.834999 0.474940
O O3 0.411824 0.710424 0.576137
O O4 0.263143 0.919027 0.569533
O O5 0.690625 0.280596 0.300913
O O6 0.501901 0.104169 0.340332
O O7 0.701573 0.121963 0.219312
O O8 0.801292 0.055550 0.310003
O O9 0.250000 0.250000 0.500000
O O10 0.276794 0.362963 0.387587
O O11 0.198555 0.150827 0.405720
O O12 0.516434 0.523268 0.858416
O O13 0.793705 0.556355 0.856772
#
# Coordination Sequence:
#
# PCOD8150699 Si02
#       6
#     8   8   8   8   8   8
#     4  11  25  40  64 101 138 175 225 276 335 409
#     4  10  25  47  65 100 129 178 230 276 342 394
#     4  12  23  42  69 101 135 182 222 274 349 404
#     4  11  24  46  68  98 137 177 230 279 337 406
#     4  11  23  44  69  95 135 181 221 280 337 403
#     4  11  25  43  72  95 134 178 222 285 336 403
#
# _framework density 22.368918000000001
#
# number of rings (size 3 to 8) (size 9 to 14) (size 15 to 20)
#    0.000    1.000    3.333    2.500    7.000    2.000 
#    0.000    0.000    0.000    0.000    0.000    0.000 
#    0.000    0.000    0.000    0.000    0.000    0.000 
#
# Total GULP energy -297392.154665 kJ/mol
# GULP energy per Si atom -12391.339778 kJ/mol
# Density = 2.231801 g / cm^3
# Si number density = 22.368918 Si / 1000 Ang^3
#
#
#
# Elastic Constant Matrix: (Units=GPa)
#
#
# Indices 1 2 3 4 5 6 
#
# 1 73.8620 35.7378 9.2760 0.0000 16.0668 0.0000
# 2 35.7378 124.1949 18.2480 0.0000 0.8780 0.0000
# 3 9.2760 18.2480 81.0899 0.0000 7.5653 0.0000
# 4 0.0000 0.0000 0.0000 25.1594 0.0000 -0.6463
# 5 16.0668 0.8780 7.5653 0.0000 28.0692 0.0000
# 6 0.0000 0.0000 0.0000 -0.6463 0.0000 47.4251
#
#
#
# Elastic Compliance Matrix: (Units=1/GPa)
#
#
# Indices 1 2 3 4 5 6 
#
# 1 0.018293 -0.005197 0.000040 0.000000 -0.010319 0.000000
# 2 -0.005197 0.009805 -0.001909 0.000000 0.003182 0.000000
# 3 0.000040 -0.001909 0.013083 0.000000 -0.003489 0.000000
# 4 0.000000 0.000000 0.000000 0.039761 0.000000 0.000542
# 5 -0.010319 0.003182 -0.003489 0.000000 0.042374 0.000000
# 6 0.000000 0.000000 0.000000 0.000542 0.000000 0.021093
#
#
# Mechanical properties :
#
#
# Convention : Reuss Voigt Hill
#
# Bulk Modulus (GPa) = 36.97071 45.07451 41.02261
# Shear Modulus (GPa) = 29.84070 34.52307 32.18189
#
# Velocity S-wave (km/s) = 3.65639 3.93281 3.79712
# Velocity P-wave (km/s) = 5.86423 6.38881 6.13213
#
# Compressibility (1/GPa) = 0.02704844
#
# Stress axis : x y z
#
# Youngs Moduli (GPa) = 54.66622 101.98630 76.43768
#
# Poissons Ratio (x) = 0.53000 -0.00303
# Poissons Ratio (y) = 0.28409 0.14592
# Poissons Ratio (z) = -0.00217 0.19469
#
# Static dielectric constant tensor:
#      x y z
#    x 4.027890 0.000000 0.185320 
#    y 0.000000 3.996430 0.000000 
#    z 0.185320 0.000000 3.739090 
# 
# 
# High freq. dielectric constant tensor:
#      x y z
#    x 1.884600 0.000000 0.002720 
#    y 0.000000 1.887590 0.000000 
#    z 0.002720 0.000000 1.884080 
# 
# From -- ./inp_files/263254.got.cif
#   From: 2010.06.25/outbox.cif.g09.slc.cpg/sg15_132_cif.got.tgz:263254.got - 2010.06.28 07:06:18.
