data_PCOD8150473
_publ_section_title
;
Structure prediction by ZEFSAII (Michael W. Deem and Ramdas Pophale) SiO2 
 PCOD8150473
Probable space group: C 2/C
;
_chemical_formula_sum "Si O2"
_cell_formula_units_Z 52
_cell_length_a 20.658315
_cell_length_b 9.558589
_cell_length_c 20.535487
_cell_angle_alpha 90.000000
_cell_angle_beta 141.513007
_cell_angle_gamma 90.000000
_cell_volume 2523.592814
_symmetry_space_group_name_H-M "C 2/C"
_symmetry_group_IT_number 15
_symmetry_cell_setting 'monoclinic'
loop_
_space_group_symop_operation_xyz
x,y,z
-x,y,1/2-z
-x,-y,-z
x,-y,1/2+z
1/2+x,1/2+y,z
1/2-x,1/2+y,1/2-z
1/2-x,1/2-y,-z
1/2+x,1/2-y,1/2+z
loop_
_atom_site_type_symbol
_atom_site_label
_atom_site_fract_x
_atom_site_fract_y
_atom_site_fract_z
Si Si1 0.453557 0.127157 0.585959
Si Si2 0.051358 0.878755 0.455568
Si Si3 0.884719 0.970306 0.748518
Si Si4 0.114089 0.846411 0.070344
Si Si5 0.838244 0.717424 0.797344
Si Si6 0.325291 0.869283 0.434652
Si Si7 0.000000 0.236612 0.250000
O O1 0.401362 0.250239 0.504096
O O2 0.577323 0.120311 0.672014
O O3 0.438655 0.164681 0.650409
O O4 0.402275 0.984596 0.523432
O O5 0.139898 0.770506 0.497966
O O6 0.968301 0.805112 0.438763
O O7 0.108877 0.995543 0.542636
O O8 0.987889 0.939571 0.344004
O O9 0.855102 0.882397 0.791062
O O10 0.910943 0.859716 0.712740
O O11 0.792614 0.075022 0.652857
O O12 0.226229 0.828390 0.188018
O O13 0.852079 0.685607 0.883850
#
# Coordination Sequence:
#
# PCOD8150473 Si02
#       7
#     8   8   8   8   8   8   4
#     4  11  23  41  64  98 127 178 224 271 318 388
#     4  11  22  38  61  98 139 164 210 279 348 390
#     4  11  23  44  66  96 132 188 218 261 337 405
#     4  11  20  37  65  95 133 176 212 261 341 401
#     4  11  21  36  64  98 133 165 218 267 330 400
#     4  12  24  36  66 104 130 159 218 290 341 377
#     4  10  24  48  68  84 136 190 236 254 302 430
#
# _framework density 20.605543000000001
#
# number of rings (size 3 to 8) (size 9 to 14) (size 15 to 20)
#    0.000    0.923    7.692    1.385    0.000    1.846 
#    0.000    1.538    0.000    0.000    0.000    0.000 
#    0.000    0.000    0.000    0.000    0.000    0.000 
#
# Total GULP energy -322221.142097 kJ/mol
# GULP energy per Si atom -12393.120850 kJ/mol
# Density = 2.055864 g / cm^3
# Si number density = 20.605543 Si / 1000 Ang^3
#
#
#
# Elastic Constant Matrix: (Units=GPa)
#
#
# Indices 1 2 3 4 5 6 
#
# 1 278.7529 -169.6849 187.8358 0.0000 -14.3549 0.0000
# 2 -169.6849 275.7157 -68.7095 0.0000 16.6017 0.0000
# 3 187.8358 -68.7095 236.5463 0.0000 -10.6546 0.0000
# 4 0.0000 0.0000 0.0000 41.8117 0.0000 7.2409
# 5 -14.3549 16.6017 -10.6546 0.0000 23.3069 0.0000
# 6 0.0000 0.0000 0.0000 7.2409 0.0000 28.9158
#
#
#
# Elastic Compliance Matrix: (Units=1/GPa)
#
#
# Indices 1 2 3 4 5 6 
#
# 1 0.012858 0.005793 -0.008532 0.000000 -0.000108 0.000000
# 2 0.005793 0.006646 -0.002780 0.000000 -0.002437 0.000000
# 3 -0.008532 -0.002780 0.010259 0.000000 0.001415 0.000000
# 4 0.000000 0.000000 0.000000 0.025001 0.000000 -0.006261
# 5 -0.000108 -0.002437 0.001415 0.000000 0.045222 0.000000
# 6 0.000000 0.000000 0.000000 -0.006261 0.000000 0.036151
#
#
# Mechanical properties :
#
#
# Convention : Reuss Voigt Hill
#
# Bulk Modulus (GPa) = 53.40016 76.65531 65.02773
# Shear Modulus (GPa) = 32.59123 74.91176 53.75149
#
# Velocity S-wave (km/s) = 3.98134 6.03606 5.11298
# Velocity P-wave (km/s) = 6.86341 9.26611 8.15375
#
# Compressibility (1/GPa) = 0.01872654
#
# Stress axis : x y z
#
# Youngs Moduli (GPa) = 77.77444 150.45751 97.47576
#
# Poissons Ratio (x) = -0.87165 0.83167
# Poissons Ratio (y) = -0.45057 0.27094
# Poissons Ratio (z) = 0.66358 0.41820
#
# Static dielectric constant tensor:
#      x y z
#    x 3.450020 0.000000 -0.195970 
#    y 0.000000 3.755080 0.000000 
#    z -0.195970 0.000000 3.522610 
# 
# 
# High freq. dielectric constant tensor:
#      x y z
#    x 1.767520 0.000000 0.000530 
#    y 0.000000 1.805920 0.000000 
#    z 0.000530 0.000000 1.830430 
# 
# From -- ./inp_files/176478.got.cif
#   From: 2010.06.25/outbox.cif.g09.slc.cpg/sg15_89_cif.got.tgz:176478.got - 2010.06.28 07:06:18.
