data_PCOD8150927
_publ_section_title
;
Structure prediction by ZEFSAII (Michael W. Deem and Ramdas Pophale) SiO2 
 PCOD8150927
Probable space group: C 2/C
;
_chemical_formula_sum "Si O2"
_cell_formula_units_Z 56
_cell_length_a 12.070108
_cell_length_b 14.133410
_cell_length_c 27.447755
_cell_angle_alpha 90.000000
_cell_angle_beta 30.769406
_cell_angle_gamma 90.000000
_cell_volume 2395.421876
_symmetry_space_group_name_H-M "C 2/C"
_symmetry_group_IT_number 15
_symmetry_cell_setting 'monoclinic'
loop_
_space_group_symop_operation_xyz
x,y,z
-x,y,1/2-z
-x,-y,-z
x,-y,1/2+z
1/2+x,1/2+y,z
1/2-x,1/2+y,1/2-z
1/2-x,1/2-y,-z
1/2+x,1/2-y,1/2+z
loop_
_atom_site_type_symbol
_atom_site_label
_atom_site_fract_x
_atom_site_fract_y
_atom_site_fract_z
Si Si1 0.600001 0.909910 0.935501
Si Si2 0.043962 0.573703 0.639469
Si Si3 0.245232 0.097795 0.497200
Si Si4 0.500000 0.042788 0.250000
Si Si5 0.323741 0.252497 0.027557
Si Si6 0.000000 0.992649 0.750000
Si Si7 0.072536 0.868884 0.302974
Si Si8 0.781658 0.701414 0.385022
O O1 0.407791 0.859775 0.977237
O O2 0.738027 0.842772 0.920183
O O3 0.779256 0.934117 0.826778
O O4 0.500000 0.000000 0.000000
O O5 0.165119 0.505341 0.554479
O O6 0.217303 0.653211 0.591122
O O7 0.947247 0.520089 0.722879
O O8 0.832763 0.626394 0.697338
O O9 0.223156 0.167194 0.460802
O O10 0.007552 0.102809 0.612172
O O11 0.307452 0.112004 0.339224
O O12 0.250000 0.250000 0.000000
O O13 0.582238 0.245486 0.935765
O O14 0.956014 0.053049 0.814523
O O15 0.994677 0.767200 0.310865
#
# Coordination Sequence:
#
# PCOD8150927 Si02
#       8
#     8   8   8   4   8   4   8   8
#     4  12  24  47  72 108 145 189 243 307 373 437
#     4  11  28  46  74 110 149 194 250 306 374 443
#     4  11  24  47  74 106 146 197 247 304 374 447
#     4  10  27  47  72 108 152 194 248 299 377 454
#     4  12  29  46  73 106 154 194 246 313 374 443
#     4  12  25  39  74 104 142 190 242 301 365 442
#     4  12  25  44  78 103 149 193 254 302 368 444
#     4  11  26  46  75 104 145 199 249 301 378 448
#
# _framework density 23.377927
#
# number of rings (size 3 to 8) (size 9 to 14) (size 15 to 20)
#    0.000    0.571    4.286    1.714    8.000    2.857 
#    0.000    0.000    0.000    0.000    0.000    0.000 
#    0.000    0.000    0.000    0.000    0.000    0.000 
#
# Total GULP energy -347004.152547 kJ/mol
# GULP energy per Si atom -12393.005448 kJ/mol
# Density = 2.332472 g / cm^3
# Si number density = 23.377927 Si / 1000 Ang^3
#
#
#
# Elastic Constant Matrix: (Units=GPa)
#
#
# Indices 1 2 3 4 5 6 
#
# 1 112.2978 41.3633 18.7165 -0.0012 10.3758 -0.0007
# 2 41.3633 123.8720 34.8426 0.0008 2.1238 0.0003
# 3 18.7165 34.8426 78.7593 -0.0076 -3.2408 -0.0007
# 4 -0.0012 0.0008 -0.0076 21.0137 0.0014 -9.8749
# 5 10.3758 2.1238 -3.2408 0.0014 41.6474 0.0002
# 6 -0.0007 0.0003 -0.0007 -9.8749 0.0002 32.9894
#
#
#
# Elastic Compliance Matrix: (Units=1/GPa)
#
#
# Indices 1 2 3 4 5 6 
#
# 1 0.010492 -0.003117 -0.001219 0.000001 -0.002550 0.000000
# 2 -0.003117 0.010172 -0.003761 -0.000002 -0.000035 -0.000001
# 3 -0.001219 -0.003761 0.014718 0.000006 0.001641 0.000002
# 4 0.000001 -0.000002 0.000006 0.055378 -0.000001 0.016577
# 5 -0.002550 -0.000035 0.001641 -0.000001 0.024776 -0.000001
# 6 0.000000 -0.000001 0.000002 0.016577 -0.000001 0.035275
#
#
# Mechanical properties :
#
#
# Convention : Reuss Voigt Hill
#
# Bulk Modulus (GPa) = 52.11613 56.08600 54.10107
# Shear Modulus (GPa) = 28.83508 33.79720 31.31614
#
# Velocity S-wave (km/s) = 3.51584 3.80635 3.66397
# Velocity P-wave (km/s) = 6.23079 6.58489 6.41029
#
# Compressibility (1/GPa) = 0.01918792
#
# Stress axis : x y z
#
# Youngs Moduli (GPa) = 95.31339 98.30900 67.94409
#
# Poissons Ratio (x) = 0.30640 0.08285
# Poissons Ratio (y) = 0.29706 0.25553
# Poissons Ratio (z) = 0.11622 0.36972
#
# Static dielectric constant tensor:
#      x y z
#    x 4.284900 -0.000010 0.166310 
#    y -0.000010 4.428530 0.000010 
#    z 0.166310 0.000010 4.225080 
# 
# 
# High freq. dielectric constant tensor:
#      x y z
#    x 1.923230 0.000000 0.011420 
#    y 0.000000 1.929190 0.000000 
#    z 0.011420 0.000000 1.931770 
# 
# From -- ./inp_files/311347.got.cif
#   From: 2010.06.25/outbox.cif.g09.slc.cpg/sg15_156_cif.got.tgz:311347.got - 2010.06.28 07:06:18.
