data_PCOD8150815
_publ_section_title
;
Structure prediction by ZEFSAII (Michael W. Deem and Ramdas Pophale) SiO2 
 PCOD8150815
Probable space group: C 2/C
;
_chemical_formula_sum "Si O2"
_cell_formula_units_Z 40
_cell_length_a 15.738006
_cell_length_b 11.542726
_cell_length_c 8.936926
_cell_angle_alpha 90.000000
_cell_angle_beta 92.551593
_cell_angle_gamma 90.000000
_cell_volume 1621.867814
_symmetry_space_group_name_H-M "C 2/C"
_symmetry_group_IT_number 15
_symmetry_cell_setting 'monoclinic'
loop_
_space_group_symop_operation_xyz
x,y,z
-x,y,1/2-z
-x,-y,-z
x,-y,1/2+z
1/2+x,1/2+y,z
1/2-x,1/2+y,1/2-z
1/2-x,1/2-y,-z
1/2+x,1/2-y,1/2+z
loop_
_atom_site_type_symbol
_atom_site_label
_atom_site_fract_x
_atom_site_fract_y
_atom_site_fract_z
Si Si1 0.906215 0.923822 0.262873
Si Si2 0.000000 0.421771 0.750000
Si Si3 0.091126 0.262498 0.517060
Si Si4 0.334537 0.053305 0.665071
Si Si5 0.756315 0.117444 0.544943
Si Si6 0.500000 0.356504 0.750000
O O1 0.866267 0.850793 0.398537
O O2 0.851297 0.907934 0.109390
O O3 0.000000 0.866473 0.250000
O O4 0.919826 0.061476 0.293566
O O5 0.953495 0.344990 0.868473
O O6 0.929159 0.500829 0.664560
O O7 0.166139 0.332401 0.439538
O O8 0.021039 0.222882 0.391830
O O9 0.311811 0.087795 0.831873
O O10 0.264062 0.961807 0.601014
O O11 0.750000 0.250000 0.500000
#
# Coordination Sequence:
#
# PCOD8150815 Si02
#       6
#     8   4   8   8   8   4
#     4  10  26  49  75 107 159 202 268 316 393 471
#     4  12  24  50  76 114 156 202 262 320 406 478
#     4  12  24  46  80 111 152 209 262 330 393 477
#     4  12  29  49  79 117 158 204 268 328 399 479
#     4  12  30  52  80 118 161 207 262 334 396 469
#     4  10  26  44  80 116 150 204 270 318 394 474
#
# _framework density 24.662922999999999
#
# number of rings (size 3 to 8) (size 9 to 14) (size 15 to 20)
#    0.600    0.000    3.000    3.000    5.600    2.400 
#    0.000    0.000    0.000    0.000    0.000    0.000 
#    0.000    0.000    0.000    0.000    0.000    0.000 
#
# Total GULP energy -248031.304795 kJ/mol
# GULP energy per Si atom -12401.565240 kJ/mol
# Density = 2.460679 g / cm^3
# Si number density = 24.662923 Si / 1000 Ang^3
#
#
#
# Elastic Constant Matrix: (Units=GPa)
#
#
# Indices 1 2 3 4 5 6 
#
# 1 80.8029 14.7500 8.7212 0.0000 28.8009 0.0000
# 2 14.7500 132.1521 47.1708 0.0000 10.3905 0.0000
# 3 8.7212 47.1708 112.7881 0.0000 15.9690 0.0000
# 4 0.0000 0.0000 0.0000 47.4889 0.0000 7.5787
# 5 28.8009 10.3905 15.9690 0.0000 55.4123 0.0000
# 6 0.0000 0.0000 0.0000 7.5787 0.0000 31.9250
#
#
#
# Elastic Compliance Matrix: (Units=1/GPa)
#
#
# Indices 1 2 3 4 5 6 
#
# 1 0.015365 -0.001257 0.000454 0.000000 -0.007881 0.000000
# 2 -0.001257 0.009018 -0.003678 0.000000 0.000022 0.000000
# 3 0.000454 -0.003678 0.010743 0.000000 -0.002642 0.000000
# 4 0.000000 0.000000 0.000000 0.021887 0.000000 -0.005196
# 5 -0.007881 0.000022 -0.002642 0.000000 0.022900 0.000000
# 6 0.000000 0.000000 0.000000 -0.005196 0.000000 0.032557
#
#
# Mechanical properties :
#
#
# Convention : Reuss Voigt Hill
#
# Bulk Modulus (GPa) = 38.21976 51.89191 45.05584
# Shear Modulus (GPa) = 38.41577 43.97198 41.19387
#
# Velocity S-wave (km/s) = 3.95097 4.22704 4.09133
# Velocity P-wave (km/s) = 6.02860 6.70149 6.37393
#
# Compressibility (1/GPa) = 0.02616448
#
# Stress axis : x y z
#
# Youngs Moduli (GPa) = 65.08092 110.88544 93.08151
#
# Poissons Ratio (x) = 0.13941 -0.04222
# Poissons Ratio (y) = 0.08182 0.34232
# Poissons Ratio (z) = -0.02952 0.40779
#
# Static dielectric constant tensor:
#      x y z
#    x 3.423260 0.000000 0.041560 
#    y 0.000000 4.654430 0.000000 
#    z 0.041560 0.000000 4.456320 
# 
# 
# High freq. dielectric constant tensor:
#      x y z
#    x 1.968650 0.000000 0.005950 
#    y 0.000000 1.999860 0.000000 
#    z 0.005950 0.000000 1.989270 
# 
# From -- ./inp_files/46300.got.cif
#   From: 2010.06.25/outbox.cif.g09.slc.cpg/sg15_24_cif.got.tgz:46300.got - 2010.06.28 07:06:18.
