data_PCOD8150742
_publ_section_title
;
Structure prediction by ZEFSAII (Michael W. Deem and Ramdas Pophale) SiO2 
 PCOD8150742
Probable space group: C 2/C
;
_chemical_formula_sum "Si O2"
_cell_formula_units_Z 40
_cell_length_a 14.620619
_cell_length_b 13.517077
_cell_length_c 8.637894
_cell_angle_alpha 90.000000
_cell_angle_beta 77.422336
_cell_angle_gamma 90.000000
_cell_volume 1666.122789
_symmetry_space_group_name_H-M "C 2/C"
_symmetry_group_IT_number 15
_symmetry_cell_setting 'monoclinic'
loop_
_space_group_symop_operation_xyz
x,y,z
-x,y,1/2-z
-x,-y,-z
x,-y,1/2+z
1/2+x,1/2+y,z
1/2-x,1/2+y,1/2-z
1/2-x,1/2-y,-z
1/2+x,1/2-y,1/2+z
loop_
_atom_site_type_symbol
_atom_site_label
_atom_site_fract_x
_atom_site_fract_y
_atom_site_fract_z
Si Si1 0.817380 0.751045 0.120141
Si Si2 0.522778 0.264675 0.073738
Si Si3 0.771792 0.451962 0.769282
Si Si4 0.181828 0.900430 0.116877
Si Si5 0.557299 0.078874 0.877045
O O1 0.821199 0.637726 0.166470
O O2 0.781087 0.815105 0.279608
O O3 0.921734 0.788863 0.032095
O O4 0.750000 0.750000 0.000000
O O5 0.500000 0.218970 0.250000
O O6 0.583873 0.365465 0.074107
O O7 0.578893 0.179975 0.962728
O O8 0.677457 0.496287 0.718571
O O9 0.844491 0.541398 0.725367
O O10 0.755238 0.422345 0.952713
O O11 0.500000 0.112138 0.750000
O O12 0.500000 0.000000 0.000000
#
# Coordination Sequence:
#
# PCOD8150742 Si02
#       5
#     8   8   8   8   8
#     4  11  25  48  76 110 150 203 264 317 388 465
#     4  10  25  49  74 109 152 196 251 328 384 462
#     4  12  26  44  74 112 155 203 254 321 395 468
#     4  11  27  48  76 114 159 203 258 321 397 465
#     4  12  25  41  71 114 149 189 257 323 396 453
#
# _framework density 24.007835
#
# number of rings (size 3 to 8) (size 9 to 14) (size 15 to 20)
#    0.000    0.800    2.000    3.600   14.000    0.000 
#    0.000   16.000    0.000    0.000    0.000    0.000 
#    0.000    0.000    0.000    0.000    0.000    0.000 
#
# Total GULP energy -247820.314518 kJ/mol
# GULP energy per Si atom -12391.015726 kJ/mol
# Density = 2.395319 g / cm^3
# Si number density = 24.007835 Si / 1000 Ang^3
#
#
#
# Elastic Constant Matrix: (Units=GPa)
#
#
# Indices 1 2 3 4 5 6 
#
# 1 142.1085 52.7924 68.0746 0.0000 4.4860 0.0000
# 2 52.7924 92.6165 35.3317 0.0000 -13.8798 0.0000
# 3 68.0746 35.3317 129.4801 0.0000 -4.1172 0.0000
# 4 0.0000 0.0000 0.0000 54.0712 0.0000 1.9506
# 5 4.4860 -13.8798 -4.1172 0.0000 35.5927 0.0000
# 6 0.0000 0.0000 0.0000 1.9506 0.0000 47.3853
#
#
#
# Elastic Compliance Matrix: (Units=1/GPa)
#
#
# Indices 1 2 3 4 5 6 
#
# 1 0.011367 -0.005309 -0.004656 0.000000 -0.004042 0.000000
# 2 -0.005309 0.015237 -0.001161 0.000000 0.006477 0.000000
# 3 -0.004656 -0.001161 0.010531 0.000000 0.001352 0.000000
# 4 0.000000 0.000000 0.000000 0.018522 0.000000 -0.000762
# 5 -0.004042 0.006477 0.001352 0.000000 0.031287 0.000000
# 6 0.000000 0.000000 0.000000 -0.000762 0.000000 0.021135
#
#
# Mechanical properties :
#
#
# Convention : Reuss Voigt Hill
#
# Bulk Modulus (GPa) = 67.18863 75.17806 71.18335
# Shear Modulus (GPa) = 36.95747 41.27694 39.11721
#
# Velocity S-wave (km/s) = 3.92777 4.15096 4.04090
# Velocity P-wave (km/s) = 6.97257 7.37264 7.17539
#
# Compressibility (1/GPa) = 0.01488347
#
# Stress axis : x y z
#
# Youngs Moduli (GPa) = 87.97319 65.63127 94.95866
#
# Poissons Ratio (x) = 0.34842 0.44214
# Poissons Ratio (y) = 0.46703 0.11021
# Poissons Ratio (z) = 0.40962 0.07617
#
# Static dielectric constant tensor:
#      x y z
#    x 5.099170 0.000000 0.301990 
#    y 0.000000 4.797910 0.000000 
#    z 0.301990 0.000000 4.617990 
# 
# 
# High freq. dielectric constant tensor:
#      x y z
#    x 1.950690 0.000000 0.010670 
#    y 0.000000 1.944990 0.000000 
#    z 0.010670 0.000000 1.961630 
# 
# From -- ./inp_files/37985.got.cif
#   From: 2010.06.25/outbox.cif.g09.slc.cpg/sg15_19_cif.got.tgz:37985.got - 2010.06.28 07:06:18.
