data_PCOD8150863
_publ_section_title
;
Structure prediction by ZEFSAII (Michael W. Deem and Ramdas Pophale) SiO2 
 PCOD8150863
Probable space group: C 2/C
;
_chemical_formula_sum "Si O2"
_cell_formula_units_Z 52
_cell_length_a 29.092670
_cell_length_b 8.695766
_cell_length_c 12.563170
_cell_angle_alpha 90.000000
_cell_angle_beta 133.130388
_cell_angle_gamma 90.000000
_cell_volume 2319.500087
_symmetry_space_group_name_H-M "C 2/C"
_symmetry_group_IT_number 15
_symmetry_cell_setting 'monoclinic'
loop_
_space_group_symop_operation_xyz
x,y,z
-x,y,1/2-z
-x,-y,-z
x,-y,1/2+z
1/2+x,1/2+y,z
1/2-x,1/2+y,1/2-z
1/2-x,1/2-y,-z
1/2+x,1/2-y,1/2+z
loop_
_atom_site_type_symbol
_atom_site_label
_atom_site_fract_x
_atom_site_fract_y
_atom_site_fract_z
Si Si1 0.448390 0.451547 0.502626
Si Si2 0.000000 0.298043 0.250000
Si Si3 0.369877 0.273211 0.920638
Si Si4 0.848861 0.794170 0.205566
Si Si5 0.304125 0.148741 0.631038
Si Si6 0.107320 0.465790 0.862494
Si Si7 0.264872 0.384351 0.886769
O O1 0.500000 0.500000 0.500000
O O2 0.470060 0.313693 0.613850
O O3 0.426811 0.605589 0.531679
O O4 0.386277 0.404135 0.341889
O O5 0.050557 0.412089 0.276079
O O6 0.363090 0.230326 0.784425
O O7 0.300965 0.346749 0.835113
O O8 0.384980 0.119679 0.012497
O O9 0.897242 0.660446 0.240322
O O10 0.787849 0.742322 0.174325
O O11 0.822373 0.886434 0.062814
O O12 0.250000 0.250000 0.500000
O O13 0.329112 0.057159 0.567189
O O14 0.270916 0.045656 0.669737
#
# Coordination Sequence:
#
# PCOD8150863 Si02
#       7
#     8   4   8   8   8   8   8
#     4  12  29  46  71 102 145 186 239 294 362 420
#     4  12  30  44  74  98 134 188 250 282 352 434
#     4  11  26  42  73 102 143 186 233 292 359 419
#     4   9  21  45  70  97 143 177 225 293 354 418
#     4  11  24  40  72 104 146 173 231 284 355 423
#     4  10  26  47  68 102 136 183 236 289 350 416
#     4   9  21  40  69 103 135 181 223 282 357 421
#
# _framework density 22.418624000000001
#
# number of rings (size 3 to 8) (size 9 to 14) (size 15 to 20)
#    0.000    1.538    0.000    2.769   17.231    0.615 
#    0.000    0.000    0.000    0.000    0.000    0.000 
#    0.000    0.000    0.000    0.000    0.000    0.000 
#
# Total GULP energy -322210.365159 kJ/mol
# GULP energy per Si atom -12392.706352 kJ/mol
# Density = 2.236760 g / cm^3
# Si number density = 22.418624 Si / 1000 Ang^3
#
#
#
# Elastic Constant Matrix: (Units=GPa)
#
#
# Indices 1 2 3 4 5 6 
#
# 1 120.9497 52.7327 27.8726 0.0000 2.3445 0.0000
# 2 52.7327 107.8357 41.6874 0.0000 8.1217 0.0000
# 3 27.8726 41.6874 93.7155 0.0000 10.1941 0.0000
# 4 0.0000 0.0000 0.0000 30.1932 0.0000 7.4339
# 5 2.3445 8.1217 10.1941 0.0000 25.2969 0.0000
# 6 0.0000 0.0000 0.0000 7.4339 0.0000 41.1339
#
#
#
# Elastic Compliance Matrix: (Units=1/GPa)
#
#
# Indices 1 2 3 4 5 6 
#
# 1 0.010614 -0.004835 -0.001117 0.000000 0.001019 0.000000
# 2 -0.004835 0.013469 -0.004321 0.000000 -0.002135 0.000000
# 3 -0.001117 -0.004321 0.013348 0.000000 -0.003888 0.000000
# 4 0.000000 0.000000 0.000000 0.034662 0.000000 -0.006264
# 5 0.001019 -0.002135 -0.003888 0.000000 0.041688 0.000000
# 6 0.000000 0.000000 0.000000 -0.006264 0.000000 0.025443
#
#
# Mechanical properties :
#
#
# Convention : Reuss Voigt Hill
#
# Bulk Modulus (GPa) = 59.22586 63.00959 61.11773
# Shear Modulus (GPa) = 30.23005 32.67201 31.45103
#
# Velocity S-wave (km/s) = 3.67609 3.82168 3.74959
# Velocity P-wave (km/s) = 6.67036 6.90222 6.78728
#
# Compressibility (1/GPa) = 0.01688452
#
# Stress axis : x y z
#
# Youngs Moduli (GPa) = 94.21899 74.24402 74.91870
#
# Poissons Ratio (x) = 0.35898 0.08366
# Poissons Ratio (y) = 0.45557 0.32373
# Poissons Ratio (z) = 0.10521 0.32082
#
# Static dielectric constant tensor:
#      x y z
#    x 4.182010 0.000000 -0.029120 
#    y 0.000000 4.396820 0.000000 
#    z -0.029120 0.000000 3.781620 
# 
# 
# High freq. dielectric constant tensor:
#      x y z
#    x 1.891430 0.000000 0.000060 
#    y 0.000000 1.895270 0.000000 
#    z 0.000060 0.000000 1.865670 
# 
# From -- ./inp_files/122067.got.cif
#   From: 2010.06.25/outbox.cif.g09.slc.cpg/sg15_62_cif.got.tgz:122067.got - 2010.06.28 07:06:18.
