data_PCOD8150489
_publ_section_title
;
Structure prediction by ZEFSAII (Michael W. Deem and Ramdas Pophale) SiO2 
 PCOD8150489
Probable space group: C 2/C
;
_chemical_formula_sum "Si O2"
_cell_formula_units_Z 32
_cell_length_a 20.312335
_cell_length_b 8.107788
_cell_length_c 13.870190
_cell_angle_alpha 90.000000
_cell_angle_beta 34.069166
_cell_angle_gamma 90.000000
_cell_volume 1279.624500
_symmetry_space_group_name_H-M "C 2/C"
_symmetry_group_IT_number 15
_symmetry_cell_setting 'monoclinic'
loop_
_space_group_symop_operation_xyz
x,y,z
-x,y,1/2-z
-x,-y,-z
x,-y,1/2+z
1/2+x,1/2+y,z
1/2-x,1/2+y,1/2-z
1/2-x,1/2-y,-z
1/2+x,1/2-y,1/2+z
loop_
_atom_site_type_symbol
_atom_site_label
_atom_site_fract_x
_atom_site_fract_y
_atom_site_fract_z
Si Si1 0.577552 0.846074 0.873391
Si Si2 0.142940 0.236915 0.988316
Si Si3 0.708702 0.973128 0.060862
Si Si4 0.963322 0.057317 0.694423
O O1 0.667198 0.811802 0.852873
O O2 0.504125 0.678584 0.934942
O O3 0.645317 0.875096 0.690195
O O4 0.500000 0.000000 0.000000
O O5 0.118992 0.382147 0.096145
O O6 0.030528 0.118040 0.111243
O O7 0.257816 0.143352 0.888243
O O8 0.823694 0.023612 0.861387
O O9 0.000000 0.146163 0.750000
#
# Coordination Sequence:
#
# PCOD8150489 Si02
#       4
#     8   8   8   8
#     4  12  28  40  75 107 143 182 240 290 355 420
#     4  10  25  47  73 100 145 184 239 288 351 418
#     4  10  25  45  75 101 142 190 232 291 353 416
#     4  10  24  48  73  98 145 189 233 290 354 421
#
# _framework density 25.007337
#
# number of rings (size 3 to 8) (size 9 to 14) (size 15 to 20)
#    0.000    1.500    0.000    1.500   21.000    4.000 
#    0.000    0.000    0.000    0.000    0.000    0.000 
#    0.000    0.000    0.000    0.000    0.000    0.000 
#
# Total GULP energy -198248.069100 kJ/mol
# GULP energy per Si atom -12390.504319 kJ/mol
# Density = 2.495042 g / cm^3
# Si number density = 25.007337 Si / 1000 Ang^3
#
#
#
# Elastic Constant Matrix: (Units=GPa)
#
#
# Indices 1 2 3 4 5 6 
#
# 1 150.1539 74.8913 42.0225 0.0000 35.8499 0.0001
# 2 74.8913 135.1308 49.4358 0.0003 16.0137 0.0002
# 3 42.0225 49.4358 80.0785 0.0008 4.0523 -0.0003
# 4 0.0000 0.0003 0.0008 36.7947 -0.0002 27.2073
# 5 35.8499 16.0137 4.0523 -0.0002 44.7267 0.0000
# 6 0.0001 0.0002 -0.0003 27.2073 0.0000 51.2821
#
#
#
# Elastic Compliance Matrix: (Units=1/GPa)
#
#
# Indices 1 2 3 4 5 6 
#
# 1 0.011410 -0.004395 -0.002904 0.000000 -0.007309 0.000000
# 2 -0.004395 0.011642 -0.004870 0.000000 -0.000204 0.000000
# 3 -0.002904 -0.004870 0.016890 -0.000001 0.002542 0.000001
# 4 0.000000 0.000000 -0.000001 0.044723 0.000000 -0.023727
# 5 -0.007309 -0.000204 0.002542 0.000000 0.028059 0.000000
# 6 0.000000 0.000000 0.000001 -0.023727 0.000000 0.032088
#
#
# Mechanical properties :
#
#
# Convention : Reuss Voigt Hill
#
# Bulk Modulus (GPa) = 64.09362 77.56249 70.82806
# Shear Modulus (GPa) = 28.67773 39.82827 34.25300
#
# Velocity S-wave (km/s) = 3.39008 3.99515 3.70499
# Velocity P-wave (km/s) = 6.40383 7.23636 6.83279
#
# Compressibility (1/GPa) = 0.01560218
#
# Stress axis : x y z
#
# Youngs Moduli (GPa) = 87.64610 85.89708 59.20639
#
# Poissons Ratio (x) = 0.37749 0.17196
# Poissons Ratio (y) = 0.38517 0.28836
# Poissons Ratio (z) = 0.25457 0.41836
#
# Static dielectric constant tensor:
#      x y z
#    x 4.749140 0.000000 0.535110 
#    y 0.000000 4.736690 0.000000 
#    z 0.535110 0.000000 4.181030 
# 
# 
# High freq. dielectric constant tensor:
#      x y z
#    x 2.005760 0.000000 0.024310 
#    y 0.000000 2.009370 0.000000 
#    z 0.024310 0.000000 1.965580 
# 
# From -- ./inp_files/103421.got.cif
#   From: 2010.06.25/outbox.cif.g09.slc.cpg/sg15_52_cif.got.tgz:103421.got - 2010.06.28 07:06:18.
