data_PCOD8150689
_publ_section_title
;
Structure prediction by ZEFSAII (Michael W. Deem and Ramdas Pophale) SiO2 
 PCOD8150689
Probable space group: C 2/C
;
_chemical_formula_sum "Si O2"
_cell_formula_units_Z 56
_cell_length_a 9.192661
_cell_length_b 24.407822
_cell_length_c 13.316554
_cell_angle_alpha 90.000000
_cell_angle_beta 119.134676
_cell_angle_gamma 90.000000
_cell_volume 2609.840477
_symmetry_space_group_name_H-M "C 2/C"
_symmetry_group_IT_number 15
_symmetry_cell_setting 'monoclinic'
loop_
_space_group_symop_operation_xyz
x,y,z
-x,y,1/2-z
-x,-y,-z
x,-y,1/2+z
1/2+x,1/2+y,z
1/2-x,1/2+y,1/2-z
1/2-x,1/2-y,-z
1/2+x,1/2-y,1/2+z
loop_
_atom_site_type_symbol
_atom_site_label
_atom_site_fract_x
_atom_site_fract_y
_atom_site_fract_z
Si Si1 0.080297 0.153231 0.494332
Si Si2 0.191498 0.017672 0.297108
Si Si3 0.180768 0.370271 0.590202
Si Si4 0.855466 0.786739 0.782124
Si Si5 0.882250 0.950382 0.935326
Si Si6 0.312470 0.086947 0.934668
Si Si7 0.156108 0.820641 0.245509
O O1 0.252376 0.159860 0.488832
O O2 0.111569 0.155134 0.622516
O O3 0.939275 0.197571 0.416576
O O4 0.005019 0.095638 0.435682
O O5 0.218957 0.073369 0.366607
O O6 0.235168 0.029326 0.195203
O O7 0.000000 0.998041 0.250000
O O8 0.319507 0.970401 0.376384
O O9 0.212170 0.329297 0.695822
O O10 0.988212 0.385005 0.515522
O O11 0.792379 0.725615 0.775557
O O12 0.000000 0.788219 0.750000
O O13 0.773870 0.926325 0.988998
O O14 0.000000 0.000000 0.000000
O O15 0.210671 0.129553 0.833949
O O16 0.000000 0.793095 0.250000
#
# Coordination Sequence:
#
# PCOD8150689 Si02
#       7
#     8   8   8   8   8   8   8
#     4  11  23  45  71  98 133 189 233 281 355 417
#     4  12  21  43  72  98 138 186 231 274 352 429
#     4  11  24  45  70 103 140 179 239 291 342 424
#     4  10  25  46  72 100 134 191 243 287 351 422
#     4  12  22  41  72  98 138 185 223 283 348 423
#     4  12  27  42  68 111 143 176 236 295 354 415
#     4  12  27  44  68 102 144 181 236 293 352 419
#
# _framework density 21.457249999999998
#
# number of rings (size 3 to 8) (size 9 to 14) (size 15 to 20)
#    0.000    0.571    5.714    2.143    4.000    3.429 
#    0.000    1.429    0.000    0.000    0.000    0.000 
#    0.000    0.000    0.000    0.000    0.000    0.000 
#
# Total GULP energy -347127.722803 kJ/mol
# GULP energy per Si atom -12397.418672 kJ/mol
# Density = 2.140841 g / cm^3
# Si number density = 21.457250 Si / 1000 Ang^3
#
#
#
# Elastic Constant Matrix: (Units=GPa)
#
#
# Indices 1 2 3 4 5 6 
#
# 1 77.9490 14.7019 71.6559 0.0000 -5.0685 0.0000
# 2 14.7019 96.5745 39.7067 0.0000 -7.6702 0.0000
# 3 71.6559 39.7067 143.1130 0.0000 -14.0400 0.0000
# 4 0.0000 0.0000 0.0000 13.3233 0.0000 -4.1968
# 5 -5.0685 -7.6702 -14.0400 0.0000 25.2289 0.0000
# 6 0.0000 0.0000 0.0000 -4.1968 0.0000 32.6518
#
#
#
# Elastic Compliance Matrix: (Units=1/GPa)
#
#
# Indices 1 2 3 4 5 6 
#
# 1 0.024021 0.001376 -0.012581 0.000000 -0.001757 0.000000
# 2 0.001376 0.011849 -0.003804 0.000000 0.001762 0.000000
# 3 -0.012581 -0.003804 0.014788 0.000000 0.004546 0.000000
# 4 0.000000 0.000000 0.000000 0.078223 0.000000 0.010054
# 5 -0.001757 0.001762 0.004546 0.000000 0.042349 0.000000
# 6 0.000000 0.000000 0.000000 0.010054 0.000000 0.031918
#
#
# Mechanical properties :
#
#
# Convention : Reuss Voigt Hill
#
# Bulk Modulus (GPa) = 48.44834 63.30725 55.87780
# Shear Modulus (GPa) = 20.82930 27.01228 23.92079
#
# Velocity S-wave (km/s) = 3.11904 3.55193 3.34250
# Velocity P-wave (km/s) = 5.96651 6.81099 6.40269
#
# Compressibility (1/GPa) = 0.02064054
#
# Stress axis : x y z
#
# Youngs Moduli (GPa) = 41.63100 84.39486 67.62156
#
# Poissons Ratio (x) = -0.11617 0.85077
# Poissons Ratio (y) = -0.05730 0.25722
# Poissons Ratio (z) = 0.52377 0.32103
#
# Static dielectric constant tensor:
#      x y z
#    x 4.948340 0.000000 -2.199580 
#    y 0.000000 3.920420 0.000000 
#    z -2.199580 0.000000 7.890050 
# 
# 
# High freq. dielectric constant tensor:
#      x y z
#    x 1.830180 0.000000 -0.008970 
#    y 0.000000 1.852160 0.000000 
#    z -0.008970 0.000000 1.855010 
# 
# From -- ./inp_files/137981.got.cif
#   From: 2010.06.25/outbox.cif.g09.slc.cpg/sg15_69_cif.got.tgz:137981.got - 2010.06.28 07:06:18.
