data_PCOD8150301
_publ_section_title
;
Structure prediction by ZEFSAII (Michael W. Deem and Ramdas Pophale) SiO2 
 PCOD8150301
Probable space group: C 2/C
;
_chemical_formula_sum "Si O2"
_cell_formula_units_Z 44
_cell_length_a 14.054164
_cell_length_b 26.191006
_cell_length_c 7.922647
_cell_angle_alpha 90.000000
_cell_angle_beta 46.789165
_cell_angle_gamma 90.000000
_cell_volume 2125.490672
_symmetry_space_group_name_H-M "C 2/C"
_symmetry_group_IT_number 15
_symmetry_cell_setting 'monoclinic'
loop_
_space_group_symop_operation_xyz
x,y,z
-x,y,1/2-z
-x,-y,-z
x,-y,1/2+z
1/2+x,1/2+y,z
1/2-x,1/2+y,1/2-z
1/2-x,1/2-y,-z
1/2+x,1/2-y,1/2+z
loop_
_atom_site_type_symbol
_atom_site_label
_atom_site_fract_x
_atom_site_fract_y
_atom_site_fract_z
Si Si1 0.000000 0.773386 0.250000
Si Si2 0.350188 0.453153 0.418688
Si Si3 0.500000 0.882585 0.250000
Si Si4 0.940292 0.324270 0.993954
Si Si5 0.000000 0.879527 0.750000
Si Si6 0.764379 0.942088 0.896813
Si Si7 0.346750 0.651363 0.732164
O O1 0.960762 0.737181 0.456388
O O2 0.878262 0.809161 0.344905
O O3 0.500000 0.471675 0.250000
O O4 0.292957 0.435447 0.665574
O O5 0.263161 0.498389 0.447539
O O6 0.340681 0.406084 0.304584
O O7 0.487667 0.846632 0.429717
O O8 0.374931 0.918663 0.387951
O O9 0.000000 0.350042 0.750000
O O10 0.787429 0.334676 0.194464
O O11 0.873947 0.914120 0.872225
O O12 0.035313 0.844316 0.546638
#
# Coordination Sequence:
#
# PCOD8150301 Si02
#       7
#     4   8   4   8   4   8   8
#     4  10  24  45  73 102 130 181 239 292 364 404
#     4  12  23  41  70  96 139 180 236 289 349 407
#     4  12  26  49  67 104 150 187 235 284 354 424
#     4  10  25  45  71  97 144 183 231 292 351 415
#     4  12  22  40  70  98 136 182 232 284 344 412
#     4  12  25  42  67 102 140 185 232 286 347 420
#     4  12  22  45  70 102 135 182 230 300 349 417
#
# _framework density 20.701101000000001
#
# number of rings (size 3 to 8) (size 9 to 14) (size 15 to 20)
#    0.545    0.000    5.455    3.273    0.000    1.455 
#    1.636    1.818    0.000    0.000    0.000    0.000 
#    0.000    0.000    0.000    0.000    0.000    0.000 
#
# Total GULP energy -272864.250123 kJ/mol
# GULP energy per Si atom -12402.920460 kJ/mol
# Density = 2.065398 g / cm^3
# Si number density = 20.701101 Si / 1000 Ang^3
#
#
#
# Elastic Constant Matrix: (Units=GPa)
#
#
# Indices 1 2 3 4 5 6 
#
# 1 105.6402 54.9582 35.1780 0.0000 -7.9155 0.0000
# 2 54.9582 129.3982 40.2583 0.0000 -7.7948 0.0000
# 3 35.1780 40.2583 103.4901 0.0000 2.3965 0.0000
# 4 0.0000 0.0000 0.0000 12.1091 0.0000 32.2103
# 5 -7.9155 -7.7948 2.3965 0.0000 45.2138 0.0000
# 6 0.0000 0.0000 0.0000 32.2103 0.0000 -53.3768
#
#
#
# Elastic Compliance Matrix: (Units=1/GPa)
#
#
# Indices 1 2 3 4 5 6 
#
# 1 0.012819 -0.004529 -0.002633 0.000000 0.001603 0.000000
# 2 -0.004529 0.010525 -0.002581 0.000000 0.001158 0.000000
# 3 -0.002633 -0.002581 0.011597 0.000000 -0.001521 0.000000
# 4 0.000000 0.000000 0.000000 0.031699 0.000000 0.019129
# 5 0.001603 0.001158 -0.001521 0.000000 0.022678 0.000000
# 6 0.000000 0.000000 0.000000 0.019129 0.000000 -0.007191
#
#
# Mechanical properties :
#
#
# Convention : Reuss Voigt Hill
#
# Bulk Modulus (GPa) = 64.70641 66.59083 65.64862
# Shear Modulus (GPa) = 46.83210 14.66482 30.74846
#
# Velocity S-wave (km/s) = 4.76152 2.66448 3.85821
# Velocity P-wave (km/s) = 7.84569 6.45783 7.18534
#
# Compressibility (1/GPa) = 0.01545442
#
# Stress axis : x y z
#
# Youngs Moduli (GPa) = 78.00926 95.01629 86.22832
#
# Poissons Ratio (x) = 0.43031 0.22702
# Poissons Ratio (y) = 0.35329 0.22260
# Poissons Ratio (z) = 0.20538 0.24528
#
# Static dielectric constant tensor:
#      x y z
#    x 3.754960 0.000000 0.134460 
#    y 0.000000 3.713810 0.000000 
#    z 0.134460 0.000000 3.864430 
# 
# 
# High freq. dielectric constant tensor:
#      x y z
#    x 1.814220 0.000000 0.005630 
#    y 0.000000 1.809930 0.000000 
#    z 0.005630 0.000000 1.809170 
# 
# From -- ./inp_files/43375.got.cif
#   From: 2010.06.25/outbox.cif.g09.slc.cpg/sg15_22_cif.got.tgz:43375.got - 2010.06.28 07:06:18.
