data_PCOD8150457
_publ_section_title
;
Structure prediction by ZEFSAII (Michael W. Deem and Ramdas Pophale) SiO2 
 PCOD8150457
Probable space group: C 2/C
;
_chemical_formula_sum "Si O2"
_cell_formula_units_Z 44
_cell_length_a 7.668012
_cell_length_b 15.680750
_cell_length_c 16.622717
_cell_angle_alpha 90.000000
_cell_angle_beta 96.187083
_cell_angle_gamma 90.000000
_cell_volume 1987.076508
_symmetry_space_group_name_H-M "C 2/C"
_symmetry_group_IT_number 15
_symmetry_cell_setting 'monoclinic'
loop_
_space_group_symop_operation_xyz
x,y,z
-x,y,1/2-z
-x,-y,-z
x,-y,1/2+z
1/2+x,1/2+y,z
1/2-x,1/2+y,1/2-z
1/2-x,1/2-y,-z
1/2+x,1/2-y,1/2+z
loop_
_atom_site_type_symbol
_atom_site_label
_atom_site_fract_x
_atom_site_fract_y
_atom_site_fract_z
Si Si1 0.392320 0.821966 0.520765
Si Si2 0.888818 0.720658 0.318551
Si Si3 0.682352 0.524594 0.047804
Si Si4 0.500000 0.060846 0.750000
Si Si5 0.644679 0.850339 0.398379
Si Si6 0.813028 0.068718 0.273930
O O1 0.250000 0.750000 0.500000
O O2 0.474629 0.825352 0.614528
O O3 0.547970 0.801172 0.465497
O O4 0.300462 0.913379 0.497638
O O5 0.793660 0.793923 0.363933
O O6 0.749397 0.654401 0.274095
O O7 0.000000 0.760451 0.250000
O O8 0.776137 0.435454 0.061573
O O9 0.660583 0.578633 0.129089
O O10 0.500000 0.500000 0.000000
O O11 0.499548 0.123376 0.674050
O O12 0.326525 0.004885 0.750030
O O13 0.000000 0.039292 0.250000
#
# Coordination Sequence:
#
# PCOD8150457 Si02
#       6
#     8   8   8   4   8   8
#     4  12  27  46  73 106 147 194 248 307 377 450
#     4  12  25  47  73 104 146 191 253 307 375 456
#     4  11  25  47  70 108 142 188 247 309 374 438
#     4  10  24  48  64 108 138 186 246 308 374 442
#     4  11  27  43  74 101 143 190 240 311 371 439
#     4  11  25  44  76 102 143 197 241 302 379 448
#
# _framework density 22.143083000000001
#
# number of rings (size 3 to 8) (size 9 to 14) (size 15 to 20)
#    0.000    0.727    2.727    3.273   11.455    2.909 
#    0.000    0.000    0.000    0.000    0.000    0.000 
#    0.000    0.000    0.000    0.000    0.000    0.000 
#
# Total GULP energy -272812.772612 kJ/mol
# GULP energy per Si atom -12400.580573 kJ/mol
# Density = 2.209268 g / cm^3
# Si number density = 22.143083 Si / 1000 Ang^3
#
#
#
# Elastic Constant Matrix: (Units=GPa)
#
#
# Indices 1 2 3 4 5 6 
#
# 1 154.4311 55.4311 68.5320 0.0000 -9.3048 0.0000
# 2 55.4311 113.3290 41.1928 0.0000 -2.6282 0.0000
# 3 68.5320 41.1928 121.7634 0.0000 0.4106 0.0000
# 4 0.0000 0.0000 0.0000 37.5543 0.0000 -5.6933
# 5 -9.3048 -2.6282 0.4106 0.0000 56.9601 0.0000
# 6 0.0000 0.0000 0.0000 -5.6933 0.0000 10.1377
#
#
#
# Elastic Compliance Matrix: (Units=1/GPa)
#
#
# Indices 1 2 3 4 5 6 
#
# 1 0.009607 -0.003076 -0.004372 0.000000 0.001459 0.000000
# 2 -0.003076 0.011060 -0.002010 0.000000 0.000022 0.000000
# 3 -0.004372 -0.002010 0.011356 0.000000 -0.000889 0.000000
# 4 0.000000 0.000000 0.000000 0.029106 0.000000 0.016346
# 5 0.001459 0.000022 -0.000889 0.000000 0.017802 0.000000
# 6 0.000000 0.000000 0.000000 0.016346 0.000000 0.107822
#
#
# Mechanical properties :
#
#
# Convention : Reuss Voigt Hill
#
# Bulk Modulus (GPa) = 76.29386 79.98172 78.13779
# Shear Modulus (GPa) = 23.80515 35.88824 29.84670
#
# Velocity S-wave (km/s) = 3.28237 4.03021 3.67536
# Velocity P-wave (km/s) = 6.99250 7.60629 7.30584
#
# Compressibility (1/GPa) = 0.01310721
#
# Stress axis : x y z
#
# Youngs Moduli (GPa) = 104.08563 90.41811 88.05837
#
# Poissons Ratio (x) = 0.27816 0.38495
# Poissons Ratio (y) = 0.32021 0.17701
# Poissons Ratio (z) = 0.45501 0.18175
#
# Static dielectric constant tensor:
#      x y z
#    x 4.076020 0.000000 0.053170 
#    y 0.000000 3.925930 0.000000 
#    z 0.053170 0.000000 4.381180 
# 
# 
# High freq. dielectric constant tensor:
#      x y z
#    x 1.885710 0.000000 0.005240 
#    y 0.000000 1.869400 0.000000 
#    z 0.005240 0.000000 1.885380 
# 
# From -- ./inp_files/188917.got.cif
#   From: 2010.06.25/outbox.cif.g09.slc.cpg/sg15_95_cif.got.tgz:188917.got - 2010.06.28 07:06:18.
