data_PCOD8150767
_publ_section_title
;
Structure prediction by ZEFSAII (Michael W. Deem and Ramdas Pophale) SiO2 
 PCOD8150767
Probable space group: C 2/C
;
_chemical_formula_sum "Si O2"
_cell_formula_units_Z 56
_cell_length_a 6.197200
_cell_length_b 16.253959
_cell_length_c 30.737841
_cell_angle_alpha 90.000000
_cell_angle_beta 59.301421
_cell_angle_gamma 90.000000
_cell_volume 2662.307833
_symmetry_space_group_name_H-M "C 2/C"
_symmetry_group_IT_number 15
_symmetry_cell_setting 'monoclinic'
loop_
_space_group_symop_operation_xyz
x,y,z
-x,y,1/2-z
-x,-y,-z
x,-y,1/2+z
1/2+x,1/2+y,z
1/2-x,1/2+y,1/2-z
1/2-x,1/2-y,-z
1/2+x,1/2-y,1/2+z
loop_
_atom_site_type_symbol
_atom_site_label
_atom_site_fract_x
_atom_site_fract_y
_atom_site_fract_z
Si Si1 0.124098 0.974926 0.865873
Si Si2 0.505662 0.376387 0.699655
Si Si3 0.558320 0.832988 0.635044
Si Si4 0.878001 0.384774 0.388488
Si Si5 0.208704 0.226238 0.696973
Si Si6 0.882077 0.456766 0.053737
Si Si7 0.381349 0.291687 0.446204
O O1 0.235526 0.904340 0.884982
O O2 0.142379 0.945460 0.813516
O O3 0.272318 0.060020 0.859394
O O4 0.834523 0.983199 0.907635
O O5 0.500000 0.405497 0.750000
O O6 0.389670 0.285530 0.706137
O O7 0.789829 0.373186 0.653543
O O8 0.548615 0.781635 0.680485
O O9 0.645461 0.773932 0.588486
O O10 0.673565 0.315916 0.423283
O O11 0.133051 0.342839 0.344885
O O12 0.926455 0.441427 0.425910
O O13 0.000000 0.184240 0.750000
O O14 0.777535 0.370274 0.049673
O O15 0.000000 0.500000 0.000000
O O16 0.250000 0.250000 0.500000
#
# Coordination Sequence:
#
# PCOD8150767 Si02
#       7
#     8   8   8   8   8   8   8
#     4  10  26  42  69  96 137 179 216 273 340 397
#     4  11  22  42  73  99 133 173 225 275 333 397
#     4  11  22  43  68  99 136 168 228 275 329 402
#     4  11  24  47  66  99 143 174 227 280 336 414
#     4  11  22  41  72  99 128 179 222 280 338 395
#     4  11  26  45  66  95 139 184 222 275 345 399
#     4  11  26  40  71 103 131 177 229 279 339 400
#
# _framework density 21.034382000000001
#
# number of rings (size 3 to 8) (size 9 to 14) (size 15 to 20)
#    0.000    1.143    4.286    0.857    6.000    1.714 
#    0.000    4.286    3.143    0.000    0.000    0.000 
#    0.000    0.000    0.000    0.000    0.000    0.000 
#
# Total GULP energy -347219.800652 kJ/mol
# GULP energy per Si atom -12400.707166 kJ/mol
# Density = 2.098651 g / cm^3
# Si number density = 21.034382 Si / 1000 Ang^3
#
#
#
# Elastic Constant Matrix: (Units=GPa)
#
#
# Indices 1 2 3 4 5 6 
#
# 1 105.1884 43.2633 44.7473 0.0004 2.5462 0.0003
# 2 43.2633 96.0169 58.4472 0.0002 -0.7474 0.0002
# 3 44.7473 58.4472 126.1980 0.0012 0.0868 -0.0004
# 4 0.0004 0.0002 0.0012 32.4212 -0.0005 -1.2788
# 5 2.5462 -0.7474 0.0868 -0.0005 30.3697 0.0002
# 6 0.0003 0.0002 -0.0004 -1.2788 0.0002 37.2660
#
#
#
# Elastic Compliance Matrix: (Units=1/GPa)
#
#
# Indices 1 2 3 4 5 6 
#
# 1 0.012240 -0.004014 -0.002480 0.000000 -0.001118 0.000000
# 2 -0.004014 0.015824 -0.005906 0.000000 0.000743 0.000000
# 3 -0.002480 -0.005906 0.011539 0.000000 0.000030 0.000000
# 4 0.000000 0.000000 0.000000 0.030886 0.000000 0.001060
# 5 -0.001118 0.000743 0.000030 0.000000 0.033039 0.000000
# 6 0.000000 0.000000 0.000000 0.001060 0.000000 0.026870
#
#
# Mechanical properties :
#
#
# Convention : Reuss Voigt Hill
#
# Bulk Modulus (GPa) = 67.55647 68.92431 68.24039
# Shear Modulus (GPa) = 31.22393 32.07441 31.64917
#
# Velocity S-wave (km/s) = 3.85700 3.90918 3.88318
# Velocity P-wave (km/s) = 7.21264 7.29480 7.25384
#
# Compressibility (1/GPa) = 0.01480243
#
# Stress axis : x y z
#
# Youngs Moduli (GPa) = 81.70062 63.19358 86.66398
#
# Poissons Ratio (x) = 0.25366 0.21494
# Poissons Ratio (y) = 0.32794 0.51185
# Poissons Ratio (z) = 0.20263 0.37323
#
# Static dielectric constant tensor:
#      x y z
#    x 4.109500 0.000000 0.137900 
#    y 0.000000 3.838380 0.000000 
#    z 0.137900 0.000000 3.854530 
# 
# 
# High freq. dielectric constant tensor:
#      x y z
#    x 1.840150 0.000000 0.002950 
#    y 0.000000 1.824800 0.000000 
#    z 0.002950 0.000000 1.820210 
# 
# From -- ./inp_files/286020.got.cif
#   From: 2010.06.25/outbox.cif.g09.slc.cpg/sg15_144_cif.got.tgz:286020.got - 2010.06.28 07:06:18.
