data_PCOD8150618
_publ_section_title
;
Structure prediction by ZEFSAII (Michael W. Deem and Ramdas Pophale) SiO2 
 PCOD8150618
Probable space group: C 2/C
;
_chemical_formula_sum "Si O2"
_cell_formula_units_Z 48
_cell_length_a 16.688364
_cell_length_b 10.766106
_cell_length_c 22.710121
_cell_angle_alpha 90.000000
_cell_angle_beta 31.765529
_cell_angle_gamma 90.000000
_cell_volume 2148.049845
_symmetry_space_group_name_H-M "C 2/C"
_symmetry_group_IT_number 15
_symmetry_cell_setting 'monoclinic'
loop_
_space_group_symop_operation_xyz
x,y,z
-x,y,1/2-z
-x,-y,-z
x,-y,1/2+z
1/2+x,1/2+y,z
1/2-x,1/2+y,1/2-z
1/2-x,1/2-y,-z
1/2+x,1/2-y,1/2+z
loop_
_atom_site_type_symbol
_atom_site_label
_atom_site_fract_x
_atom_site_fract_y
_atom_site_fract_z
Si Si1 0.474841 0.710026 0.068466
Si Si2 0.617973 0.907817 0.452628
Si Si3 0.178357 0.617503 0.214740
Si Si4 0.680419 0.501509 0.981237
Si Si5 0.549734 0.625285 0.784326
Si Si6 0.437873 0.941235 0.405407
O O1 0.455308 0.772014 0.015328
O O2 0.307557 0.648352 0.183484
O O3 0.599568 0.602354 0.989547
O O4 0.525159 0.811687 0.085570
O O5 0.776153 0.921398 0.318494
O O6 0.500000 0.000000 0.500000
O O7 0.633040 0.945432 0.511195
O O8 0.050607 0.725761 0.292800
O O9 0.098377 0.487709 0.279740
O O10 0.250165 0.604232 0.104222
O O11 0.557921 0.441637 0.101720
O O12 0.812792 0.576915 0.932810
O O13 0.500000 0.589330 0.750000
#
# Coordination Sequence:
#
# PCOD8150618 Si02
#       6
#     8   8   8   8   8   8
#     4  10  25  44  69 100 136 179 223 281 341 404
#     4   9  21  42  65  96 132 173 226 272 329 408
#     4  11  27  42  69 100 139 179 225 286 339 403
#     4  12  25  45  70 102 139 174 232 285 342 401
#     4  11  23  42  69 101 130 182 227 281 338 401
#     4  11  23  46  71  99 137 180 228 279 343 410
#
# _framework density 22.345849999999999
#
# number of rings (size 3 to 8) (size 9 to 14) (size 15 to 20)
#    0.000    1.333    1.667    2.500   11.667    2.667 
#    3.000    0.000    0.000    0.000    0.000    0.000 
#    0.000    0.000    0.000    0.000    0.000    0.000 
#
# Total GULP energy -297379.169962 kJ/mol
# GULP energy per Si atom -12390.798748 kJ/mol
# Density = 2.229499 g / cm^3
# Si number density = 22.345850 Si / 1000 Ang^3
#
#
#
# Elastic Constant Matrix: (Units=GPa)
#
#
# Indices 1 2 3 4 5 6 
#
# 1 91.1355 34.0522 24.1430 -0.0006 -23.3332 0.0002
# 2 34.0522 80.7260 33.0153 -0.0006 -7.6357 0.0000
# 3 24.1430 33.0153 100.8006 -0.0011 -2.9105 0.0001
# 4 -0.0006 -0.0006 -0.0011 26.5764 0.0000 -8.1232
# 5 -23.3332 -7.6357 -2.9105 0.0000 34.1710 0.0001
# 6 0.0002 0.0000 0.0001 -8.1232 0.0001 45.1228
#
#
#
# Elastic Compliance Matrix: (Units=1/GPa)
#
#
# Indices 1 2 3 4 5 6 
#
# 1 0.015760 -0.004987 -0.001867 0.000000 0.009488 0.000000
# 2 -0.004987 0.016155 -0.004101 0.000000 -0.000145 0.000000
# 3 -0.001867 -0.004101 0.011676 0.000000 -0.001197 0.000000
# 4 0.000000 0.000000 0.000000 0.039818 0.000000 0.007168
# 5 0.009488 -0.000145 -0.001197 0.000000 0.035609 0.000000
# 6 0.000000 0.000000 0.000000 0.007168 0.000000 0.023452
#
#
# Mechanical properties :
#
#
# Convention : Reuss Voigt Hill
#
# Bulk Modulus (GPa) = 46.12375 50.56480 48.34427
# Shear Modulus (GPa) = 29.13625 33.27082 31.20353
#
# Velocity S-wave (km/s) = 3.61484 3.86282 3.74088
# Velocity P-wave (km/s) = 6.17320 6.52476 6.35142
#
# Compressibility (1/GPa) = 0.02168081
#
# Stress axis : x y z
#
# Youngs Moduli (GPa) = 63.45255 61.90187 85.64236
#
# Poissons Ratio (x) = 0.30868 0.15993
# Poissons Ratio (y) = 0.31642 0.35121
# Poissons Ratio (z) = 0.11849 0.25386
#
# Static dielectric constant tensor:
#      x y z
#    x 11.798440 -0.000230 5.306460 
#    y -0.000230 13.263520 -0.000160 
#    z 5.306460 -0.000160 8.627100 
# 
# 
# High freq. dielectric constant tensor:
#      x y z
#    x 1.894040 0.000000 -0.021240 
#    y 0.000000 1.877910 0.000000 
#    z -0.021240 0.000000 1.870930 
# 
# From -- ./inp_files/277222.got.cif
#   From: 2010.06.25/outbox.cif.g09.slc.cpg/sg15_139_cif.got.tgz:277222.got - 2010.06.28 07:06:18.
