data_PCOD8150680
_publ_section_title
;
Structure prediction by ZEFSAII (Michael W. Deem and Ramdas Pophale) SiO2 
 PCOD8150680
Probable space group: C 2/C
;
_chemical_formula_sum "Si O2"
_cell_formula_units_Z 56
_cell_length_a 10.863623
_cell_length_b 9.326710
_cell_length_c 30.905476
_cell_angle_alpha 90.000000
_cell_angle_beta 124.119691
_cell_angle_gamma 90.000000
_cell_volume 2592.384923
_symmetry_space_group_name_H-M "C 2/C"
_symmetry_group_IT_number 15
_symmetry_cell_setting 'monoclinic'
loop_
_space_group_symop_operation_xyz
x,y,z
-x,y,1/2-z
-x,-y,-z
x,-y,1/2+z
1/2+x,1/2+y,z
1/2-x,1/2+y,1/2-z
1/2-x,1/2-y,-z
1/2+x,1/2-y,1/2+z
loop_
_atom_site_type_symbol
_atom_site_label
_atom_site_fract_x
_atom_site_fract_y
_atom_site_fract_z
Si Si1 0.649744 0.966925 0.628842
Si Si2 0.653850 0.174134 0.039797
Si Si3 0.194215 0.239241 0.859589
Si Si4 0.834903 0.429913 0.049776
Si Si5 0.658868 0.693749 0.022688
Si Si6 0.671099 0.049113 0.281804
Si Si7 0.848785 0.239863 0.799700
O O1 0.686958 0.921417 0.587500
O O2 0.699853 0.839779 0.670048
O O3 0.745596 0.108262 0.657977
O O4 0.475281 0.001734 0.602321
O O5 0.800847 0.269587 0.059397
O O6 0.626410 0.068832 0.993769
O O7 0.513228 0.276705 0.019563
O O8 0.289672 0.236818 0.922147
O O9 0.217846 0.387892 0.837939
O O10 0.023264 0.209153 0.836128
O O11 0.688774 0.523744 0.030751
O O12 0.750000 0.750000 0.000000
O O13 0.500000 0.000211 0.250000
O O14 0.695378 0.178538 0.252813
O O15 0.766790 0.911906 0.287439
#
# Coordination Sequence:
#
# PCOD8150680 Si02
#       7
#     8   8   8   8   8   8   8
#     4  12  23  40  65  94 132 167 216 264 318 379
#     4  11  24  39  60  93 130 179 221 261 310 367
#     4  11  24  41  65  95 130 164 212 264 319 381
#     4  11  23  39  59  89 132 172 220 264 306 367
#     4  12  21  40  63  88 131 177 216 262 310 369
#     4  10  25  46  69  94 125 160 208 268 327 393
#     4  11  24  45  69  96 124 164 207 266 333 388
#
# _framework density 21.601731999999998
#
# number of rings (size 3 to 8) (size 9 to 14) (size 15 to 20)
#    0.000    0.857    4.286    2.571    2.000    2.286 
#    2.571    0.000    0.000    0.000    0.000    0.000 
#    0.000    0.000    0.000    0.000    0.000    0.000 
#
# Total GULP energy -347320.550790 kJ/mol
# GULP energy per Si atom -12404.305385 kJ/mol
# Density = 2.155257 g / cm^3
# Si number density = 21.601732 Si / 1000 Ang^3
#
#
#
# Elastic Constant Matrix: (Units=GPa)
#
#
# Indices 1 2 3 4 5 6 
#
# 1 77.2288 30.7678 17.3577 0.0000 -13.2749 0.0000
# 2 30.7678 95.4365 15.9953 0.0000 -2.8336 0.0000
# 3 17.3577 15.9953 72.1250 0.0000 -14.7529 0.0000
# 4 0.0000 0.0000 0.0000 28.7858 0.0000 -4.2884
# 5 -13.2749 -2.8336 -14.7529 0.0000 14.6472 0.0000
# 6 0.0000 0.0000 0.0000 -4.2884 0.0000 46.8863
#
#
#
# Elastic Compliance Matrix: (Units=1/GPa)
#
#
# Indices 1 2 3 4 5 6 
#
# 1 0.017600 -0.005227 -0.000026 0.000000 0.014914 0.000000
# 2 -0.005227 0.012437 -0.002490 0.000000 -0.004839 0.000000
# 3 -0.000026 -0.002490 0.018036 0.000000 0.017661 0.000000
# 4 0.000000 0.000000 0.000000 0.035219 0.000000 0.003221
# 5 0.014914 -0.004839 0.017661 0.000000 0.098641 0.000000
# 6 0.000000 0.000000 0.000000 0.003221 0.000000 0.021623
#
#
# Mechanical properties :
#
#
# Convention : Reuss Voigt Hill
#
# Bulk Modulus (GPa) = 30.68708 41.44800 36.06754
# Shear Modulus (GPa) = 21.74811 30.10849 25.92830
#
# Velocity S-wave (km/s) = 3.17642 3.73741 3.46828
# Velocity P-wave (km/s) = 5.26208 6.15251 5.72463
#
# Compressibility (1/GPa) = 0.03258700
#
# Stress axis : x y z
#
# Youngs Moduli (GPa) = 56.81683 80.40539 55.44560
#
# Poissons Ratio (x) = 0.42028 0.00144
# Poissons Ratio (y) = 0.29698 0.13807
# Poissons Ratio (z) = 0.00147 0.20022
#
# Static dielectric constant tensor:
#      x y z
#    x 3.929960 0.000000 -0.133150 
#    y 0.000000 3.968620 0.000000 
#    z -0.133150 0.000000 3.788080 
# 
# 
# High freq. dielectric constant tensor:
#      x y z
#    x 1.853400 0.000000 -0.011890 
#    y 0.000000 1.860020 0.000000 
#    z -0.011890 0.000000 1.839560 
# 
# From -- ./inp_files/310386.got.cif
#   From: 2010.06.25/outbox.cif.g09.slc.cpg/sg15_156_cif.got.tgz:310386.got - 2010.06.28 07:06:18.
