data_PCOD8150322
_publ_section_title
;
Structure prediction by ZEFSAII (Michael W. Deem and Ramdas Pophale) SiO2 
 PCOD8150322
Probable space group: C 2/C
;
_chemical_formula_sum "Si O2"
_cell_formula_units_Z 56
_cell_length_a 24.955878
_cell_length_b 22.385879
_cell_length_c 7.230266
_cell_angle_alpha 90.000000
_cell_angle_beta 147.920887
_cell_angle_gamma 90.000000
_cell_volume 2145.206890
_symmetry_space_group_name_H-M "C 2/C"
_symmetry_group_IT_number 15
_symmetry_cell_setting 'monoclinic'
loop_
_space_group_symop_operation_xyz
x,y,z
-x,y,1/2-z
-x,-y,-z
x,-y,1/2+z
1/2+x,1/2+y,z
1/2-x,1/2+y,1/2-z
1/2-x,1/2-y,-z
1/2+x,1/2-y,1/2+z
loop_
_atom_site_type_symbol
_atom_site_label
_atom_site_fract_x
_atom_site_fract_y
_atom_site_fract_z
Si Si1 0.539249 0.435757 0.667099
Si Si2 0.500000 0.814920 0.250000
Si Si3 0.769244 0.404540 0.301933
Si Si4 0.834771 0.603081 0.419880
Si Si5 0.116314 0.489080 0.114739
Si Si6 0.000000 0.847200 0.250000
Si Si7 0.283355 0.316160 0.670212
Si Si8 0.809897 0.716989 0.020978
O O1 0.500000 0.417378 0.750000
O O2 0.500000 0.500000 0.500000
O O3 0.484843 0.388485 0.381800
O O4 0.659777 0.434060 0.994304
O O5 0.567372 0.854910 0.308900
O O6 0.570073 0.773174 0.589995
O O7 0.851359 0.452572 0.475457
O O8 0.795673 0.354943 0.540235
O O9 0.776140 0.347896 0.172917
O O10 0.818926 0.554254 0.194767
O O11 0.863099 0.550534 0.647626
O O12 0.738438 0.639469 0.217373
O O13 0.000000 0.506467 0.750000
O O14 0.100582 0.808860 0.550646
O O15 0.266191 0.246869 0.698030
O O16 0.750000 0.750000 0.000000
#
# Coordination Sequence:
#
# PCOD8150322 Si02
#       8
#     8   4   8   8   8   4   8   8
#     4  11  24  42  71 104 150 191 245 294 369 438
#     4  12  26  44  70 108 142 184 242 296 366 434
#     4  10  26  45  70 104 140 190 237 294 368 429
#     4  11  24  41  67 100 141 173 230 287 349 435
#     4  11  23  40  68  98 139 182 225 282 360 425
#     4  10  24  46  66 106 138 196 240 302 358 436
#     4  10  24  49  70  98 142 182 244 301 355 428
#     4  12  26  47  73 101 142 187 242 300 359 423
#
# _framework density 26.104707000000001
#
# number of rings (size 3 to 8) (size 9 to 14) (size 15 to 20)
#    0.000    1.143    2.857    1.714    6.000    3.429 
#    6.429    0.000    0.000    0.000    0.000    0.000 
#    0.000    0.000    0.000    0.000    0.000    0.000 
#
# Total GULP energy -346934.649863 kJ/mol
# GULP energy per Si atom -12390.523209 kJ/mol
# Density = 2.604529 g / cm^3
# Si number density = 26.104707 Si / 1000 Ang^3
#
#
#
# Elastic Constant Matrix: (Units=GPa)
#
#
# Indices 1 2 3 4 5 6 
#
# 1 122.8382 56.7986 12.3803 0.0000 8.7769 0.0000
# 2 56.7986 188.4526 43.2227 0.0000 15.6946 0.0000
# 3 12.3803 43.2227 98.4244 0.0000 17.2712 0.0000
# 4 0.0000 0.0000 0.0000 34.8466 0.0000 4.5976
# 5 8.7769 15.6946 17.2712 0.0000 41.6110 0.0000
# 6 0.0000 0.0000 0.0000 4.5976 0.0000 35.9444
#
#
#
# Elastic Compliance Matrix: (Units=1/GPa)
#
#
# Indices 1 2 3 4 5 6 
#
# 1 0.009500 -0.002830 0.000229 0.000000 -0.001031 0.000000
# 2 -0.002830 0.006804 -0.002466 0.000000 -0.000946 0.000000
# 3 0.000229 -0.002466 0.011928 0.000000 -0.004069 0.000000
# 4 0.000000 0.000000 0.000000 0.029190 0.000000 -0.003734
# 5 -0.001031 -0.000946 -0.004069 0.000000 0.026295 0.000000
# 6 0.000000 0.000000 0.000000 -0.003734 0.000000 0.028298
#
#
# Mechanical properties :
#
#
# Convention : Reuss Voigt Hill
#
# Bulk Modulus (GPa) = 55.25511 70.50205 62.87858
# Shear Modulus (GPa) = 39.00716 42.30130 40.65423
#
# Velocity S-wave (km/s) = 3.86976 4.02984 3.95061
# Velocity P-wave (km/s) = 6.41711 6.97989 6.70441
#
# Compressibility (1/GPa) = 0.01809787
#
# Stress axis : x y z
#
# Youngs Moduli (GPa) = 105.26453 146.98143 83.83471
#
# Poissons Ratio (x) = 0.41592 -0.01918
# Poissons Ratio (y) = 0.29788 0.20673
# Poissons Ratio (z) = -0.02408 0.36244
#
# Static dielectric constant tensor:
#      x y z
#    x 5.607930 0.000000 -0.735400 
#    y 0.000000 5.773720 0.000000 
#    z -0.735400 0.000000 5.005540 
# 
# 
# High freq. dielectric constant tensor:
#      x y z
#    x 2.085050 0.000000 -0.038420 
#    y 0.000000 2.099670 0.000000 
#    z -0.038420 0.000000 2.043760 
# 
# From -- ./inp_files/70861.got.cif
#   From: 2010.06.25/outbox.cif.g09.slc.cpg/sg15_36_cif.got.tgz:70861.got - 2010.06.28 07:06:18.
