data_PCOD8150838
_publ_section_title
;
Structure prediction by ZEFSAII (Michael W. Deem and Ramdas Pophale) SiO2 
 PCOD8150838
Probable space group: C 2/C
;
_chemical_formula_sum "Si O2"
_cell_formula_units_Z 28
_cell_length_a 10.410741
_cell_length_b 18.672814
_cell_length_c 12.918986
_cell_angle_alpha 90.000000
_cell_angle_beta 29.656397
_cell_angle_gamma 90.000000
_cell_volume 1242.645703
_symmetry_space_group_name_H-M "C 2/C"
_symmetry_group_IT_number 15
_symmetry_cell_setting 'monoclinic'
loop_
_space_group_symop_operation_xyz
x,y,z
-x,y,1/2-z
-x,-y,-z
x,-y,1/2+z
1/2+x,1/2+y,z
1/2-x,1/2+y,1/2-z
1/2-x,1/2-y,-z
1/2+x,1/2-y,1/2+z
loop_
_atom_site_type_symbol
_atom_site_label
_atom_site_fract_x
_atom_site_fract_y
_atom_site_fract_z
Si Si1 0.634204 0.189246 0.259545
Si Si2 0.550566 0.418540 0.490228
Si Si3 0.561404 0.825161 0.396689
Si Si4 0.000000 0.861324 0.750000
O O1 0.500000 0.219656 0.250000
O O2 0.835390 0.129153 0.081916
O O3 0.434354 0.155194 0.482903
O O4 0.775064 0.252006 0.227703
O O5 0.500000 0.500000 0.500000
O O6 0.823698 0.389960 0.252966
O O7 0.522810 0.411118 0.632891
O O8 0.261289 0.813255 0.571292
#
# Coordination Sequence:
#
# PCOD8150838 Si02
#       4
#     8   8   8   4
#     4  11  24  42  70 105 138 183 238 286 344 411
#     4  11  26  45  69 102 141 185 227 289 353 412
#     4  11  23  43  70 100 138 181 230 288 344 404
#     4  10  26  46  68 102 142 178 238 280 350 418
#
# _framework density 22.532568999999999
#
# number of rings (size 3 to 8) (size 9 to 14) (size 15 to 20)
#    0.000    1.143    2.857    1.714    0.000   13.714 
#    0.000    0.000    0.000    0.000    0.000    0.000 
#    0.000    0.000    0.000    0.000    0.000    0.000 
#
# Total GULP energy -173488.109564 kJ/mol
# GULP energy per Si atom -12392.007826 kJ/mol
# Density = 2.248128 g / cm^3
# Si number density = 22.532569 Si / 1000 Ang^3
#
#
#
# Elastic Constant Matrix: (Units=GPa)
#
#
# Indices 1 2 3 4 5 6 
#
# 1 142.8277 54.6715 61.4862 -0.0102 8.4964 0.0102
# 2 54.6715 149.7028 54.0522 0.0300 -10.6689 -0.0081
# 3 61.4862 54.0522 143.5839 0.1037 11.6538 -0.0226
# 4 -0.0102 0.0300 0.1037 29.7180 -0.0496 3.6210
# 5 8.4964 -10.6689 11.6538 -0.0496 34.2737 0.0212
# 6 0.0102 -0.0081 -0.0226 3.6210 0.0212 30.1725
#
#
#
# Elastic Compliance Matrix: (Units=1/GPa)
#
#
# Indices 1 2 3 4 5 6 
#
# 1 0.009330 -0.002521 -0.002874 0.000013 -0.002120 -0.000006
# 2 -0.002521 0.008841 -0.002594 0.000007 0.004259 -0.000002
# 3 -0.002874 -0.002594 0.009440 -0.000039 -0.003305 0.000014
# 4 0.000013 0.000007 -0.000039 0.034149 0.000064 -0.004098
# 5 -0.002120 0.004259 -0.003305 0.000064 0.032152 -0.000031
# 6 -0.000006 -0.000002 0.000014 -0.004098 -0.000031 0.033635
#
#
# Mechanical properties :
#
#
# Convention : Reuss Voigt Hill
#
# Bulk Modulus (GPa) = 85.96744 86.28156 86.12450
# Shear Modulus (GPa) = 33.92071 36.55982 35.24027
#
# Velocity S-wave (km/s) = 3.88417 4.03244 3.95900
# Velocity P-wave (km/s) = 7.63878 7.74957 7.69438
#
# Compressibility (1/GPa) = 0.01163231
#
# Stress axis : x y z
#
# Youngs Moduli (GPa) = 107.18423 113.11378 105.92805
#
# Poissons Ratio (x) = 0.28510 0.30447
# Poissons Ratio (y) = 0.27016 0.27482
# Poissons Ratio (z) = 0.30808 0.29346
#
# Static dielectric constant tensor:
#      x y z
#    x 4.258070 0.000000 0.171220 
#    y 0.000000 3.575890 0.000040 
#    z 0.171220 0.000040 4.645500 
# 
# 
# High freq. dielectric constant tensor:
#      x y z
#    x 1.892930 0.000000 0.015200 
#    y 0.000000 1.848190 0.000010 
#    z 0.015200 0.000010 1.917140 
# 
# From -- ./inp_files/145347.got.cif
#   From: 2010.06.25/outbox.cif.g09.slc.cpg/sg15_73_cif.got.tgz:145347.got - 2010.06.28 07:06:18.
