data_PCOD8150068
_publ_section_title
;
Structure prediction by ZEFSAII (Michael W. Deem and Ramdas Pophale) SiO2 
 PCOD8150068
Probable space group: C 2/C
;
_chemical_formula_sum "Si O2"
_cell_formula_units_Z 44
_cell_length_a 28.190307
_cell_length_b 11.720308
_cell_length_c 8.232948
_cell_angle_alpha 90.000000
_cell_angle_beta 50.145791
_cell_angle_gamma 90.000000
_cell_volume 2088.204590
_symmetry_space_group_name_H-M "C 2/C"
_symmetry_group_IT_number 15
_symmetry_cell_setting 'monoclinic'
loop_
_space_group_symop_operation_xyz
x,y,z
-x,y,1/2-z
-x,-y,-z
x,-y,1/2+z
1/2+x,1/2+y,z
1/2-x,1/2+y,1/2-z
1/2-x,1/2-y,-z
1/2+x,1/2-y,1/2+z
loop_
_atom_site_type_symbol
_atom_site_label
_atom_site_fract_x
_atom_site_fract_y
_atom_site_fract_z
Si Si1 0.932963 0.852639 0.105789
Si Si2 0.000000 0.035794 0.750000
Si Si3 0.209901 0.857955 0.126506
Si Si4 0.732098 0.059854 0.705556
Si Si5 0.857663 0.557229 0.852415
Si Si6 0.062183 0.388689 0.043211
O O1 0.859788 0.838914 0.274603
O O2 0.961831 0.880741 0.216932
O O3 0.958424 0.729877 0.994077
O O4 0.950541 0.955296 0.947245
O O5 0.214957 0.871499 0.313000
O O6 0.250000 0.750000 0.000000
O O7 0.234770 0.960810 0.964664
O O8 0.686900 0.127197 0.676488
O O9 0.686766 0.023025 0.948020
O O10 0.905482 0.475998 0.650702
O O11 0.893406 0.639635 0.898820
O O12 0.000000 0.447399 0.250000
#
# Coordination Sequence:
#
# PCOD8150068 Si02
#       6
#     8   4   8   8   8   8
#     4  11  22  43  62  88 120 164 214 258 298 360
#     4  10  24  44  64  84 120 170 218 260 298 348
#     4  11  21  38  63  90 122 158 200 252 313 362
#     4   9  19  37  57  90 116 155 192 241 309 360
#     4   9  19  37  59  84 127 149 188 247 299 377
#     4  11  21  39  58  90 118 162 200 242 303 360
#
# _framework density 21.070732
#
# number of rings (size 3 to 8) (size 9 to 14) (size 15 to 20)
#    0.000    1.818    0.909    4.909    0.000    0.000 
#   11.455   10.000    0.000    0.000    0.000    0.000 
#    0.000    0.000    0.000    0.000    0.000    0.000 
#
# Total GULP energy -272554.876846 kJ/mol
# GULP energy per Si atom -12388.858038 kJ/mol
# Density = 2.102277 g / cm^3
# Si number density = 21.070732 Si / 1000 Ang^3
#
#
#
# Elastic Constant Matrix: (Units=GPa)
#
#
# Indices 1 2 3 4 5 6 
#
# 1 158.4217 40.1804 29.2130 0.0000 16.2508 0.0000
# 2 40.1804 59.5453 -4.1636 0.0000 10.9244 0.0000
# 3 29.2130 -4.1636 73.0424 0.0000 -4.2510 0.0000
# 4 0.0000 0.0000 0.0000 27.9874 0.0000 2.6813
# 5 16.2508 10.9244 -4.2510 0.0000 43.1645 0.0000
# 6 0.0000 0.0000 0.0000 2.6813 0.0000 25.6265
#
#
#
# Elastic Compliance Matrix: (Units=1/GPa)
#
#
# Indices 1 2 3 4 5 6 
#
# 1 0.008728 -0.005759 -0.003948 0.000000 -0.002217 0.000000
# 2 -0.005759 0.021452 0.003356 0.000000 -0.002931 0.000000
# 3 -0.003948 0.003356 0.015587 0.000000 0.002172 0.000000
# 4 0.000000 0.000000 0.000000 0.036092 0.000000 -0.003776
# 5 -0.002217 -0.002931 0.002172 0.000000 0.024958 0.000000
# 6 0.000000 0.000000 0.000000 -0.003776 0.000000 0.039417
#
#
# Mechanical properties :
#
#
# Convention : Reuss Voigt Hill
#
# Bulk Modulus (GPa) = 30.24356 46.82988 38.53672
# Shear Modulus (GPa) = 29.41858 34.40763 31.91311
#
# Velocity S-wave (km/s) = 3.74061 4.04537 3.89597
# Velocity P-wave (km/s) = 5.74810 6.64028 6.21024
#
# Compressibility (1/GPa) = 0.03306489
#
# Stress axis : x y z
#
# Youngs Moduli (GPa) = 114.56763 46.61476 64.15409
#
# Poissons Ratio (x) = 0.26846 0.25330
# Poissons Ratio (y) = 0.65981 -0.21528
# Poissons Ratio (z) = 0.45234 -0.15642
#
# Static dielectric constant tensor:
#      x y z
#    x 4.669290 0.000000 0.144720 
#    y 0.000000 3.415360 0.000000 
#    z 0.144720 0.000000 3.957470 
# 
# 
# High freq. dielectric constant tensor:
#      x y z
#    x 1.856040 0.000000 0.003440 
#    y 0.000000 1.786690 0.000000 
#    z 0.003440 0.000000 1.839160 
# 
# From -- ./inp_files/54472.got.cif
#   From: 2010.06.25/outbox.cif.g09.slc.cpg/sg15_28_cif.got.tgz:54472.got - 2010.06.28 07:06:18.
