data_PCOD8150003
_publ_section_title
;
Structure prediction by ZEFSAII (Michael W. Deem and Ramdas Pophale) SiO2 
 PCOD8150003
Probable space group: C 2/C
;
_chemical_formula_sum "Si O2"
_cell_formula_units_Z 40
_cell_length_a 10.853312
_cell_length_b 20.981572
_cell_length_c 11.214844
_cell_angle_alpha 90.000000
_cell_angle_beta 141.041560
_cell_angle_gamma 90.000000
_cell_volume 1605.743036
_symmetry_space_group_name_H-M "C 2/C"
_symmetry_group_IT_number 15
_symmetry_cell_setting 'monoclinic'
loop_
_space_group_symop_operation_xyz
x,y,z
-x,y,1/2-z
-x,-y,-z
x,-y,1/2+z
1/2+x,1/2+y,z
1/2-x,1/2+y,1/2-z
1/2-x,1/2-y,-z
1/2+x,1/2-y,1/2+z
loop_
_atom_site_type_symbol
_atom_site_label
_atom_site_fract_x
_atom_site_fract_y
_atom_site_fract_z
Si Si1 0.441871 0.825968 0.849900
Si Si2 0.717044 0.692028 0.719151
Si Si3 0.636597 0.359114 0.451979
Si Si4 0.157714 0.553142 0.085972
Si Si5 0.000000 0.628080 0.750000
Si Si6 0.500000 0.480861 0.250000
O O1 0.333619 0.766594 0.828936
O O2 0.354678 0.828338 0.643182
O O3 0.340371 0.891420 0.814664
O O4 0.670401 0.826767 0.068318
O O5 0.514185 0.652462 0.550469
O O6 0.857299 0.674366 0.716082
O O7 0.500000 0.321001 0.250000
O O8 0.652671 0.434539 0.435879
O O9 0.374181 0.522746 0.246853
O O10 0.000000 0.500000 0.000000
O O11 0.118516 0.582263 0.926617
#
# Coordination Sequence:
#
# PCOD8150003 Si02
#       6
#     8   8   8   8   4   4
#     4  11  24  43  73  97 142 178 226 297 342 418
#     4  11  23  47  66 106 132 176 232 283 363 405
#     4  10  25  45  67 100 136 183 230 286 338 419
#     4  11  26  45  69 105 140 185 231 286 348 417
#     4  10  26  43  72  97 146 172 224 308 334 416
#     4  10  24  43  68  97 128 196 226 274 348 412
#
# _framework density 24.910588000000001
#
# number of rings (size 3 to 8) (size 9 to 14) (size 15 to 20)
#    0.600    0.800    2.000    2.400    5.600    6.400 
#    0.000    0.000    0.000    0.000    0.000    0.000 
#    0.000    0.000    0.000    0.000    0.000    0.000 
#
# Total GULP energy -247803.287485 kJ/mol
# GULP energy per Si atom -12390.164374 kJ/mol
# Density = 2.485389 g / cm^3
# Si number density = 24.910588 Si / 1000 Ang^3
#
#
#
# Elastic Constant Matrix: (Units=GPa)
#
#
# Indices 1 2 3 4 5 6 
#
# 1 129.5941 44.6263 75.7332 0.0000 37.1557 0.0000
# 2 44.6263 151.7101 42.6766 0.0000 21.1258 0.0000
# 3 75.7332 42.6766 142.5261 0.0000 24.1892 0.0000
# 4 0.0000 0.0000 0.0000 37.8009 0.0000 3.1483
# 5 37.1557 21.1258 24.1892 0.0000 56.7406 0.0000
# 6 0.0000 0.0000 0.0000 3.1483 0.0000 31.2228
#
#
#
# Elastic Compliance Matrix: (Units=1/GPa)
#
#
# Indices 1 2 3 4 5 6 
#
# 1 0.013098 -0.001505 -0.005550 0.000000 -0.005651 0.000000
# 2 -0.001505 0.007565 -0.001245 0.000000 -0.001301 0.000000
# 3 -0.005550 -0.001245 0.010395 0.000000 -0.000333 0.000000
# 4 0.000000 0.000000 0.000000 0.026678 0.000000 -0.002690
# 5 -0.005651 -0.001301 -0.000333 0.000000 0.021951 0.000000
# 6 0.000000 0.000000 0.000000 -0.002690 0.000000 0.032299
#
#
# Mechanical properties :
#
#
# Convention : Reuss Voigt Hill
#
# Bulk Modulus (GPa) = 69.16375 83.32249 76.24312
# Shear Modulus (GPa) = 37.47944 42.53914 40.00929
#
# Velocity S-wave (km/s) = 3.88307 4.13688 4.01199
# Velocity P-wave (km/s) = 6.92311 7.50597 7.22042
#
# Compressibility (1/GPa) = 0.01445844
#
# Stress axis : x y z
#
# Youngs Moduli (GPa) = 76.34641 132.17905 96.20120
#
# Poissons Ratio (x) = 0.19889 0.53395
# Poissons Ratio (y) = 0.11488 0.11977
# Poissons Ratio (z) = 0.42375 0.16457
#
# Static dielectric constant tensor:
#      x y z
#    x 4.550520 0.000000 0.108230 
#    y 0.000000 4.369260 0.000000 
#    z 0.108230 0.000000 4.970680 
# 
# 
# High freq. dielectric constant tensor:
#      x y z
#    x 2.015600 0.000000 0.017430 
#    y 0.000000 1.989450 0.000000 
#    z 0.017430 0.000000 2.013850 
# 
# From -- ./inp_files/89916.got.cif
#   From: 2010.06.25/outbox.cif.g09.slc.cpg/sg15_45_cif.got.tgz:89916.got - 2010.06.28 07:06:18.
