data_PCOD8150042
_publ_section_title
;
Structure prediction by ZEFSAII (Michael W. Deem and Ramdas Pophale) SiO2 
 PCOD8150042
Probable space group: C 2/C
;
_chemical_formula_sum "Si O2"
_cell_formula_units_Z 48
_cell_length_a 19.881994
_cell_length_b 20.165179
_cell_length_c 9.010963
_cell_angle_alpha 90.000000
_cell_angle_beta 37.185404
_cell_angle_gamma 90.000000
_cell_volume 2183.508755
_symmetry_space_group_name_H-M "C 2/C"
_symmetry_group_IT_number 15
_symmetry_cell_setting 'monoclinic'
loop_
_space_group_symop_operation_xyz
x,y,z
-x,y,1/2-z
-x,-y,-z
x,-y,1/2+z
1/2+x,1/2+y,z
1/2-x,1/2+y,1/2-z
1/2-x,1/2-y,-z
1/2+x,1/2-y,1/2+z
loop_
_atom_site_type_symbol
_atom_site_label
_atom_site_fract_x
_atom_site_fract_y
_atom_site_fract_z
Si Si1 0.230988 0.959888 0.428910
Si Si2 0.309119 0.104411 0.277399
Si Si3 0.868215 0.117498 0.143586
Si Si4 0.125552 0.367489 0.522689
Si Si5 0.126936 0.740657 0.774828
Si Si6 0.500000 0.517633 0.750000
Si Si7 0.000000 0.659679 0.750000
O O1 0.226377 0.913277 0.581739
O O2 0.296468 0.027556 0.347151
O O3 0.295247 0.922389 0.186884
O O4 0.103910 0.971290 0.603483
O O5 0.195441 0.129672 0.400699
O O6 0.331210 0.147250 0.386747
O O7 0.410909 0.112196 0.984379
O O8 0.921084 0.185829 0.108738
O O9 0.968495 0.065152 0.944879
O O10 0.127607 0.299602 0.426842
O O11 0.000000 0.395584 0.750000
O O12 0.250000 0.750000 0.500000
O O13 0.053088 0.706676 0.780323
#
# Coordination Sequence:
#
# PCOD8150042 Si02
#       7
#     8   8   8   8   8   4   4
#     4  11  24  47  70 105 140 184 232 289 354 415
#     4  11  24  42  69 101 139 178 233 285 346 413
#     4  11  24  46  70 101 141 183 229 294 344 418
#     4  12  26  44  71 105 141 183 234 287 346 423
#     4  12  25  49  68  99 143 186 237 283 348 421
#     4  10  24  43  74 103 140 180 236 286 350 422
#     4  12  24  45  70 101 138 194 226 292 356 404
#
# _framework density 21.982966999999999
#
# number of rings (size 3 to 8) (size 9 to 14) (size 15 to 20)
#    0.000    0.667    5.000    2.500    2.333    3.333 
#    6.000    0.000    0.000    0.000    0.000    0.000 
#    0.000    0.000    0.000    0.000    0.000    0.000 
#
# Total GULP energy -297668.438913 kJ/mol
# GULP energy per Si atom -12402.851621 kJ/mol
# Density = 2.193293 g / cm^3
# Si number density = 21.982967 Si / 1000 Ang^3
#
#
#
# Elastic Constant Matrix: (Units=GPa)
#
#
# Indices 1 2 3 4 5 6 
#
# 1 119.6517 54.3327 48.9429 0.0000 6.4283 0.0000
# 2 54.3327 128.8434 49.1870 0.0000 6.7883 0.0000
# 3 48.9429 49.1870 138.9779 0.0000 -0.1369 0.0000
# 4 0.0000 0.0000 0.0000 38.9324 0.0000 -1.8595
# 5 6.4283 6.7883 -0.1369 0.0000 42.6804 0.0000
# 6 0.0000 0.0000 0.0000 -1.8595 0.0000 22.0012
#
#
#
# Elastic Compliance Matrix: (Units=1/GPa)
#
#
# Indices 1 2 3 4 5 6 
#
# 1 0.011148 -0.003634 -0.002641 0.000000 -0.001109 0.000000
# 2 -0.003634 0.010248 -0.002348 0.000000 -0.001090 0.000000
# 3 -0.002641 -0.002348 0.008957 0.000000 0.000800 0.000000
# 4 0.000000 0.000000 0.000000 0.025790 0.000000 0.002180
# 5 -0.001109 -0.001090 0.000800 0.000000 0.023773 0.000000
# 6 0.000000 0.000000 0.000000 0.002180 0.000000 0.045636
#
#
# Mechanical properties :
#
#
# Convention : Reuss Voigt Hill
#
# Bulk Modulus (GPa) = 76.29834 76.93313 76.61573
# Shear Modulus (GPa) = 33.97513 36.39016 35.18264
#
# Velocity S-wave (km/s) = 3.93558 4.07305 4.00490
# Velocity P-wave (km/s) = 7.44547 7.56256 7.50424
#
# Compressibility (1/GPa) = 0.01310645
#
# Stress axis : x y z
#
# Youngs Moduli (GPa) = 89.70490 97.58194 111.64293
#
# Poissons Ratio (x) = 0.35465 0.29480
# Poissons Ratio (y) = 0.32602 0.26214
# Poissons Ratio (z) = 0.23687 0.22913
#
# Static dielectric constant tensor:
#      x y z
#    x 4.160320 0.000000 0.101580 
#    y 0.000000 11.361990 0.000000 
#    z 0.101580 0.000000 4.296260 
# 
# 
# High freq. dielectric constant tensor:
#      x y z
#    x 1.861180 0.000000 0.007210 
#    y 0.000000 1.860610 0.000000 
#    z 0.007210 0.000000 1.885680 
# 
# From -- ./inp_files/57754.got.cif
#   From: 2010.06.25/outbox.cif.g09.slc.cpg/sg15_29_cif.got.tgz:57754.got - 2010.06.28 07:06:18.
