data_PCOD8150281
_publ_section_title
;
Structure prediction by ZEFSAII (Michael W. Deem and Ramdas Pophale) SiO2 
 PCOD8150281
Probable space group: C 2/C
;
_chemical_formula_sum "Si O2"
_cell_formula_units_Z 36
_cell_length_a 15.584522
_cell_length_b 8.364204
_cell_length_c 17.736029
_cell_angle_alpha 90.000000
_cell_angle_beta 134.144644
_cell_angle_gamma 90.000000
_cell_volume 1659.002880
_symmetry_space_group_name_H-M "C 2/C"
_symmetry_group_IT_number 15
_symmetry_cell_setting 'monoclinic'
loop_
_space_group_symop_operation_xyz
x,y,z
-x,y,1/2-z
-x,-y,-z
x,-y,1/2+z
1/2+x,1/2+y,z
1/2-x,1/2+y,1/2-z
1/2-x,1/2-y,-z
1/2+x,1/2-y,1/2+z
loop_
_atom_site_type_symbol
_atom_site_label
_atom_site_fract_x
_atom_site_fract_y
_atom_site_fract_z
Si Si1 0.732866 0.821746 0.340182
Si Si2 0.837414 0.983859 0.034347
Si Si3 0.500000 0.641075 0.250000
Si Si4 0.365090 0.963303 0.841026
Si Si5 0.123851 0.362572 0.001591
O O1 0.605403 0.751227 0.284274
O O2 0.810863 0.696230 0.342368
O O3 0.806805 0.871923 0.459223
O O4 0.712827 0.978912 0.277190
O O5 0.726823 0.961032 0.022927
O O6 0.954238 0.028855 0.154068
O O7 0.864271 0.825605 0.003539
O O8 0.367927 0.105345 0.904209
O O9 0.497971 0.925246 0.892544
#
# Coordination Sequence:
#
# PCOD8150281 Si02
#       5
#     8   8   4   8   8
#     4  12  26  43  70  98 139 176 222 273 338 389
#     4  11  25  46  70  97 131 183 222 273 326 406
#     4  12  26  42  70  98 132 176 232 270 328 404
#     4  11  25  43  67 104 135 176 217 281 330 392
#     4  10  24  45  70  96 139 171 228 267 335 391
#
# _framework density 21.699781999999999
#
# number of rings (size 3 to 8) (size 9 to 14) (size 15 to 20)
#    0.000    0.889    2.222    3.333    9.333    4.444 
#    0.000    0.000    0.000    0.000    0.000    0.000 
#    0.000    0.000    0.000    0.000    0.000    0.000 
#
# Total GULP energy -223341.731035 kJ/mol
# GULP energy per Si atom -12407.873946 kJ/mol
# Density = 2.165039 g / cm^3
# Si number density = 21.699782 Si / 1000 Ang^3
#
#
#
# Elastic Constant Matrix: (Units=GPa)
#
#
# Indices 1 2 3 4 5 6 
#
# 1 78.4952 34.8445 32.7753 0.0000 10.2421 0.0000
# 2 34.8445 94.5001 48.6409 0.0000 7.3456 0.0000
# 3 32.7753 48.6409 146.6760 0.0000 9.8759 0.0000
# 4 0.0000 0.0000 0.0000 35.6378 0.0000 1.6040
# 5 10.2421 7.3456 9.8759 0.0000 20.1734 0.0000
# 6 0.0000 0.0000 0.0000 1.6040 0.0000 33.5809
#
#
#
# Elastic Compliance Matrix: (Units=1/GPa)
#
#
# Indices 1 2 3 4 5 6 
#
# 1 0.016274 -0.004681 -0.001699 0.000000 -0.005726 0.000000
# 2 -0.004681 0.014246 -0.003608 0.000000 -0.001044 0.000000
# 3 -0.001699 -0.003608 0.008528 0.000000 -0.001999 0.000000
# 4 0.000000 0.000000 0.000000 0.028121 0.000000 -0.001343
# 5 -0.005726 -0.001044 -0.001999 0.000000 0.053836 0.000000
# 6 0.000000 0.000000 0.000000 -0.001343 0.000000 0.029843
#
#
# Mechanical properties :
#
#
# Convention : Reuss Voigt Hill
#
# Bulk Modulus (GPa) = 52.42967 61.35475 56.89221
# Shear Modulus (GPa) = 28.21955 31.43912 29.82933
#
# Velocity S-wave (km/s) = 3.61009 3.81047 3.71163
# Velocity P-wave (km/s) = 6.44910 6.90618 6.68155
#
# Compressibility (1/GPa) = 0.01907317
#
# Stress axis : x y z
#
# Youngs Moduli (GPa) = 61.44759 70.19316 117.25545
#
# Poissons Ratio (x) = 0.32859 0.19916
# Poissons Ratio (y) = 0.28765 0.42306
# Poissons Ratio (z) = 0.10437 0.25326
#
# Static dielectric constant tensor:
#      x y z
#    x 4.012690 0.000000 0.045600 
#    y 0.000000 3.891710 0.000000 
#    z 0.045600 0.000000 4.078950 
# 
# 
# High freq. dielectric constant tensor:
#      x y z
#    x 1.863000 0.000000 0.002340 
#    y 0.000000 1.862100 0.000000 
#    z 0.002340 0.000000 1.859920 
# 
# From -- ./inp_files/102434.got.cif
#   From: 2010.06.25/outbox.cif.g09.slc.cpg/sg15_52_cif.got.tgz:102434.got - 2010.06.28 07:06:18.
