data_PCOD8150903
_publ_section_title
;
Structure prediction by ZEFSAII (Michael W. Deem and Ramdas Pophale) SiO2 
 PCOD8150903
Probable space group: C 2/C
;
_chemical_formula_sum "Si O2"
_cell_formula_units_Z 52
_cell_length_a 10.940083
_cell_length_b 9.279716
_cell_length_c 27.131345
_cell_angle_alpha 90.000000
_cell_angle_beta 51.617879
_cell_angle_gamma 90.000000
_cell_volume 2159.137124
_symmetry_space_group_name_H-M "C 2/C"
_symmetry_group_IT_number 15
_symmetry_cell_setting 'monoclinic'
loop_
_space_group_symop_operation_xyz
x,y,z
-x,y,1/2-z
-x,-y,-z
x,-y,1/2+z
1/2+x,1/2+y,z
1/2-x,1/2+y,1/2-z
1/2-x,1/2-y,-z
1/2+x,1/2-y,1/2+z
loop_
_atom_site_type_symbol
_atom_site_label
_atom_site_fract_x
_atom_site_fract_y
_atom_site_fract_z
Si Si1 0.500000 0.451767 0.250000
Si Si2 0.130107 0.114144 0.475885
Si Si3 0.040482 0.519765 0.632274
Si Si4 0.142620 0.731394 0.282977
Si Si5 0.508230 0.673088 0.325975
Si Si6 0.565565 0.578628 0.601263
Si Si7 0.104268 0.590294 0.936694
O O1 0.625979 0.339004 0.240576
O O2 0.425438 0.557517 0.309963
O O3 0.299746 0.061599 0.417778
O O4 0.132408 0.141372 0.533903
O O5 0.069912 0.244503 0.457930
O O6 0.000000 0.000000 0.500000
O O7 0.080400 0.675160 0.646937
O O8 0.944216 0.424190 0.696197
O O9 0.940932 0.549895 0.607908
O O10 0.071012 0.811746 0.348462
O O11 0.175936 0.199151 0.259600
O O12 0.508011 0.584907 0.378659
O O13 0.711575 0.571092 0.602023
O O14 0.000000 0.500000 0.000000
#
# Coordination Sequence:
#
# PCOD8150903 Si02
#       7
#     4   8   8   8   8   8   8
#     4  10  26  50  70 100 146 196 246 298 372 430
#     4  12  27  45  70 110 150 195 248 310 376 450
#     4  12  26  46  73 112 146 193 251 314 376 440
#     4  11  25  46  76 103 148 192 252 302 369 446
#     4  11  27  43  74 108 145 196 250 304 371 445
#     4  11  24  47  72 109 147 197 250 305 375 449
#     4  12  25  45  78 105 151 196 248 308 376 447
#
# _framework density 24.083696
#
# number of rings (size 3 to 8) (size 9 to 14) (size 15 to 20)
#    0.000    0.615    3.077    4.154   10.769    4.308 
#    0.000    0.000    0.000    0.000    0.000    0.000 
#    0.000    0.000    0.000    0.000    0.000    0.000 
#
# Total GULP energy -322089.884265 kJ/mol
# GULP energy per Si atom -12388.072472 kJ/mol
# Density = 2.402888 g / cm^3
# Si number density = 24.083696 Si / 1000 Ang^3
#
#
#
# Elastic Constant Matrix: (Units=GPa)
#
#
# Indices 1 2 3 4 5 6 
#
# 1 84.7707 28.3034 31.8324 0.0000 3.8535 0.0000
# 2 28.3034 179.9057 50.0237 0.0000 5.1035 0.0000
# 3 31.8324 50.0237 103.3237 0.0000 -10.1793 0.0000
# 4 0.0000 0.0000 0.0000 60.1299 0.0000 -4.1160
# 5 3.8535 5.1035 -10.1793 0.0000 37.3486 0.0000
# 6 0.0000 0.0000 0.0000 -4.1160 0.0000 37.1594
#
#
#
# Elastic Compliance Matrix: (Units=1/GPa)
#
#
# Indices 1 2 3 4 5 6 
#
# 1 0.013730 -0.000984 -0.003987 0.000000 -0.002369 0.000000
# 2 -0.000984 0.006610 -0.003058 0.000000 -0.001635 0.000000
# 3 -0.003987 -0.003058 0.012813 0.000000 0.004321 0.000000
# 4 0.000000 0.000000 0.000000 0.016758 0.000000 0.001856
# 5 -0.002369 -0.001635 0.004321 0.000000 0.028420 0.000000
# 6 0.000000 0.000000 0.000000 0.001856 0.000000 0.027117
#
#
# Mechanical properties :
#
#
# Convention : Reuss Voigt Hill
#
# Bulk Modulus (GPa) = 58.49829 65.36880 61.93354
# Shear Modulus (GPa) = 39.30692 44.11694 41.71193
#
# Velocity S-wave (km/s) = 4.04430 4.28462 4.16619
# Velocity P-wave (km/s) = 6.79344 7.18878 6.99390
#
# Compressibility (1/GPa) = 0.01709452
#
# Stress axis : x y z
#
# Youngs Moduli (GPa) = 72.83360 151.28562 78.04655
#
# Poissons Ratio (x) = 0.14891 0.31116
# Poissons Ratio (y) = 0.07169 0.23867
# Poissons Ratio (z) = 0.29037 0.46264
#
# Static dielectric constant tensor:
#      x y z
#    x 6.591340 0.000000 1.014540 
#    y 0.000000 4.936860 0.000000 
#    z 1.014540 0.000000 4.688160 
# 
# 
# High freq. dielectric constant tensor:
#      x y z
#    x 1.929990 0.000000 -0.009280 
#    y 0.000000 1.986140 0.000000 
#    z -0.009280 0.000000 1.973800 
# 
# From -- ./inp_files/291484.got.cif
#   From: 2010.06.25/outbox.cif.g09.slc.cpg/sg15_146_cif.got.tgz:291484.got - 2010.06.28 07:06:18.
