data_PCOD8150464
_publ_section_title
;
Structure prediction by ZEFSAII (Michael W. Deem and Ramdas Pophale) SiO2 
 PCOD8150464
Probable space group: C 2/C
;
_chemical_formula_sum "Si O2"
_cell_formula_units_Z 52
_cell_length_a 23.831717
_cell_length_b 12.793485
_cell_length_c 9.562910
_cell_angle_alpha 90.000000
_cell_angle_beta 119.988402
_cell_angle_gamma 90.000000
_cell_volume 2525.315482
_symmetry_space_group_name_H-M "C 2/C"
_symmetry_group_IT_number 15
_symmetry_cell_setting 'monoclinic'
loop_
_space_group_symop_operation_xyz
x,y,z
-x,y,1/2-z
-x,-y,-z
x,-y,1/2+z
1/2+x,1/2+y,z
1/2-x,1/2+y,1/2-z
1/2-x,1/2-y,-z
1/2+x,1/2-y,1/2+z
loop_
_atom_site_type_symbol
_atom_site_label
_atom_site_fract_x
_atom_site_fract_y
_atom_site_fract_z
Si Si1 0.877843 0.222140 0.249102
Si Si2 0.500000 0.208653 0.750000
Si Si3 0.192987 0.233544 0.752865
Si Si4 0.101676 0.597419 0.045412
Si Si5 0.671926 0.337585 0.530734
Si Si6 0.200618 0.064868 0.538414
Si Si7 0.344484 0.040721 0.658021
O O1 0.948509 0.216204 0.264281
O O2 0.880265 0.200842 0.418863
O O3 0.852035 0.338463 0.202486
O O4 0.828356 0.139881 0.116971
O O5 0.469917 0.130684 0.594784
O O6 0.139184 0.292365 0.595643
O O7 0.256031 0.306698 0.829712
O O8 0.207488 0.123715 0.695285
O O9 0.162327 0.215943 0.868057
O O10 0.106642 0.534722 0.195840
O O11 0.135333 0.520040 0.976106
O O12 0.657788 0.461457 0.503571
O O13 0.269430 0.014070 0.581211
#
# Coordination Sequence:
#
# PCOD8150464 Si02
#       7
#     8   4   8   8   8   8   8
#     4  11  23  42  63  89 127 180 216 264 315 384
#     4  10  24  48  66  86 136 182 230 260 302 388
#     4  11  22  40  60  98 137 159 204 277 337 393
#     4  11  24  41  65  94 132 175 214 269 324 386
#     4  11  24  35  65  99 130 164 213 272 337 389
#     4  12  21  39  65  95 132 167 211 270 342 389
#     4  11  23  36  66  97 129 166 212 271 341 391
#
# _framework density 20.591486
#
# number of rings (size 3 to 8) (size 9 to 14) (size 15 to 20)
#    0.000    0.923    6.154    2.308    4.308    2.462 
#    0.000    1.538    0.000    0.000    0.000    0.000 
#    0.000    0.000    0.000    0.000    0.000    0.000 
#
# Total GULP energy -322329.631207 kJ/mol
# GULP energy per Si atom -12397.293508 kJ/mol
# Density = 2.054462 g / cm^3
# Si number density = 20.591486 Si / 1000 Ang^3
#
#
#
# Elastic Constant Matrix: (Units=GPa)
#
#
# Indices 1 2 3 4 5 6 
#
# 1 79.7457 5.1868 28.5438 0.0000 -7.1220 0.0000
# 2 5.1868 81.2435 10.9089 0.0000 3.3877 0.0000
# 3 28.5438 10.9089 87.5126 0.0000 0.9110 0.0000
# 4 0.0000 0.0000 0.0000 39.4180 0.0000 -4.2569
# 5 -7.1220 3.3877 0.9110 0.0000 36.8323 0.0000
# 6 0.0000 0.0000 0.0000 -4.2569 0.0000 13.2928
#
#
#
# Elastic Compliance Matrix: (Units=1/GPa)
#
#
# Indices 1 2 3 4 5 6 
#
# 1 0.014519 -0.000417 -0.004714 0.000000 0.002962 0.000000
# 2 -0.000417 0.012576 -0.001419 0.000000 -0.001202 0.000000
# 3 -0.004714 -0.001419 0.013153 0.000000 -0.001106 0.000000
# 4 0.000000 0.000000 0.000000 0.026278 0.000000 0.008415
# 5 0.002962 -0.001202 -0.001106 0.000000 0.027861 0.000000
# 6 0.000000 0.000000 0.000000 0.008415 0.000000 0.077924
#
#
# Mechanical properties :
#
#
# Convention : Reuss Voigt Hill
#
# Bulk Modulus (GPa) = 36.83739 37.53119 37.18429
# Shear Modulus (GPa) = 25.71207 31.49943 28.60575
#
# Velocity S-wave (km/s) = 3.53749 3.91542 3.73124
# Velocity P-wave (km/s) = 5.88333 6.22148 6.05477
#
# Compressibility (1/GPa) = 0.02714633
#
# Stress axis : x y z
#
# Youngs Moduli (GPa) = 68.87499 79.51655 76.02808
#
# Poissons Ratio (x) = 0.03319 0.35843
# Poissons Ratio (y) = 0.02875 0.10788
# Poissons Ratio (z) = 0.32471 0.11283
#
# Static dielectric constant tensor:
#      x y z
#    x 3.817630 0.000000 -0.318500 
#    y 0.000000 3.630000 0.000000 
#    z -0.318500 0.000000 3.799610 
# 
# 
# High freq. dielectric constant tensor:
#      x y z
#    x 1.781710 0.000000 -0.023600 
#    y 0.000000 1.809240 0.000000 
#    z -0.023600 0.000000 1.810730 
# 
# From -- ./inp_files/65622.got.cif
#   From: 2010.06.25/outbox.cif.g09.slc.cpg/sg15_33_cif.got.tgz:65622.got - 2010.06.28 07:06:18.
