data_PCOD8150222
_publ_section_title
;
Structure prediction by ZEFSAII (Michael W. Deem and Ramdas Pophale) SiO2 
 PCOD8150222
Probable space group: C 2/C
;
_chemical_formula_sum "Si O2"
_cell_formula_units_Z 52
_cell_length_a 19.421704
_cell_length_b 8.685964
_cell_length_c 14.832108
_cell_angle_alpha 90.000000
_cell_angle_beta 89.653654
_cell_angle_gamma 90.000000
_cell_volume 2502.074866
_symmetry_space_group_name_H-M "C 2/C"
_symmetry_group_IT_number 15
_symmetry_cell_setting 'monoclinic'
loop_
_space_group_symop_operation_xyz
x,y,z
-x,y,1/2-z
-x,-y,-z
x,-y,1/2+z
1/2+x,1/2+y,z
1/2-x,1/2+y,1/2-z
1/2-x,1/2-y,-z
1/2+x,1/2-y,1/2+z
loop_
_atom_site_type_symbol
_atom_site_label
_atom_site_fract_x
_atom_site_fract_y
_atom_site_fract_z
Si Si1 0.647791 0.912330 0.549979
Si Si2 0.308463 0.615607 0.855837
Si Si3 0.716989 0.412846 0.482641
Si Si4 0.430366 0.018077 0.289085
Si Si5 0.500000 0.316674 0.250000
Si Si6 0.381060 0.486994 0.173399
Si Si7 0.849703 0.663293 0.650070
O O1 0.646951 0.745809 0.595826
O O2 0.594087 0.020322 0.607921
O O3 0.624397 0.901523 0.446643
O O4 0.725215 0.974609 0.557562
O O5 0.339395 0.563276 0.761565
O O6 0.231837 0.680940 0.843449
O O7 0.310360 0.468220 0.920728
O O8 0.750000 0.250000 0.500000
O O9 0.654029 0.408115 0.413020
O O10 0.500000 0.935342 0.250000
O O11 0.441253 0.203607 0.291036
O O12 0.370059 0.965338 0.222949
O O13 0.460074 0.425543 0.178485
O O14 0.384177 0.671606 0.167077
#
# Coordination Sequence:
#
# PCOD8150222 Si02
#       7
#     8   8   8   8   4   8   8
#     4  11  21  46  65  95 135 165 213 279 337 388
#     4  11  22  41  65  98 131 166 208 282 338 384
#     4  11  25  38  66 106 128 163 223 272 339 398
#     4  10  24  45  62  91 127 178 220 263 326 386
#     4  10  26  42  64  90 132 174 224 270 316 400
#     4  12  24  43  66  95 137 173 222 271 330 398
#     4  11  24  40  69  95 128 174 216 272 336 399
#
# _framework density 20.782753
#
# number of rings (size 3 to 8) (size 9 to 14) (size 15 to 20)
#    0.462    0.615    4.615    1.846    9.692    0.615 
#    0.000    3.077    0.000    0.000    0.000    0.000 
#    0.000    0.000    0.000    0.000    0.000    0.000 
#
# Total GULP energy -322211.465908 kJ/mol
# GULP energy per Si atom -12392.748689 kJ/mol
# Density = 2.073545 g / cm^3
# Si number density = 20.782753 Si / 1000 Ang^3
#
#
#
# Elastic Constant Matrix: (Units=GPa)
#
#
# Indices 1 2 3 4 5 6 
#
# 1 56.1990 35.9061 29.6901 0.0000 8.3273 0.0000
# 2 35.9061 96.8350 52.8625 0.0000 21.1985 0.0000
# 3 29.6901 52.8625 103.2859 0.0000 4.6067 0.0000
# 4 0.0000 0.0000 0.0000 33.6171 0.0000 10.2931
# 5 8.3273 21.1985 4.6067 0.0000 33.9338 0.0000
# 6 0.0000 0.0000 0.0000 10.2931 0.0000 21.6314
#
#
#
# Elastic Compliance Matrix: (Units=1/GPa)
#
#
# Indices 1 2 3 4 5 6 
#
# 1 0.024127 -0.006840 -0.003382 0.000000 -0.001189 0.000000
# 2 -0.006840 0.018815 -0.007258 0.000000 -0.009090 0.000000
# 3 -0.003382 -0.007258 0.014216 0.000000 0.003434 0.000000
# 4 0.000000 0.000000 0.000000 0.034820 0.000000 -0.016569
# 5 -0.001189 -0.009090 0.003434 0.000000 0.034973 0.000000
# 6 0.000000 0.000000 0.000000 -0.016569 0.000000 0.054113
#
#
# Mechanical properties :
#
#
# Convention : Reuss Voigt Hill
#
# Bulk Modulus (GPa) = 45.04886 54.80413 49.92649
# Shear Modulus (GPa) = 22.37912 27.02720 24.70316
#
# Velocity S-wave (km/s) = 3.28504 3.61011 3.45140
# Velocity P-wave (km/s) = 6.00931 6.61849 6.32124
#
# Compressibility (1/GPa) = 0.02219812
#
# Stress axis : x y z
#
# Youngs Moduli (GPa) = 41.44806 53.14846 70.34540
#
# Poissons Ratio (x) = 0.36352 0.23788
# Poissons Ratio (y) = 0.28349 0.51058
# Poissons Ratio (z) = 0.14016 0.38576
#
# Static dielectric constant tensor:
#      x y z
#    x 4.460950 0.000000 -1.416270 
#    y 0.000000 4.007800 0.000000 
#    z -1.416270 0.000000 6.451230 
# 
# 
# High freq. dielectric constant tensor:
#      x y z
#    x 1.806980 0.000000 -0.005500 
#    y 0.000000 1.810300 0.000000 
#    z -0.005500 0.000000 1.817290 
# 
# From -- ./inp_files/166335.got.cif
#   From: 2010.06.25/outbox.cif.g09.slc.cpg/sg15_84_cif.got.tgz:166335.got - 2010.06.28 07:06:18.
