data_PCOD8150372
_publ_section_title
;
Structure prediction by ZEFSAII (Michael W. Deem and Ramdas Pophale) SiO2 
 PCOD8150372
Probable space group: C 2/C
;
_chemical_formula_sum "Si O2"
_cell_formula_units_Z 52
_cell_length_a 8.673656
_cell_length_b 24.361016
_cell_length_c 11.075009
_cell_angle_alpha 90.000000
_cell_angle_beta 106.791640
_cell_angle_gamma 90.000000
_cell_volume 2240.359482
_symmetry_space_group_name_H-M "C 2/C"
_symmetry_group_IT_number 15
_symmetry_cell_setting 'monoclinic'
loop_
_space_group_symop_operation_xyz
x,y,z
-x,y,1/2-z
-x,-y,-z
x,-y,1/2+z
1/2+x,1/2+y,z
1/2-x,1/2+y,1/2-z
1/2-x,1/2-y,-z
1/2+x,1/2-y,1/2+z
loop_
_atom_site_type_symbol
_atom_site_label
_atom_site_fract_x
_atom_site_fract_y
_atom_site_fract_z
Si Si1 0.259436 0.885339 0.441348
Si Si2 0.828211 0.983918 0.908115
Si Si3 0.454961 0.825915 0.870244
Si Si4 0.145367 0.845490 0.943808
Si Si5 0.815853 0.593951 0.688034
Si Si6 0.081277 0.218129 0.961716
Si Si7 0.000000 0.067023 0.250000
O O1 0.249833 0.934681 0.534146
O O2 0.428553 0.853538 0.503341
O O3 0.238925 0.908714 0.303110
O O4 0.110410 0.842760 0.416947
O O5 0.853083 0.968806 0.771417
O O6 0.706909 0.035555 0.884296
O O7 0.000000 0.000000 0.000000
O O8 0.500000 0.851720 0.750000
O O9 0.269821 0.834220 0.863350
O O10 0.469607 0.759673 0.862098
O O11 0.048999 0.898490 0.878584
O O12 0.235902 0.857851 0.090324
O O13 0.018625 0.794829 0.935698
O O14 0.000000 0.608470 0.750000
O O15 0.250000 0.250000 0.000000
#
# Coordination Sequence:
#
# PCOD8150372 Si02
#       7
#     8   8   8   8   8   8   4
#     4  11  24  48  70 103 150 185 245 312 364 450
#     4  12  24  44  72 106 142 193 249 308 381 448
#     4  11  25  45  74 108 144 196 244 303 376 443
#     4  12  25  47  73 105 152 193 241 313 373 449
#     4  12  27  46  73 107 144 197 248 306 383 449
#     4  10  24  46  71 110 141 193 246 297 375 442
#     4  12  24  44  70 102 146 190 244 300 376 444
#
# _framework density 23.210560999999998
#
# number of rings (size 3 to 8) (size 9 to 14) (size 15 to 20)
#    0.000    0.615    4.615    2.308    4.308    3.692 
#    0.000    0.000    0.000    0.000    0.000    0.000 
#    0.000    0.000    0.000    0.000    0.000    0.000 
#
# Total GULP energy -322178.297024 kJ/mol
# GULP energy per Si atom -12391.472962 kJ/mol
# Density = 2.315773 g / cm^3
# Si number density = 23.210561 Si / 1000 Ang^3
#
#
#
# Elastic Constant Matrix: (Units=GPa)
#
#
# Indices 1 2 3 4 5 6 
#
# 1 129.0343 31.6384 30.7403 0.0000 -21.4858 0.0000
# 2 31.6384 106.2807 25.6104 0.0000 -6.7467 0.0000
# 3 30.7403 25.6104 104.8344 0.0000 -16.2346 0.0000
# 4 0.0000 0.0000 0.0000 34.2461 0.0000 -6.3986
# 5 -21.4858 -6.7467 -16.2346 0.0000 45.8877 0.0000
# 6 0.0000 0.0000 0.0000 -6.3986 0.0000 36.7644
#
#
#
# Elastic Compliance Matrix: (Units=1/GPa)
#
#
# Indices 1 2 3 4 5 6 
#
# 1 0.009238 -0.002133 -0.001657 0.000000 0.003426 0.000000
# 2 -0.002133 0.010508 -0.001965 0.000000 -0.000149 0.000000
# 3 -0.001657 -0.001965 0.010939 0.000000 0.002805 0.000000
# 4 0.000000 0.000000 0.000000 0.030182 0.000000 0.005253
# 5 0.003426 -0.000149 0.002805 0.000000 0.024367 0.000000
# 6 0.000000 0.000000 0.000000 0.005253 0.000000 0.028114
#
#
# Mechanical properties :
#
#
# Convention : Reuss Voigt Hill
#
# Bulk Modulus (GPa) = 52.15079 57.34750 54.74915
# Shear Modulus (GPa) = 38.09508 40.19034 39.14271
#
# Velocity S-wave (km/s) = 4.05567 4.16571 4.11106
# Velocity P-wave (km/s) = 6.66698 6.92088 6.79512
#
# Compressibility (1/GPa) = 0.01917516
#
# Stress axis : x y z
#
# Youngs Moduli (GPa) = 108.24672 95.16515 91.41456
#
# Poissons Ratio (x) = 0.20301 0.15150
# Poissons Ratio (y) = 0.23092 0.17959
# Poissons Ratio (z) = 0.17939 0.18696
#
# Static dielectric constant tensor:
#      x y z
#    x 4.401480 0.000000 -0.229440 
#    y 0.000000 4.505160 0.000000 
#    z -0.229440 0.000000 4.030160 
# 
# 
# High freq. dielectric constant tensor:
#      x y z
#    x 1.926000 0.000000 -0.013420 
#    y 0.000000 1.923450 0.000000 
#    z -0.013420 0.000000 1.905440 
# 
# From -- ./inp_files/80820.got.cif
#   From: 2010.06.25/outbox.cif.g09.slc.cpg/sg15_41_cif.got.tgz:80820.got - 2010.06.28 07:06:18.
