data_PCOD8150159
_publ_section_title
;
Structure prediction by ZEFSAII (Michael W. Deem and Ramdas Pophale) SiO2 
 PCOD8150159
Probable space group: C 2/C
;
_chemical_formula_sum "Si O2"
_cell_formula_units_Z 40
_cell_length_a 9.118699
_cell_length_b 13.811947
_cell_length_c 13.705634
_cell_angle_alpha 90.000000
_cell_angle_beta 101.728764
_cell_angle_gamma 90.000000
_cell_volume 1690.142127
_symmetry_space_group_name_H-M "C 2/C"
_symmetry_group_IT_number 15
_symmetry_cell_setting 'monoclinic'
loop_
_space_group_symop_operation_xyz
x,y,z
-x,y,1/2-z
-x,-y,-z
x,-y,1/2+z
1/2+x,1/2+y,z
1/2-x,1/2+y,1/2-z
1/2-x,1/2-y,-z
1/2+x,1/2-y,1/2+z
loop_
_atom_site_type_symbol
_atom_site_label
_atom_site_fract_x
_atom_site_fract_y
_atom_site_fract_z
Si Si1 0.330085 0.471507 0.960621
Si Si2 0.324900 0.865783 0.402637
Si Si3 0.169581 0.451500 0.736852
Si Si4 0.339939 0.841465 0.048859
Si Si5 0.167479 0.768073 0.765806
O O1 0.288846 0.454977 0.842277
O O2 0.235487 0.559312 0.992214
O O3 0.500000 0.500000 0.000000
O O4 0.287538 0.377468 0.020718
O O5 0.491329 0.849465 0.467743
O O6 0.284715 0.770120 0.334982
O O7 0.311712 0.959880 0.332840
O O8 0.214264 0.351472 0.686459
O O9 0.000000 0.445687 0.750000
O O10 0.335391 0.827439 0.165660
O O11 0.250000 0.750000 0.000000
O O12 0.000000 0.813087 0.750000
#
# Coordination Sequence:
#
# PCOD8150159 Si02
#       5
#     8   8   8   8   8
#     4  12  28  43  70 105 140 186 241 298 361 427
#     4  11  24  49  70  99 147 190 238 298 358 431
#     4  12  25  46  71 101 142 188 234 291 366 426
#     4  11  23  45  73 101 136 189 241 287 356 432
#     4  10  24  44  70 101 139 186 235 293 357 428
#
# _framework density 23.666647999999999
#
# number of rings (size 3 to 8) (size 9 to 14) (size 15 to 20)
#    0.000    0.800    4.000    2.400   11.200    2.400 
#    0.000    0.000    0.000    0.000    0.000    0.000 
#    0.000    0.000    0.000    0.000    0.000    0.000 
#
# Total GULP energy -247972.775758 kJ/mol
# GULP energy per Si atom -12398.638788 kJ/mol
# Density = 2.361278 g / cm^3
# Si number density = 23.666648 Si / 1000 Ang^3
#
#
#
# Elastic Constant Matrix: (Units=GPa)
#
#
# Indices 1 2 3 4 5 6 
#
# 1 104.9454 10.4128 39.0090 0.0000 14.9068 0.0000
# 2 10.4128 65.8648 -1.7265 0.0000 3.4961 0.0000
# 3 39.0090 -1.7265 69.8227 0.0000 10.4048 0.0000
# 4 0.0000 0.0000 0.0000 44.8829 0.0000 3.1725
# 5 14.9068 3.4961 10.4048 0.0000 37.1136 0.0000
# 6 0.0000 0.0000 0.0000 3.1725 0.0000 46.3218
#
#
#
# Elastic Compliance Matrix: (Units=1/GPa)
#
#
# Indices 1 2 3 4 5 6 
#
# 1 0.012631 -0.002011 -0.006657 0.000000 -0.003018 0.000000
# 2 -0.002011 0.015605 0.001678 0.000000 -0.001133 0.000000
# 3 -0.006657 0.001678 0.018480 0.000000 -0.002665 0.000000
# 4 0.000000 0.000000 0.000000 0.022389 0.000000 -0.001533
# 5 -0.003018 -0.001133 -0.002665 0.000000 0.029010 0.000000
# 6 0.000000 0.000000 0.000000 -0.001533 0.000000 0.021693
#
#
# Mechanical properties :
#
#
# Convention : Reuss Voigt Hill
#
# Bulk Modulus (GPa) = 30.54750 37.33597 33.94173
# Shear Modulus (GPa) = 34.55427 38.52617 36.54022
#
# Velocity S-wave (km/s) = 3.82519 4.03906 3.93358
# Velocity P-wave (km/s) = 5.69604 6.12879 5.91637
#
# Compressibility (1/GPa) = 0.03273591
#
# Stress axis : x y z
#
# Youngs Moduli (GPa) = 79.16744 64.08329 54.11304
#
# Poissons Ratio (x) = 0.12889 0.36023
# Poissons Ratio (y) = 0.15923 -0.09082
# Poissons Ratio (z) = 0.52702 -0.10755
#
# Static dielectric constant tensor:
#      x y z
#    x 4.112760 0.000000 -0.060510 
#    y 0.000000 4.293650 0.000000 
#    z -0.060510 0.000000 4.700720 
# 
# 
# High freq. dielectric constant tensor:
#      x y z
#    x 1.924200 0.000000 0.000210 
#    y 0.000000 1.947650 0.000000 
#    z 0.000210 0.000000 1.950520 
# 
# From -- ./inp_files/133053.got.cif
#   From: 2010.06.25/outbox.cif.g09.slc.cpg/sg15_67_cif.got.tgz:133053.got - 2010.06.28 07:06:18.
