data_PCOD8150164
_publ_section_title
;
Structure prediction by ZEFSAII (Michael W. Deem and Ramdas Pophale) SiO2 
 PCOD8150164
Probable space group: C 2/C
;
_chemical_formula_sum "Si O2"
_cell_formula_units_Z 56
_cell_length_a 16.418901
_cell_length_b 18.272261
_cell_length_c 9.085238
_cell_angle_alpha 90.000000
_cell_angle_beta 67.598927
_cell_angle_gamma 90.000000
_cell_volume 2519.984505
_symmetry_space_group_name_H-M "C 2/C"
_symmetry_group_IT_number 15
_symmetry_cell_setting 'monoclinic'
loop_
_space_group_symop_operation_xyz
x,y,z
-x,y,1/2-z
-x,-y,-z
x,-y,1/2+z
1/2+x,1/2+y,z
1/2-x,1/2+y,1/2-z
1/2-x,1/2-y,-z
1/2+x,1/2-y,1/2+z
loop_
_atom_site_type_symbol
_atom_site_label
_atom_site_fract_x
_atom_site_fract_y
_atom_site_fract_z
Si Si1 0.334149 0.941890 0.945596
Si Si2 0.877913 0.577660 0.084105
Si Si3 0.579053 0.671006 0.414645
Si Si4 0.090051 0.918932 0.477264
Si Si5 0.964157 0.676144 0.432410
Si Si6 0.277793 0.330602 0.937181
Si Si7 0.367839 0.436708 0.383249
O O1 0.338120 0.947185 0.767291
O O2 0.370715 0.863901 0.975069
O O3 0.235069 0.952230 0.070155
O O4 0.394197 0.005841 0.974067
O O5 0.810555 0.629043 0.045837
O O6 0.969313 0.620158 0.036058
O O7 0.496380 0.624929 0.412487
O O8 0.548719 0.754197 0.456102
O O9 0.655202 0.668112 0.243392
O O10 0.617909 0.638955 0.539720
O O11 0.177222 0.872400 0.456791
O O12 0.085113 0.930512 0.305769
O O13 0.088528 0.997433 0.555955
O O14 0.000000 0.702295 0.250000
O O15 0.250000 0.250000 0.000000
#
# Coordination Sequence:
#
# PCOD8150164 Si02
#       7
#     8   8   8   8   8   8   8
#     4  11  23  43  73 100 136 177 230 280 341 404
#     4  11  23  46  67 104 135 176 228 284 341 407
#     4  12  26  47  68 103 140 184 229 280 347 407
#     4  12  26  45  70 104 142 180 232 283 343 412
#     4  10  24  44  70 103 139 176 228 286 344 411
#     4  12  27  45  70 100 141 182 230 285 341 414
#     4  12  24  44  75 105 138 185 229 283 342 414
#
# _framework density 22.222359000000001
#
# number of rings (size 3 to 8) (size 9 to 14) (size 15 to 20)
#    0.000    0.571    2.857    5.143    2.000    2.857 
#    0.000    1.429    0.000    0.000    0.000    0.000 
#    0.000    0.000    0.000    0.000    0.000    0.000 
#
# Total GULP energy -347452.292539 kJ/mol
# GULP energy per Si atom -12409.010448 kJ/mol
# Density = 2.217178 g / cm^3
# Si number density = 22.222359 Si / 1000 Ang^3
#
#
#
# Elastic Constant Matrix: (Units=GPa)
#
#
# Indices 1 2 3 4 5 6 
#
# 1 76.0945 18.2162 17.7889 0.0000 9.7454 0.0000
# 2 18.2162 118.7929 39.3172 0.0000 2.8061 0.0000
# 3 17.7889 39.3172 84.8448 0.0000 11.5255 0.0000
# 4 0.0000 0.0000 0.0000 19.5448 0.0000 -6.2439
# 5 9.7454 2.8061 11.5255 0.0000 26.2222 0.0000
# 6 0.0000 0.0000 0.0000 -6.2439 0.0000 32.3856
#
#
#
# Elastic Compliance Matrix: (Units=1/GPa)
#
#
# Indices 1 2 3 4 5 6 
#
# 1 0.014484 -0.001549 -0.001713 0.000000 -0.004465 0.000000
# 2 -0.001549 0.010134 -0.004576 0.000000 0.001502 0.000000
# 3 -0.001713 -0.004576 0.015009 0.000000 -0.005471 0.000000
# 4 0.000000 0.000000 0.000000 0.054523 0.000000 0.010512
# 5 -0.004465 0.001502 -0.005471 0.000000 0.042039 0.000000
# 6 0.000000 0.000000 0.000000 0.010512 0.000000 0.032905
#
#
# Mechanical properties :
#
#
# Convention : Reuss Voigt Hill
#
# Bulk Modulus (GPa) = 41.74755 47.81964 44.78359
# Shear Modulus (GPa) = 25.93999 29.25784 27.59892
#
# Velocity S-wave (km/s) = 3.42027 3.63243 3.52795
# Velocity P-wave (km/s) = 5.86726 6.25765 6.06559
#
# Compressibility (1/GPa) = 0.02395350
#
# Stress axis : x y z
#
# Youngs Moduli (GPa) = 69.03940 98.67334 66.62739
#
# Poissons Ratio (x) = 0.15283 0.11411
# Poissons Ratio (y) = 0.10693 0.30486
# Poissons Ratio (z) = 0.11824 0.45150
#
# Static dielectric constant tensor:
#      x y z
#    x 4.191780 0.000000 0.171260 
#    y 0.000000 4.108580 0.000000 
#    z 0.171260 0.000000 4.032310 
# 
# 
# High freq. dielectric constant tensor:
#      x y z
#    x 1.895170 0.000000 0.005510 
#    y 0.000000 1.885460 0.000000 
#    z 0.005510 0.000000 1.873870 
# 
# From -- ./inp_files/48987.got.cif
#   From: 2010.06.25/outbox.cif.g09.slc.cpg/sg15_25_cif.got.tgz:48987.got - 2010.06.28 07:06:18.
