data_PCOD8150844
_publ_section_title
;
Structure prediction by ZEFSAII (Michael W. Deem and Ramdas Pophale) SiO2 
 PCOD8150844
Probable space group: C 2/C
;
_chemical_formula_sum "Si O2"
_cell_formula_units_Z 52
_cell_length_a 19.996627
_cell_length_b 6.438602
_cell_length_c 25.333785
_cell_angle_alpha 90.000000
_cell_angle_beta 47.549088
_cell_angle_gamma 90.000000
_cell_volume 2406.688854
_symmetry_space_group_name_H-M "C 2/C"
_symmetry_group_IT_number 15
_symmetry_cell_setting 'monoclinic'
loop_
_space_group_symop_operation_xyz
x,y,z
-x,y,1/2-z
-x,-y,-z
x,-y,1/2+z
1/2+x,1/2+y,z
1/2-x,1/2+y,1/2-z
1/2-x,1/2-y,-z
1/2+x,1/2-y,1/2+z
loop_
_atom_site_type_symbol
_atom_site_label
_atom_site_fract_x
_atom_site_fract_y
_atom_site_fract_z
Si Si1 0.878590 0.546619 0.752885
Si Si2 0.428834 0.690735 0.130672
Si Si3 0.500000 0.648556 0.250000
Si Si4 0.005939 0.158764 0.835905
Si Si5 0.920459 0.388036 0.509680
Si Si6 0.821747 0.994525 0.099210
Si Si7 0.834614 0.258531 0.993585
O O1 0.879550 0.637810 0.693138
O O2 0.935391 0.333875 0.724693
O O3 0.777292 0.504163 0.823875
O O4 0.918089 0.709161 0.773852
O O5 0.428829 0.468018 0.159469
O O6 0.377023 0.665257 0.103080
O O7 0.531422 0.762943 0.063782
O O8 0.536393 0.502415 0.183661
O O9 0.924973 0.260902 0.910937
O O10 0.868367 0.231938 0.577113
O O11 0.843528 0.537469 0.525692
O O12 0.000000 0.500000 0.500000
O O13 0.823396 0.060191 0.037233
O O14 0.750000 0.250000 0.000000
#
# Coordination Sequence:
#
# PCOD8150844 Si02
#       7
#     8   8   4   8   8   8   8
#     4  11  27  44  72 104 143 187 232 302 359 425
#     4  11  24  45  71 101 136 191 235 290 361 430
#     4  10  26  46  70  96 142 188 238 280 370 426
#     4  11  24  47  71  96 142 190 237 286 361 431
#     4  12  24  47  74 101 142 189 231 293 366 421
#     4  12  28  44  71 110 143 178 249 300 348 430
#     4  12  28  43  74 107 142 187 242 297 358 430
#
# _framework density 21.606448
#
# number of rings (size 3 to 8) (size 9 to 14) (size 15 to 20)
#    0.000    0.615    4.615    1.846    8.615    1.846 
#    0.000    0.000    0.000    0.000    0.000    0.000 
#    0.000    0.000    0.000    0.000    0.000    0.000 
#
# Total GULP energy -322486.447775 kJ/mol
# GULP energy per Si atom -12403.324914 kJ/mol
# Density = 2.155727 g / cm^3
# Si number density = 21.606448 Si / 1000 Ang^3
#
#
#
# Elastic Constant Matrix: (Units=GPa)
#
#
# Indices 1 2 3 4 5 6 
#
# 1 128.6546 49.8761 31.4777 0.0180 8.7931 0.0710
# 2 49.8761 118.0646 42.9863 0.1121 -3.4764 0.2172
# 3 31.4777 42.9863 124.1487 -0.0094 -17.5164 0.0103
# 4 0.0180 0.1121 -0.0094 40.3301 -0.0130 6.0279
# 5 8.7931 -3.4764 -17.5164 -0.0130 38.1168 0.0061
# 6 0.0710 0.2172 0.0103 6.0279 0.0061 36.3546
#
#
#
# Elastic Compliance Matrix: (Units=1/GPa)
#
#
# Indices 1 2 3 4 5 6 
#
# 1 0.009830 -0.003628 -0.001714 0.000004 -0.003386 0.000003
# 2 -0.003628 0.011049 -0.002829 -0.000021 0.000545 -0.000055
# 3 -0.001714 -0.002829 0.010146 0.000010 0.004800 0.000015
# 4 0.000004 -0.000021 0.000010 0.025426 0.000011 -0.004216
# 5 -0.003386 0.000545 0.004800 0.000011 0.029272 -0.000005
# 6 0.000003 -0.000055 0.000015 -0.004216 -0.000005 0.028206
#
#
# Mechanical properties :
#
#
# Convention : Reuss Voigt Hill
#
# Bulk Modulus (GPa) = 68.10621 68.83867 68.47244
# Shear Modulus (GPa) = 36.99180 39.39550 38.19365
#
# Velocity S-wave (km/s) = 4.14221 4.27467 4.20896
# Velocity P-wave (km/s) = 7.38017 7.50288 7.44177
#
# Compressibility (1/GPa) = 0.01468295
#
# Stress axis : x y z
#
# Youngs Moduli (GPa) = 101.72767 90.50701 98.56001
#
# Poissons Ratio (x) = 0.32840 0.16892
# Poissons Ratio (y) = 0.36911 0.27881
# Poissons Ratio (z) = 0.17435 0.25603
#
# Static dielectric constant tensor:
#      x y z
#    x 3.886900 -0.000240 0.177210 
#    y -0.000240 4.067020 -0.000130 
#    z 0.177210 -0.000130 3.965210 
# 
# 
# High freq. dielectric constant tensor:
#      x y z
#    x 1.843140 -0.000010 0.015400 
#    y -0.000010 1.863250 -0.000010 
#    z 0.015400 -0.000010 1.853350 
# 
# From -- ./inp_files/251047.got.cif
#   From: 2010.06.25/outbox.cif.g09.slc.cpg/sg15_126_cif.got.tgz:251047.got - 2010.06.28 07:06:18.
