data_PCOD8150780
_publ_section_title
;
Structure prediction by ZEFSAII (Michael W. Deem and Ramdas Pophale) SiO2 
 PCOD8150780
Probable space group: C 2/C
;
_chemical_formula_sum "Si O2"
_cell_formula_units_Z 64
_cell_length_a 8.240933
_cell_length_b 16.810436
_cell_length_c 29.613552
_cell_angle_alpha 90.000000
_cell_angle_beta 135.270905
_cell_angle_gamma 90.000000
_cell_volume 2887.139051
_symmetry_space_group_name_H-M "C 2/C"
_symmetry_group_IT_number 15
_symmetry_cell_setting 'monoclinic'
loop_
_space_group_symop_operation_xyz
x,y,z
-x,y,1/2-z
-x,-y,-z
x,-y,1/2+z
1/2+x,1/2+y,z
1/2-x,1/2+y,1/2-z
1/2-x,1/2-y,-z
1/2+x,1/2-y,1/2+z
loop_
_atom_site_type_symbol
_atom_site_label
_atom_site_fract_x
_atom_site_fract_y
_atom_site_fract_z
Si Si1 0.120597 0.187468 0.324284
Si Si2 0.876182 0.174059 0.007371
Si Si3 0.728471 0.464746 0.268736
Si Si4 0.115721 0.728712 0.392158
Si Si5 0.449266 0.104796 0.191490
Si Si6 0.031580 0.903357 0.138287
Si Si7 0.449358 0.429953 0.606921
Si Si8 0.111871 0.647895 0.865021
O O1 0.399140 0.199138 0.379342
O O2 0.073019 0.113346 0.348539
O O3 0.025725 0.265281 0.331476
O O4 0.000000 0.179559 0.250000
O O5 0.745674 0.142561 0.938332
O O6 0.750000 0.250000 0.000000
O O7 0.841917 0.113339 0.042452
O O8 0.137584 0.194313 0.042413
O O9 0.500000 0.485196 0.250000
O O10 0.677174 0.421806 0.211679
O O11 0.849790 0.550366 0.288798
O O12 0.885805 0.404992 0.328457
O O13 0.072794 0.690083 0.335651
O O14 0.125416 0.824229 0.389199
O O15 0.500000 0.137234 0.250000
O O16 0.215088 0.055099 0.146281
O O17 0.224804 0.891845 0.139165
O O18 0.860600 0.978544 0.094132
#
# Coordination Sequence:
#
# PCOD8150780 Si02
#       8
#     8   8   8   8   8   8   8   8
#     4  11  23  41  73 110 143 187 245 302 377 436
#     4  11  25  49  74 103 144 201 258 296 352 446
#     4  12  26  41  71 111 147 180 241 313 370 444
#     4  10  26  43  70 103 138 192 243 292 364 434
#     4  11  21  42  69  97 142 184 232 287 371 433
#     4  11  24  45  70 106 147 183 242 303 379 428
#     4  11  23  43  73 102 144 194 231 299 366 435
#     4  11  23  48  74  98 149 195 243 302 364 438
#
# _framework density 22.167273000000002
#
# number of rings (size 3 to 8) (size 9 to 14) (size 15 to 20)
#    0.000    1.000    3.750    2.625    3.500    3.000 
#    0.000    0.625    0.000    0.000    0.000    0.000 
#    0.000    0.000    0.000    0.000    0.000    0.000 
#
# Total GULP energy -396515.730133 kJ/mol
# GULP energy per Si atom -12391.116567 kJ/mol
# Density = 2.211682 g / cm^3
# Si number density = 22.167273 Si / 1000 Ang^3
#
#
#
# Elastic Constant Matrix: (Units=GPa)
#
#
# Indices 1 2 3 4 5 6 
#
# 1 111.9610 51.3347 57.7558 0.0000 -0.3969 0.0000
# 2 51.3347 154.6838 48.3765 0.0000 -6.7528 0.0000
# 3 57.7558 48.3765 136.8786 0.0001 -16.2949 0.0000
# 4 0.0000 0.0000 0.0001 36.6660 0.0000 -0.7334
# 5 -0.3969 -6.7528 -16.2949 0.0000 35.1788 0.0000
# 6 0.0000 0.0000 0.0000 -0.7334 0.0000 39.2786
#
#
#
# Elastic Compliance Matrix: (Units=1/GPa)
#
#
# Indices 1 2 3 4 5 6 
#
# 1 0.012612 -0.002853 -0.004616 0.000000 -0.002544 0.000000
# 2 -0.002853 0.007915 -0.001499 0.000000 0.000793 0.000000
# 3 -0.004616 -0.001499 0.010312 0.000000 0.004436 0.000000
# 4 0.000000 0.000000 0.000000 0.027283 0.000000 0.000509
# 5 -0.002544 0.000793 0.004436 0.000000 0.030605 0.000000
# 6 0.000000 0.000000 0.000000 0.000509 0.000000 0.025469
#
#
# Mechanical properties :
#
#
# Convention : Reuss Voigt Hill
#
# Bulk Modulus (GPa) = 77.50706 79.82861 78.66783
# Shear Modulus (GPa) = 36.64813 38.62843 37.63828
#
# Velocity S-wave (km/s) = 4.07043 4.17896 4.12505
# Velocity P-wave (km/s) = 7.55856 7.70552 7.63239
#
# Compressibility (1/GPa) = 0.01290205
#
# Stress axis : x y z
#
# Youngs Moduli (GPa) = 79.28956 126.34113 96.97869
#
# Poissons Ratio (x) = 0.36044 0.44767
# Poissons Ratio (y) = 0.22620 0.14540
# Poissons Ratio (z) = 0.36601 0.18942
#
# Static dielectric constant tensor:
#      x y z
#    x 4.188640 0.000000 0.177560 
#    y 0.000000 4.397790 0.000000 
#    z 0.177560 0.000000 3.903340 
# 
# 
# High freq. dielectric constant tensor:
#      x y z
#    x 1.877850 0.000000 -0.003440 
#    y 0.000000 1.888650 0.000000 
#    z -0.003440 0.000000 1.864060 
# 
# From -- ./inp_files/308799.got.cif
#   From: 2010.06.25/outbox.cif.g09.slc.cpg/sg15_155_cif.got.tgz:308799.got - 2010.06.28 07:06:18.
