data_PCOD8150793
_publ_section_title
;
Structure prediction by ZEFSAII (Michael W. Deem and Ramdas Pophale) SiO2 
 PCOD8150793
Probable space group: C 2/C
;
_chemical_formula_sum "Si O2"
_cell_formula_units_Z 28
_cell_length_a 20.491149
_cell_length_b 7.899876
_cell_length_c 14.236570
_cell_angle_alpha 90.000000
_cell_angle_beta 35.608378
_cell_angle_gamma 90.000000
_cell_volume 1341.823452
_symmetry_space_group_name_H-M "C 2/C"
_symmetry_group_IT_number 15
_symmetry_cell_setting 'monoclinic'
loop_
_space_group_symop_operation_xyz
x,y,z
-x,y,1/2-z
-x,-y,-z
x,-y,1/2+z
1/2+x,1/2+y,z
1/2-x,1/2+y,1/2-z
1/2-x,1/2-y,-z
1/2+x,1/2-y,1/2+z
loop_
_atom_site_type_symbol
_atom_site_label
_atom_site_fract_x
_atom_site_fract_y
_atom_site_fract_z
Si Si1 0.907093 0.550060 0.534781
Si Si2 0.500000 0.761231 0.750000
Si Si3 0.238171 0.228332 0.166041
Si Si4 0.619552 0.436383 0.638041
O O1 0.827007 0.695157 0.669540
O O2 0.837803 0.384891 0.588622
O O3 0.000000 0.500000 0.500000
O O4 0.970333 0.618720 0.370239
O O5 0.606450 0.640802 0.651202
O O6 0.152700 0.116789 0.204339
O O7 0.285938 0.380837 0.046536
O O8 0.500000 0.350851 0.750000
#
# Coordination Sequence:
#
# PCOD8150793 Si02
#       4
#     8   4   8   8
#     4  12  28  43  70 103 138 175 231 276 338 401
#     4  10  26  44  68  92 140 174 220 286 328 394
#     4  11  24  42  71  97 136 182 223 275 340 398
#     4   9  22  44  70  94 136 175 227 277 334 393
#
# _framework density 20.867127
#
# number of rings (size 3 to 8) (size 9 to 14) (size 15 to 20)
#    0.857    0.571    0.000    3.429   14.000    2.286 
#    0.000    0.000    0.000    0.000    0.000    0.000 
#    0.000    0.000    0.000    0.000    0.000    0.000 
#
# Total GULP energy -173629.567270 kJ/mol
# GULP energy per Si atom -12402.111948 kJ/mol
# Density = 2.081963 g / cm^3
# Si number density = 20.867127 Si / 1000 Ang^3
#
#
#
# Elastic Constant Matrix: (Units=GPa)
#
#
# Indices 1 2 3 4 5 6 
#
# 1 107.7146 51.6543 67.9763 -0.0007 0.8884 0.0002
# 2 51.6543 118.9284 65.7669 0.0001 10.7166 0.0003
# 3 67.9763 65.7669 119.9631 0.0002 23.4146 0.0001
# 4 -0.0007 0.0001 0.0002 50.3164 0.0000 -6.0699
# 5 0.8884 10.7166 23.4146 0.0000 46.5811 -0.0001
# 6 0.0002 0.0003 0.0001 -6.0699 -0.0001 33.1415
#
#
#
# Elastic Compliance Matrix: (Units=1/GPa)
#
#
# Indices 1 2 3 4 5 6 
#
# 1 0.015808 -0.002629 -0.008400 0.000000 0.004525 0.000000
# 2 -0.002629 0.012519 -0.005346 0.000000 -0.000143 0.000000
# 3 -0.008400 -0.005346 0.017469 0.000000 -0.007391 0.000000
# 4 0.000000 0.000000 0.000000 0.020323 0.000000 0.003722
# 5 0.004525 -0.000143 -0.007391 0.000000 0.025130 0.000000
# 6 0.000000 0.000000 0.000000 0.003722 0.000000 0.030855
#
#
# Mechanical properties :
#
#
# Convention : Reuss Voigt Hill
#
# Bulk Modulus (GPa) = 76.64328 79.71123 78.17725
# Shear Modulus (GPa) = 31.40666 36.75505 34.08085
#
# Velocity S-wave (km/s) = 3.88374 4.20144 4.04571
# Velocity P-wave (km/s) = 7.54455 7.86247 7.70515
#
# Compressibility (1/GPa) = 0.01304746
#
# Stress axis : x y z
#
# Youngs Moduli (GPa) = 63.25983 79.87642 57.24483
#
# Poissons Ratio (x) = 0.20997 0.48083
# Poissons Ratio (y) = 0.16629 0.30603
# Poissons Ratio (z) = 0.53135 0.42702
#
# Static dielectric constant tensor:
#      x y z
#    x 3.790390 0.000000 0.010640 
#    y 0.000000 3.721160 0.000000 
#    z 0.010640 0.000000 3.793400 
# 
# 
# High freq. dielectric constant tensor:
#      x y z
#    x 1.826570 0.000000 0.000930 
#    y 0.000000 1.816870 0.000000 
#    z 0.000930 0.000000 1.823290 
# 
# From -- ./inp_files/93150.got.cif
#   From: 2010.06.25/outbox.cif.g09.slc.cpg/sg15_47_cif.got.tgz:93150.got - 2010.06.28 07:06:18.
