data_PCOD8150195
_publ_section_title
;
Structure prediction by ZEFSAII (Michael W. Deem and Ramdas Pophale) SiO2 
 PCOD8150195
Probable space group: C 2/C
;
_chemical_formula_sum "Si O2"
_cell_formula_units_Z 44
_cell_length_a 8.555671
_cell_length_b 22.673343
_cell_length_c 16.224771
_cell_angle_alpha 90.000000
_cell_angle_beta 44.746295
_cell_angle_gamma 90.000000
_cell_volume 2215.652365
_symmetry_space_group_name_H-M "C 2/C"
_symmetry_group_IT_number 15
_symmetry_cell_setting 'monoclinic'
loop_
_space_group_symop_operation_xyz
x,y,z
-x,y,1/2-z
-x,-y,-z
x,-y,1/2+z
1/2+x,1/2+y,z
1/2-x,1/2+y,1/2-z
1/2-x,1/2-y,-z
1/2+x,1/2-y,1/2+z
loop_
_atom_site_type_symbol
_atom_site_label
_atom_site_fract_x
_atom_site_fract_y
_atom_site_fract_z
Si Si1 0.762606 0.691295 0.809140
Si Si2 0.359119 0.687141 0.470179
Si Si3 0.220310 0.907578 0.199409
Si Si4 0.619807 0.105922 0.439873
Si Si5 0.500000 0.481845 0.750000
Si Si6 0.149422 0.689671 0.274373
O O1 0.817277 0.632999 0.735386
O O2 0.626398 0.742790 0.813574
O O3 0.000000 0.717430 0.750000
O O4 0.617257 0.671743 0.942088
O O5 0.250000 0.750000 0.500000
O O6 0.184275 0.646502 0.491258
O O7 0.595987 0.678218 0.340870
O O8 0.000000 0.872777 0.250000
O O9 0.134081 0.973051 0.262092
O O10 0.386204 0.919817 0.059947
O O11 0.581464 0.142585 0.370046
O O12 0.812149 0.057281 0.362806
O O13 0.000000 0.679386 0.250000
#
# Coordination Sequence:
#
# PCOD8150195 Si02
#       6
#     8   8   8   8   4   8
#     4  12  22  41  65  98 134 172 214 264 336 396
#     4  12  22  40  68  97 132 176 213 267 337 406
#     4  10  25  42  67  99 130 179 221 271 324 384
#     4  12  21  46  70  95 132 176 223 269 335 395
#     4  10  24  44  72  90 132 180 228 266 328 382
#     4  12  26  38  65 103 135 169 215 278 332 391
#
# _framework density 19.858711
#
# number of rings (size 3 to 8) (size 9 to 14) (size 15 to 20)
#    0.545    0.000    7.273    1.091    2.545    0.727 
#    0.000    1.818    0.000    0.000    0.000    0.000 
#    0.000    0.000    0.000    0.000    0.000    0.000 
#
# Total GULP energy -272552.988320 kJ/mol
# GULP energy per Si atom -12388.772196 kJ/mol
# Density = 1.981351 g / cm^3
# Si number density = 19.858711 Si / 1000 Ang^3
#
#
#
# Elastic Constant Matrix: (Units=GPa)
#
#
# Indices 1 2 3 4 5 6 
#
# 1 83.3371 35.6822 45.6934 0.0000 3.1010 0.0000
# 2 35.6822 120.5903 44.1194 0.0000 9.2745 0.0000
# 3 45.6934 44.1194 136.5215 0.0000 2.9458 0.0000
# 4 0.0000 0.0000 0.0000 24.2379 0.0000 -4.6303
# 5 3.1010 9.2745 2.9458 0.0000 39.0081 0.0000
# 6 0.0000 0.0000 0.0000 -4.6303 0.0000 24.7816
#
#
#
# Elastic Compliance Matrix: (Units=1/GPa)
#
#
# Indices 1 2 3 4 5 6 
#
# 1 0.015644 -0.003062 -0.004242 0.000000 -0.000195 0.000000
# 2 -0.003062 0.010164 -0.002217 0.000000 -0.002006 0.000000
# 3 -0.004242 -0.002217 0.009458 0.000000 0.000150 0.000000
# 4 0.000000 0.000000 0.000000 0.042785 0.000000 0.007994
# 5 -0.000195 -0.002006 0.000150 0.000000 0.026117 0.000000
# 6 0.000000 0.000000 0.000000 0.007994 0.000000 0.041846
#
#
# Mechanical properties :
#
#
# Convention : Reuss Voigt Hill
#
# Bulk Modulus (GPa) = 61.63681 65.71544 63.67613
# Shear Modulus (GPa) = 29.33201 31.93577 30.63389
#
# Velocity S-wave (km/s) = 3.84739 4.01452 3.93185
# Velocity P-wave (km/s) = 7.13033 7.39269 7.26270
#
# Compressibility (1/GPa) = 0.01622407
#
# Stress axis : x y z
#
# Youngs Moduli (GPa) = 63.92361 98.38909 105.73305
#
# Poissons Ratio (x) = 0.30125 0.44854
# Poissons Ratio (y) = 0.19572 0.23436
# Poissons Ratio (z) = 0.27118 0.21808
#
# Static dielectric constant tensor:
#      x y z
#    x 3.589390 0.000000 -0.589100 
#    y 0.000000 3.533940 0.000000 
#    z -0.589100 0.000000 6.190900 
# 
# 
# High freq. dielectric constant tensor:
#      x y z
#    x 1.762060 0.000000 -0.014160 
#    y 0.000000 1.767370 0.000000 
#    z -0.014160 0.000000 1.790770 
# 
# From -- ./inp_files/137163.got.cif
#   From: 2010.06.25/outbox.cif.g09.slc.cpg/sg15_69_cif.got.tgz:137163.got - 2010.06.28 07:06:18.
