data_PCOD8150550
_publ_section_title
;
Structure prediction by ZEFSAII (Michael W. Deem and Ramdas Pophale) SiO2 
 PCOD8150550
Probable space group: C 2/C
;
_chemical_formula_sum "Si O2"
_cell_formula_units_Z 48
_cell_length_a 30.992498
_cell_length_b 8.116842
_cell_length_c 12.152006
_cell_angle_alpha 90.000000
_cell_angle_beta 44.260230
_cell_angle_gamma 90.000000
_cell_volume 2133.517757
_symmetry_space_group_name_H-M "C 2/C"
_symmetry_group_IT_number 15
_symmetry_cell_setting 'monoclinic'
loop_
_space_group_symop_operation_xyz
x,y,z
-x,y,1/2-z
-x,-y,-z
x,-y,1/2+z
1/2+x,1/2+y,z
1/2-x,1/2+y,1/2-z
1/2-x,1/2-y,-z
1/2+x,1/2-y,1/2+z
loop_
_atom_site_type_symbol
_atom_site_label
_atom_site_fract_x
_atom_site_fract_y
_atom_site_fract_z
Si Si1 0.728593 0.829951 0.153695
Si Si2 0.570111 0.677756 0.986888
Si Si3 0.802690 0.999853 0.699656
Si Si4 0.929009 0.310730 0.751514
Si Si5 0.206005 0.602954 0.046046
Si Si6 0.500000 0.434772 0.250000
Si Si7 0.000000 0.426833 0.250000
O O1 0.786262 0.919813 0.111495
O O2 0.689746 0.702431 0.304149
O O3 0.688117 0.986504 0.184029
O O4 0.750000 0.750000 0.000000
O O5 0.521453 0.535853 0.104614
O O6 0.558171 0.820581 0.098827
O O7 0.639435 0.603595 0.859952
O O8 0.551701 0.748294 0.903221
O O9 0.741588 0.008851 0.885283
O O10 0.856732 0.337151 0.893122
O O11 0.971056 0.468006 0.703313
O O12 0.941197 0.170792 0.820052
O O13 0.250000 0.750000 0.000000
#
# Coordination Sequence:
#
# PCOD8150550 Si02
#       7
#     8   8   8   8   8   4   4
#     4  10  25  42  65 105 142 185 226 279 362 420
#     4  11  24  46  70  99 139 184 238 292 346 424
#     4  11  24  42  69 103 139 182 229 288 361 415
#     4  11  24  47  70 100 141 182 235 293 352 423
#     4  11  23  43  69 105 137 178 231 287 357 418
#     4  10  26  44  68 100 134 188 236 282 346 418
#     4  10  26  46  72 102 136 190 244 290 350 420
#
# _framework density 22.498055999999998
#
# number of rings (size 3 to 8) (size 9 to 14) (size 15 to 20)
#    0.000    1.333    1.667    2.000    9.333    0.000 
#    9.000    0.000    0.000    0.000    0.000    0.000 
#    0.000    0.000    0.000    0.000    0.000    0.000 
#
# Total GULP energy -297336.072741 kJ/mol
# GULP energy per Si atom -12389.003031 kJ/mol
# Density = 2.244685 g / cm^3
# Si number density = 22.498056 Si / 1000 Ang^3
#
#
#
# Elastic Constant Matrix: (Units=GPa)
#
#
# Indices 1 2 3 4 5 6 
#
# 1 142.4319 78.8786 45.4643 0.0000 -11.3298 0.0000
# 2 78.8786 154.2046 51.7898 0.0000 -3.3522 0.0000
# 3 45.4643 51.7898 100.6555 0.0000 -11.9241 0.0000
# 4 0.0000 0.0000 0.0000 11.8671 0.0000 30.0107
# 5 -11.3298 -3.3522 -11.9241 0.0000 40.8812 0.0000
# 6 0.0000 0.0000 0.0000 30.0107 0.0000 6.8402
#
#
#
# Elastic Compliance Matrix: (Units=1/GPa)
#
#
# Indices 1 2 3 4 5 6 
#
# 1 0.010367 -0.004551 -0.002118 0.000000 0.001882 0.000000
# 2 -0.004551 0.009849 -0.003176 0.000000 -0.001380 0.000000
# 3 -0.002118 -0.003176 0.012870 0.000000 0.002906 0.000000
# 4 0.000000 0.000000 0.000000 -0.008347 0.000000 0.036622
# 5 0.001882 -0.001380 0.002906 0.000000 0.025717 0.000000
# 6 0.000000 0.000000 0.000000 0.036622 0.000000 -0.014481
#
#
# Mechanical properties :
#
#
# Convention : Reuss Voigt Hill
#
# Bulk Modulus (GPa) = 74.64328 83.28414 78.96371
# Shear Modulus (GPa) = 83.15453 26.66166 54.90809
#
# Velocity S-wave (km/s) = 6.08613 3.44621 4.94557
# Velocity P-wave (km/s) = 9.09053 7.27557 8.23321
#
# Compressibility (1/GPa) = 0.01339705
#
# Stress axis : x y z
#
# Youngs Moduli (GPa) = 96.46176 101.53178 77.70063
#
# Poissons Ratio (x) = 0.46202 0.16458
# Poissons Ratio (y) = 0.43895 0.24675
# Poissons Ratio (z) = 0.20432 0.32243
#
# Static dielectric constant tensor:
#      x y z
#    x 4.096390 0.000000 0.219070 
#    y 0.000000 4.849040 0.000000 
#    z 0.219070 0.000000 3.629220 
# 
# 
# High freq. dielectric constant tensor:
#      x y z
#    x 1.889410 0.000000 0.011720 
#    y 0.000000 1.913070 0.000000 
#    z 0.011720 0.000000 1.867000 
# 
# From -- ./inp_files/180734.got.cif
#   From: 2010.06.25/outbox.cif.g09.slc.cpg/sg15_91_cif.got.tgz:180734.got - 2010.06.28 07:06:18.
