data_PCOD8150694
_publ_section_title
;
Structure prediction by ZEFSAII (Michael W. Deem and Ramdas Pophale) SiO2 
 PCOD8150694
Probable space group: C 2/C
;
_chemical_formula_sum "Si O2"
_cell_formula_units_Z 20
_cell_length_a 7.635344
_cell_length_b 17.666815
_cell_length_c 4.733031
_cell_angle_alpha 90.000000
_cell_angle_beta 83.511766
_cell_angle_gamma 90.000000
_cell_volume 634.359797
_symmetry_space_group_name_H-M "C 2/C"
_symmetry_group_IT_number 15
_symmetry_cell_setting 'monoclinic'
loop_
_space_group_symop_operation_xyz
x,y,z
-x,y,1/2-z
-x,-y,-z
x,-y,1/2+z
1/2+x,1/2+y,z
1/2-x,1/2+y,1/2-z
1/2-x,1/2-y,-z
1/2+x,1/2-y,1/2+z
loop_
_atom_site_type_symbol
_atom_site_label
_atom_site_fract_x
_atom_site_fract_y
_atom_site_fract_z
Si Si1 0.800516 0.948412 0.832396
Si Si2 0.642455 0.847081 0.420910
Si Si3 0.000000 0.789306 0.250000
O O1 0.668552 0.885472 0.726069
O O2 0.000000 0.919175 0.750000
O O3 0.767798 0.027795 0.663996
O O4 0.500000 0.891228 0.250000
O O5 0.828641 0.841904 0.208628
O O6 0.563764 0.762649 0.478677
#
# Coordination Sequence:
#
# PCOD8150694 Si02
#       3
#     8   8   4
#     4  10  25  46  74 108 148 194 242 307 373 434
#     4  11  25  45  77 105 149 190 252 300 368 440
#     4  10  26  46  68 112 148 194 240 308 370 432
#
# _framework density 31.527849
#
# number of rings (size 3 to 8) (size 9 to 14) (size 15 to 20)
#    0.000    1.600    0.000    1.200   14.000    8.000 
#    0.000    0.000    0.000    0.000    0.000    0.000 
#    0.000    0.000    0.000    0.000    0.000    0.000 
#
# Total GULP energy -124036.818552 kJ/mol
# GULP energy per Si atom -12403.681855 kJ/mol
# Density = 3.145609 g / cm^3
# Si number density = 31.527849 Si / 1000 Ang^3
#
#
#
# Elastic Constant Matrix: (Units=GPa)
#
#
# Indices 1 2 3 4 5 6 
#
# 1 220.9667 39.0547 42.8097 0.0000 45.0676 0.0000
# 2 39.0547 96.4148 -15.6036 0.0000 24.3331 0.0000
# 3 42.8097 -15.6036 118.1659 0.0000 19.1668 0.0000
# 4 0.0000 0.0000 0.0000 16.5429 0.0000 -0.9557
# 5 45.0676 24.3331 19.1668 0.0000 72.6926 0.0000
# 6 0.0000 0.0000 0.0000 -0.9557 0.0000 47.5345
#
#
#
# Elastic Compliance Matrix: (Units=1/GPa)
#
#
# Indices 1 2 3 4 5 6 
#
# 1 0.005752 -0.002054 -0.001972 0.000000 -0.002358 0.000000
# 2 -0.002054 0.012641 0.003022 0.000000 -0.003755 0.000000
# 3 -0.001972 0.003022 0.009968 0.000000 -0.002417 0.000000
# 4 0.000000 0.000000 0.000000 0.060519 0.000000 0.001217
# 5 -0.002358 -0.003755 -0.002417 0.000000 0.017113 0.000000
# 6 0.000000 0.000000 0.000000 0.001217 0.000000 0.021062
#
#
# Mechanical properties :
#
#
# Convention : Reuss Voigt Hill
#
# Bulk Modulus (GPa) = 37.94679 63.11878 50.53278
# Shear Modulus (GPa) = 36.27217 51.97313 44.12265
#
# Velocity S-wave (km/s) = 3.39555 4.06456 3.74502
# Velocity P-wave (km/s) = 5.23786 6.48775 5.89602
#
# Compressibility (1/GPa) = 0.02635269
#
# Stress axis : x y z
#
# Youngs Moduli (GPa) = 173.86123 79.11036 100.31673
#
# Poissons Ratio (x) = 0.16248 0.19787
# Poissons Ratio (y) = 0.35709 -0.30319
# Poissons Ratio (z) = 0.34293 -0.23909
#
# Static dielectric constant tensor:
#      x y z
#    x 6.338880 0.000000 0.416540 
#    y 0.000000 5.538090 0.000000 
#    z 0.416540 0.000000 5.615840 
# 
# 
# High freq. dielectric constant tensor:
#      x y z
#    x 2.321400 0.000000 0.003290 
#    y 0.000000 2.315100 0.000000 
#    z 0.003290 0.000000 2.296050 
# 
# From -- ./inp_files/1017.got.cif
#   From: 2010.06.25/outbox.cif.g09.slc.cpg/sg15_1_cif.got.tgz:1017.got - 2010.06.28 07:06:18.
