data_PCOD8150141
_publ_section_title
;
Structure prediction by ZEFSAII (Michael W. Deem and Ramdas Pophale) SiO2 
 PCOD8150141
Probable space group: C 2/C
;
_chemical_formula_sum "Si O2"
_cell_formula_units_Z 32
_cell_length_a 15.835550
_cell_length_b 4.921057
_cell_length_c 16.862372
_cell_angle_alpha 90.000000
_cell_angle_beta 103.778281
_cell_angle_gamma 90.000000
_cell_volume 1276.232797
_symmetry_space_group_name_H-M "C 2/C"
_symmetry_group_IT_number 15
_symmetry_cell_setting 'monoclinic'
loop_
_space_group_symop_operation_xyz
x,y,z
-x,y,1/2-z
-x,-y,-z
x,-y,1/2+z
1/2+x,1/2+y,z
1/2-x,1/2+y,1/2-z
1/2-x,1/2-y,-z
1/2+x,1/2-y,1/2+z
loop_
_atom_site_type_symbol
_atom_site_label
_atom_site_fract_x
_atom_site_fract_y
_atom_site_fract_z
Si Si1 0.341992 0.882560 0.033673
Si Si2 0.602438 0.629376 0.867199
Si Si3 0.309415 0.523099 0.771492
Si Si4 0.557412 0.662382 0.575973
O O1 0.394477 0.681211 0.103672
O O2 0.329184 0.177789 0.070463
O O3 0.250000 0.750000 0.000000
O O4 0.395925 0.907576 0.962428
O O5 0.623449 0.636481 0.779286
O O6 0.507625 0.759738 0.868221
O O7 0.270102 0.234756 0.736585
O O8 0.363750 0.492673 0.865269
O O9 0.500000 0.500000 0.500000
#
# Coordination Sequence:
#
# PCOD8150141 Si02
#       4
#     8   8   8   8
#     4  11  22  40  65  96 130 170 216 269 327 390
#     4  11  23  41  64  94 130 172 217 269 326 389
#     4  12  26  45  68  98 134 177 224 275 332 396
#     4  10  24  44  69 100 135 175 222 275 333 397
#
# _framework density 25.073796999999999
#
# number of rings (size 3 to 8) (size 9 to 14) (size 15 to 20)
#    0.000    1.000    0.000    6.750    0.000   10.000 
#    0.000    7.500    0.000    0.000    0.000    0.000 
#    0.000    0.000    0.000    0.000    0.000    0.000 
#
# Total GULP energy -198282.502933 kJ/mol
# GULP energy per Si atom -12392.656433 kJ/mol
# Density = 2.501673 g / cm^3
# Si number density = 25.073797 Si / 1000 Ang^3
#
#
#
# Elastic Constant Matrix: (Units=GPa)
#
#
# Indices 1 2 3 4 5 6 
#
# 1 106.5525 3.6990 44.3729 0.0000 -21.9989 0.0000
# 2 3.6990 71.1182 12.7113 0.0000 7.3935 0.0000
# 3 44.3729 12.7113 127.2755 0.0000 17.8302 0.0000
# 4 0.0000 0.0000 0.0000 29.6779 0.0000 -1.9853
# 5 -21.9989 7.3935 17.8302 0.0000 61.2733 0.0000
# 6 0.0000 0.0000 0.0000 -1.9853 0.0000 29.5102
#
#
#
# Elastic Compliance Matrix: (Units=1/GPa)
#
#
# Indices 1 2 3 4 5 6 
#
# 1 0.012906 -0.000365 -0.005336 0.000000 0.006230 0.000000
# 2 -0.000365 0.014438 -0.001097 0.000000 -0.001554 0.000000
# 3 -0.005336 -0.001097 0.010505 0.000000 -0.004840 0.000000
# 4 0.000000 0.000000 0.000000 0.033847 0.000000 0.002277
# 5 0.006230 -0.001554 -0.004840 0.000000 0.020153 0.000000
# 6 0.000000 0.000000 0.000000 0.002277 0.000000 0.034040
#
#
# Mechanical properties :
#
#
# Convention : Reuss Voigt Hill
#
# Bulk Modulus (GPa) = 41.23263 47.39029 44.31146
# Shear Modulus (GPa) = 33.88233 40.36982 37.12608
#
# Velocity S-wave (km/s) = 3.68000 4.01688 3.85212
# Velocity P-wave (km/s) = 5.87679 6.36044 6.12339
#
# Compressibility (1/GPa) = 0.02425264
#
# Stress axis : x y z
#
# Youngs Moduli (GPa) = 77.48237 69.26307 95.19381
#
# Poissons Ratio (x) = 0.02530 0.50795
# Poissons Ratio (y) = 0.02830 0.10441
# Poissons Ratio (z) = 0.41344 0.07597
#
# Static dielectric constant tensor:
#      x y z
#    x 5.234520 0.000000 -0.333780 
#    y 0.000000 4.455180 0.000000 
#    z -0.333780 0.000000 4.531220 
# 
# 
# High freq. dielectric constant tensor:
#      x y z
#    x 2.022580 0.000000 -0.011650 
#    y 0.000000 1.969830 0.000000 
#    z -0.011650 0.000000 1.996450 
# 
# From -- ./inp_files/201812.got.cif
#   From: 2010.06.25/outbox.cif.g09.slc.cpg/sg15_101_cif.got.tgz:201812.got - 2010.06.28 07:06:18.
