data_PCOD8150232
_publ_section_title
;
Structure prediction by ZEFSAII (Michael W. Deem and Ramdas Pophale) SiO2 
 PCOD8150232
Probable space group: C 2/C
;
_chemical_formula_sum "Si O2"
_cell_formula_units_Z 40
_cell_length_a 20.665020
_cell_length_b 6.576752
_cell_length_c 18.854128
_cell_angle_alpha 90.000000
_cell_angle_beta 45.224904
_cell_angle_gamma 90.000000
_cell_volume 1819.017249
_symmetry_space_group_name_H-M "C 2/C"
_symmetry_group_IT_number 15
_symmetry_cell_setting 'monoclinic'
loop_
_space_group_symop_operation_xyz
x,y,z
-x,y,1/2-z
-x,-y,-z
x,-y,1/2+z
1/2+x,1/2+y,z
1/2-x,1/2+y,1/2-z
1/2-x,1/2-y,-z
1/2+x,1/2-y,1/2+z
loop_
_atom_site_type_symbol
_atom_site_label
_atom_site_fract_x
_atom_site_fract_y
_atom_site_fract_z
Si Si1 0.160985 0.224799 0.255122
Si Si2 0.685216 0.923749 0.635144
Si Si3 0.556291 0.329075 0.332753
Si Si4 0.361061 0.831435 0.985463
Si Si5 0.144056 0.566957 0.374975
O O1 0.189635 0.347379 0.161998
O O2 0.119860 0.371823 0.346163
O O3 0.082519 0.062290 0.298487
O O4 0.248859 0.107495 0.216703
O O5 0.603162 0.807805 0.736673
O O6 0.667904 0.938396 0.565004
O O7 0.779489 0.807131 0.578941
O O8 0.448082 0.312021 0.407597
O O9 0.586702 0.257548 0.388628
O O10 0.383017 0.014609 0.023358
#
# Coordination Sequence:
#
# PCOD8150232 Si02
#       5
#     8   8   8   8   8
#     4  11  21  42  69  93 135 178 213 269 338 385
#     4  10  24  45  65  94 137 172 216 278 330 391
#     4  11  23  43  67  95 134 176 220 271 329 395
#     4  11  23  44  67  98 133 172 225 275 326 395
#     4  11  21  40  66  98 130 172 220 272 325 390
#
# _framework density 21.989896000000002
#
# number of rings (size 3 to 8) (size 9 to 14) (size 15 to 20)
#    0.000    1.200    4.000    2.400    0.000    1.600 
#    7.200    4.000    0.000    0.000    0.000    0.000 
#    0.000    0.000    0.000    0.000    0.000    0.000 
#
# Total GULP energy -248106.310046 kJ/mol
# GULP energy per Si atom -12405.315502 kJ/mol
# Density = 2.193985 g / cm^3
# Si number density = 21.989896 Si / 1000 Ang^3
#
#
#
# Elastic Constant Matrix: (Units=GPa)
#
#
# Indices 1 2 3 4 5 6 
#
# 1 75.8328 26.6851 45.5600 -0.0091 4.0640 -0.0453
# 2 26.6851 102.8327 30.6884 -0.0182 15.1462 0.0028
# 3 45.5600 30.6884 93.2482 0.0024 6.9812 -0.0155
# 4 -0.0091 -0.0182 0.0024 33.7808 -0.0065 4.8375
# 5 4.0640 15.1462 6.9812 -0.0065 44.7095 0.0293
# 6 -0.0453 0.0028 -0.0155 4.8375 0.0293 16.7211
#
#
#
# Elastic Compliance Matrix: (Units=1/GPa)
#
#
# Indices 1 2 3 4 5 6 
#
# 1 0.019202 -0.002482 -0.008598 -0.000002 0.000438 0.000044
# 2 -0.002482 0.011557 -0.002342 0.000006 -0.003324 -0.000007
# 3 -0.008598 -0.002342 0.015762 -0.000004 -0.000886 -0.000006
# 4 -0.000002 0.000006 -0.000004 0.030882 0.000009 -0.008934
# 5 0.000438 -0.003324 -0.000886 0.000009 0.023591 -0.000043
# 6 0.000044 -0.000007 -0.000006 -0.008934 -0.000043 0.062389
#
#
# Mechanical properties :
#
#
# Convention : Reuss Voigt Hill
#
# Bulk Modulus (GPa) = 50.81843 53.08675 51.95259
# Shear Modulus (GPa) = 25.40811 30.30764 27.85788
#
# Velocity S-wave (km/s) = 3.40287 3.71651 3.56314
# Velocity P-wave (km/s) = 6.21285 6.52767 6.37220
#
# Compressibility (1/GPa) = 0.01967790
#
# Stress axis : x y z
#
# Youngs Moduli (GPa) = 52.07664 86.52733 63.44288
#
# Poissons Ratio (x) = 0.21472 0.54549
# Poissons Ratio (y) = 0.12923 0.14859
# Poissons Ratio (z) = 0.44776 0.20266
#
# Static dielectric constant tensor:
#      x y z
#    x 4.007940 -0.000110 0.095560 
#    y -0.000110 3.904120 0.000060 
#    z 0.095560 0.000060 3.890640 
# 
# 
# High freq. dielectric constant tensor:
#      x y z
#    x 1.865790 -0.000010 0.002660 
#    y -0.000010 1.856130 0.000000 
#    z 0.002660 0.000000 1.866260 
# 
# From -- ./inp_files/251002.got.cif
#   From: 2010.06.25/outbox.cif.g09.slc.cpg/sg15_126_cif.got.tgz:251002.got - 2010.06.28 07:06:18.
