data_PCOD8150770
_publ_section_title
;
Structure prediction by ZEFSAII (Michael W. Deem and Ramdas Pophale) SiO2 
 PCOD8150770
Probable space group: C 2/C
;
_chemical_formula_sum "Si O2"
_cell_formula_units_Z 44
_cell_length_a 16.706392
_cell_length_b 17.225033
_cell_length_c 11.302036
_cell_angle_alpha 90.000000
_cell_angle_beta 141.145382
_cell_angle_gamma 90.000000
_cell_volume 2040.360255
_symmetry_space_group_name_H-M "C 2/C"
_symmetry_group_IT_number 15
_symmetry_cell_setting 'monoclinic'
loop_
_space_group_symop_operation_xyz
x,y,z
-x,y,1/2-z
-x,-y,-z
x,-y,1/2+z
1/2+x,1/2+y,z
1/2-x,1/2+y,1/2-z
1/2-x,1/2-y,-z
1/2+x,1/2-y,1/2+z
loop_
_atom_site_type_symbol
_atom_site_label
_atom_site_fract_x
_atom_site_fract_y
_atom_site_fract_z
Si Si1 0.289232 0.530777 0.475251
Si Si2 0.626005 0.279592 0.110794
Si Si3 0.034055 0.933139 0.124766
Si Si4 0.946807 0.360905 0.817761
Si Si5 0.664227 0.122489 0.749770
Si Si6 0.000000 0.303544 0.250000
O O1 0.337234 0.532002 0.665914
O O2 0.406028 0.579174 0.553849
O O3 0.154090 0.571349 0.312798
O O4 0.267765 0.445961 0.390830
O O5 0.556143 0.352700 0.085703
O O6 0.626463 0.212574 0.210181
O O7 0.767427 0.302772 0.230790
O O8 0.552653 0.252171 0.910889
O O9 0.000000 0.000000 0.000000
O O10 0.000000 0.337436 0.750000
O O11 0.053036 0.397088 0.027912
O O12 0.607653 0.142066 0.814349
#
# Coordination Sequence:
#
# PCOD8150770 Si02
#       6
#     8   8   8   8   8   4
#     4  11  26  44  70  99 143 176 233 284 339 413
#     4  11  25  46  70 102 141 178 238 279 351 407
#     4  11  25  43  69 104 130 186 226 287 341 400
#     4  11  27  44  72 101 140 184 225 287 344 419
#     4  11  24  46  69 105 135 184 229 280 351 404
#     4  10  26  42  72 102 138 184 224 292 340 416
#
# _framework density 21.564820999999998
#
# number of rings (size 3 to 8) (size 9 to 14) (size 15 to 20)
#    0.000    1.091    1.818    2.182   11.455    4.364 
#    0.000    0.000    0.000    0.000    0.000    0.000 
#    0.000    0.000    0.000    0.000    0.000    0.000 
#
# Total GULP energy -272692.805791 kJ/mol
# GULP energy per Si atom -12395.127536 kJ/mol
# Density = 2.151574 g / cm^3
# Si number density = 21.564821 Si / 1000 Ang^3
#
#
#
# Elastic Constant Matrix: (Units=GPa)
#
#
# Indices 1 2 3 4 5 6 
#
# 1 118.4364 42.1473 44.2740 0.0000 1.3928 0.0000
# 2 42.1473 88.5518 48.4771 0.0000 -8.5669 0.0000
# 3 44.2740 48.4771 140.5729 0.0000 -8.9278 0.0000
# 4 0.0000 0.0000 0.0000 156.6005 0.0000 126.4783
# 5 1.3928 -8.5669 -8.9278 0.0000 39.9554 0.0000
# 6 0.0000 0.0000 0.0000 126.4783 0.0000 167.0365
#
#
#
# Elastic Compliance Matrix: (Units=1/GPa)
#
#
# Indices 1 2 3 4 5 6 
#
# 1 0.010703 -0.004136 -0.002054 0.000000 -0.001719 0.000000
# 2 -0.004136 0.015669 -0.003934 0.000000 0.002625 0.000000
# 3 -0.002054 -0.003934 0.009199 0.000000 0.001283 0.000000
# 4 0.000000 0.000000 0.000000 0.016439 0.000000 -0.012447
# 5 -0.001719 0.002625 0.001283 0.000000 0.025937 0.000000
# 6 0.000000 0.000000 0.000000 -0.012447 0.000000 0.015412
#
#
# Mechanical properties :
#
#
# Convention : Reuss Voigt Hill
#
# Bulk Modulus (GPa) = 65.26213 68.59532 66.92872
# Shear Modulus (GPa) = 42.11772 86.89600 64.50686
#
# Velocity S-wave (km/s) = 4.42416 6.35474 5.47521
# Velocity P-wave (km/s) = 7.51176 9.25860 8.43054
#
# Compressibility (1/GPa) = 0.01532282
#
# Stress axis : x y z
#
# Youngs Moduli (GPa) = 93.42927 63.81942 108.70979
#
# Poissons Ratio (x) = 0.26398 0.22327
# Poissons Ratio (y) = 0.38645 0.42768
# Poissons Ratio (z) = 0.19188 0.25107
#
# Static dielectric constant tensor:
#      x y z
#    x 4.535720 0.000000 0.034670 
#    y 0.000000 3.281490 0.000000 
#    z 0.034670 0.000000 4.023110 
# 
# 
# High freq. dielectric constant tensor:
#      x y z
#    x 1.868730 0.000000 -0.002310 
#    y 0.000000 1.840910 0.000000 
#    z -0.002310 0.000000 1.858050 
# 
# From -- ./inp_files/106775.got.cif
#   From: 2010.06.25/outbox.cif.g09.slc.cpg/sg15_54_cif.got.tgz:106775.got - 2010.06.28 07:06:18.
