data_PCOD8150650
_publ_section_title
;
Structure prediction by ZEFSAII (Michael W. Deem and Ramdas Pophale) SiO2 
 PCOD8150650
Probable space group: C 2/C
;
_chemical_formula_sum "Si O2"
_cell_formula_units_Z 56
_cell_length_a 9.270204
_cell_length_b 24.182277
_cell_length_c 16.999369
_cell_angle_alpha 90.000000
_cell_angle_beta 139.232476
_cell_angle_gamma 90.000000
_cell_volume 2488.437639
_symmetry_space_group_name_H-M "C 2/C"
_symmetry_group_IT_number 15
_symmetry_cell_setting 'monoclinic'
loop_
_space_group_symop_operation_xyz
x,y,z
-x,y,1/2-z
-x,-y,-z
x,-y,1/2+z
1/2+x,1/2+y,z
1/2-x,1/2+y,1/2-z
1/2-x,1/2-y,-z
1/2+x,1/2-y,1/2+z
loop_
_atom_site_type_symbol
_atom_site_label
_atom_site_fract_x
_atom_site_fract_y
_atom_site_fract_z
Si Si1 0.072206 0.682763 0.701025
Si Si2 0.937326 0.533863 0.326484
Si Si3 0.943328 0.702131 0.984145
Si Si4 0.819293 0.572369 0.582250
Si Si5 0.951591 0.183107 0.567158
Si Si6 0.259760 0.599331 0.124540
Si Si7 0.153964 0.079451 0.066207
O O1 0.050036 0.713451 0.607601
O O2 0.319524 0.658633 0.806088
O O3 0.000000 0.718829 0.750000
O O4 0.900594 0.632546 0.638971
O O5 0.969534 0.468704 0.319505
O O6 0.194895 0.553278 0.439701
O O7 0.824055 0.545776 0.362124
O O8 0.790731 0.566847 0.202247
O O9 0.703558 0.687229 0.920225
O O10 0.017365 0.757632 0.058145
O O11 0.103536 0.651964 0.072404
O O12 0.731785 0.575062 0.458078
O O13 0.596710 0.555104 0.538578
O O14 0.853770 0.145213 0.456392
O O15 0.500000 0.619049 0.250000
#
# Coordination Sequence:
#
# PCOD8150650 Si02
#       7
#     8   8   8   8   8   8   8
#     4  11  24  42  67  99 136 173 220 279 333 402
#     4  11  24  41  68  99 131 182 222 275 339 397
#     4  10  25  45  68  98 134 178 227 275 340 401
#     4  11  24  43  65  97 138 175 224 279 336 400
#     4  11  23  46  69  96 134 179 225 281 336 401
#     4  11  22  45  66  98 137 174 228 280 332 407
#     4  11  23  41  67  96 134 171 227 275 325 408
#
# _framework density 22.504079000000001
#
# number of rings (size 3 to 8) (size 9 to 14) (size 15 to 20)
#    0.000    1.143    4.286    1.286    2.000    3.429 
#    2.571    0.000    0.000    0.000    0.000    0.000 
#    0.000    0.000    0.000    0.000    0.000    0.000 
#
# Total GULP energy -346898.200963 kJ/mol
# GULP energy per Si atom -12389.221463 kJ/mol
# Density = 2.245286 g / cm^3
# Si number density = 22.504079 Si / 1000 Ang^3
#
#
#
# Elastic Constant Matrix: (Units=GPa)
#
#
# Indices 1 2 3 4 5 6 
#
# 1 137.7917 15.7742 50.2392 0.0009 2.3476 -0.0004
# 2 15.7742 49.8554 -4.1839 0.0029 0.5896 -0.0015
# 3 50.2392 -4.1839 88.2316 -0.0116 6.0688 0.0084
# 4 0.0009 0.0029 -0.0116 -62.8186 -0.0011 46.3209
# 5 2.3476 0.5896 6.0688 -0.0011 41.5114 0.0013
# 6 -0.0004 -0.0015 0.0084 46.3209 0.0013 6.6898
#
#
#
# Elastic Compliance Matrix: (Units=1/GPa)
#
#
# Indices 1 2 3 4 5 6 
#
# 1 0.009756 -0.003573 -0.005748 0.000001 0.000339 0.000000
# 2 -0.003573 0.021454 0.003090 0.000000 -0.000554 0.000000
# 3 -0.005748 0.003090 0.014884 -0.000003 -0.001895 0.000000
# 4 0.000001 0.000000 -0.000003 -0.002607 0.000000 0.018053
# 5 0.000339 -0.000554 -0.001895 0.000000 0.024355 0.000000
# 6 0.000000 0.000000 0.000000 0.018053 0.000000 0.024482
#
#
# Mechanical properties :
#
#
# Convention : Reuss Voigt Hill
#
# Bulk Modulus (GPa) = 29.73358 44.39308 37.06333
# Shear Modulus (GPa) = 43.10408 11.34645 27.22527
#
# Velocity S-wave (km/s) = 4.38126 2.24787 3.48198
# Velocity P-wave (km/s) = 6.23179 5.14847 5.71585
#
# Compressibility (1/GPa) = 0.03363201
#
# Stress axis : x y z
#
# Youngs Moduli (GPa) = 102.49698 46.61031 67.18791
#
# Poissons Ratio (x) = 0.16655 0.38620
# Poissons Ratio (y) = 0.36625 -0.20762
# Poissons Ratio (z) = 0.58916 -0.14403
#
# Static dielectric constant tensor:
#      x y z
#    x 4.587060 0.000000 0.111920 
#    y 0.000000 3.857350 0.000000 
#    z 0.111920 0.000000 4.111420 
# 
# 
# High freq. dielectric constant tensor:
#      x y z
#    x 1.911020 0.000000 0.010610 
#    y 0.000000 1.866650 0.000000 
#    z 0.010610 0.000000 1.888220 
# 
# From -- ./inp_files/193901.got.cif
#   From: 2010.06.25/outbox.cif.g09.slc.cpg/sg15_97_cif.got.tgz:193901.got - 2010.06.28 07:06:18.
