data_PCOD8150976
_publ_section_title
;
Structure prediction by ZEFSAII (Michael W. Deem and Ramdas Pophale) SiO2 
 PCOD8150976
Probable space group: C 2/C
;
_chemical_formula_sum "Si O2"
_cell_formula_units_Z 64
_cell_length_a 22.731745
_cell_length_b 10.025925
_cell_length_c 20.899910
_cell_angle_alpha 90.000000
_cell_angle_beta 130.250021
_cell_angle_gamma 90.000000
_cell_volume 3635.451426
_symmetry_space_group_name_H-M "C 2/C"
_symmetry_group_IT_number 15
_symmetry_cell_setting 'monoclinic'
loop_
_space_group_symop_operation_xyz
x,y,z
-x,y,1/2-z
-x,-y,-z
x,-y,1/2+z
1/2+x,1/2+y,z
1/2-x,1/2+y,1/2-z
1/2-x,1/2-y,-z
1/2+x,1/2-y,1/2+z
loop_
_atom_site_type_symbol
_atom_site_label
_atom_site_fract_x
_atom_site_fract_y
_atom_site_fract_z
Si Si1 0.419386 0.778522 0.223876
Si Si2 0.763866 0.635862 0.559874
Si Si3 0.193641 0.238101 0.634387
Si Si4 0.358812 0.464512 0.308470
Si Si5 0.640228 0.759429 0.184371
Si Si6 0.417606 0.532873 0.716941
Si Si7 0.305980 0.037627 0.874237
Si Si8 0.734465 0.387038 0.454464
O O1 0.500000 0.825182 0.250000
O O2 0.352237 0.866479 0.145433
O O3 0.419667 0.800228 0.301178
O O4 0.401870 0.624156 0.195539
O O5 0.750000 0.750000 0.500000
O O6 0.704187 0.662342 0.575108
O O7 0.744755 0.494837 0.516697
O O8 0.133012 0.151178 0.632941
O O9 0.275018 0.243913 0.726588
O O10 0.159911 0.387162 0.600533
O O11 0.378072 0.609230 0.353118
O O12 0.417386 0.432513 0.292089
O O13 0.273913 0.466015 0.219148
O O14 0.635209 0.863766 0.122028
O O15 0.500000 0.579550 0.750000
O O16 0.352482 0.613217 0.633124
O O17 0.294325 0.088940 0.938397
O O18 0.750000 0.250000 0.500000
#
# Coordination Sequence:
#
# PCOD8150976 Si02
#       8
#     8   8   8   8   8   8   8   8
#     4   9  17  32  56  79  99 132 172 210 249 296
#     4  11  18  33  52  75 102 129 170 207 247 302
#     4   9  16  27  47  70  95 129 164 208 247 289
#     4   8  15  27  47  73  93 123 168 205 245 287
#     4   8  15  27  45  71  98 124 162 208 245 291
#     4   9  17  34  56  76 102 132 168 211 252 297
#     4   9  16  29  45  69 101 126 162 207 249 290
#     4  11  22  33  50  79 104 136 166 207 259 299
#
# _framework density 17.604416000000001
#
# number of rings (size 3 to 8) (size 9 to 14) (size 15 to 20)
#    0.000    2.750    2.500    1.500    1.750    0.000 
#    6.750    0.625    0.000    3.000    0.000    0.000 
#    0.000    0.000    0.000    0.000    0.000    0.000 
#
# Total GULP energy -396672.451800 kJ/mol
# GULP energy per Si atom -12396.014119 kJ/mol
# Density = 1.756435 g / cm^3
# Si number density = 17.604416 Si / 1000 Ang^3
#
#
#
# Elastic Constant Matrix: (Units=GPa)
#
#
# Indices 1 2 3 4 5 6 
#
# 1 140.2611 72.5106 38.8573 0.0000 -26.5543 0.0000
# 2 72.5106 141.5571 47.7298 0.0000 -30.0350 0.0000
# 3 38.8573 47.7298 48.7830 0.0000 -19.8322 0.0000
# 4 0.0000 0.0000 0.0000 27.6479 0.0000 -12.5141
# 5 -26.5543 -30.0350 -19.8322 0.0000 27.0310 0.0000
# 6 0.0000 0.0000 0.0000 -12.5141 0.0000 26.2468
#
#
#
# Elastic Compliance Matrix: (Units=1/GPa)
#
#
# Indices 1 2 3 4 5 6 
#
# 1 0.010627 -0.003403 -0.003461 0.000000 0.004120 0.000000
# 2 -0.003403 0.012338 -0.007335 0.000000 0.004985 0.000000
# 3 -0.003461 -0.007335 0.036676 0.000000 0.015359 0.000000
# 4 0.000000 0.000000 0.000000 0.046123 0.000000 0.021991
# 5 0.004120 0.004985 0.015359 0.000000 0.057850 0.000000
# 6 0.000000 0.000000 0.000000 0.021991 0.000000 0.048585
#
#
# Mechanical properties :
#
#
# Convention : Reuss Voigt Hill
#
# Bulk Modulus (GPa) = 32.00525 72.08852 52.04689
# Shear Modulus (GPa) = 19.91950 27.61871 23.76911
#
# Velocity S-wave (km/s) = 3.36744 3.96517 3.67846
# Velocity P-wave (km/s) = 5.77401 7.87410 6.90437
#
# Compressibility (1/GPa) = 0.03124488
#
# Stress axis : x y z
#
# Youngs Moduli (GPa) = 94.09619 81.04998 27.26572
#
# Poissons Ratio (x) = 0.27578 0.09437
# Poissons Ratio (y) = 0.32017 0.19999
# Poissons Ratio (z) = 0.32567 0.59448
#
# Static dielectric constant tensor:
#      x y z
#    x 3.502190 0.000000 -0.324220 
#    y 0.000000 3.302160 0.000000 
#    z -0.324220 0.000000 2.922940 
# 
# 
# High freq. dielectric constant tensor:
#      x y z
#    x 1.678420 0.000000 -0.031580 
#    y 0.000000 1.674530 0.000000 
#    z -0.031580 0.000000 1.641970 
# 
# From -- ./inp_files/255056.got.cif
#   From: 2010.06.25/outbox.cif.g09.slc.cpg/sg15_128_cif.got.tgz:255056.got - 2010.06.28 07:06:18.
