data_PCOD8150972
_publ_section_title
;
Structure prediction by ZEFSAII (Michael W. Deem and Ramdas Pophale) SiO2 
 PCOD8150972
Probable space group: C 2/C
;
_chemical_formula_sum "Si O2"
_cell_formula_units_Z 64
_cell_length_a 22.362517
_cell_length_b 13.461192
_cell_length_c 11.571854
_cell_angle_alpha 90.000000
_cell_angle_beta 111.488192
_cell_angle_gamma 90.000000
_cell_volume 3241.307959
_symmetry_space_group_name_H-M "C 2/C"
_symmetry_group_IT_number 15
_symmetry_cell_setting 'monoclinic'
loop_
_space_group_symop_operation_xyz
x,y,z
-x,y,1/2-z
-x,-y,-z
x,-y,1/2+z
1/2+x,1/2+y,z
1/2-x,1/2+y,1/2-z
1/2-x,1/2-y,-z
1/2+x,1/2-y,1/2+z
loop_
_atom_site_type_symbol
_atom_site_label
_atom_site_fract_x
_atom_site_fract_y
_atom_site_fract_z
Si Si1 0.683838 0.118592 0.321573
Si Si2 0.570568 0.378874 0.512176
Si Si3 0.934174 0.111600 0.967928
Si Si4 0.683641 0.620075 0.470974
Si Si5 0.713548 0.086799 0.768380
Si Si6 0.306522 0.300771 0.773268
Si Si7 0.892121 0.799036 0.199850
Si Si8 0.724541 0.580570 0.916050
O O1 0.738494 0.167980 0.279524
O O2 0.616575 0.181401 0.273928
O O3 0.710582 0.105668 0.469920
O O4 0.667426 0.005235 0.269486
O O5 0.565678 0.496700 0.496836
O O6 0.506202 0.344147 0.536680
O O7 0.635203 0.358791 0.627254
O O8 0.566030 0.322259 0.384670
O O9 0.915916 0.132369 0.821470
O O10 0.881586 0.161666 0.015144
O O11 0.744236 0.631952 0.597862
O O12 0.695955 0.681437 0.364867
O O13 0.679148 0.502130 0.443087
O O14 0.677297 0.183879 0.693504
O O15 0.759471 0.042336 0.701057
O O16 0.817882 0.820956 0.116779
#
# Coordination Sequence:
#
# PCOD8150972 Si02
#       8
#     8   8   8   8   8   8   8   8
#     4  11  22  34  58  88 115 150 189 229 286 342
#     4  11  24  37  59  85 110 149 198 229 285 333
#     4  11  23  38  56  85 114 147 189 238 278 338
#     4  11  21  34  54  82 120 147 181 226 287 338
#     4  11  22  36  55  88 118 149 188 231 284 343
#     4  12  21  36  56  83 120 152 184 231 287 345
#     4  12  20  38  58  82 115 152 185 234 279 337
#     4  11  18  32  57  82 117 147 181 227 279 336
#
# _framework density 19.745115999999999
#
# number of rings (size 3 to 8) (size 9 to 14) (size 15 to 20)
#    0.000    0.750    6.250    3.375    0.000    0.500 
#    0.000    0.000    0.000    0.750    3.250    0.000 
#    0.000    0.000    0.000    0.000    0.000    0.000 
#
# Total GULP energy -396553.294273 kJ/mol
# GULP energy per Si atom -12392.290446 kJ/mol
# Density = 1.970018 g / cm^3
# Si number density = 19.745116 Si / 1000 Ang^3
#
#
#
# Elastic Constant Matrix: (Units=GPa)
#
#
# Indices 1 2 3 4 5 6 
#
# 1 88.5435 30.0231 27.5376 0.0000 -15.7422 0.0000
# 2 30.0231 87.3977 12.0891 0.0000 -9.2875 0.0000
# 3 27.5376 12.0891 70.4240 0.0000 -27.2784 0.0000
# 4 0.0000 0.0000 0.0000 22.8069 0.0000 -1.5726
# 5 -15.7422 -9.2875 -27.2784 0.0000 24.0134 0.0000
# 6 0.0000 0.0000 0.0000 -1.5726 0.0000 19.2074
#
#
#
# Elastic Compliance Matrix: (Units=1/GPa)
#
#
# Indices 1 2 3 4 5 6 
#
# 1 0.014444 -0.004063 -0.003378 0.000000 0.004061 0.000000
# 2 -0.004063 0.013084 0.000484 0.000000 0.002947 0.000000
# 3 -0.003378 0.000484 0.026165 0.000000 0.027696 0.000000
# 4 0.000000 0.000000 0.000000 0.044095 0.000000 0.003610
# 5 0.004061 0.002947 0.027696 0.000000 0.076906 0.000000
# 6 0.000000 0.000000 0.000000 0.003610 0.000000 0.052359
#
#
# Mechanical properties :
#
#
# Convention : Reuss Voigt Hill
#
# Bulk Modulus (GPa) = 25.13837 42.85162 33.99499
# Shear Modulus (GPa) = 19.66749 24.98656 22.32702
#
# Velocity S-wave (km/s) = 3.15948 3.56118 3.36633
# Velocity P-wave (km/s) = 5.10576 6.21763 5.68892
#
# Compressibility (1/GPa) = 0.03977983
#
# Stress axis : x y z
#
# Youngs Moduli (GPa) = 69.23282 76.42979 38.21887
#
# Poissons Ratio (x) = 0.31055 0.12909
# Poissons Ratio (y) = 0.28130 -0.01851
# Poissons Ratio (z) = 0.23384 -0.03701
#
# Static dielectric constant tensor:
#      x y z
#    x 3.603890 0.000000 -0.242250 
#    y 0.000000 3.646240 0.000000 
#    z -0.242250 0.000000 3.626320 
# 
# 
# High freq. dielectric constant tensor:
#      x y z
#    x 1.744410 0.000000 -0.026630 
#    y 0.000000 1.761840 0.000000 
#    z -0.026630 0.000000 1.770670 
# 
# From -- ./inp_files/112745.got.cif
#   From: 2010.06.25/outbox.cif.g09.slc.cpg/sg15_57_cif.got.tgz:112745.got - 2010.06.28 07:06:18.
