data_PCOD8150747
_publ_section_title
;
Structure prediction by ZEFSAII (Michael W. Deem and Ramdas Pophale) SiO2 
 PCOD8150747
Probable space group: C 2/C
;
_chemical_formula_sum "Si O2"
_cell_formula_units_Z 52
_cell_length_a 29.760685
_cell_length_b 11.762296
_cell_length_c 8.161119
_cell_angle_alpha 90.000000
_cell_angle_beta 57.576707
_cell_angle_gamma 90.000000
_cell_volume 2411.480720
_symmetry_space_group_name_H-M "C 2/C"
_symmetry_group_IT_number 15
_symmetry_cell_setting 'monoclinic'
loop_
_space_group_symop_operation_xyz
x,y,z
-x,y,1/2-z
-x,-y,-z
x,-y,1/2+z
1/2+x,1/2+y,z
1/2-x,1/2+y,1/2-z
1/2-x,1/2-y,-z
1/2+x,1/2-y,1/2+z
loop_
_atom_site_type_symbol
_atom_site_label
_atom_site_fract_x
_atom_site_fract_y
_atom_site_fract_z
Si Si1 0.175730 0.546704 0.273621
Si Si2 0.916327 0.990459 0.182474
Si Si3 0.884081 0.635425 0.411911
Si Si4 0.741827 0.873278 0.933477
Si Si5 0.500000 0.197421 0.250000
Si Si6 0.147885 0.883348 0.939339
Si Si7 0.502170 0.671608 0.420787
O O1 0.142195 0.623455 0.215179
O O2 0.132560 0.467951 0.442607
O O3 0.201718 0.632238 0.356428
O O4 0.221218 0.468196 0.101013
O O5 0.860506 0.953618 0.376332
O O6 0.902762 0.072104 0.060431
O O7 0.942993 0.871398 0.079686
O O8 0.959020 0.065315 0.201270
O O9 0.858306 0.748876 0.534884
O O10 0.948522 0.629275 0.283761
O O11 0.797391 0.916875 0.752755
O O12 0.750000 0.750000 0.000000
O O13 0.478184 0.262658 0.454781
O O14 0.500000 0.741547 0.250000
#
# Coordination Sequence:
#
# PCOD8150747 Si02
#       7
#     8   8   8   8   4   8   8
#     4  10  25  50  69  95 138 180 235 297 349 398
#     4  11  21  36  60  98 141 172 217 270 347 422
#     4  11  24  46  72  95 135 185 230 297 342 412
#     4  11  23  46  73 100 134 182 232 286 355 421
#     4  12  24  46  70 102 138 186 242 284 354 422
#     4  12  22  40  65 102 137 176 220 283 346 428
#     4  11  21  38  61  94 143 186 214 278 347 425
#
# _framework density 21.563516
#
# number of rings (size 3 to 8) (size 9 to 14) (size 15 to 20)
#    0.000    0.923    6.154    0.923    2.154    1.231 
#   13.846    0.000    0.000    0.000    0.000    0.000 
#    0.000    0.000    0.000    0.000    0.000    0.000 
#
# Total GULP energy -322148.155325 kJ/mol
# GULP energy per Si atom -12390.313666 kJ/mol
# Density = 2.151444 g / cm^3
# Si number density = 21.563516 Si / 1000 Ang^3
#
#
#
# Elastic Constant Matrix: (Units=GPa)
#
#
# Indices 1 2 3 4 5 6 
#
# 1 121.7897 54.7675 41.4940 0.0000 1.8167 0.0000
# 2 54.7675 73.7241 22.2853 0.0000 3.3507 0.0000
# 3 41.4940 22.2853 96.3904 0.0000 -4.5326 0.0000
# 4 0.0000 0.0000 0.0000 18.8248 0.0000 0.3127
# 5 1.8167 3.3507 -4.5326 0.0000 47.6270 0.0000
# 6 0.0000 0.0000 0.0000 0.3127 0.0000 40.4976
#
#
#
# Elastic Compliance Matrix: (Units=1/GPa)
#
#
# Indices 1 2 3 4 5 6 
#
# 1 0.013486 -0.008868 -0.003767 0.000000 -0.000249 0.000000
# 2 -0.008868 0.020502 -0.000979 0.000000 -0.001197 0.000000
# 3 -0.003767 -0.000979 0.012287 0.000000 0.001382 0.000000
# 4 0.000000 0.000000 0.000000 0.053128 0.000000 -0.000410
# 5 -0.000249 -0.001197 0.001382 0.000000 0.021222 0.000000
# 6 0.000000 0.000000 0.000000 -0.000410 0.000000 0.024696
#
#
# Mechanical properties :
#
#
# Convention : Reuss Voigt Hill
#
# Bulk Modulus (GPa) = 52.49953 58.77752 55.63852
# Shear Modulus (GPa) = 27.94876 32.94703 30.44789
#
# Velocity S-wave (km/s) = 3.60406 3.91308 3.76175
# Velocity P-wave (km/s) = 6.45897 6.90893 6.68774
#
# Compressibility (1/GPa) = 0.01904779
#
# Stress axis : x y z
#
# Youngs Moduli (GPa) = 74.15126 48.77471 81.38505
#
# Poissons Ratio (x) = 0.43255 0.30656
# Poissons Ratio (y) = 0.65760 0.07966
# Poissons Ratio (z) = 0.27931 0.04774
#
# Static dielectric constant tensor:
#      x y z
#    x 3.915660 0.000000 0.131200 
#    y 0.000000 3.563040 0.000000 
#    z 0.131200 0.000000 4.034760 
# 
# 
# High freq. dielectric constant tensor:
#      x y z
#    x 1.854570 0.000000 0.002980 
#    y 0.000000 1.816900 0.000000 
#    z 0.002980 0.000000 1.863580 
# 
# From -- ./inp_files/69017.got.cif
#   From: 2010.06.25/outbox.cif.g09.slc.cpg/sg15_35_cif.got.tgz:69017.got - 2010.06.28 07:06:18.
