data_PCOD8150380
_publ_section_title
;
Structure prediction by ZEFSAII (Michael W. Deem and Ramdas Pophale) SiO2 
 PCOD8150380
Probable space group: C 2/C
;
_chemical_formula_sum "Si O2"
_cell_formula_units_Z 44
_cell_length_a 26.087008
_cell_length_b 9.529807
_cell_length_c 8.556344
_cell_angle_alpha 90.000000
_cell_angle_beta 118.929667
_cell_angle_gamma 90.000000
_cell_volume 1861.705385
_symmetry_space_group_name_H-M "C 2/C"
_symmetry_group_IT_number 15
_symmetry_cell_setting 'monoclinic'
loop_
_space_group_symop_operation_xyz
x,y,z
-x,y,1/2-z
-x,-y,-z
x,-y,1/2+z
1/2+x,1/2+y,z
1/2-x,1/2+y,1/2-z
1/2-x,1/2-y,-z
1/2+x,1/2-y,1/2+z
loop_
_atom_site_type_symbol
_atom_site_label
_atom_site_fract_x
_atom_site_fract_y
_atom_site_fract_z
Si Si1 0.500000 0.139454 0.250000
Si Si2 0.577235 0.694897 0.072014
Si Si3 0.791483 0.115765 0.759510
Si Si4 0.128414 0.007403 0.884009
Si Si5 0.111244 0.547483 0.829647
Si Si6 0.809540 0.581006 0.280629
O O1 0.515472 0.241144 0.421146
O O2 0.448485 0.038560 0.234822
O O3 0.577284 0.567205 0.200344
O O4 0.609040 0.827280 0.198619
O O5 0.605817 0.639774 0.951798
O O6 0.815957 0.056066 0.633884
O O7 0.772484 0.276724 0.715729
O O8 0.733465 0.038233 0.725115
O O9 0.844825 0.108466 0.961821
O O10 0.164278 0.448560 0.851242
O O11 0.132520 0.602661 0.027677
#
# Coordination Sequence:
#
# PCOD8150380 Si02
#       6
#     4   8   8   8   8   8
#     4  12  26  48  80 104 136 186 254 302 370 414
#     4  11  24  47  74 106 142 190 240 300 359 428
#     4  11  25  43  71 107 146 193 232 290 359 436
#     4  10  24  46  72 103 153 184 234 291 361 437
#     4  12  26  47  72 107 143 186 242 307 354 431
#     4  12  27  43  73 107 146 190 241 293 362 431
#
# _framework density 23.634243000000001
#
# number of rings (size 3 to 8) (size 9 to 14) (size 15 to 20)
#    0.000    0.727    3.636    2.727    5.091    3.636 
#    0.000    0.909    0.000    0.000    0.000    0.000 
#    0.000    0.000    0.000    0.000    0.000    0.000 
#
# Total GULP energy -272596.581627 kJ/mol
# GULP energy per Si atom -12390.753710 kJ/mol
# Density = 2.358045 g / cm^3
# Si number density = 23.634243 Si / 1000 Ang^3
#
#
#
# Elastic Constant Matrix: (Units=GPa)
#
#
# Indices 1 2 3 4 5 6 
#
# 1 96.2859 68.5920 8.2007 0.0000 -14.9487 0.0000
# 2 68.5920 128.2247 19.5067 0.0000 1.5372 0.0000
# 3 8.2007 19.5067 94.0559 0.0000 -2.7569 0.0000
# 4 0.0000 0.0000 0.0000 47.3036 0.0000 2.5165
# 5 -14.9487 1.5372 -2.7569 0.0000 32.7094 0.0000
# 6 0.0000 0.0000 0.0000 2.5165 0.0000 36.5224
#
#
#
# Elastic Compliance Matrix: (Units=1/GPa)
#
#
# Indices 1 2 3 4 5 6 
#
# 1 0.019291 -0.010551 0.000781 0.000000 0.009378 0.000000
# 2 -0.010551 0.013832 -0.002114 0.000000 -0.005650 0.000000
# 3 0.000781 -0.002114 0.011043 0.000000 0.001387 0.000000
# 4 0.000000 0.000000 0.000000 0.021218 0.000000 -0.001462
# 5 0.009378 -0.005650 0.001387 0.000000 0.035241 0.000000
# 6 0.000000 0.000000 0.000000 -0.001462 0.000000 0.027481
#
#
# Mechanical properties :
#
#
# Convention : Reuss Voigt Hill
#
# Bulk Modulus (GPa) = 49.02390 56.79616 52.91003
# Shear Modulus (GPa) = 31.51106 38.12489 34.81798
#
# Velocity S-wave (km/s) = 3.65537 4.02072 3.84239
# Velocity P-wave (km/s) = 6.21317 6.75562 6.49006
#
# Compressibility (1/GPa) = 0.02039821
#
# Stress axis : x y z
#
# Youngs Moduli (GPa) = 51.83636 72.29454 90.55469
#
# Poissons Ratio (x) = 0.76278 -0.07073
# Poissons Ratio (y) = 0.54692 0.19147
# Poissons Ratio (z) = -0.04049 0.15286
#
# Static dielectric constant tensor:
#      x y z
#    x 3.828020 0.000000 -0.108490 
#    y 0.000000 4.364180 0.000000 
#    z -0.108490 0.000000 4.708170 
# 
# 
# High freq. dielectric constant tensor:
#      x y z
#    x 1.908350 0.000000 -0.006350 
#    y 0.000000 1.946980 0.000000 
#    z -0.006350 0.000000 1.965030 
# 
# From -- ./inp_files/68659.got.cif
#   From: 2010.06.25/outbox.cif.g09.slc.cpg/sg15_35_cif.got.tgz:68659.got - 2010.06.28 07:06:18.
