data_PCOD8150449
_publ_section_title
;
Structure prediction by ZEFSAII (Michael W. Deem and Ramdas Pophale) SiO2 
 PCOD8150449
Probable space group: C 2/C
;
_chemical_formula_sum "Si O2"
_cell_formula_units_Z 32
_cell_length_a 9.767740
_cell_length_b 32.110782
_cell_length_c 7.450443
_cell_angle_alpha 90.000000
_cell_angle_beta 146.443377
_cell_angle_gamma 90.000000
_cell_volume 1291.707895
_symmetry_space_group_name_H-M "C 2/C"
_symmetry_group_IT_number 15
_symmetry_cell_setting 'monoclinic'
loop_
_space_group_symop_operation_xyz
x,y,z
-x,y,1/2-z
-x,-y,-z
x,-y,1/2+z
1/2+x,1/2+y,z
1/2-x,1/2+y,1/2-z
1/2-x,1/2-y,-z
1/2+x,1/2-y,1/2+z
loop_
_atom_site_type_symbol
_atom_site_label
_atom_site_fract_x
_atom_site_fract_y
_atom_site_fract_z
Si Si1 0.000000 0.586406 0.250000
Si Si2 0.000000 0.086529 0.250000
Si Si3 0.276471 0.766735 0.731016
Si Si4 0.749942 0.525994 0.755475
Si Si5 0.330416 0.859339 0.890423
O O1 0.966339 0.614428 0.387431
O O2 0.227967 0.554893 0.542257
O O3 0.226135 0.056813 0.558350
O O4 0.085415 0.115682 0.179285
O O5 0.250000 0.750000 0.500000
O O6 0.248713 0.816192 0.711388
O O7 0.050281 0.746954 0.601199
O O8 0.500000 0.500000 0.500000
O O9 0.000000 0.500000 0.000000
O O10 0.500000 0.851771 0.250000
#
# Coordination Sequence:
#
# PCOD8150449 Si02
#       5
#     4   4   8   8   8
#     4  12  26  52  82 110 156 218 262 326 412 480
#     4  12  28  50  76 118 168 202 274 334 406 470
#     4  10  24  47  77 112 153 203 264 314 394 477
#     4  12  27  49  78 116 156 211 271 332 399 483
#     4  12  28  51  79 117 163 205 269 336 398 481
#
# _framework density 24.773402999999998
#
# number of rings (size 3 to 8) (size 9 to 14) (size 15 to 20)
#    0.000    0.500    2.500    4.500    3.500    8.000 
#    0.000    0.000    0.000    0.000    0.000    0.000 
#    0.000    0.000    0.000    0.000    0.000    0.000 
#
# Total GULP energy -198311.835560 kJ/mol
# GULP energy per Si atom -12394.489723 kJ/mol
# Density = 2.471702 g / cm^3
# Si number density = 24.773403 Si / 1000 Ang^3
#
#
#
# Elastic Constant Matrix: (Units=GPa)
#
#
# Indices 1 2 3 4 5 6 
#
# 1 128.8761 80.6809 62.5989 0.0000 16.0022 0.0000
# 2 80.6809 213.0870 87.9612 0.0000 11.4333 0.0000
# 3 62.5989 87.9612 133.6715 0.0000 23.1995 0.0000
# 4 0.0000 0.0000 0.0000 -970.2608 0.0000 1160.2773
# 5 16.0022 11.4333 23.1995 0.0000 62.1977 0.0000
# 6 0.0000 0.0000 0.0000 1160.2773 0.0000-1317.0561
#
#
#
# Elastic Compliance Matrix: (Units=1/GPa)
#
#
# Indices 1 2 3 4 5 6 
#
# 1 0.011252 -0.002892 -0.003161 0.000000 -0.001184 0.000000
# 2 -0.002892 0.007197 -0.003508 0.000000 0.000730 0.000000
# 3 -0.003161 -0.003508 0.011779 0.000000 -0.002936 0.000000
# 4 0.000000 0.000000 0.000000 0.019268 0.000000 0.016974
# 5 -0.001184 0.000730 -0.002936 0.000000 0.017343 0.000000
# 6 0.000000 0.000000 0.000000 0.016974 0.000000 0.014194
#
#
# Mechanical properties :
#
#
# Convention : Reuss Voigt Hill
#
# Bulk Modulus (GPa) = 90.03855 104.23517 97.13686
# Shear Modulus (GPa) = 48.14257 -428.73095 -190.29419
#
# Velocity S-wave (km/s) = 4.41309 -13.16954 -8.77386
# Velocity P-wave (km/s) = 7.89879 13.75071 7.95900
#
# Compressibility (1/GPa) = 0.01110635
#
# Stress axis : x y z
#
# Youngs Moduli (GPa) = 88.87046 138.94784 84.89534
#
# Poissons Ratio (x) = 0.40186 0.26834
# Poissons Ratio (y) = 0.25703 0.29782
# Poissons Ratio (z) = 0.28090 0.48744
#
# Static dielectric constant tensor:
#      x y z
#    x 4.678470 0.000000 0.364150 
#    y 0.000000 4.776470 0.000000 
#    z 0.364150 0.000000 5.176950 
# 
# 
# High freq. dielectric constant tensor:
#      x y z
#    x 1.975230 0.000000 -0.000570 
#    y 0.000000 2.006760 0.000000 
#    z -0.000570 0.000000 2.001000 
# 
# From -- ./inp_files/35835.got.cif
#   From: 2010.06.25/outbox.cif.g09.slc.cpg/sg15_18_cif.got.tgz:35835.got - 2010.06.28 07:06:18.
