data_PCOD8150926
_publ_section_title
;
Structure prediction by ZEFSAII (Michael W. Deem and Ramdas Pophale) SiO2 
 PCOD8150926
Probable space group: C 2/C
;
_chemical_formula_sum "Si O2"
_cell_formula_units_Z 56
_cell_length_a 14.496284
_cell_length_b 13.580313
_cell_length_c 12.544278
_cell_angle_alpha 90.000000
_cell_angle_beta 94.833877
_cell_angle_gamma 90.000000
_cell_volume 2460.734116
_symmetry_space_group_name_H-M "C 2/C"
_symmetry_group_IT_number 15
_symmetry_cell_setting 'monoclinic'
loop_
_space_group_symop_operation_xyz
x,y,z
-x,y,1/2-z
-x,-y,-z
x,-y,1/2+z
1/2+x,1/2+y,z
1/2-x,1/2+y,1/2-z
1/2-x,1/2-y,-z
1/2+x,1/2-y,1/2+z
loop_
_atom_site_type_symbol
_atom_site_label
_atom_site_fract_x
_atom_site_fract_y
_atom_site_fract_z
Si Si1 0.357504 0.977262 0.213875
Si Si2 0.334606 0.585358 0.322281
Si Si3 0.159120 0.185325 0.960821
Si Si4 0.972144 0.547801 0.390964
Si Si5 0.552087 0.259155 0.048319
Si Si6 0.101415 0.886952 0.235480
Si Si7 0.098346 0.260628 0.313524
O O1 0.262497 0.032593 0.198107
O O2 0.393035 0.974018 0.338802
O O3 0.433458 0.049769 0.168293
O O4 0.348914 0.865512 0.170612
O O5 0.350090 0.601995 0.449447
O O6 0.405924 0.504228 0.284803
O O7 0.342590 0.684532 0.252698
O O8 0.170610 0.140384 0.841209
O O9 0.060171 0.239203 0.954310
O O10 0.250000 0.250000 0.000000
O O11 0.923224 0.651883 0.405609
O O12 0.000000 0.500000 0.500000
O O13 0.618238 0.331850 0.124327
O O14 0.583234 0.281050 0.930354
O O15 0.000000 0.846829 0.250000
O O16 0.000000 0.280631 0.250000
#
# Coordination Sequence:
#
# PCOD8150926 Si02
#       7
#     8   8   8   8   8   8   8
#     4  11  26  43  71 108 142 182 248 300 366 440
#     4  12  28  44  74 102 150 188 243 307 365 431
#     4  11  26  45  73 104 144 189 244 301 369 431
#     4  11  22  44  73 103 142 189 238 300 370 439
#     4  11  24  45  76 102 145 196 247 300 364 447
#     4  10  27  47  70 105 143 193 246 292 369 446
#     4  12  23  49  75 107 144 198 243 297 366 452
#
# _framework density 22.757435999999998
#
# number of rings (size 3 to 8) (size 9 to 14) (size 15 to 20)
#    0.000    0.857    4.286    1.286   12.000    2.286 
#    0.000    1.429    0.000    0.000    0.000    0.000 
#    0.000    0.000    0.000    0.000    0.000    0.000 
#
# Total GULP energy -346910.517918 kJ/mol
# GULP energy per Si atom -12389.661354 kJ/mol
# Density = 2.270564 g / cm^3
# Si number density = 22.757436 Si / 1000 Ang^3
#
#
#
# Elastic Constant Matrix: (Units=GPa)
#
#
# Indices 1 2 3 4 5 6 
#
# 1 85.3334 29.7614 37.3868 0.0000 9.3640 0.0000
# 2 29.7614 118.5712 54.1643 0.0000 -1.6921 0.0000
# 3 37.3868 54.1643 175.8514 0.0000 18.5937 0.0000
# 4 0.0000 0.0000 0.0000 46.1386 0.0000 -1.8419
# 5 9.3640 -1.6921 18.5937 0.0000 19.7436 0.0000
# 6 0.0000 0.0000 0.0000 -1.8419 0.0000 35.2616
#
#
#
# Elastic Compliance Matrix: (Units=1/GPa)
#
#
# Indices 1 2 3 4 5 6 
#
# 1 0.013989 -0.002903 -0.001502 0.000000 -0.005470 0.000000
# 2 -0.002903 0.010725 -0.003253 0.000000 0.005360 0.000000
# 3 -0.001502 -0.003253 0.007732 0.000000 -0.006848 0.000000
# 4 0.000000 0.000000 0.000000 0.021719 0.000000 0.001135
# 5 -0.005470 0.005360 -0.006848 0.000000 0.060152 0.000000
# 6 0.000000 0.000000 0.000000 0.001135 0.000000 0.028419
#
#
# Mechanical properties :
#
#
# Convention : Reuss Voigt Hill
#
# Bulk Modulus (GPa) = 58.37538 69.15344 63.76441
# Shear Modulus (GPa) = 30.53210 37.45831 33.99521
#
# Velocity S-wave (km/s) = 3.66680 4.06147 3.86917
# Velocity P-wave (km/s) = 6.60561 7.24204 6.93114
#
# Compressibility (1/GPa) = 0.01713051
#
# Stress axis : x y z
#
# Youngs Moduli (GPa) = 71.48226 93.24080 129.33517
#
# Poissons Ratio (x) = 0.27072 0.19421
# Poissons Ratio (y) = 0.20755 0.42070
# Poissons Ratio (z) = 0.10734 0.30329
#
# Static dielectric constant tensor:
#      x y z
#    x 3.947970 0.000000 0.158050 
#    y 0.000000 5.406020 0.000000 
#    z 0.158050 0.000000 4.409790 
# 
# 
# High freq. dielectric constant tensor:
#      x y z
#    x 1.887610 0.000000 0.006060 
#    y 0.000000 1.896930 0.000000 
#    z 0.006060 0.000000 1.919900 
# 
# From -- ./inp_files/97042.got.cif
#   From: 2010.06.25/outbox.cif.g09.slc.cpg/sg15_49_cif.got.tgz:97042.got - 2010.06.28 07:06:18.
