data_PCOD8150980
_publ_section_title
;
Structure prediction by ZEFSAII (Michael W. Deem and Ramdas Pophale) SiO2 
 PCOD8150980
Probable space group: C 2/C
;
_chemical_formula_sum "Si O2"
_cell_formula_units_Z 64
_cell_length_a 19.735376
_cell_length_b 25.326069
_cell_length_c 11.495219
_cell_angle_alpha 90.000000
_cell_angle_beta 137.922958
_cell_angle_gamma 90.000000
_cell_volume 3850.250820
_symmetry_space_group_name_H-M "C 2/C"
_symmetry_group_IT_number 15
_symmetry_cell_setting 'monoclinic'
loop_
_space_group_symop_operation_xyz
x,y,z
-x,y,1/2-z
-x,-y,-z
x,-y,1/2+z
1/2+x,1/2+y,z
1/2-x,1/2+y,1/2-z
1/2-x,1/2-y,-z
1/2+x,1/2-y,1/2+z
loop_
_atom_site_type_symbol
_atom_site_label
_atom_site_fract_x
_atom_site_fract_y
_atom_site_fract_z
Si Si1 0.385132 0.763919 0.088770
Si Si2 0.701231 0.332921 0.896266
Si Si3 0.379960 0.546704 0.601585
Si Si4 0.882733 0.929362 0.573494
Si Si5 0.391884 0.636228 0.457346
Si Si6 0.698748 0.277706 0.258997
Si Si7 0.383064 0.389629 0.326826
Si Si8 0.888821 0.236493 0.603732
O O1 0.500000 0.783478 0.250000
O O2 0.375763 0.710669 0.152380
O O3 0.315118 0.810398 0.052920
O O4 0.353457 0.752029 0.915420
O O5 0.687394 0.386780 0.950736
O O6 0.681199 0.342264 0.734983
O O7 0.500000 0.545154 0.750000
O O8 0.339886 0.486930 0.554144
O O9 0.347045 0.580208 0.445633
O O10 0.340417 0.576845 0.665071
O O11 0.874117 0.927975 0.424447
O O12 0.000000 0.919585 0.750000
O O13 0.503362 0.630936 0.546474
O O14 0.395134 0.675137 0.572846
O O15 0.687757 0.340179 0.234829
O O16 0.818999 0.266253 0.419856
O O17 0.650854 0.256325 0.316607
O O18 0.000000 0.262079 0.750000
#
# Coordination Sequence:
#
# PCOD8150980 Si02
#       8
#     8   8   8   8   8   8   8   8
#     4  11  23  37  52  77 107 141 173 214 253 308
#     4  11  22  33  53  76 106 136 173 207 257 309
#     4   9  21  31  48  74 102 136 169 208 256 310
#     4  11  21  32  50  76 104 136 169 209 256 310
#     4  11  18  34  50  73 106 140 167 208 258 306
#     4  11  21  34  52  76 103 137 179 203 258 307
#     4  11  19  33  50  70 107 139 167 209 253 309
#     4  11  21  33  53  77 104 138 171 214 252 305
#
# _framework density 16.622294
#
# number of rings (size 3 to 8) (size 9 to 14) (size 15 to 20)
#    0.000    1.250    6.250    1.500    1.750    1.500 
#    0.000    0.000    0.000    0.000    0.000    1.750 
#    0.000    0.000    0.000    0.000    0.000    0.000 
#
# Total GULP energy -396745.369974 kJ/mol
# GULP energy per Si atom -12398.292812 kJ/mol
# Density = 1.658446 g / cm^3
# Si number density = 16.622294 Si / 1000 Ang^3
#
#
#
# Elastic Constant Matrix: (Units=GPa)
#
#
# Indices 1 2 3 4 5 6 
#
# 1 65.7146 36.1172 38.3885 0.0000 -4.6157 0.0000
# 2 36.1172 100.6589 35.0543 0.0000 1.8914 0.0000
# 3 38.3885 35.0543 92.8605 0.0000 -3.0383 0.0000
# 4 0.0000 0.0000 0.0000 16.9431 0.0000 -3.6738
# 5 -4.6157 1.8914 -3.0383 0.0000 32.4390 0.0000
# 6 0.0000 0.0000 0.0000 -3.6738 0.0000 22.9901
#
#
#
# Elastic Compliance Matrix: (Units=1/GPa)
#
#
# Indices 1 2 3 4 5 6 
#
# 1 0.022742 -0.005726 -0.007145 0.000000 0.002901 0.000000
# 2 -0.005726 0.012918 -0.002568 0.000000 -0.001809 0.000000
# 3 -0.007145 -0.002568 0.014709 0.000000 0.000511 0.000000
# 4 0.000000 0.000000 0.000000 0.061139 0.000000 0.009770
# 5 0.002901 -0.001809 0.000511 0.000000 0.031393 0.000000
# 6 0.000000 0.000000 0.000000 0.009770 0.000000 0.045058
#
#
# Mechanical properties :
#
#
# Convention : Reuss Voigt Hill
#
# Bulk Modulus (GPa) = 51.31005 53.15046 52.23025
# Shear Modulus (GPa) = 22.18920 24.45272 23.32096
#
# Velocity S-wave (km/s) = 3.65760 3.83963 3.74972
# Velocity P-wave (km/s) = 6.98374 7.19040 7.08782
#
# Compressibility (1/GPa) = 0.01948936
#
# Stress axis : x y z
#
# Youngs Moduli (GPa) = 43.97111 77.41407 67.98655
#
# Poissons Ratio (x) = 0.44330 0.48577
# Poissons Ratio (y) = 0.25179 0.17460
# Poissons Ratio (z) = 0.31418 0.19882
#
# Static dielectric constant tensor:
#      x y z
#    x 3.123300 0.000000 -0.200680 
#    y 0.000000 3.225580 0.000000 
#    z -0.200680 0.000000 3.119350 
# 
# 
# High freq. dielectric constant tensor:
#      x y z
#    x 1.634440 0.000000 -0.032870 
#    y 0.000000 1.633140 0.000000 
#    z -0.032870 0.000000 1.626540 
# 
# From -- ./inp_files/114602.got.cif
#   From: 2010.06.25/outbox.cif.g09.slc.cpg/sg15_58_cif.got.tgz:114602.got - 2010.06.28 07:06:18.
