data_PCOD8150892
_publ_section_title
;
Structure prediction by ZEFSAII (Michael W. Deem and Ramdas Pophale) SiO2 
 PCOD8150892
Probable space group: C 2/C
;
_chemical_formula_sum "Si O2"
_cell_formula_units_Z 48
_cell_length_a 27.323900
_cell_length_b 7.154861
_cell_length_c 9.765549
_cell_angle_alpha 90.000000
_cell_angle_beta 91.779075
_cell_angle_gamma 90.000000
_cell_volume 1908.231920
_symmetry_space_group_name_H-M "C 2/C"
_symmetry_group_IT_number 15
_symmetry_cell_setting 'monoclinic'
loop_
_space_group_symop_operation_xyz
x,y,z
-x,y,1/2-z
-x,-y,-z
x,-y,1/2+z
1/2+x,1/2+y,z
1/2-x,1/2+y,1/2-z
1/2-x,1/2-y,-z
1/2+x,1/2-y,1/2+z
loop_
_atom_site_type_symbol
_atom_site_label
_atom_site_fract_x
_atom_site_fract_y
_atom_site_fract_z
Si Si1 0.618945 0.392744 0.727740
Si Si2 0.277117 0.598685 0.161613
Si Si3 0.385349 0.087850 0.983314
Si Si4 0.781676 0.521697 0.083637
Si Si5 0.014544 0.333012 0.904424
Si Si6 0.576133 0.330424 0.007507
O O1 0.670636 0.474498 0.783275
O O2 0.621964 0.181780 0.666968
O O3 0.580433 0.389227 0.849111
O O4 0.604210 0.526262 0.604324
O O5 0.239219 0.620054 0.283336
O O6 0.286940 0.799699 0.097623
O O7 0.255448 0.450625 0.048736
O O8 0.427274 0.202687 0.072765
O O9 0.334739 0.108898 0.060419
O O10 0.400338 0.873216 0.963989
O O11 0.000000 0.387315 0.750000
O O12 0.000000 0.500000 0.000000
O O13 0.981215 0.160785 0.954099
#
# Coordination Sequence:
#
# PCOD8150892 Si02
#       6
#     8   8   8   8   8   8
#     4  12  27  49  78 116 161 207 258 335 382 476
#     4  11  25  45  70 114 154 205 263 318 391 460
#     4  11  27  50  80 109 158 211 265 317 400 462
#     4  11  25  46  73 106 158 204 262 322 387 471
#     4  10  26  48  79 114 150 203 260 326 389 466
#     4  11  28  49  80 119 155 206 265 322 403 461
#
# _framework density 25.154177000000001
#
# number of rings (size 3 to 8) (size 9 to 14) (size 15 to 20)
#    0.000    1.000    1.667    2.000   14.000    4.667 
#    0.000    0.000    0.000    0.000    0.000    0.000 
#    0.000    0.000    0.000    0.000    0.000    0.000 
#
# Total GULP energy -297659.536386 kJ/mol
# GULP energy per Si atom -12402.480683 kJ/mol
# Density = 2.509692 g / cm^3
# Si number density = 25.154177 Si / 1000 Ang^3
#
#
#
# Elastic Constant Matrix: (Units=GPa)
#
#
# Indices 1 2 3 4 5 6 
#
# 1 170.8245 15.1339 69.1357 0.0000 2.8288 0.0000
# 2 15.1339 46.0003 26.5061 0.0000 -0.0697 0.0000
# 3 69.1357 26.5061 191.2178 0.0000 -10.1858 0.0000
# 4 0.0000 0.0000 0.0000 38.7152 0.0000 1.9094
# 5 2.8288 -0.0697 -10.1858 0.0000 44.9331 0.0000
# 6 0.0000 0.0000 0.0000 1.9094 0.0000 24.4413
#
#
#
# Elastic Compliance Matrix: (Units=1/GPa)
#
#
# Indices 1 2 3 4 5 6 
#
# 1 0.006935 -0.000878 -0.002438 0.000000 -0.000991 0.000000
# 2 -0.000878 0.023760 -0.003007 0.000000 -0.000590 0.000000
# 3 -0.002438 -0.003007 0.006616 0.000000 0.001649 0.000000
# 4 0.000000 0.000000 0.000000 0.025930 0.000000 -0.002026
# 5 -0.000991 -0.000590 0.001649 0.000000 0.022691 0.000000
# 6 0.000000 0.000000 0.000000 -0.002026 0.000000 0.041073
#
#
# Mechanical properties :
#
#
# Convention : Reuss Voigt Hill
#
# Bulk Modulus (GPa) = 40.54657 69.95490 55.25074
# Shear Modulus (GPa) = 33.81291 41.43571 37.62431
#
# Velocity S-wave (km/s) = 3.67035 4.06306 3.87169
# Velocity P-wave (km/s) = 5.84090 7.06273 6.48067
#
# Compressibility (1/GPa) = 0.02466300
#
# Stress axis : x y z
#
# Youngs Moduli (GPa) = 144.19519 42.08769 151.14911
#
# Poissons Ratio (x) = 0.03695 0.36857
# Poissons Ratio (y) = 0.12661 0.45458
# Poissons Ratio (z) = 0.35161 0.12658
#
# Static dielectric constant tensor:
#      x y z
#    x 4.295230 0.000000 1.514220 
#    y 0.000000 4.352180 0.000000 
#    z 1.514220 0.000000 3.368490 
# 
# 
# High freq. dielectric constant tensor:
#      x y z
#    x 2.016190 0.000000 0.000710 
#    y 0.000000 2.001070 0.000000 
#    z 0.000710 0.000000 2.013130 
# 
# From -- ./inp_files/68574.got.cif
#   From: 2010.06.25/outbox.cif.g09.slc.cpg/sg15_35_cif.got.tgz:68574.got - 2010.06.28 07:06:18.
