data_PCOD8150753
_publ_section_title
;
Structure prediction by ZEFSAII (Michael W. Deem and Ramdas Pophale) SiO2 
 PCOD8150753
Probable space group: C 2/C
;
_chemical_formula_sum "Si O2"
_cell_formula_units_Z 56
_cell_length_a 9.507746
_cell_length_b 15.331681
_cell_length_c 21.773448
_cell_angle_alpha 90.000000
_cell_angle_beta 58.921225
_cell_angle_gamma 90.000000
_cell_volume 2718.321461
_symmetry_space_group_name_H-M "C 2/C"
_symmetry_group_IT_number 15
_symmetry_cell_setting 'monoclinic'
loop_
_space_group_symop_operation_xyz
x,y,z
-x,y,1/2-z
-x,-y,-z
x,-y,1/2+z
1/2+x,1/2+y,z
1/2-x,1/2+y,1/2-z
1/2-x,1/2-y,-z
1/2+x,1/2-y,1/2+z
loop_
_atom_site_type_symbol
_atom_site_label
_atom_site_fract_x
_atom_site_fract_y
_atom_site_fract_z
Si Si1 0.391342 0.458696 0.833515
Si Si2 0.119699 0.112968 0.378494
Si Si3 0.819995 0.243800 0.764671
Si Si4 0.431271 0.238908 0.985544
Si Si5 0.853730 0.684289 0.135650
Si Si6 0.874246 0.404759 0.131115
Si Si7 0.448921 0.957581 0.832482
O O1 0.500000 0.485864 0.750000
O O2 0.500248 0.454381 0.870304
O O3 0.317282 0.362085 0.842315
O O4 0.240335 0.525548 0.878847
O O5 0.206172 0.174944 0.309062
O O6 0.252877 0.052919 0.382914
O O7 0.028832 0.172736 0.448960
O O8 0.819700 0.237222 0.690781
O O9 0.752364 0.152909 0.802662
O O10 0.000000 0.261169 0.750000
O O11 0.518342 0.152628 0.939319
O O12 0.250000 0.250000 0.000000
O O13 0.435115 0.226475 0.057605
O O14 0.972473 0.618453 0.144659
O O15 0.997767 0.450214 0.151083
O O16 0.500000 0.951845 0.750000
#
# Coordination Sequence:
#
# PCOD8150753 Si02
#       7
#     8   8   8   8   8   8   8
#     4  11  20  38  68  99 122 173 209 265 332 386
#     4  11  20  40  70  90 130 165 222 259 320 395
#     4  11  20  41  68 100 124 166 218 277 317 384
#     4  11  25  44  63  98 126 180 223 262 317 399
#     4  11  21  39  70  89 138 169 216 260 335 381
#     4  10  26  41  67  94 134 163 221 273 321 383
#     4  11  21  42  66  99 125 169 214 276 331 387
#
# _framework density 20.600947999999999
#
# number of rings (size 3 to 8) (size 9 to 14) (size 15 to 20)
#    0.000    1.143    5.714    1.286    0.000    4.000 
#    0.000    0.714    3.143    0.000    0.000    0.000 
#    0.000    0.000    0.000    0.000    0.000    0.000 
#
# Total GULP energy -347214.261639 kJ/mol
# GULP energy per Si atom -12400.509344 kJ/mol
# Density = 2.055406 g / cm^3
# Si number density = 20.600948 Si / 1000 Ang^3
#
#
#
# Elastic Constant Matrix: (Units=GPa)
#
#
# Indices 1 2 3 4 5 6 
#
# 1 118.8015 28.3694 30.9177 0.0000 -9.1918 0.0000
# 2 28.3694 66.8366 31.1195 0.0000 -2.8698 0.0000
# 3 30.9177 31.1195 126.9111 0.0000 5.8422 0.0000
# 4 0.0000 0.0000 0.0000 20.9953 0.0000 -1.7810
# 5 -9.1918 -2.8698 5.8422 0.0000 34.7243 0.0000
# 6 0.0000 0.0000 0.0000 -1.7810 0.0000 32.2293
#
#
#
# Elastic Compliance Matrix: (Units=1/GPa)
#
#
# Indices 1 2 3 4 5 6 
#
# 1 0.009848 -0.003267 -0.001719 0.000000 0.002626 0.000000
# 2 -0.003267 0.018129 -0.003707 0.000000 0.001257 0.000000
# 3 -0.001719 -0.003707 0.009315 0.000000 -0.002329 0.000000
# 4 0.000000 0.000000 0.000000 0.047854 0.000000 0.002644
# 5 0.002626 0.001257 -0.002329 0.000000 0.029989 0.000000
# 6 0.000000 0.000000 0.000000 0.002644 0.000000 0.031174
#
#
# Mechanical properties :
#
#
# Convention : Reuss Voigt Hill
#
# Bulk Modulus (GPa) = 50.23896 54.81807 52.52852
# Shear Modulus (GPa) = 29.35484 32.39927 30.87706
#
# Velocity S-wave (km/s) = 3.77892 3.97004 3.87566
# Velocity P-wave (km/s) = 6.59393 6.90523 6.75138
#
# Compressibility (1/GPa) = 0.01990487
#
# Stress axis : x y z
#
# Youngs Moduli (GPa) = 101.54253 55.16117 107.35901
#
# Poissons Ratio (x) = 0.18021 0.18455
# Poissons Ratio (y) = 0.33174 0.39801
# Poissons Ratio (z) = 0.17455 0.20450
#
# Static dielectric constant tensor:
#      x y z
#    x 3.988630 0.000000 -0.095860 
#    y 0.000000 3.716410 0.000000 
#    z -0.095860 0.000000 3.792260 
# 
# 
# High freq. dielectric constant tensor:
#      x y z
#    x 1.820850 0.000000 -0.007200 
#    y 0.000000 1.799030 0.000000 
#    z -0.007200 0.000000 1.796520 
# 
# From -- ./inp_files/232592.got.cif
#   From: 2010.06.25/outbox.cif.g09.slc.cpg/sg15_117_cif.got.tgz:232592.got - 2010.06.28 07:06:18.
