data_PCOD8150274
_publ_section_title
;
Structure prediction by ZEFSAII (Michael W. Deem and Ramdas Pophale) SiO2 
 PCOD8150274
Probable space group: C 2/C
;
_chemical_formula_sum "Si O2"
_cell_formula_units_Z 40
_cell_length_a 20.165999
_cell_length_b 5.054120
_cell_length_c 23.825898
_cell_angle_alpha 90.000000
_cell_angle_beta 135.550270
_cell_angle_gamma 90.000000
_cell_volume 1700.545590
_symmetry_space_group_name_H-M "C 2/C"
_symmetry_group_IT_number 15
_symmetry_cell_setting 'monoclinic'
loop_
_space_group_symop_operation_xyz
x,y,z
-x,y,1/2-z
-x,-y,-z
x,-y,1/2+z
1/2+x,1/2+y,z
1/2-x,1/2+y,1/2-z
1/2-x,1/2-y,-z
1/2+x,1/2-y,1/2+z
loop_
_atom_site_type_symbol
_atom_site_label
_atom_site_fract_x
_atom_site_fract_y
_atom_site_fract_z
Si Si1 0.195074 0.801811 0.225632
Si Si2 0.902911 0.426530 0.166549
Si Si3 0.684666 0.566983 0.843254
Si Si4 0.997462 0.246480 0.958228
Si Si5 0.834293 0.613351 0.014646
O O1 0.242711 0.519611 0.270286
O O2 0.184241 0.963914 0.276826
O O3 0.097412 0.746745 0.135748
O O4 0.825757 0.626405 0.145728
O O5 0.892912 0.424322 0.092635
O O6 0.000000 0.542649 0.250000
O O7 0.896730 0.124813 0.182926
O O8 0.781862 0.459729 0.931715
O O9 0.085378 0.212392 0.967904
O O10 0.000000 0.500000 0.000000
O O11 0.000000 0.000000 0.000000
O O12 0.750000 0.750000 0.000000
#
# Coordination Sequence:
#
# PCOD8150274 Si02
#       5
#     8   8   8   8   8
#     4  12  25  45  70 101 140 188 239 298 360 432
#     4  11  23  40  64  96 132 176 226 284 346 413
#     4  11  23  41  64  95 131 176 226 284 346 413
#     4  12  27  47  74 107 144 191 244 299 364 435
#     4  10  24  45  70 101 141 183 231 289 351 421
#
# _framework density 23.521861000000001
#
# number of rings (size 3 to 8) (size 9 to 14) (size 15 to 20)
#    0.000    0.800    0.000    7.200    0.000   11.200 
#    0.000    0.000    0.000    0.000    0.000    0.000 
#    0.000    0.000    0.000    0.000    0.000    0.000 
#
# Total GULP energy -247781.179025 kJ/mol
# GULP energy per Si atom -12389.058951 kJ/mol
# Density = 2.346832 g / cm^3
# Si number density = 23.521861 Si / 1000 Ang^3
#
#
#
# Elastic Constant Matrix: (Units=GPa)
#
#
# Indices 1 2 3 4 5 6 
#
# 1 139.4531 44.9067 65.1906 0.0367 0.6220 -0.0167
# 2 44.9067 123.9568 37.0945 0.1484 -1.7550 -0.0811
# 3 65.1906 37.0945 221.0971 -0.1032 -14.7723 0.0602
# 4 0.0367 0.1484 -0.1032 2.2046 -0.0101 -5.1875
# 5 0.6220 -1.7550 -14.7723 -0.0101 44.1040 -0.0053
# 6 -0.0167 -0.0811 0.0602 -5.1875 -0.0053 32.4322
#
#
#
# Elastic Compliance Matrix: (Units=1/GPa)
#
#
# Indices 1 2 3 4 5 6 
#
# 1 0.009099 -0.002619 -0.002311 -0.000133 -0.001007 -0.000019
# 2 -0.002619 0.009250 -0.000770 -0.000898 0.000147 -0.000120
# 3 -0.002311 -0.000770 0.005456 0.000519 0.001829 0.000070
# 4 -0.000133 -0.000898 0.000519 0.727497 0.000320 0.116359
# 5 -0.001007 0.000147 0.001829 0.000320 0.023307 0.000052
# 6 -0.000019 -0.000120 0.000070 0.116359 0.000052 0.049445
#
#
# Mechanical properties :
#
#
# Convention : Reuss Voigt Hill
#
# Bulk Modulus (GPa) = 80.61475 86.54339 83.57907
# Shear Modulus (GPa) = 5.95531 38.23584 22.09557
#
# Velocity S-wave (km/s) = 1.59290 4.03618 3.06823
# Velocity P-wave (km/s) = 6.14246 7.65465 6.93986
#
# Compressibility (1/GPa) = 0.01240468
#
# Stress axis : x y z
#
# Youngs Moduli (GPa) = 109.90275 108.11180 183.28749
#
# Poissons Ratio (x) = 0.28314 0.42353
# Poissons Ratio (y) = 0.28783 0.14118
# Poissons Ratio (z) = 0.25396 0.08327
#
# Static dielectric constant tensor:
#      x y z
#    x 4.315600 -0.000090 -0.208730 
#    y -0.000090 3.969040 0.000030 
#    z -0.208730 0.000030 4.890880 
# 
# 
# High freq. dielectric constant tensor:
#      x y z
#    x 1.926740 -0.000010 -0.010740 
#    y -0.000010 1.918090 0.000000 
#    z -0.010740 0.000000 1.967180 
# 
# From -- ./inp_files/279098.got.cif
#   From: 2010.06.25/outbox.cif.g09.slc.cpg/sg15_140_cif.got.tgz:279098.got - 2010.06.28 07:06:18.
