data_PCOD8150670
_publ_section_title
;
Structure prediction by ZEFSAII (Michael W. Deem and Ramdas Pophale) SiO2 
 PCOD8150670
Probable space group: C 2/C
;
_chemical_formula_sum "Si O2"
_cell_formula_units_Z 44
_cell_length_a 17.873045
_cell_length_b 6.593847
_cell_length_c 21.761030
_cell_angle_alpha 90.000000
_cell_angle_beta 49.898847
_cell_angle_gamma 90.000000
_cell_volume 1961.671644
_symmetry_space_group_name_H-M "C 2/C"
_symmetry_group_IT_number 15
_symmetry_cell_setting 'monoclinic'
loop_
_space_group_symop_operation_xyz
x,y,z
-x,y,1/2-z
-x,-y,-z
x,-y,1/2+z
1/2+x,1/2+y,z
1/2-x,1/2+y,1/2-z
1/2-x,1/2-y,-z
1/2+x,1/2-y,1/2+z
loop_
_atom_site_type_symbol
_atom_site_label
_atom_site_fract_x
_atom_site_fract_y
_atom_site_fract_z
Si Si1 0.090498 0.244514 0.770703
Si Si2 0.746956 0.944796 0.392186
Si Si3 0.401645 0.756427 0.592172
Si Si4 0.392090 0.605325 0.019837
Si Si5 0.579085 0.564173 0.124005
Si Si6 0.500000 0.907609 0.250000
O O1 0.179468 0.103801 0.702309
O O2 0.113452 0.302183 0.828439
O O3 0.085004 0.450579 0.733540
O O4 0.987837 0.122950 0.817129
O O5 0.701463 0.741783 0.445738
O O6 0.659473 0.084309 0.414878
O O7 0.809180 0.048377 0.412864
O O8 0.517315 0.757952 0.514423
O O9 0.366489 0.528079 0.593497
O O10 0.418725 0.446363 0.951022
O O11 0.538118 0.775074 0.172347
#
# Coordination Sequence:
#
# PCOD8150670 Si02
#       6
#     8   8   8   8   8   4
#     4  11  25  44  68 101 137 171 224 291 334 400
#     4  12  23  41  69 102 130 175 228 279 334 403
#     4  10  26  44  65  98 138 178 220 271 347 402
#     4  10  25  46  66  96 140 180 217 279 339 402
#     4  11  24  45  68 100 134 173 233 272 339 407
#     4  12  22  44  70  92 134 180 220 276 344 388
#
# _framework density 22.429849000000001
#
# number of rings (size 3 to 8) (size 9 to 14) (size 15 to 20)
#    0.000    1.091    3.636    1.091    5.091    8.000 
#    0.000    0.000    0.000    0.000    0.000    0.000 
#    0.000    0.000    0.000    0.000    0.000    0.000 
#
# Total GULP energy -272745.533624 kJ/mol
# GULP energy per Si atom -12397.524256 kJ/mol
# Density = 2.237880 g / cm^3
# Si number density = 22.429849 Si / 1000 Ang^3
#
#
#
# Elastic Constant Matrix: (Units=GPa)
#
#
# Indices 1 2 3 4 5 6 
#
# 1 123.2262 51.1216 40.7792 0.0011 -0.3426 0.0052
# 2 51.1216 87.6251 37.2768 -0.0012 -2.8363 0.0056
# 3 40.7792 37.2768 68.3589 0.0001 1.9347 -0.0007
# 4 0.0011 -0.0012 0.0001 29.1739 -0.0015 -5.0283
# 5 -0.3426 -2.8363 1.9347 -0.0015 22.1235 0.0000
# 6 0.0052 0.0056 -0.0007 -5.0283 0.0000 35.8788
#
#
#
# Elastic Compliance Matrix: (Units=1/GPa)
#
#
# Indices 1 2 3 4 5 6 
#
# 1 0.011561 -0.004967 -0.004185 -0.000001 -0.000092 -0.000001
# 2 -0.004967 0.017147 -0.006463 0.000001 0.002687 -0.000002
# 3 -0.004185 -0.006463 0.020726 0.000000 -0.002706 0.000002
# 4 -0.000001 0.000001 0.000000 0.035126 0.000002 0.004923
# 5 -0.000092 0.002687 -0.002706 0.000002 0.045780 0.000000
# 6 -0.000001 -0.000002 0.000002 0.004923 0.000000 0.028561
#
#
# Mechanical properties :
#
#
# Convention : Reuss Voigt Hill
#
# Bulk Modulus (GPa) = 54.93717 59.72946 57.33332
# Shear Modulus (GPa) = 25.48427 27.43743 26.46085
#
# Velocity S-wave (km/s) = 3.37438 3.50130 3.43843
# Velocity P-wave (km/s) = 6.30301 6.55993 6.43276
#
# Compressibility (1/GPa) = 0.01820261
#
# Stress axis : x y z
#
# Youngs Moduli (GPa) = 86.50103 58.32060 48.24783
#
# Poissons Ratio (x) = 0.28969 0.20193
# Poissons Ratio (y) = 0.42966 0.31183
# Poissons Ratio (z) = 0.36202 0.37693
#
# Static dielectric constant tensor:
#      x y z
#    x 4.127030 0.000000 -0.020590 
#    y 0.000000 3.891710 0.000000 
#    z -0.020590 0.000000 3.954460 
# 
# 
# High freq. dielectric constant tensor:
#      x y z
#    x 1.896600 0.000000 0.000870 
#    y 0.000000 1.878080 0.000000 
#    z 0.000870 0.000000 1.876500 
# 
# From -- ./inp_files/297637.got.cif
#   From: 2010.06.25/outbox.cif.g09.slc.cpg/sg15_149_cif.got.tgz:297637.got - 2010.06.28 07:06:18.
