data_PCOD8150397
_publ_section_title
;
Structure prediction by ZEFSAII (Michael W. Deem and Ramdas Pophale) SiO2 
 PCOD8150397
Probable space group: C 2/C
;
_chemical_formula_sum "Si O2"
_cell_formula_units_Z 44
_cell_length_a 12.751355
_cell_length_b 19.708307
_cell_length_c 8.463409
_cell_angle_alpha 90.000000
_cell_angle_beta 111.604441
_cell_angle_gamma 90.000000
_cell_volume 1977.498732
_symmetry_space_group_name_H-M "C 2/C"
_symmetry_group_IT_number 15
_symmetry_cell_setting 'monoclinic'
loop_
_space_group_symop_operation_xyz
x,y,z
-x,y,1/2-z
-x,-y,-z
x,-y,1/2+z
1/2+x,1/2+y,z
1/2-x,1/2+y,1/2-z
1/2-x,1/2-y,-z
1/2+x,1/2-y,1/2+z
loop_
_atom_site_type_symbol
_atom_site_label
_atom_site_fract_x
_atom_site_fract_y
_atom_site_fract_z
Si Si1 0.188714 0.810839 0.057007
Si Si2 0.757117 0.080146 0.409319
Si Si3 0.851644 0.679232 0.920814
Si Si4 0.047693 0.818298 0.446670
Si Si5 0.285090 0.943099 0.966886
Si Si6 0.500000 0.893412 0.250000
O O1 0.234211 0.813525 0.261284
O O2 0.053982 0.803528 0.987322
O O3 0.250000 0.750000 0.000000
O O4 0.211021 0.879938 0.978567
O O5 0.665068 0.125305 0.449362
O O6 0.875146 0.119578 0.450134
O O7 0.701073 0.059415 0.213073
O O8 0.779394 0.011917 0.521659
O O9 0.948947 0.655450 0.855506
O O10 0.879019 0.750167 0.019033
O O11 0.000000 0.837890 0.250000
O O12 0.407136 0.941549 0.118473
#
# Coordination Sequence:
#
# PCOD8150397 Si02
#       6
#     8   8   8   8   8   4
#     4  11  24  46  72 104 144 182 236 292 349 425
#     4  12  27  46  69 103 144 185 241 295 352 432
#     4  11  24  43  69 104 139 180 240 298 350 422
#     4  12  26  43  73 105 141 191 232 290 357 419
#     4  11  26  46  72 102 143 187 232 299 353 424
#     4  10  24  46  74 106 138 182 238 296 370 422
#
# _framework density 22.250330000000002
#
# number of rings (size 3 to 8) (size 9 to 14) (size 15 to 20)
#    0.000    0.727    1.818    6.000    5.091    5.818 
#    0.000    0.000    0.000    0.000    0.000    0.000 
#    0.000    0.000    0.000    0.000    0.000    0.000 
#
# Total GULP energy -272936.407952 kJ/mol
# GULP energy per Si atom -12406.200361 kJ/mol
# Density = 2.219969 g / cm^3
# Si number density = 22.250330 Si / 1000 Ang^3
#
#
#
# Elastic Constant Matrix: (Units=GPa)
#
#
# Indices 1 2 3 4 5 6 
#
# 1 135.9819 60.4487 32.1058 0.0000 -2.1297 0.0000
# 2 60.4487 179.2373 46.8364 0.0000 -6.7340 0.0000
# 3 32.1058 46.8364 125.8564 0.0000 -17.2926 0.0000
# 4 0.0000 0.0000 0.0000 37.2780 0.0000 -7.7039
# 5 -2.1297 -6.7340 -17.2926 0.0000 24.0672 0.0000
# 6 0.0000 0.0000 0.0000 -7.7039 0.0000 29.4375
#
#
#
# Elastic Compliance Matrix: (Units=1/GPa)
#
#
# Indices 1 2 3 4 5 6 
#
# 1 0.008850 -0.002655 -0.001403 0.000000 -0.000967 0.000000
# 2 -0.002655 0.006977 -0.001868 0.000000 0.000375 0.000000
# 3 -0.001403 -0.001868 0.009885 0.000000 0.006456 0.000000
# 4 0.000000 0.000000 0.000000 0.028359 0.000000 0.007422
# 5 -0.000967 0.000375 0.006456 0.000000 0.046209 0.000000
# 6 0.000000 0.000000 0.000000 0.007422 0.000000 0.035913
#
#
# Mechanical properties :
#
#
# Convention : Reuss Voigt Hill
#
# Bulk Modulus (GPa) = 72.13709 79.98415 76.06062
# Shear Modulus (GPa) = 32.75197 38.26887 35.51042
#
# Velocity S-wave (km/s) = 3.84080 4.15170 3.99927
# Velocity P-wave (km/s) = 7.22219 7.68164 7.45545
#
# Compressibility (1/GPa) = 0.01386249
#
# Stress axis : x y z
#
# Youngs Moduli (GPa) = 112.99475 143.33736 101.15875
#
# Poissons Ratio (x) = 0.38049 0.14189
# Poissons Ratio (y) = 0.29995 0.18892
# Poissons Ratio (z) = 0.15850 0.26769
#
# Static dielectric constant tensor:
#      x y z
#    x 4.179930 0.000000 -0.067080 
#    y 0.000000 3.950840 0.000000 
#    z -0.067080 0.000000 4.070570 
# 
# 
# High freq. dielectric constant tensor:
#      x y z
#    x 1.882660 0.000000 -0.009660 
#    y 0.000000 1.883440 0.000000 
#    z -0.009660 0.000000 1.883410 
# 
# From -- ./inp_files/31054.got.cif
#   From: 2010.06.25/outbox.cif.g09.slc.cpg/sg15_16_cif.got.tgz:31054.got - 2010.06.28 07:06:18.
