data_PCOD8150514
_publ_section_title
;
Structure prediction by ZEFSAII (Michael W. Deem and Ramdas Pophale) SiO2 
 PCOD8150514
Probable space group: C 2/C
;
_chemical_formula_sum "Si O2"
_cell_formula_units_Z 36
_cell_length_a 28.613928
_cell_length_b 13.020122
_cell_length_c 9.305217
_cell_angle_alpha 90.000000
_cell_angle_beta 25.867703
_cell_angle_gamma 90.000000
_cell_volume 1512.512334
_symmetry_space_group_name_H-M "C 2/C"
_symmetry_group_IT_number 15
_symmetry_cell_setting 'monoclinic'
loop_
_space_group_symop_operation_xyz
x,y,z
-x,y,1/2-z
-x,-y,-z
x,-y,1/2+z
1/2+x,1/2+y,z
1/2-x,1/2+y,1/2-z
1/2-x,1/2-y,-z
1/2+x,1/2-y,1/2+z
loop_
_atom_site_type_symbol
_atom_site_label
_atom_site_fract_x
_atom_site_fract_y
_atom_site_fract_z
Si Si1 0.202949 0.558550 0.823608
Si Si2 0.055685 0.297640 0.870256
Si Si3 0.500000 0.036362 0.750000
Si Si4 0.500000 0.629258 0.250000
Si Si5 0.167289 0.955702 0.810968
Si Si6 0.000000 0.212010 0.750000
O O1 0.231647 0.470799 0.862516
O O2 0.302263 0.563105 0.439219
O O3 0.174241 0.668540 0.980023
O O4 0.101917 0.531723 0.004330
O O5 0.973795 0.280873 0.962434
O O6 0.054080 0.197819 0.975676
O O7 0.016178 0.396380 0.063891
O O8 0.403366 0.557862 0.463790
O O9 0.098270 0.855600 0.039949
#
# Coordination Sequence:
#
# PCOD8150514 Si02
#       6
#     8   8   4   4   8   4
#     4  12  24  44  71 104 135 191 231 288 350 424
#     4  11  24  43  71  99 140 177 236 288 344 401
#     4  11  25  47  65  96 150 186 215 297 369 407
#     4  10  24  50  68 102 148 192 218 294 354 428
#     4  11  25  46  74  99 145 189 233 273 371 420
#     4  11  25  47  69 106 142 182 229 303 335 421
#
# _framework density 23.801459000000001
#
# number of rings (size 3 to 8) (size 9 to 14) (size 15 to 20)
#    0.000    0.889    2.222    4.000    3.111    5.333 
#   12.000    0.000    0.000    0.000    0.000    0.000 
#    0.000    0.000    0.000    0.000    0.000    0.000 
#
# Total GULP energy -223054.589317 kJ/mol
# GULP energy per Si atom -12391.921629 kJ/mol
# Density = 2.374729 g / cm^3
# Si number density = 23.801459 Si / 1000 Ang^3
#
#
#
# Elastic Constant Matrix: (Units=GPa)
#
#
# Indices 1 2 3 4 5 6 
#
# 1 145.4956 44.8591 38.1647 0.0000 10.6686 0.0000
# 2 44.8591 85.9093 45.5535 0.0000 7.4158 0.0000
# 3 38.1647 45.5535 103.4353 0.0000 16.8693 0.0000
# 4 0.0000 0.0000 0.0000 -13.5271 0.0000 -41.1927
# 5 10.6686 7.4158 16.8693 0.0000 45.3565 0.0000
# 6 0.0000 0.0000 0.0000 -41.1927 0.0000 5.1924
#
#
#
# Elastic Compliance Matrix: (Units=1/GPa)
#
#
# Indices 1 2 3 4 5 6 
#
# 1 0.008403 -0.003580 -0.001381 0.000000 -0.000878 0.000000
# 2 -0.003580 0.016712 -0.006101 0.000000 0.000379 0.000000
# 3 -0.001381 -0.006101 0.013465 0.000000 -0.003686 0.000000
# 4 0.000000 0.000000 0.000000 -0.002938 0.000000 -0.023311
# 5 -0.000878 0.000379 -0.003686 0.000000 0.023563 0.000000
# 6 0.000000 0.000000 0.000000 -0.023311 0.000000 0.007655
#
#
# Mechanical properties :
#
#
# Convention : Reuss Voigt Hill
#
# Bulk Modulus (GPa) = 60.76358 65.77719 63.27039
# Shear Modulus (GPa) = 52.92721 21.15521 37.04121
#
# Velocity S-wave (km/s) = 4.72072 2.98454 3.94922
# Velocity P-wave (km/s) = 7.43629 6.29066 6.88734
#
# Compressibility (1/GPa) = 0.01645723
#
# Stress axis : x y z
#
# Youngs Moduli (GPa) = 118.99922 59.83774 74.26484
#
# Poissons Ratio (x) = 0.21422 0.10254
# Poissons Ratio (y) = 0.42603 0.45308
# Poissons Ratio (z) = 0.16431 0.36506
#
# Static dielectric constant tensor:
#      x y z
#    x 4.334340 0.000000 0.304740 
#    y 0.000000 4.284390 0.000000 
#    z 0.304740 0.000000 4.373150 
# 
# 
# High freq. dielectric constant tensor:
#      x y z
#    x 1.955310 0.000000 0.024460 
#    y 0.000000 1.944020 0.000000 
#    z 0.024460 0.000000 1.936440 
# 
# From -- ./inp_files/37478.got.cif
#   From: 2010.06.25/outbox.cif.g09.slc.cpg/sg15_19_cif.got.tgz:37478.got - 2010.06.28 07:06:18.
