data_PCOD8150337
_publ_section_title
;
Structure prediction by ZEFSAII (Michael W. Deem and Ramdas Pophale) SiO2 
 PCOD8150337
Probable space group: C 2/C
;
_chemical_formula_sum "Si O2"
_cell_formula_units_Z 28
_cell_length_a 8.938482
_cell_length_b 20.222495
_cell_length_c 9.278503
_cell_angle_alpha 90.000000
_cell_angle_beta 45.717301
_cell_angle_gamma 90.000000
_cell_volume 1200.690189
_symmetry_space_group_name_H-M "C 2/C"
_symmetry_group_IT_number 15
_symmetry_cell_setting 'monoclinic'
loop_
_space_group_symop_operation_xyz
x,y,z
-x,y,1/2-z
-x,-y,-z
x,-y,1/2+z
1/2+x,1/2+y,z
1/2-x,1/2+y,1/2-z
1/2-x,1/2-y,-z
1/2+x,1/2-y,1/2+z
loop_
_atom_site_type_symbol
_atom_site_label
_atom_site_fract_x
_atom_site_fract_y
_atom_site_fract_z
Si Si1 0.500000 0.501857 0.250000
Si Si2 0.908236 0.296199 0.166731
Si Si3 0.905505 0.911372 0.065250
Si Si4 0.311109 0.830296 0.767386
O O1 0.361243 0.455751 0.237152
O O2 0.357087 0.547343 0.451638
O O3 0.736155 0.347567 0.334805
O O4 0.807244 0.240031 0.133133
O O5 0.000000 0.262775 0.250000
O O6 0.092763 0.333108 0.957561
O O7 0.149904 0.890103 0.899020
O O8 0.500000 0.837770 0.750000
#
# Coordination Sequence:
#
# PCOD8150337 Si02
#       4
#     4   8   8   8
#     4  10  24  46  68  90 132 196 206 274 318 394
#     4  12  25  41  69 105 135 170 217 277 342 393
#     4  11  24  46  68  94 140 169 230 264 332 389
#     4  12  25  41  69 105 135 170 217 277 342 393
#
# _framework density 23.319921999999998
#
# number of rings (size 3 to 8) (size 9 to 14) (size 15 to 20)
#    0.000    0.571    2.857    5.143    4.000    0.000 
#    0.000   28.571    0.000    0.000    0.000    0.000 
#    0.000    0.000    0.000    0.000    0.000    0.000 
#
# Total GULP energy -173602.552703 kJ/mol
# GULP energy per Si atom -12400.182336 kJ/mol
# Density = 2.326684 g / cm^3
# Si number density = 23.319922 Si / 1000 Ang^3
#
#
#
# Elastic Constant Matrix: (Units=GPa)
#
#
# Indices 1 2 3 4 5 6 
#
# 1 91.1459 50.3360 48.4256 0.0000 8.5964 0.0000
# 2 50.3360 95.5701 30.8343 0.0000 -1.0505 0.0000
# 3 48.4256 30.8343 117.3030 0.0000 8.4325 0.0000
# 4 0.0000 0.0000 0.0000 28.0966 0.0000 12.1789
# 5 8.5964 -1.0505 8.4325 0.0000 46.0258 0.0000
# 6 0.0000 0.0000 0.0000 12.1789 0.0000 19.1784
#
#
#
# Elastic Compliance Matrix: (Units=1/GPa)
#
#
# Indices 1 2 3 4 5 6 
#
# 1 0.018503 -0.008055 -0.005330 0.000000 -0.002663 0.000000
# 2 -0.008055 0.014971 -0.000753 0.000000 0.001984 0.000000
# 3 -0.005330 -0.000753 0.010997 0.000000 -0.001037 0.000000
# 4 0.000000 0.000000 0.000000 0.049110 0.000000 -0.031186
# 5 -0.002663 0.001984 -0.001037 0.000000 0.022460 0.000000
# 6 0.000000 0.000000 0.000000 -0.031186 0.000000 0.071946
#
#
# Mechanical properties :
#
#
# Convention : Reuss Voigt Hill
#
# Bulk Modulus (GPa) = 61.74141 62.57898 62.16020
# Shear Modulus (GPa) = 22.55719 30.28836 26.42278
#
# Velocity S-wave (km/s) = 3.11351 3.60782 3.36974
# Velocity P-wave (km/s) = 6.28160 6.65195 6.46943
#
# Compressibility (1/GPa) = 0.01619658
#
# Stress axis : x y z
#
# Youngs Moduli (GPa) = 54.04650 66.79762 90.93032
#
# Poissons Ratio (x) = 0.53805 0.48462
# Poissons Ratio (y) = 0.43534 0.06843
# Poissons Ratio (z) = 0.28804 0.05027
#
# Static dielectric constant tensor:
#      x y z
#    x 4.091730 0.000000 0.130470 
#    y 0.000000 4.152130 0.000000 
#    z 0.130470 0.000000 4.444330 
# 
# 
# High freq. dielectric constant tensor:
#      x y z
#    x 1.913370 0.000000 0.017940 
#    y 0.000000 1.924330 0.000000 
#    z 0.017940 0.000000 1.932380 
# 
# From -- ./inp_files/21973.got.cif
#   From: 2010.06.25/outbox.cif.g09.slc.cpg/sg15_11_cif.got.tgz:21973.got - 2010.06.28 07:06:18.
