data_PCOD8150382
_publ_section_title
;
Structure prediction by ZEFSAII (Michael W. Deem and Ramdas Pophale) SiO2 
 PCOD8150382
Probable space group: C 2/C
;
_chemical_formula_sum "Si O2"
_cell_formula_units_Z 60
_cell_length_a 24.918055
_cell_length_b 9.680440
_cell_length_c 10.232593
_cell_angle_alpha 90.000000
_cell_angle_beta 100.494048
_cell_angle_gamma 90.000000
_cell_volume 2426.998009
_symmetry_space_group_name_H-M "C 2/C"
_symmetry_group_IT_number 15
_symmetry_cell_setting 'monoclinic'
loop_
_space_group_symop_operation_xyz
x,y,z
-x,y,1/2-z
-x,-y,-z
x,-y,1/2+z
1/2+x,1/2+y,z
1/2-x,1/2+y,1/2-z
1/2-x,1/2-y,-z
1/2+x,1/2-y,1/2+z
loop_
_atom_site_type_symbol
_atom_site_label
_atom_site_fract_x
_atom_site_fract_y
_atom_site_fract_z
Si Si1 0.285602 0.058961 0.228564
Si Si2 0.263832 0.660094 0.633432
Si Si3 0.385398 0.755533 0.085551
Si Si4 0.678376 0.505261 0.525285
Si Si5 0.109658 0.223596 0.116459
Si Si6 0.500000 0.820879 0.750000
Si Si7 0.508996 0.660477 0.495007
Si Si8 0.111720 0.558911 0.403256
O O1 0.282822 0.954476 0.351652
O O2 0.273018 0.223272 0.250580
O O3 0.238239 0.994616 0.115340
O O4 0.345615 0.055459 0.195795
O O5 0.250000 0.750000 0.500000
O O6 0.317537 0.570111 0.616315
O O7 0.370738 0.767446 0.231963
O O8 0.443521 0.684812 0.088122
O O9 0.386934 0.909104 0.025587
O O10 0.339354 0.663883 0.995504
O O11 0.633708 0.426996 0.593995
O O12 0.044688 0.230324 0.086928
O O13 0.131653 0.329682 0.017506
O O14 0.522129 0.723879 0.643157
O O15 0.449235 0.914564 0.680020
O O16 0.500000 0.500000 0.500000
#
# Coordination Sequence:
#
# PCOD8150382 Si02
#       8
#     8   8   8   8   8   4   8   8
#     4  11  25  47  75 106 155 198 249 318 384 454
#     4  10  24  46  72 107 150 195 250 310 379 451
#     4  12  28  44  79 112 147 204 258 313 389 462
#     4  11  24  47  71 112 148 195 257 312 378 463
#     4  11  25  48  74 104 156 194 252 318 383 453
#     4  10  28  50  74 110 160 196 262 320 378 468
#     4  11  25  46  75 112 148 200 255 322 386 448
#     4  11  28  48  75 109 151 207 250 314 389 454
#
# _framework density 24.721897999999999
#
# number of rings (size 3 to 8) (size 9 to 14) (size 15 to 20)
#    0.000    1.067    2.667    1.200   11.200    2.667 
#    2.400    0.000    0.000    0.000    0.000    0.000 
#    0.000    0.000    0.000    0.000    0.000    0.000 
#
# Total GULP energy -371843.616985 kJ/mol
# GULP energy per Si atom -12394.787233 kJ/mol
# Density = 2.466563 g / cm^3
# Si number density = 24.721898 Si / 1000 Ang^3
#
#
#
# Elastic Constant Matrix: (Units=GPa)
#
#
# Indices 1 2 3 4 5 6 
#
# 1 113.0414 21.5438 22.6119 0.0000 -12.5859 0.0000
# 2 21.5438 156.2974 32.7947 0.0000 -2.7234 0.0000
# 3 22.6119 32.7947 87.2938 0.0000 -9.6318 0.0000
# 4 0.0000 0.0000 0.0000 45.6997 0.0000 -7.2084
# 5 -12.5859 -2.7234 -9.6318 0.0000 39.5659 0.0000
# 6 0.0000 0.0000 0.0000 -7.2084 0.0000 38.8848
#
#
#
# Elastic Compliance Matrix: (Units=1/GPa)
#
#
# Indices 1 2 3 4 5 6 
#
# 1 0.009679 -0.000893 -0.001890 0.000000 0.002558 0.000000
# 2 -0.000893 0.007029 -0.002453 0.000000 -0.000397 0.000000
# 3 -0.001890 -0.002453 0.013134 0.000000 0.002427 0.000000
# 4 0.000000 0.000000 0.000000 0.022541 0.000000 0.004179
# 5 0.002558 -0.000397 0.002427 0.000000 0.026651 0.000000
# 6 0.000000 0.000000 0.000000 0.004179 0.000000 0.026492
#
#
# Mechanical properties :
#
#
# Convention : Reuss Voigt Hill
#
# Bulk Modulus (GPa) = 51.62343 56.72593 54.17468
# Shear Modulus (GPa) = 40.83117 43.47555 42.15336
#
# Velocity S-wave (km/s) = 4.06842 4.19810 4.13377
# Velocity P-wave (km/s) = 6.55716 6.81866 6.68919
#
# Compressibility (1/GPa) = 0.01937105
#
# Stress axis : x y z
#
# Youngs Moduli (GPa) = 103.31377 142.26831 76.13560
#
# Poissons Ratio (x) = 0.12707 0.14386
# Poissons Ratio (y) = 0.09227 0.18677
# Poissons Ratio (z) = 0.19521 0.34901
#
# Static dielectric constant tensor:
#      x y z
#    x 4.834560 0.000000 -0.336770 
#    y 0.000000 5.691710 0.000000 
#    z -0.336770 0.000000 4.629480 
# 
# 
# High freq. dielectric constant tensor:
#      x y z
#    x 1.991290 0.000000 -0.011450 
#    y 0.000000 2.004180 0.000000 
#    z -0.011450 0.000000 1.968750 
# 
# From -- ./inp_files/121974.got.cif
#   From: 2010.06.25/outbox.cif.g09.slc.cpg/sg15_61_cif.got.tgz:121974.got - 2010.06.28 07:06:18.
