data_PCOD8150191
_publ_section_title
;
Structure prediction by ZEFSAII (Michael W. Deem and Ramdas Pophale) SiO2 
 PCOD8150191
Probable space group: C 2/C
;
_chemical_formula_sum "Si O2"
_cell_formula_units_Z 44
_cell_length_a 9.793329
_cell_length_b 14.580243
_cell_length_c 18.321419
_cell_angle_alpha 90.000000
_cell_angle_beta 130.345394
_cell_angle_gamma 90.000000
_cell_volume 1993.874826
_symmetry_space_group_name_H-M "C 2/C"
_symmetry_group_IT_number 15
_symmetry_cell_setting 'monoclinic'
loop_
_space_group_symop_operation_xyz
x,y,z
-x,y,1/2-z
-x,-y,-z
x,-y,1/2+z
1/2+x,1/2+y,z
1/2-x,1/2+y,1/2-z
1/2-x,1/2-y,-z
1/2+x,1/2-y,1/2+z
loop_
_atom_site_type_symbol
_atom_site_label
_atom_site_fract_x
_atom_site_fract_y
_atom_site_fract_z
Si Si1 0.348636 0.840144 0.345040
Si Si2 0.500000 0.114969 0.750000
Si Si3 0.098882 0.928991 0.085973
Si Si4 0.364675 0.511411 0.262120
Si Si5 0.368919 0.831872 0.766092
Si Si6 0.557962 0.766905 0.969900
O O1 0.468393 0.825211 0.312958
O O2 0.187056 0.768065 0.282358
O O3 0.446284 0.821966 0.455440
O O4 0.285286 0.946051 0.326382
O O5 0.682610 0.057560 0.832082
O O6 0.044928 0.826653 0.046109
O O7 0.025496 0.948680 0.142120
O O8 0.000000 0.000000 0.000000
O O9 0.500000 0.551228 0.250000
O O10 0.293272 0.597630 0.283119
O O11 0.500000 0.872940 0.750000
O O12 0.451740 0.827702 0.875265
O O13 0.750000 0.750000 0.000000
#
# Coordination Sequence:
#
# PCOD8150191 Si02
#       6
#     8   4   8   8   8   8
#     4  11  24  46  72 100 146 189 241 302 367 439
#     4  10  24  44  72 102 154 190 234 310 374 416
#     4  11  25  45  71 106 144 193 242 300 370 440
#     4  11  25  44  70 101 146 185 235 308 366 427
#     4  12  25  44  71 102 144 194 240 296 372 438
#     4  12  24  42  74 101 135 194 245 296 364 448
#
# _framework density 22.067584
#
# number of rings (size 3 to 8) (size 9 to 14) (size 15 to 20)
#    0.000    0.727    5.455    2.727    6.364    2.909 
#    0.000    0.000    0.000    0.000    0.000    0.000 
#    0.000    0.000    0.000    0.000    0.000    0.000 
#
# Total GULP energy -272630.659111 kJ/mol
# GULP energy per Si atom -12392.302687 kJ/mol
# Density = 2.201736 g / cm^3
# Si number density = 22.067584 Si / 1000 Ang^3
#
#
#
# Elastic Constant Matrix: (Units=GPa)
#
#
# Indices 1 2 3 4 5 6 
#
# 1 146.1052 34.6720 38.6345 0.0000 -17.9184 0.0000
# 2 34.6720 85.4401 31.4350 0.0000 -3.1216 0.0000
# 3 38.6345 31.4350 151.3791 0.0000 -25.7174 0.0000
# 4 0.0000 0.0000 0.0000 38.3123 0.0000 1.1621
# 5 -17.9184 -3.1216 -25.7174 0.0000 47.0395 0.0000
# 6 0.0000 0.0000 0.0000 1.1621 0.0000 32.4506
#
#
#
# Elastic Compliance Matrix: (Units=1/GPa)
#
#
# Indices 1 2 3 4 5 6 
#
# 1 0.008077 -0.002792 -0.001092 0.000000 0.002295 0.000000
# 2 -0.002792 0.013656 -0.002370 0.000000 -0.001453 0.000000
# 3 -0.001092 -0.002370 0.008025 0.000000 0.003814 0.000000
# 4 0.000000 0.000000 0.000000 0.026130 0.000000 -0.000936
# 5 0.002295 -0.001453 0.003814 0.000000 0.024122 0.000000
# 6 0.000000 0.000000 0.000000 -0.000936 0.000000 0.030850
#
#
# Mechanical properties :
#
#
# Convention : Reuss Voigt Hill
#
# Bulk Modulus (GPa) = 57.97156 65.82305 61.89731
# Shear Modulus (GPa) = 38.72465 42.10600 40.41532
#
# Velocity S-wave (km/s) = 4.19360 4.37286 4.28417
# Velocity P-wave (km/s) = 7.05517 7.44235 7.25134
#
# Compressibility (1/GPa) = 0.01724984
#
# Stress axis : x y z
#
# Youngs Moduli (GPa) = 123.80686 73.22739 124.61528
#
# Poissons Ratio (x) = 0.20447 0.13605
# Poissons Ratio (y) = 0.34569 0.29534
# Poissons Ratio (z) = 0.13517 0.17355
#
# Static dielectric constant tensor:
#      x y z
#    x 3.923210 0.000000 0.150470 
#    y 0.000000 3.896750 0.000000 
#    z 0.150470 0.000000 3.423060 
# 
# 
# High freq. dielectric constant tensor:
#      x y z
#    x 1.870540 0.000000 -0.020300 
#    y 0.000000 1.865110 0.000000 
#    z -0.020300 0.000000 1.872730 
# 
# From -- ./inp_files/191200.got.cif
#   From: 2010.06.25/outbox.cif.g09.slc.cpg/sg15_96_cif.got.tgz:191200.got - 2010.06.28 07:06:18.
