data_PCOD8150012
_publ_section_title
;
Structure prediction by ZEFSAII (Michael W. Deem and Ramdas Pophale) SiO2 
 PCOD8150012
Probable space group: C 2/C
;
_chemical_formula_sum "Si O2"
_cell_formula_units_Z 32
_cell_length_a 13.731511
_cell_length_b 9.687633
_cell_length_c 11.068024
_cell_angle_alpha 90.000000
_cell_angle_beta 118.827021
_cell_angle_gamma 90.000000
_cell_volume 1289.880747
_symmetry_space_group_name_H-M "C 2/C"
_symmetry_group_IT_number 15
_symmetry_cell_setting 'monoclinic'
loop_
_space_group_symop_operation_xyz
x,y,z
-x,y,1/2-z
-x,-y,-z
x,-y,1/2+z
1/2+x,1/2+y,z
1/2-x,1/2+y,1/2-z
1/2-x,1/2-y,-z
1/2+x,1/2-y,1/2+z
loop_
_atom_site_type_symbol
_atom_site_label
_atom_site_fract_x
_atom_site_fract_y
_atom_site_fract_z
Si Si1 0.669308 0.575422 0.670818
Si Si2 0.500903 0.354351 0.883967
Si Si3 0.548001 0.863945 0.965574
Si Si4 0.829867 0.663630 0.193663
O O1 0.559147 0.502892 0.660451
O O2 0.626473 0.635238 0.514692
O O3 0.767121 0.465467 0.713855
O O4 0.722482 0.688091 0.795436
O O5 0.500000 0.288565 0.750000
O O6 0.425558 0.252615 0.919648
O O7 0.657315 0.867465 0.943059
O O8 0.449858 0.813819 0.822231
O O9 0.500000 0.000000 0.000000
#
# Coordination Sequence:
#
# PCOD8150012 Si02
#       4
#     8   8   8   8
#     4  10  24  43  73 103 134 187 222 293 341 413
#     4  10  24  43  69  98 142 183 227 276 357 412
#     4  10  24  43  70 100 137 185 225 293 339 403
#     4  10  24  45  70 101 139 172 242 277 352 402
#
# _framework density 24.808495000000001
#
# number of rings (size 3 to 8) (size 9 to 14) (size 15 to 20)
#    0.000    2.000    0.000    0.000   17.500    3.000 
#    0.000    5.000    0.000    0.000    0.000    0.000 
#    0.000    0.000    0.000    0.000    0.000    0.000 
#
# Total GULP energy -198222.390269 kJ/mol
# GULP energy per Si atom -12388.899392 kJ/mol
# Density = 2.475203 g / cm^3
# Si number density = 24.808495 Si / 1000 Ang^3
#
#
#
# Elastic Constant Matrix: (Units=GPa)
#
#
# Indices 1 2 3 4 5 6 
#
# 1 96.4217 65.1200 46.3364 0.0000 -31.8835 0.0000
# 2 65.1200 180.1436 45.9395 0.0000 -38.6712 0.0000
# 3 46.3364 45.9395 128.5633 0.0000 -36.5049 0.0000
# 4 0.0000 0.0000 0.0000 32.1344 0.0000 2.5362
# 5 -31.8835 -38.6712 -36.5049 0.0000 45.2061 0.0000
# 6 0.0000 0.0000 0.0000 2.5362 0.0000 48.3254
#
#
#
# Elastic Compliance Matrix: (Units=1/GPa)
#
#
# Indices 1 2 3 4 5 6 
#
# 1 0.016313 -0.003917 -0.002808 0.000000 0.005887 0.000000
# 2 -0.003917 0.007843 -0.000351 0.000000 0.003663 0.000000
# 3 -0.002808 -0.000351 0.010728 0.000000 0.006383 0.000000
# 4 0.000000 0.000000 0.000000 0.031249 0.000000 -0.001640
# 5 0.005887 0.003663 0.006383 0.000000 0.034561 0.000000
# 6 0.000000 0.000000 0.000000 -0.001640 0.000000 0.020779
#
#
# Mechanical properties :
#
#
# Convention : Reuss Voigt Hill
#
# Bulk Modulus (GPa) = 48.23463 79.99115 64.11289
# Shear Modulus (GPa) = 35.07937 41.64871 38.36404
#
# Velocity S-wave (km/s) = 3.76441 4.10177 3.93670
# Velocity P-wave (km/s) = 6.19511 7.39906 6.82369
#
# Compressibility (1/GPa) = 0.02073199
#
# Stress axis : x y z
#
# Youngs Moduli (GPa) = 61.30255 127.50384 93.21452
#
# Poissons Ratio (x) = 0.49943 0.26176
# Poissons Ratio (y) = 0.24012 0.03267
# Poissons Ratio (z) = 0.17215 0.04469
#
# Static dielectric constant tensor:
#      x y z
#    x 4.578900 0.000000 -0.255880 
#    y 0.000000 4.425960 0.000000 
#    z -0.255880 0.000000 4.795400 
# 
# 
# High freq. dielectric constant tensor:
#      x y z
#    x 1.976750 0.000000 0.007440 
#    y 0.000000 1.987410 0.000000 
#    z 0.007440 0.000000 1.999900 
# 
# From -- ./inp_files/93559.got.cif
#   From: 2010.06.25/outbox.cif.g09.slc.cpg/sg15_47_cif.got.tgz:93559.got - 2010.06.28 07:06:18.
