data_PCOD8150475
_publ_section_title
;
Structure prediction by ZEFSAII (Michael W. Deem and Ramdas Pophale) SiO2 
 PCOD8150475
Probable space group: C 2/C
;
_chemical_formula_sum "Si O2"
_cell_formula_units_Z 60
_cell_length_a 10.096243
_cell_length_b 11.951845
_cell_length_c 26.425547
_cell_angle_alpha 90.000000
_cell_angle_beta 64.146018
_cell_angle_gamma 90.000000
_cell_volume 2869.571144
_symmetry_space_group_name_H-M "C 2/C"
_symmetry_group_IT_number 15
_symmetry_cell_setting 'monoclinic'
loop_
_space_group_symop_operation_xyz
x,y,z
-x,y,1/2-z
-x,-y,-z
x,-y,1/2+z
1/2+x,1/2+y,z
1/2-x,1/2+y,1/2-z
1/2-x,1/2-y,-z
1/2+x,1/2-y,1/2+z
loop_
_atom_site_type_symbol
_atom_site_label
_atom_site_fract_x
_atom_site_fract_y
_atom_site_fract_z
Si Si1 0.811884 0.459484 0.900653
Si Si2 0.069290 0.121858 0.909967
Si Si3 0.125464 0.067043 0.085401
Si Si4 0.949192 0.183271 0.035707
Si Si5 0.929343 0.308084 0.671769
Si Si6 0.500000 0.352656 0.250000
Si Si7 0.080615 0.416081 0.021576
Si Si8 0.642389 0.568181 0.199106
O O1 0.714374 0.542183 0.881119
O O2 0.714999 0.364920 0.946562
O O3 0.900912 0.535336 0.925533
O O4 0.929587 0.389325 0.848658
O O5 0.086413 0.239042 0.878046
O O6 0.920892 0.063534 0.912374
O O7 0.052539 0.142643 0.972641
O O8 0.146895 0.101268 0.139562
O O9 0.990542 0.132297 0.083071
O O10 0.263377 0.109973 0.029766
O O11 0.965133 0.314565 0.040920
O O12 0.787311 0.386253 0.702118
O O13 0.933286 0.221816 0.716907
O O14 0.631667 0.432932 0.207251
O O15 0.000000 0.500000 0.000000
O O16 0.500000 0.624318 0.250000
#
# Coordination Sequence:
#
# PCOD8150475 Si02
#       8
#     8   8   8   8   8   4   8   8
#     4  11  25  41  62 105 135 175 228 264 328 416
#     4  11  21  43  67  98 142 185 210 272 331 397
#     4  11  20  41  69  92 137 180 220 275 327 400
#     4  11  23  39  66  95 146 187 213 261 336 389
#     4  12  26  45  74  96 132 177 222 285 345 399
#     4  10  26  50  70  92 132 164 228 292 346 392
#     4  12  24  36  61 101 139 182 224 266 318 412
#     4  10  24  48  68  98 127 171 232 284 340 395
#
# _framework density 20.909047999999999
#
# number of rings (size 3 to 8) (size 9 to 14) (size 15 to 20)
#    0.400    0.533    4.000    3.600    3.733    5.333 
#    2.400    0.000    0.000    0.000    0.000    0.000 
#    0.000    0.000    0.000    0.000    0.000    0.000 
#
# Total GULP energy -371859.075483 kJ/mol
# GULP energy per Si atom -12395.302516 kJ/mol
# Density = 2.086146 g / cm^3
# Si number density = 20.909048 Si / 1000 Ang^3
#
#
#
# Elastic Constant Matrix: (Units=GPa)
#
#
# Indices 1 2 3 4 5 6 
#
# 1 93.5212 44.6294 25.4840 0.0000 -3.9144 0.0000
# 2 44.6294 102.9517 22.9089 0.0000 -2.8314 0.0000
# 3 25.4840 22.9089 74.0790 0.0000 8.5377 0.0000
# 4 0.0000 0.0000 0.0000 25.3530 0.0000 0.4226
# 5 -3.9144 -2.8314 8.5377 0.0000 31.7641 0.0000
# 6 0.0000 0.0000 0.0000 0.4226 0.0000 39.7208
#
#
#
# Elastic Compliance Matrix: (Units=1/GPa)
#
#
# Indices 1 2 3 4 5 6 
#
# 1 0.014301 -0.005355 -0.003521 0.000000 0.002231 0.000000
# 2 -0.005355 0.012543 -0.002156 0.000000 0.001038 0.000000
# 3 -0.003521 -0.002156 0.015943 0.000000 -0.004911 0.000000
# 4 0.000000 0.000000 0.000000 0.039450 0.000000 -0.000420
# 5 0.002231 0.001038 -0.004911 0.000000 0.033170 0.000000
# 6 0.000000 0.000000 0.000000 -0.000420 0.000000 0.025180
#
#
# Mechanical properties :
#
#
# Convention : Reuss Voigt Hill
#
# Bulk Modulus (GPa) = 48.25530 50.73295 49.49413
# Shear Modulus (GPa) = 29.48833 31.20288 30.34560
#
# Velocity S-wave (km/s) = 3.75949 3.86724 3.81375
# Velocity P-wave (km/s) = 6.47872 6.65260 6.56623
#
# Compressibility (1/GPa) = 0.02072311
#
# Stress axis : x y z
#
# Youngs Moduli (GPa) = 69.92596 79.72646 62.72238
#
# Poissons Ratio (x) = 0.42690 0.22084
# Poissons Ratio (y) = 0.37442 0.13526
# Poissons Ratio (z) = 0.24620 0.17193
#
# Static dielectric constant tensor:
#      x y z
#    x 2.501710 0.000000 0.389250 
#    y 0.000000 3.392750 0.000000 
#    z 0.389250 0.000000 3.460700 
# 
# 
# High freq. dielectric constant tensor:
#      x y z
#    x 1.825390 0.000000 0.006800 
#    y 0.000000 1.824130 0.000000 
#    z 0.006800 0.000000 1.797060 
# 
# From -- ./inp_files/307452.got.cif
#   From: 2010.06.25/outbox.cif.g09.slc.cpg/sg15_154_cif.got.tgz:307452.got - 2010.06.28 07:06:18.
