data_PCOD8150259
_publ_section_title
;
Structure prediction by ZEFSAII (Michael W. Deem and Ramdas Pophale) SiO2 
 PCOD8150259
Probable space group: C 2/C
;
_chemical_formula_sum "Si O2"
_cell_formula_units_Z 44
_cell_length_a 11.913916
_cell_length_b 14.526309
_cell_length_c 12.650779
_cell_angle_alpha 90.000000
_cell_angle_beta 113.957738
_cell_angle_gamma 90.000000
_cell_volume 2000.781793
_symmetry_space_group_name_H-M "C 2/C"
_symmetry_group_IT_number 15
_symmetry_cell_setting 'monoclinic'
loop_
_space_group_symop_operation_xyz
x,y,z
-x,y,1/2-z
-x,-y,-z
x,-y,1/2+z
1/2+x,1/2+y,z
1/2-x,1/2+y,1/2-z
1/2-x,1/2-y,-z
1/2+x,1/2-y,1/2+z
loop_
_atom_site_type_symbol
_atom_site_label
_atom_site_fract_x
_atom_site_fract_y
_atom_site_fract_z
Si Si1 0.991126 0.129559 0.051715
Si Si2 0.056683 0.252973 0.663866
Si Si3 0.205774 0.004507 0.099455
Si Si4 0.080133 0.424427 0.969481
Si Si5 0.790452 0.648901 0.780087
Si Si6 0.000000 0.744410 0.750000
O O1 0.957718 0.193607 0.136614
O O2 0.130142 0.091801 0.114526
O O3 0.991600 0.188202 0.946228
O O4 0.886870 0.050835 0.013139
O O5 0.201497 0.237863 0.738228
O O6 0.000000 0.216023 0.750000
O O7 0.018861 0.358564 0.626514
O O8 0.233395 0.945641 0.214900
O O9 0.329178 0.031872 0.083414
O O10 0.162056 0.365476 0.082546
O O11 0.000000 0.500000 0.000000
O O12 0.895610 0.673285 0.739121
#
# Coordination Sequence:
#
# PCOD8150259 Si02
#       6
#     8   8   8   8   8   4
#     4  10  24  45  69 103 133 188 231 286 345 413
#     4  11  26  46  73 100 138 183 232 286 353 417
#     4  10  25  44  69 100 139 178 237 285 347 409
#     4  12  27  44  71 106 143 180 235 288 353 416
#     4  11  26  45  69 102 141 180 229 288 345 415
#     4  12  24  42  72  96 142 180 234 272 356 408
#
# _framework density 21.991402000000001
#
# number of rings (size 3 to 8) (size 9 to 14) (size 15 to 20)
#    0.000    1.091    1.818    2.182   10.182    2.909 
#    3.273    0.000    0.000    0.000    0.000    0.000 
#    0.000    0.000    0.000    0.000    0.000    0.000 
#
# Total GULP energy -272787.788159 kJ/mol
# GULP energy per Si atom -12399.444916 kJ/mol
# Density = 2.194135 g / cm^3
# Si number density = 21.991402 Si / 1000 Ang^3
#
#
#
# Elastic Constant Matrix: (Units=GPa)
#
#
# Indices 1 2 3 4 5 6 
#
# 1 99.5499 24.0054 8.3565 0.0000 2.6601 0.0000
# 2 24.0054 78.3111 22.3567 0.0000 6.5044 0.0000
# 3 8.3565 22.3567 108.3193 0.0000 -1.8555 0.0000
# 4 0.0000 0.0000 0.0000 104.1533 0.0000 -6.0269
# 5 2.6601 6.5044 -1.8555 0.0000 35.0653 0.0000
# 6 0.0000 0.0000 0.0000 -6.0269 0.0000 53.0334
#
#
#
# Elastic Compliance Matrix: (Units=1/GPa)
#
#
# Indices 1 2 3 4 5 6 
#
# 1 0.010851 -0.003259 -0.000168 0.000000 -0.000227 0.000000
# 2 -0.003259 0.014802 -0.002849 0.000000 -0.002649 0.000000
# 3 -0.000168 -0.002849 0.009851 0.000000 0.001063 0.000000
# 4 0.000000 0.000000 0.000000 0.009665 0.000000 0.001098
# 5 -0.000227 -0.002649 0.001063 0.000000 0.029083 0.000000
# 6 0.000000 0.000000 0.000000 0.001098 0.000000 0.018981
#
#
# Mechanical properties :
#
#
# Convention : Reuss Voigt Hill
#
# Bulk Modulus (GPa) = 43.57079 43.95749 43.76414
# Shear Modulus (GPa) = 44.07717 53.88117 48.97917
#
# Velocity S-wave (km/s) = 4.48179 4.95522 4.72444
# Velocity P-wave (km/s) = 6.82917 7.26435 7.05012
#
# Compressibility (1/GPa) = 0.02295116
#
# Stress axis : x y z
#
# Youngs Moduli (GPa) = 92.15400 67.55785 101.51070
#
# Poissons Ratio (x) = 0.22020 0.01709
# Poissons Ratio (y) = 0.30037 0.28921
# Poissons Ratio (z) = 0.01551 0.19247
#
# Static dielectric constant tensor:
#      x y z
#    x 3.991630 0.000000 0.077590 
#    y 0.000000 4.078680 0.000000 
#    z 0.077590 0.000000 3.922390 
# 
# 
# High freq. dielectric constant tensor:
#      x y z
#    x 1.875650 0.000000 0.002720 
#    y 0.000000 1.873640 0.000000 
#    z 0.002720 0.000000 1.871280 
# 
# From -- ./inp_files/86187.got.cif
#   From: 2010.06.25/outbox.cif.g09.slc.cpg/sg15_44_cif.got.tgz:86187.got - 2010.06.28 07:06:18.
