data_PCOD8150307
_publ_section_title
;
Structure prediction by ZEFSAII (Michael W. Deem and Ramdas Pophale) SiO2 
 PCOD8150307
Probable space group: C 2/C
;
_chemical_formula_sum "Si O2"
_cell_formula_units_Z 60
_cell_length_a 17.387789
_cell_length_b 14.336744
_cell_length_c 11.227455
_cell_angle_alpha 90.000000
_cell_angle_beta 110.747498
_cell_angle_gamma 90.000000
_cell_volume 2617.325937
_symmetry_space_group_name_H-M "C 2/C"
_symmetry_group_IT_number 15
_symmetry_cell_setting 'monoclinic'
loop_
_space_group_symop_operation_xyz
x,y,z
-x,y,1/2-z
-x,-y,-z
x,-y,1/2+z
1/2+x,1/2+y,z
1/2-x,1/2+y,1/2-z
1/2-x,1/2-y,-z
1/2+x,1/2-y,1/2+z
loop_
_atom_site_type_symbol
_atom_site_label
_atom_site_fract_x
_atom_site_fract_y
_atom_site_fract_z
Si Si1 0.462479 0.655229 0.417475
Si Si2 0.110958 0.858412 0.370628
Si Si3 0.189666 0.761342 0.781149
Si Si4 0.563654 0.825915 0.383471
Si Si5 0.407587 0.152692 0.186652
Si Si6 0.173439 0.408766 0.626241
Si Si7 0.788598 0.614312 0.913776
Si Si8 0.500000 0.489372 0.750000
O O1 0.448230 0.634948 0.547302
O O2 0.373032 0.666159 0.311303
O O3 0.516494 0.747813 0.432946
O O4 0.509549 0.572765 0.374253
O O5 0.094259 0.763369 0.289216
O O6 0.208185 0.866627 0.451609
O O7 0.081118 0.946251 0.276017
O O8 0.146113 0.712911 0.868645
O O9 0.266437 0.822063 0.869006
O O10 0.216359 0.682075 0.702133
O O11 0.500000 0.868132 0.250000
O O12 0.594241 0.903213 0.494375
O O13 0.500000 0.114748 0.250000
O O14 0.353509 0.096623 0.251506
O O15 0.370648 0.135236 0.034435
O O16 0.215588 0.508283 0.632386
#
# Coordination Sequence:
#
# PCOD8150307 Si02
#       8
#     8   8   8   8   8   8   8   4
#     4  11  22  45  72 101 143 187 229 303 366 426
#     4  12  24  45  72 106 148 184 241 304 367 432
#     4  11  22  48  71 101 154 186 236 299 369 438
#     4  10  24  45  74  99 144 190 235 300 372 421
#     4  12  26  49  73 105 145 193 251 303 366 432
#     4  12  27  46  73 109 140 194 252 294 363 453
#     4  12  28  45  75 108 149 198 238 306 370 430
#     4  12  24  42  70 112 134 188 252 292 372 442
#
# _framework density 22.924161000000002
#
# number of rings (size 3 to 8) (size 9 to 14) (size 15 to 20)
#    0.000    0.533    5.333    3.600    3.733    1.067 
#    0.000    0.000    0.000    0.000    0.000    0.000 
#    0.000    0.000    0.000    0.000    0.000    0.000 
#
# Total GULP energy -372055.120979 kJ/mol
# GULP energy per Si atom -12401.837366 kJ/mol
# Density = 2.287198 g / cm^3
# Si number density = 22.924161 Si / 1000 Ang^3
#
#
#
# Elastic Constant Matrix: (Units=GPa)
#
#
# Indices 1 2 3 4 5 6 
#
# 1 122.7553 29.5677 30.6430 0.0000 -0.7306 0.0000
# 2 29.5677 104.8631 33.3479 0.0000 1.3979 0.0000
# 3 30.6430 33.3479 68.8120 0.0000 11.0646 0.0000
# 4 0.0000 0.0000 0.0000 24.5269 0.0000 4.0150
# 5 -0.7306 1.3979 11.0646 0.0000 39.6416 0.0000
# 6 0.0000 0.0000 0.0000 4.0150 0.0000 28.8920
#
#
#
# Elastic Compliance Matrix: (Units=1/GPa)
#
#
# Indices 1 2 3 4 5 6 
#
# 1 0.009434 -0.001509 -0.003671 0.000000 0.001252 0.000000
# 2 -0.001509 0.011568 -0.005093 0.000000 0.000986 0.000000
# 3 -0.003671 -0.005093 0.019492 0.000000 -0.005329 0.000000
# 4 0.000000 0.000000 0.000000 0.041721 0.000000 -0.005798
# 5 0.001252 0.000986 -0.005329 0.000000 0.026702 0.000000
# 6 0.000000 0.000000 0.000000 -0.005798 0.000000 0.035417
#
#
# Mechanical properties :
#
#
# Convention : Reuss Voigt Hill
#
# Bulk Modulus (GPa) = 50.12955 53.72750 51.92853
# Shear Modulus (GPa) = 29.14979 32.13688 30.64334
#
# Velocity S-wave (km/s) = 3.56978 3.74823 3.66009
# Velocity P-wave (km/s) = 6.23748 6.49771 6.36892
#
# Compressibility (1/GPa) = 0.01994831
#
# Stress axis : x y z
#
# Youngs Moduli (GPa) = 106.00428 86.44401 51.30366
#
# Poissons Ratio (x) = 0.13047 0.18832
# Poissons Ratio (y) = 0.15999 0.26127
# Poissons Ratio (z) = 0.38911 0.44023
#
# Static dielectric constant tensor:
#      x y z
#    x 4.227660 0.000000 -0.004410 
#    y 0.000000 4.008390 0.000000 
#    z -0.004410 0.000000 4.005130 
# 
# 
# High freq. dielectric constant tensor:
#      x y z
#    x 1.914700 0.000000 0.001650 
#    y 0.000000 1.901230 0.000000 
#    z 0.001650 0.000000 1.901090 
# 
# From -- ./inp_files/105761.got.cif
#   From: 2010.06.25/outbox.cif.g09.slc.cpg/sg15_53_cif.got.tgz:105761.got - 2010.06.28 07:06:18.
