data_PCOD8150007
_publ_section_title
;
Structure prediction by ZEFSAII (Michael W. Deem and Ramdas Pophale) SiO2 
 PCOD8150007
Probable space group: C 2/C
;
_chemical_formula_sum "Si O2"
_cell_formula_units_Z 56
_cell_length_a 21.564707
_cell_length_b 13.900535
_cell_length_c 17.969385
_cell_angle_alpha 90.000000
_cell_angle_beta 27.327451
_cell_angle_gamma 90.000000
_cell_volume 2472.818084
_symmetry_space_group_name_H-M "C 2/C"
_symmetry_group_IT_number 15
_symmetry_cell_setting 'monoclinic'
loop_
_space_group_symop_operation_xyz
x,y,z
-x,y,1/2-z
-x,-y,-z
x,-y,1/2+z
1/2+x,1/2+y,z
1/2-x,1/2+y,1/2-z
1/2-x,1/2-y,-z
1/2+x,1/2-y,1/2+z
loop_
_atom_site_type_symbol
_atom_site_label
_atom_site_fract_x
_atom_site_fract_y
_atom_site_fract_z
Si Si1 0.036299 0.784266 0.488842
Si Si2 0.342095 0.166583 0.432152
Si Si3 0.851230 0.664727 0.903529
Si Si4 0.566007 0.865423 0.510150
Si Si5 0.739762 0.349641 0.675238
Si Si6 0.174225 0.487576 0.667730
Si Si7 0.709744 0.533055 0.808769
O O1 0.149496 0.720902 0.407660
O O2 0.088574 0.893303 0.419786
O O3 0.001174 0.733981 0.446967
O O4 0.900312 0.789918 0.684138
O O5 0.500000 0.187682 0.250000
O O6 0.250000 0.250000 0.500000
O O7 0.326747 0.155528 0.537554
O O8 0.287179 0.073898 0.446184
O O9 0.857237 0.593538 0.827674
O O10 0.000000 0.709495 0.750000
O O11 0.750000 0.750000 0.000000
O O12 0.799968 0.611725 0.033396
O O13 0.455427 0.940960 0.655252
O O14 0.647233 0.913319 0.355890
O O15 0.702174 0.440196 0.765465
O O16 0.293724 0.497138 0.601344
#
# Coordination Sequence:
#
# PCOD8150007 Si02
#       7
#     8   8   8   8   8   8   8
#     4  12  26  45  73 110 147 189 248 305 365 439
#     4  10  24  43  69 101 138 183 230 287 358 428
#     4  12  26  46  72  99 143 187 239 293 355 433
#     4  11  24  44  75 102 146 193 243 296 366 443
#     4  12  26  47  72 109 144 193 242 302 372 432
#     4  11  24  46  68 109 136 187 240 291 361 437
#     4  12  25  43  74 106 146 186 246 304 366 431
#
# _framework density 22.646227
#
# number of rings (size 3 to 8) (size 9 to 14) (size 15 to 20)
#    0.000    0.571    2.857    5.571    8.000    0.000 
#    0.000    0.714    0.000    0.000    0.000    0.000 
#    0.000    0.000    0.000    0.000    0.000    0.000 
#
# Total GULP energy -347163.847514 kJ/mol
# GULP energy per Si atom -12398.708840 kJ/mol
# Density = 2.259468 g / cm^3
# Si number density = 22.646227 Si / 1000 Ang^3
#
#
#
# Elastic Constant Matrix: (Units=GPa)
#
#
# Indices 1 2 3 4 5 6 
#
# 1 128.8552 54.9868 43.5704 0.0004 1.1353 -0.0003
# 2 54.9868 119.2710 49.1273 0.0002 -17.4884 -0.0001
# 3 43.5704 49.1273 107.6338 0.0009 -8.7467 -0.0007
# 4 0.0004 0.0002 0.0009 34.2910 -0.0007 0.7453
# 5 1.1353 -17.4884 -8.7467 -0.0007 30.8811 0.0005
# 6 -0.0003 -0.0001 -0.0007 0.7453 0.0005 48.3079
#
#
#
# Elastic Compliance Matrix: (Units=1/GPa)
#
#
# Indices 1 2 3 4 5 6 
#
# 1 0.010497 -0.004299 -0.002576 0.000000 -0.003550 0.000000
# 2 -0.004299 0.012773 -0.003571 0.000000 0.006380 0.000000
# 3 -0.002576 -0.003571 0.012085 0.000000 0.001495 0.000000
# 4 0.000000 0.000000 0.000000 0.029172 0.000001 -0.000450
# 5 -0.003550 0.006380 0.001495 0.000001 0.036549 0.000000
# 6 0.000000 0.000000 0.000000 -0.000450 0.000000 0.020707
#
#
# Mechanical properties :
#
#
# Convention : Reuss Voigt Hill
#
# Bulk Modulus (GPa) = 69.14095 72.34767 70.74431
# Shear Modulus (GPa) = 33.89910 36.56771 35.23340
#
# Velocity S-wave (km/s) = 3.87317 4.02274 3.94866
# Velocity P-wave (km/s) = 7.11331 7.32071 7.21775
#
# Compressibility (1/GPa) = 0.01446321
#
# Stress axis : x y z
#
# Youngs Moduli (GPa) = 95.26116 78.29191 82.74862
#
# Poissons Ratio (x) = 0.33660 0.21313
# Poissons Ratio (y) = 0.40955 0.29550
# Poissons Ratio (z) = 0.24535 0.27958
#
# Static dielectric constant tensor:
#      x y z
#    x 4.517480 0.000000 0.333070 
#    y 0.000000 4.101520 0.000000 
#    z 0.333070 0.000000 4.343850 
# 
# 
# High freq. dielectric constant tensor:
#      x y z
#    x 1.903860 0.000000 0.004240 
#    y 0.000000 1.901240 0.000000 
#    z 0.004240 0.000000 1.886780 
# 
# From -- ./inp_files/215721.got.cif
#   From: 2010.06.25/outbox.cif.g09.slc.cpg/sg15_108_cif.got.tgz:215721.got - 2010.06.28 07:06:18.
