data_PCOD8150677
_publ_section_title
;
Structure prediction by ZEFSAII (Michael W. Deem and Ramdas Pophale) SiO2 
 PCOD8150677
Probable space group: C 2/C
;
_chemical_formula_sum "Si O2"
_cell_formula_units_Z 44
_cell_length_a 19.833252
_cell_length_b 9.298152
_cell_length_c 24.708314
_cell_angle_alpha 90.000000
_cell_angle_beta 25.168407
_cell_angle_gamma 90.000000
_cell_volume 1937.800004
_symmetry_space_group_name_H-M "C 2/C"
_symmetry_group_IT_number 15
_symmetry_cell_setting 'monoclinic'
loop_
_space_group_symop_operation_xyz
x,y,z
-x,y,1/2-z
-x,-y,-z
x,-y,1/2+z
1/2+x,1/2+y,z
1/2-x,1/2+y,1/2-z
1/2-x,1/2-y,-z
1/2+x,1/2-y,1/2+z
loop_
_atom_site_type_symbol
_atom_site_label
_atom_site_fract_x
_atom_site_fract_y
_atom_site_fract_z
Si Si1 0.885581 0.478894 0.031377
Si Si2 0.323549 0.467255 0.644390
Si Si3 0.821221 0.178771 0.041224
Si Si4 0.500000 0.058437 0.250000
Si Si5 0.078736 0.046696 0.312052
Si Si6 0.032522 0.638097 0.830858
O O1 0.910049 0.332158 0.978512
O O2 0.700859 0.478196 0.181161
O O3 0.000000 0.500000 0.000000
O O4 0.917573 0.603341 0.964748
O O5 0.500000 0.500000 0.500000
O O6 0.268651 0.347112 0.641915
O O7 0.319296 0.409654 0.708668
O O8 0.213501 0.607940 0.718227
O O9 0.653222 0.163309 0.132298
O O10 0.940221 0.064014 0.927856
O O11 0.504149 0.953357 0.195602
O O12 0.008216 0.192393 0.337264
#
# Coordination Sequence:
#
# PCOD8150677 Si02
#       6
#     8   8   8   4   8   8
#     4  12  26  41  75 110 145 180 240 299 375 432
#     4   9  20  37  68  94 142 180 230 294 364 418
#     4  10  25  46  69 104 142 196 237 296 356 426
#     4  10  26  52  74  90 152 200 252 286 348 426
#     4  11  25  42  70 107 144 179 242 304 365 420
#     4  11  25  44  69 102 142 194 239 296 359 433
#
# _framework density 22.706161000000002
#
# number of rings (size 3 to 8) (size 9 to 14) (size 15 to 20)
#    0.000    1.455    1.818    1.091   17.818    1.455 
#    0.000    0.000    0.000    0.000    0.000    0.000 
#    0.000    0.000    0.000    0.000    0.000    0.000 
#
# Total GULP energy -272638.887546 kJ/mol
# GULP energy per Si atom -12392.676707 kJ/mol
# Density = 2.265448 g / cm^3
# Si number density = 22.706161 Si / 1000 Ang^3
#
#
#
# Elastic Constant Matrix: (Units=GPa)
#
#
# Indices 1 2 3 4 5 6 
#
# 1 85.4114 20.7476 36.5854 -0.0005 -7.1500 0.0001
# 2 20.7476 125.8449 37.3242 -0.0196 -14.0235 -0.0023
# 3 36.5854 37.3242 141.8673 -0.0460 -2.8520 -0.0063
# 4 -0.0005 -0.0196 -0.0460 36.5495 -0.0014 0.4501
# 5 -7.1500 -14.0235 -2.8520 -0.0014 37.2291 0.0013
# 6 0.0001 -0.0023 -0.0063 0.4501 0.0013 26.7506
#
#
#
# Elastic Compliance Matrix: (Units=1/GPa)
#
#
# Indices 1 2 3 4 5 6 
#
# 1 0.013483 -0.001070 -0.003156 -0.000004 0.001945 -0.000001
# 2 -0.001070 0.009071 -0.002049 0.000002 0.003054 0.000000
# 3 -0.003156 -0.002049 0.008387 0.000009 -0.000736 0.000002
# 4 -0.000004 0.000002 0.000009 0.027366 0.000002 -0.000460
# 5 0.001945 0.003054 -0.000736 0.000002 0.028328 -0.000001
# 6 -0.000001 0.000000 0.000002 -0.000460 -0.000001 0.037390
#
#
# Mechanical properties :
#
#
# Convention : Reuss Voigt Hill
#
# Bulk Modulus (GPa) = 54.37838 60.27090 57.32464
# Shear Modulus (GPa) = 35.03711 37.33695 36.18703
#
# Velocity S-wave (km/s) = 3.93245 4.05946 3.99646
# Velocity P-wave (km/s) = 6.67979 6.96949 6.82618
#
# Compressibility (1/GPa) = 0.01838966
#
# Stress axis : x y z
#
# Youngs Moduli (GPa) = 74.16881 110.24390 119.23010
#
# Poissons Ratio (x) = 0.11796 0.37634
# Poissons Ratio (y) = 0.07936 0.24432
# Poissons Ratio (z) = 0.23411 0.22590
#
# Static dielectric constant tensor:
#      x y z
#    x 4.985240 0.000040 0.157080 
#    y 0.000040 3.915300 0.000030 
#    z 0.157080 0.000030 4.220440 
# 
# 
# High freq. dielectric constant tensor:
#      x y z
#    x 1.888090 0.000000 0.010120 
#    y 0.000000 1.884010 0.000000 
#    z 0.010120 0.000000 1.909850 
# 
# From -- ./inp_files/318560.got.cif
#   From: 2010.06.25/outbox.cif.g09.slc.cpg/sg15_160_cif.got.tgz:318560.got - 2010.06.28 07:06:18.
