data_PCOD8150559
_publ_section_title
;
Structure prediction by ZEFSAII (Michael W. Deem and Ramdas Pophale) SiO2 
 PCOD8150559
Probable space group: C 2/C
;
_chemical_formula_sum "Si O2"
_cell_formula_units_Z 36
_cell_length_a 24.914947
_cell_length_b 5.258282
_cell_length_c 12.219583
_cell_angle_alpha 90.000000
_cell_angle_beta 90.677325
_cell_angle_gamma 90.000000
_cell_volume 1600.773477
_symmetry_space_group_name_H-M "C 2/C"
_symmetry_group_IT_number 15
_symmetry_cell_setting 'monoclinic'
loop_
_space_group_symop_operation_xyz
x,y,z
-x,y,1/2-z
-x,-y,-z
x,-y,1/2+z
1/2+x,1/2+y,z
1/2-x,1/2+y,1/2-z
1/2-x,1/2-y,-z
1/2+x,1/2-y,1/2+z
loop_
_atom_site_type_symbol
_atom_site_label
_atom_site_fract_x
_atom_site_fract_y
_atom_site_fract_z
Si Si1 0.334604 0.686731 0.504189
Si Si2 0.562934 0.913857 0.061523
Si Si3 0.000000 0.748101 0.750000
Si Si4 0.752797 0.632783 0.176562
Si Si5 0.937772 0.077631 0.057329
O O1 0.372193 0.893408 0.442417
O O2 0.306400 0.816402 0.607888
O O3 0.372724 0.460676 0.552730
O O4 0.293907 0.577791 0.412942
O O5 0.539665 0.937784 0.182850
O O6 0.536451 0.651176 0.013520
O O7 0.544683 0.148613 0.988301
O O8 0.960328 0.931985 0.680820
O O9 0.739783 0.880076 0.250407
#
# Coordination Sequence:
#
# PCOD8150559 Si02
#       5
#     8   8   4   8   8
#     4   9  26  45  68  99 143 167 229 287 331 400
#     4  10  25  42  68  96 140 174 226 280 330 395
#     4  12  24  44  72 100 134 192 228 266 342 400
#     4  11  26  42  73 102 133 178 226 278 348 407
#     4  10  25  44  65  97 137 176 223 281 327 399
#
# _framework density 22.489129999999999
#
# number of rings (size 3 to 8) (size 9 to 14) (size 15 to 20)
#    1.333    0.444    0.000    1.333    9.333    5.333 
#    0.000    0.000    0.000    0.000    0.000    0.000 
#    0.000    0.000    0.000    0.000    0.000    0.000 
#
# Total GULP energy -223078.343663 kJ/mol
# GULP energy per Si atom -12393.241315 kJ/mol
# Density = 2.243794 g / cm^3
# Si number density = 22.489130 Si / 1000 Ang^3
#
#
#
# Elastic Constant Matrix: (Units=GPa)
#
#
# Indices 1 2 3 4 5 6 
#
# 1 132.9454 47.7027 81.6168 0.0000 -10.9287 0.0000
# 2 47.7027 128.6574 45.0592 0.0000 4.4637 0.0000
# 3 81.6168 45.0592 144.9925 0.0000 -1.5195 0.0000
# 4 0.0000 0.0000 0.0000 27.7608 0.0000 4.6879
# 5 -10.9287 4.4637 -1.5195 0.0000 50.3143 0.0000
# 6 0.0000 0.0000 0.0000 4.6879 0.0000 17.6055
#
#
#
# Elastic Compliance Matrix: (Units=1/GPa)
#
#
# Indices 1 2 3 4 5 6 
#
# 1 0.012466 -0.002547 -0.006197 0.000000 0.002747 0.000000
# 2 -0.002547 0.009279 -0.001465 0.000000 -0.001421 0.000000
# 3 -0.006197 -0.001465 0.010831 0.000000 -0.000889 0.000000
# 4 0.000000 0.000000 0.000000 0.037718 0.000000 -0.010043
# 5 0.002747 -0.001421 -0.000889 0.000000 0.020571 0.000000
# 6 0.000000 0.000000 0.000000 -0.010043 0.000000 0.059475
#
#
# Mechanical properties :
#
#
# Convention : Reuss Voigt Hill
#
# Bulk Modulus (GPa) = 82.24476 83.92808 83.08642
# Shear Modulus (GPa) = 28.60252 34.61722 31.60987
#
# Velocity S-wave (km/s) = 3.57015 3.92763 3.75315
# Velocity P-wave (km/s) = 7.32427 7.61372 7.47040
#
# Compressibility (1/GPa) = 0.01215883
#
# Stress axis : x y z
#
# Youngs Moduli (GPa) = 80.21934 107.76697 92.32766
#
# Poissons Ratio (x) = 0.27449 0.57213
# Poissons Ratio (y) = 0.20432 0.13525
# Poissons Ratio (z) = 0.49710 0.15786
#
# Static dielectric constant tensor:
#      x y z
#    x 4.233570 0.000000 -0.092340 
#    y 0.000000 3.725290 0.000000 
#    z -0.092340 0.000000 3.996570 
# 
# 
# High freq. dielectric constant tensor:
#      x y z
#    x 1.919680 0.000000 -0.002140 
#    y 0.000000 1.871820 0.000000 
#    z -0.002140 0.000000 1.881880 
# 
# From -- ./inp_files/124631.got.cif
#   From: 2010.06.25/outbox.cif.g09.slc.cpg/sg15_63_cif.got.tgz:124631.got - 2010.06.28 07:06:18.
