data_PCOD8150011
_publ_section_title
;
Structure prediction by ZEFSAII (Michael W. Deem and Ramdas Pophale) SiO2 
 PCOD8150011
Probable space group: C 2/C
;
_chemical_formula_sum "Si O2"
_cell_formula_units_Z 40
_cell_length_a 6.737628
_cell_length_b 22.484863
_cell_length_c 9.693569
_cell_angle_alpha 90.000000
_cell_angle_beta 78.337588
_cell_angle_gamma 90.000000
_cell_volume 1438.207030
_symmetry_space_group_name_H-M "C 2/C"
_symmetry_group_IT_number 15
_symmetry_cell_setting 'monoclinic'
loop_
_space_group_symop_operation_xyz
x,y,z
-x,y,1/2-z
-x,-y,-z
x,-y,1/2+z
1/2+x,1/2+y,z
1/2-x,1/2+y,1/2-z
1/2-x,1/2-y,-z
1/2+x,1/2-y,1/2+z
loop_
_atom_site_type_symbol
_atom_site_label
_atom_site_fract_x
_atom_site_fract_y
_atom_site_fract_z
Si Si1 0.013539 0.759995 0.525440
Si Si2 0.843743 0.124861 0.164859
Si Si3 0.731491 0.464556 0.050870
Si Si4 0.500000 0.204456 0.250000
Si Si5 0.000000 0.329605 0.250000
Si Si6 0.256977 0.563048 0.650704
O O1 0.250000 0.750000 0.500000
O O2 0.923628 0.744126 0.387998
O O3 0.905852 0.714378 0.648177
O O4 0.974269 0.829128 0.557121
O O5 0.683385 0.162588 0.276019
O O6 0.000000 0.091421 0.250000
O O7 0.721026 0.081373 0.080128
O O8 0.840269 0.456741 0.185132
O O9 0.494517 0.452395 0.114988
O O10 0.812091 0.527704 0.978636
O O11 0.816223 0.368438 0.344859
#
# Coordination Sequence:
#
# PCOD8150011 Si02
#       6
#     8   8   8   4   4   8
#     4  12  24  46  69 105 145 190 238 293 365 434
#     4  12  25  43  70 103 141 187 235 297 357 431
#     4  10  24  44  66  97 134 185 235 287 360 415
#     4  12  26  41  70 100 142 187 236 290 358 438
#     4  12  24  43  70 106 144 179 238 296 356 426
#     4  10  24  43  69  98 136 182 235 297 349 425
#
# _framework density 27.812407
#
# number of rings (size 3 to 8) (size 9 to 14) (size 15 to 20)
#    0.000    0.800    3.000    3.000    5.600    4.800 
#    0.000    0.000    0.000    0.000    0.000    0.000 
#    0.000    0.000    0.000    0.000    0.000    0.000 
#
# Total GULP energy -247779.504271 kJ/mol
# GULP energy per Si atom -12388.975214 kJ/mol
# Density = 2.774910 g / cm^3
# Si number density = 27.812407 Si / 1000 Ang^3
#
#
#
# Elastic Constant Matrix: (Units=GPa)
#
#
# Indices 1 2 3 4 5 6 
#
# 1 27.2039 -12.6164 -1.8987 0.0000 0.8215 0.0000
# 2 -12.6164 85.9379 37.0562 0.0000 5.3450 0.0000
# 3 -1.8987 37.0562 165.5503 0.0000 27.7233 0.0000
# 4 0.0000 0.0000 0.0000 39.9058 0.0000 -5.8170
# 5 0.8215 5.3450 27.7233 0.0000 54.6710 0.0000
# 6 0.0000 0.0000 0.0000 -5.8170 0.0000 41.2310
#
#
#
# Elastic Compliance Matrix: (Units=1/GPa)
#
#
# Indices 1 2 3 4 5 6 
#
# 1 0.039608 0.006210 -0.000803 0.000000 -0.000795 0.000000
# 2 0.006210 0.013856 -0.003046 0.000000 0.000097 0.000000
# 3 -0.000803 -0.003046 0.007279 0.000000 -0.003381 0.000000
# 4 0.000000 0.000000 0.000000 0.025585 0.000000 0.003610
# 5 -0.000795 0.000097 -0.003381 0.000000 0.020008 0.000000
# 6 0.000000 0.000000 0.000000 0.003610 0.000000 0.024763
#
#
# Mechanical properties :
#
#
# Convention : Reuss Voigt Hill
#
# Bulk Modulus (GPa) = 15.27534 35.97495 25.62515
# Shear Modulus (GPa) = 33.73860 44.23830 38.98845
#
# Velocity S-wave (km/s) = 3.48670 3.99255 3.74817
# Velocity P-wave (km/s) = 4.65979 5.84952 5.28822
#
# Compressibility (1/GPa) = 0.06546499
#
# Stress axis : x y z
#
# Youngs Moduli (GPa) = 25.24772 72.17303 137.37382
#
# Poissons Ratio (x) = -0.44821 0.11026
# Poissons Ratio (y) = -0.15680 0.41849
# Poissons Ratio (z) = 0.02027 0.21987
#
# Static dielectric constant tensor:
#      x y z
#    x 5.097900 0.000000 0.148220 
#    y 0.000000 4.933030 0.000000 
#    z 0.148220 0.000000 5.777210 
# 
# 
# High freq. dielectric constant tensor:
#      x y z
#    x 2.134700 0.000000 -0.007700 
#    y 0.000000 2.109390 0.000000 
#    z -0.007700 0.000000 2.138590 
# 
# From -- ./inp_files/23512.got.cif
#   From: 2010.06.25/outbox.cif.g09.slc.cpg/sg15_12_cif.got.tgz:23512.got - 2010.06.28 07:06:18.
