data_PCOD8150203
_publ_section_title
;
Structure prediction by ZEFSAII (Michael W. Deem and Ramdas Pophale) SiO2 
 PCOD8150203
Probable space group: C 2/C
;
_chemical_formula_sum "Si O2"
_cell_formula_units_Z 48
_cell_length_a 22.715773
_cell_length_b 6.927015
_cell_length_c 16.690433
_cell_angle_alpha 90.000000
_cell_angle_beta 49.687028
_cell_angle_gamma 90.000000
_cell_volume 2002.596988
_symmetry_space_group_name_H-M "C 2/C"
_symmetry_group_IT_number 15
_symmetry_cell_setting 'monoclinic'
loop_
_space_group_symop_operation_xyz
x,y,z
-x,y,1/2-z
-x,-y,-z
x,-y,1/2+z
1/2+x,1/2+y,z
1/2-x,1/2+y,1/2-z
1/2-x,1/2-y,-z
1/2+x,1/2-y,1/2+z
loop_
_atom_site_type_symbol
_atom_site_label
_atom_site_fract_x
_atom_site_fract_y
_atom_site_fract_z
Si Si1 0.085873 0.131235 0.083989
Si Si2 0.705592 0.569303 0.730415
Si Si3 0.650672 0.777762 0.185455
Si Si4 0.498987 0.005292 0.655453
Si Si5 0.729729 0.450903 0.881030
Si Si6 0.526928 0.611124 0.896057
O O1 0.120826 0.141119 0.141071
O O2 0.070964 0.353654 0.070215
O O3 0.141856 0.004188 0.979049
O O4 0.003121 0.020608 0.152113
O O5 0.703270 0.359945 0.693194
O O6 0.747879 0.539279 0.777672
O O7 0.617875 0.643029 0.815701
O O8 0.755260 0.720722 0.633508
O O9 0.579819 0.878544 0.294217
O O10 0.710879 0.948589 0.108173
O O11 0.500000 0.951145 0.750000
O O12 0.508676 0.824081 0.587578
O O13 0.500000 0.500000 0.000000
#
# Coordination Sequence:
#
# PCOD8150203 Si02
#       6
#     8   8   8   8   8   8
#     4  11  26  44  71 109 142 185 250 306 354 442
#     4  12  25  43  71 101 143 195 236 297 373 436
#     4  11  24  45  73 101 145 190 239 297 365 441
#     4  10  24  44  73 104 144 192 237 300 368 430
#     4  12  25  46  68 102 146 187 238 300 375 432
#     4  12  25  44  70 106 145 187 253 304 360 428
#
# _framework density 23.968878
#
# number of rings (size 3 to 8) (size 9 to 14) (size 15 to 20)
#    0.000    0.667    6.667    0.500    2.333    2.667 
#    3.000    0.000    0.000    0.000    0.000    0.000 
#    0.000    0.000    0.000    0.000    0.000    0.000 
#
# Total GULP energy -297394.058809 kJ/mol
# GULP energy per Si atom -12391.419117 kJ/mol
# Density = 2.391432 g / cm^3
# Si number density = 23.968878 Si / 1000 Ang^3
#
#
#
# Elastic Constant Matrix: (Units=GPa)
#
#
# Indices 1 2 3 4 5 6 
#
# 1 102.1216 44.1204 11.2186 -0.0205 -2.0217 0.0077
# 2 44.1204 163.9382 49.6388 -0.1103 3.9345 0.0034
# 3 11.2186 49.6388 66.6519 0.0065 -6.1856 -0.0019
# 4 -0.0205 -0.1103 0.0065 38.6708 -0.0195 -2.9695
# 5 -2.0217 3.9345 -6.1856 -0.0195 24.1785 -0.0084
# 6 0.0077 0.0034 -0.0019 -2.9695 -0.0084 53.5078
#
#
#
# Elastic Compliance Matrix: (Units=1/GPa)
#
#
# Indices 1 2 3 4 5 6 
#
# 1 0.011153 -0.003252 0.000697 -0.000003 0.001640 -0.000001
# 2 -0.003252 0.009021 -0.006486 0.000023 -0.003399 0.000000
# 3 0.000697 -0.006486 0.020302 -0.000018 0.006308 0.000001
# 4 -0.000003 0.000023 -0.000018 0.025970 0.000013 0.001441
# 5 0.001640 -0.003399 0.006308 0.000013 0.043663 0.000008
# 6 -0.000001 0.000000 0.000001 0.001441 0.000008 0.018769
#
#
# Mechanical properties :
#
#
# Convention : Reuss Voigt Hill
#
# Bulk Modulus (GPa) = 44.65656 60.29635 52.47645
# Shear Modulus (GPa) = 32.37827 38.45369 35.41598
#
# Velocity S-wave (km/s) = 3.67937 4.00974 3.84810
# Velocity P-wave (km/s) = 6.05986 6.82994 6.45639
#
# Compressibility (1/GPa) = 0.02239313
#
# Stress axis : x y z
#
# Youngs Moduli (GPa) = 89.66079 110.85739 49.25633
#
# Poissons Ratio (x) = 0.36051 -0.03432
# Poissons Ratio (y) = 0.29158 0.31948
# Poissons Ratio (z) = -0.06248 0.71904
#
# Static dielectric constant tensor:
#      x y z
#    x 4.590100 -0.000060 -0.145140 
#    y -0.000060 4.416460 0.000040 
#    z -0.145140 0.000040 3.812560 
# 
# 
# High freq. dielectric constant tensor:
#      x y z
#    x 1.972690 -0.000010 -0.016680 
#    y -0.000010 1.965310 0.000000 
#    z -0.016680 0.000000 1.907310 
# 
# From -- ./inp_files/254251.got.cif
#   From: 2010.06.25/outbox.cif.g09.slc.cpg/sg15_128_cif.got.tgz:254251.got - 2010.06.28 07:06:18.
