data_PCOD8150135
_publ_section_title
;
Structure prediction by ZEFSAII (Michael W. Deem and Ramdas Pophale) SiO2 
 PCOD8150135
Probable space group: C 2/C
;
_chemical_formula_sum "Si O2"
_cell_formula_units_Z 40
_cell_length_a 29.610100
_cell_length_b 9.009942
_cell_length_c 21.478416
_cell_angle_alpha 90.000000
_cell_angle_beta 18.249956
_cell_angle_gamma 90.000000
_cell_volume 1794.463673
_symmetry_space_group_name_H-M "C 2/C"
_symmetry_group_IT_number 15
_symmetry_cell_setting 'monoclinic'
loop_
_space_group_symop_operation_xyz
x,y,z
-x,y,1/2-z
-x,-y,-z
x,-y,1/2+z
1/2+x,1/2+y,z
1/2-x,1/2+y,1/2-z
1/2-x,1/2-y,-z
1/2+x,1/2-y,1/2+z
loop_
_atom_site_type_symbol
_atom_site_label
_atom_site_fract_x
_atom_site_fract_y
_atom_site_fract_z
Si Si1 0.544456 0.523284 0.369791
Si Si2 0.331308 0.986475 0.211892
Si Si3 0.869371 0.520326 0.466296
Si Si4 0.590138 0.654159 0.568203
Si Si5 0.150486 0.281551 0.913493
O O1 0.500000 0.500000 0.500000
O O2 0.489000 0.409024 0.389783
O O3 0.483430 0.687089 0.436022
O O4 0.716001 0.518213 0.136499
O O5 0.233006 0.052927 0.396497
O O6 0.282730 0.096553 0.220073
O O7 0.286464 0.817869 0.256841
O O8 0.500000 0.000000 0.000000
O O9 0.858562 0.678277 0.516635
O O10 0.917659 0.379630 0.442888
O O11 0.000000 0.547422 0.250000
O O12 0.500000 0.645442 0.750000
#
# Coordination Sequence:
#
# PCOD8150135 Si02
#       5
#     8   8   8   8   8
#     4  11  24  44  69  97 134 175 221 278 329 391
#     4  11  23  40  66  93 124 169 219 267 322 386
#     4  11  25  43  66  99 136 176 222 273 331 395
#     4  10  24  44  68  98 136 177 221 271 331 397
#     4  11  24  40  64  95 130 171 219 275 326 389
#
# _framework density 22.290783999999999
#
# number of rings (size 3 to 8) (size 9 to 14) (size 15 to 20)
#    0.000    1.200    0.000    6.000    0.000   15.200 
#    0.000    0.000    0.000    0.000    0.000    0.000 
#    0.000    0.000    0.000    0.000    0.000    0.000 
#
# Total GULP energy -247770.400584 kJ/mol
# GULP energy per Si atom -12388.520029 kJ/mol
# Density = 2.224005 g / cm^3
# Si number density = 22.290784 Si / 1000 Ang^3
#
#
#
# Elastic Constant Matrix: (Units=GPa)
#
#
# Indices 1 2 3 4 5 6 
#
# 1 110.1079 52.2796 48.9554 0.0000 -1.8796 -0.0001
# 2 52.2796 144.8716 33.9236 0.0015 10.2037 0.0006
# 3 48.9554 33.9236 145.3430 0.0011 -19.4100 0.0003
# 4 0.0000 0.0015 0.0011 38.7962 0.0004 3.4651
# 5 -1.8796 10.2037 -19.4100 0.0004 22.5111 -0.0002
# 6 -0.0001 0.0006 0.0003 3.4651 -0.0002 41.6217
#
#
#
# Elastic Compliance Matrix: (Units=1/GPa)
#
#
# Indices 1 2 3 4 5 6 
#
# 1 0.012281 -0.003644 -0.003309 0.000000 -0.000176 0.000000
# 2 -0.003644 0.009015 -0.001653 0.000000 -0.005816 0.000000
# 3 -0.003309 -0.001653 0.009543 0.000000 0.008701 0.000000
# 4 0.000000 0.000000 0.000000 0.025969 -0.000001 -0.002162
# 5 -0.000176 -0.005816 0.008701 -0.000001 0.054546 0.000000
# 6 0.000000 0.000000 0.000000 -0.002162 0.000000 0.024206
#
#
# Mechanical properties :
#
#
# Convention : Reuss Voigt Hill
#
# Bulk Modulus (GPa) = 73.39873 74.51552 73.95713
# Shear Modulus (GPa) = 31.78343 38.26339 35.02341
#
# Velocity S-wave (km/s) = 3.78015 4.14763 3.96814
# Velocity P-wave (km/s) = 7.21471 7.51256 7.36514
#
# Compressibility (1/GPa) = 0.01362421
#
# Stress axis : x y z
#
# Youngs Moduli (GPa) = 81.42821 110.93193 104.79052
#
# Poissons Ratio (x) = 0.40428 0.34679
# Poissons Ratio (y) = 0.29676 0.17324
# Poissons Ratio (z) = 0.26948 0.18339
#
# Static dielectric constant tensor:
#      x y z
#    x 2.234760 -0.000020 0.584420 
#    y -0.000020 4.721110 0.000010 
#    z 0.584420 0.000010 3.953350 
# 
# 
# High freq. dielectric constant tensor:
#      x y z
#    x 1.860000 0.000000 -0.004410 
#    y 0.000000 1.905460 0.000000 
#    z -0.004410 0.000000 1.894740 
# 
# From -- ./inp_files/125445.got.cif
#   From: 2010.06.25/outbox.cif.g09.slc.cpg/sg15_63_cif.got.tgz:125445.got - 2010.06.28 07:06:18.
