data_PCOD8150154
_publ_section_title
;
Structure prediction by ZEFSAII (Michael W. Deem and Ramdas Pophale) SiO2 
 PCOD8150154
Probable space group: C 2/C
;
_chemical_formula_sum "Si O2"
_cell_formula_units_Z 56
_cell_length_a 17.307908
_cell_length_b 11.806303
_cell_length_c 14.259710
_cell_angle_alpha 90.000000
_cell_angle_beta 116.874401
_cell_angle_gamma 90.000000
_cell_volume 2599.164983
_symmetry_space_group_name_H-M "C 2/C"
_symmetry_group_IT_number 15
_symmetry_cell_setting 'monoclinic'
loop_
_space_group_symop_operation_xyz
x,y,z
-x,y,1/2-z
-x,-y,-z
x,-y,1/2+z
1/2+x,1/2+y,z
1/2-x,1/2+y,1/2-z
1/2-x,1/2-y,-z
1/2+x,1/2-y,1/2+z
loop_
_atom_site_type_symbol
_atom_site_label
_atom_site_fract_x
_atom_site_fract_y
_atom_site_fract_z
Si Si1 0.171436 0.266427 0.527602
Si Si2 0.894324 0.521421 0.282954
Si Si3 0.406762 0.994386 0.078686
Si Si4 0.491667 0.659982 0.450353
Si Si5 0.541193 0.438293 0.169971
Si Si6 0.315142 0.738369 0.757773
Si Si7 0.646184 0.156866 0.598417
O O1 0.250000 0.250000 0.500000
O O2 0.130068 0.390749 0.501402
O O3 0.215463 0.247845 0.651950
O O4 0.091218 0.178546 0.471077
O O5 0.879722 0.474758 0.170713
O O6 0.874770 0.654417 0.267412
O O7 0.834786 0.447459 0.319366
O O8 0.990596 0.504502 0.374654
O O9 0.366779 0.109496 0.013585
O O10 0.448494 0.568412 0.356980
O O11 0.485844 0.622699 0.556774
O O12 0.437439 0.774830 0.411127
O O13 0.500000 0.430002 0.250000
O O14 0.633575 0.378252 0.230169
O O15 0.230506 0.737227 0.645320
#
# Coordination Sequence:
#
# PCOD8150154 Si02
#       7
#     8   8   8   8   8   8   8
#     4  11  22  44  69 100 135 176 222 287 333 400
#     4  11  24  43  69 101 130 177 229 275 339 409
#     4  11  23  41  71  99 131 178 228 273 347 399
#     4  10  24  44  69  97 130 181 226 269 340 408
#     4  10  24  45  66  93 136 179 221 275 338 401
#     4  11  26  41  67  98 139 174 226 280 334 403
#     4  12  24  44  69  97 139 173 225 284 334 400
#
# _framework density 21.545380999999999
#
# number of rings (size 3 to 8) (size 9 to 14) (size 15 to 20)
#    0.000    1.143    2.857    3.000    6.000    4.000 
#    2.571    0.000    0.000    0.000    0.000    0.000 
#    0.000    0.000    0.000    0.000    0.000    0.000 
#
# Total GULP energy -347195.215772 kJ/mol
# GULP energy per Si atom -12399.829135 kJ/mol
# Density = 2.149634 g / cm^3
# Si number density = 21.545381 Si / 1000 Ang^3
#
#
#
# Elastic Constant Matrix: (Units=GPa)
#
#
# Indices 1 2 3 4 5 6 
#
# 1 92.9854 37.0464 51.0212 0.0000 -4.3087 0.0000
# 2 37.0464 109.8295 37.3616 0.0000 4.8141 0.0000
# 3 51.0212 37.3616 105.3537 0.0000 -1.1481 0.0000
# 4 0.0000 0.0000 0.0000 33.7206 0.0000 -0.4389
# 5 -4.3087 4.8141 -1.1481 0.0000 32.5670 0.0000
# 6 0.0000 0.0000 0.0000 -0.4389 0.0000 28.4683
#
#
#
# Elastic Compliance Matrix: (Units=1/GPa)
#
#
# Indices 1 2 3 4 5 6 
#
# 1 0.015662 -0.003199 -0.006425 0.000000 0.002318 0.000000
# 2 -0.003199 0.011098 -0.002410 0.000000 -0.002149 0.000000
# 3 -0.006425 -0.002410 0.013458 0.000000 -0.000019 0.000000
# 4 0.000000 0.000000 0.000000 0.029661 0.000000 0.000457
# 5 0.002318 -0.002149 -0.000019 0.000000 0.031330 0.000000
# 6 0.000000 0.000000 0.000000 0.000457 0.000000 0.035134
#
#
# Mechanical properties :
#
#
# Convention : Reuss Voigt Hill
#
# Bulk Modulus (GPa) = 61.91998 62.11410 62.01704
# Shear Modulus (GPa) = 30.15804 31.13381 30.64592
#
# Velocity S-wave (km/s) = 3.74538 3.80548 3.77555
# Velocity P-wave (km/s) = 6.89242 6.94269 6.91760
#
# Compressibility (1/GPa) = 0.01614988
#
# Stress axis : x y z
#
# Youngs Moduli (GPa) = 63.85016 90.10635 74.30612
#
# Poissons Ratio (x) = 0.28823 0.47742
# Poissons Ratio (y) = 0.20424 0.17908
# Poissons Ratio (z) = 0.41024 0.21716
#
# Static dielectric constant tensor:
#      x y z
#    x 3.604780 0.000000 -0.069660 
#    y 0.000000 3.972890 0.000000 
#    z -0.069660 0.000000 4.033010 
# 
# 
# High freq. dielectric constant tensor:
#      x y z
#    x 1.830610 0.000000 -0.004070 
#    y 0.000000 1.853900 0.000000 
#    z -0.004070 0.000000 1.854700 
# 
# From -- ./inp_files/161406.got.cif
#   From: 2010.06.25/outbox.cif.g09.slc.cpg/sg15_81_cif.got.tgz:161406.got - 2010.06.28 07:06:18.
