data_PCOD8150970
_publ_section_title
;
Structure prediction by ZEFSAII (Michael W. Deem and Ramdas Pophale) SiO2 
 PCOD8150970
Probable space group: C 2/C
;
_chemical_formula_sum "Si O2"
_cell_formula_units_Z 64
_cell_length_a 14.821970
_cell_length_b 14.045030
_cell_length_c 18.059425
_cell_angle_alpha 90.000000
_cell_angle_beta 109.334219
_cell_angle_gamma 90.000000
_cell_volume 3547.496793
_symmetry_space_group_name_H-M "C 2/C"
_symmetry_group_IT_number 15
_symmetry_cell_setting 'monoclinic'
loop_
_space_group_symop_operation_xyz
x,y,z
-x,y,1/2-z
-x,-y,-z
x,-y,1/2+z
1/2+x,1/2+y,z
1/2-x,1/2+y,1/2-z
1/2-x,1/2-y,-z
1/2+x,1/2-y,1/2+z
loop_
_atom_site_type_symbol
_atom_site_label
_atom_site_fract_x
_atom_site_fract_y
_atom_site_fract_z
Si Si1 0.505760 0.501904 0.836694
Si Si2 0.856558 0.852014 0.842038
Si Si3 0.729308 0.501712 0.922499
Si Si4 0.149911 0.147607 0.667795
Si Si5 0.291185 0.854490 0.822444
Si Si6 0.817103 0.641730 0.834275
Si Si7 0.400246 0.999710 0.254886
Si Si8 0.746674 0.504671 0.597256
O O1 0.500000 0.475227 0.750000
O O2 0.455158 0.412159 0.864696
O O3 0.614567 0.512000 0.892804
O O4 0.451987 0.603687 0.834234
O O5 0.809355 0.844681 0.747700
O O6 0.864025 0.742424 0.869801
O O7 0.790290 0.902183 0.885057
O O8 0.765587 0.406402 0.891852
O O9 0.781308 0.591839 0.899509
O O10 0.766186 0.496111 0.015904
O O11 0.150873 0.257759 0.644155
O O12 0.224580 0.137307 0.755532
O O13 0.173760 0.087790 0.600697
O O14 0.359751 0.910369 0.786510
O O15 0.901947 0.586728 0.814407
O O16 0.500000 0.030075 0.250000
O O17 0.343127 0.970113 0.166207
#
# Coordination Sequence:
#
# PCOD8150970 Si02
#       8
#     8   8   8   8   8   8   8   8
#     4  11  18  32  56  84 102 137 187 218 247 315
#     4   9  18  34  52  75 109 138 176 216 257 309
#     4  11  20  34  57  79 109 141 172 217 273 312
#     4   9  18  34  52  75 109 138 176 216 257 309
#     4   9  18  34  54  77 104 141 174 217 263 304
#     4   9  18  34  54  77 104 141 174 217 263 304
#     4   9  18  36  57  76  98 139 185 212 250 317
#     4   9  20  35  54  76 110 138 164 219 276 311
#
# _framework density 18.040890000000001
#
# number of rings (size 3 to 8) (size 9 to 14) (size 15 to 20)
#    0.000    2.500    2.500    1.500    0.000    4.000 
#    4.500    2.500    5.500    0.000    0.000    0.000 
#    0.000    0.000    0.000    0.000    0.000    0.000 
#
# Total GULP energy -396515.305038 kJ/mol
# GULP energy per Si atom -12391.103282 kJ/mol
# Density = 1.799983 g / cm^3
# Si number density = 18.040890 Si / 1000 Ang^3
#
#
#
# Elastic Constant Matrix: (Units=GPa)
#
#
# Indices 1 2 3 4 5 6 
#
# 1 84.7007 29.7096 22.0179 0.0000 -10.6545 0.0000
# 2 29.7096 131.8134 30.8225 0.0000 -8.1324 0.0000
# 3 22.0179 30.8225 97.7028 0.0000 -25.7163 0.0000
# 4 0.0000 0.0000 0.0000 14.9089 0.0000 -0.1893
# 5 -10.6545 -8.1324 -25.7163 0.0000 19.5042 0.0000
# 6 0.0000 0.0000 0.0000 -0.1893 0.0000 14.6304
#
#
#
# Elastic Compliance Matrix: (Units=1/GPa)
#
#
# Indices 1 2 3 4 5 6 
#
# 1 0.013579 -0.002531 -0.000899 0.000000 0.005177 0.000000
# 2 -0.002531 0.008662 -0.002413 0.000000 -0.000952 0.000000
# 3 -0.000899 -0.002413 0.016548 0.000000 0.020321 0.000000
# 4 0.000000 0.000000 0.000000 0.067085 0.000000 0.000868
# 5 0.005177 -0.000952 0.020321 0.000000 0.080495 0.000000
# 6 0.000000 0.000000 0.000000 0.000868 0.000000 0.068362
#
#
# Mechanical properties :
#
#
# Convention : Reuss Voigt Hill
#
# Bulk Modulus (GPa) = 36.89629 53.25745 45.07687
# Shear Modulus (GPa) = 18.15203 25.25316 21.70260
#
# Velocity S-wave (km/s) = 3.17544 3.74541 3.47214
# Velocity P-wave (km/s) = 5.82585 6.94900 6.41206
#
# Compressibility (1/GPa) = 0.02710300
#
# Stress axis : x y z
#
# Youngs Moduli (GPa) = 73.64337 115.44090 60.43168
#
# Poissons Ratio (x) = 0.29218 0.05433
# Poissons Ratio (y) = 0.18639 0.14583
# Poissons Ratio (z) = 0.06620 0.27857
#
# Static dielectric constant tensor:
#      x y z
#    x 3.320890 0.000000 -0.126270 
#    y 0.000000 3.469700 0.000000 
#    z -0.126270 0.000000 3.085040 
# 
# 
# High freq. dielectric constant tensor:
#      x y z
#    x 1.688250 0.000000 -0.019750 
#    y 0.000000 1.701850 0.000000 
#    z -0.019750 0.000000 1.677270 
# 
# From -- ./inp_files/205130.got.cif
#   From: 2010.06.25/outbox.cif.g09.slc.cpg/sg15_103_cif.got.tgz:205130.got - 2010.06.28 07:06:18.
