data_PCOD8150098
_publ_section_title
;
Structure prediction by ZEFSAII (Michael W. Deem and Ramdas Pophale) SiO2 
 PCOD8150098
Probable space group: C 2/C
;
_chemical_formula_sum "Si O2"
_cell_formula_units_Z 60
_cell_length_a 29.586458
_cell_length_b 11.530090
_cell_length_c 9.337491
_cell_angle_alpha 90.000000
_cell_angle_beta 59.637371
_cell_angle_gamma 90.000000
_cell_volume 2748.450525
_symmetry_space_group_name_H-M "C 2/C"
_symmetry_group_IT_number 15
_symmetry_cell_setting 'monoclinic'
loop_
_space_group_symop_operation_xyz
x,y,z
-x,y,1/2-z
-x,-y,-z
x,-y,1/2+z
1/2+x,1/2+y,z
1/2-x,1/2+y,1/2-z
1/2-x,1/2-y,-z
1/2+x,1/2-y,1/2+z
loop_
_atom_site_type_symbol
_atom_site_label
_atom_site_fract_x
_atom_site_fract_y
_atom_site_fract_z
Si Si1 0.497405 0.363332 0.991138
Si Si2 0.681477 0.477040 0.799613
Si Si3 0.615721 0.284706 0.761785
Si Si4 0.242944 0.884885 0.970832
Si Si5 0.000000 0.715080 0.250000
Si Si6 0.601026 0.089349 0.993514
Si Si7 0.391366 0.312727 0.037183
Si Si8 0.641075 0.104020 0.242650
O O1 0.555095 0.318885 0.868096
O O2 0.500000 0.500000 0.000000
O O3 0.475722 0.300694 0.169723
O O4 0.454349 0.330686 0.940253
O O5 0.654975 0.387963 0.733478
O O6 0.703412 0.408272 0.902720
O O7 0.725954 0.546188 0.640981
O O8 0.635581 0.562126 0.923898
O O9 0.630359 0.180492 0.843783
O O10 0.624411 0.246154 0.583670
O O11 0.298969 0.931718 0.826462
O O12 0.250000 0.750000 0.000000
O O13 0.958095 0.628692 0.385876
O O14 0.602015 0.967230 0.908786
O O15 0.630837 0.078965 0.093998
O O16 0.369210 0.239506 0.206587
#
# Coordination Sequence:
#
# PCOD8150098 Si02
#       8
#     8   8   8   8   4   8   8   8
#     4  11  23  38  70 101 146 183 229 283 361 434
#     4  12  25  44  73 104 144 179 241 305 354 430
#     4  11  25  42  67 104 145 182 232 292 361 429
#     4  12  26  47  72 105 140 191 242 303 369 426
#     4  10  24  44  66 110 144 188 238 294 354 424
#     4  11  25  47  71 104 140 193 238 297 354 435
#     4  12  24  44  68 107 139 189 229 296 360 430
#     4  12  25  48  74  95 144 187 246 293 359 428
#
# _framework density 21.830483000000001
#
# number of rings (size 3 to 8) (size 9 to 14) (size 15 to 20)
#    0.000    0.533    5.333    2.800    1.867    0.533 
#    2.400    2.000    0.000    0.000    0.000    0.000 
#    0.000    0.000    0.000    0.000    0.000    0.000 
#
# Total GULP energy -372026.831875 kJ/mol
# GULP energy per Si atom -12400.894396 kJ/mol
# Density = 2.178080 g / cm^3
# Si number density = 21.830483 Si / 1000 Ang^3
#
#
#
# Elastic Constant Matrix: (Units=GPa)
#
#
# Indices 1 2 3 4 5 6 
#
# 1 118.1536 49.3240 37.6955 0.0000 13.8058 0.0000
# 2 49.3240 101.8150 37.8399 0.0000 11.1151 0.0000
# 3 37.6955 37.8399 88.1417 0.0000 23.6235 0.0000
# 4 0.0000 0.0000 0.0000 37.4055 0.0000 2.3942
# 5 13.8058 11.1151 23.6235 0.0000 44.1293 0.0000
# 6 0.0000 0.0000 0.0000 2.3942 0.0000 33.3479
#
#
#
# Elastic Compliance Matrix: (Units=1/GPa)
#
#
# Indices 1 2 3 4 5 6 
#
# 1 0.011248 -0.004345 -0.002680 0.000000 -0.000990 0.000000
# 2 -0.004345 0.013368 -0.003903 0.000000 0.000081 0.000000
# 3 -0.002680 -0.003903 0.015970 0.000000 -0.006728 0.000000
# 4 0.000000 0.000000 0.000000 0.026857 0.000000 -0.001928
# 5 -0.000990 0.000081 -0.006728 0.000000 0.026552 0.000000
# 6 0.000000 0.000000 0.000000 -0.001928 0.000000 0.030125
#
#
# Mechanical properties :
#
#
# Convention : Reuss Voigt Hill
#
# Bulk Modulus (GPa) = 53.38632 61.98102 57.68367
# Shear Modulus (GPa) = 32.84732 35.19325 34.02029
#
# Velocity S-wave (km/s) = 3.88320 4.01947 3.95192
# Velocity P-wave (km/s) = 6.67934 7.07072 6.87782
#
# Compressibility (1/GPa) = 0.01873139
#
# Stress axis : x y z
#
# Youngs Moduli (GPa) = 88.90429 74.80413 62.61727
#
# Poissons Ratio (x) = 0.32503 0.16780
# Poissons Ratio (y) = 0.38630 0.24437
# Poissons Ratio (z) = 0.23824 0.29193
#
# Static dielectric constant tensor:
#      x y z
#    x 4.056040 0.000000 0.064190 
#    y 0.000000 4.543130 0.000000 
#    z 0.064190 0.000000 4.082650 
# 
# 
# High freq. dielectric constant tensor:
#      x y z
#    x 1.863720 0.000000 0.006770 
#    y 0.000000 1.859150 0.000000 
#    z 0.006770 0.000000 1.868680 
# 
# From -- ./inp_files/69333.got.cif
#   From: 2010.06.25/outbox.cif.g09.slc.cpg/sg15_35_cif.got.tgz:69333.got - 2010.06.28 07:06:18.
