data_PCOD8150443
_publ_section_title
;
Structure prediction by ZEFSAII (Michael W. Deem and Ramdas Pophale) SiO2 
 PCOD8150443
Probable space group: C 2/C
;
_chemical_formula_sum "Si O2"
_cell_formula_units_Z 24
_cell_length_a 8.871647
_cell_length_b 25.183503
_cell_length_c 5.065320
_cell_angle_alpha 90.000000
_cell_angle_beta 117.745135
_cell_angle_gamma 90.000000
_cell_volume 1001.575940
_symmetry_space_group_name_H-M "C 2/C"
_symmetry_group_IT_number 15
_symmetry_cell_setting 'monoclinic'
loop_
_space_group_symop_operation_xyz
x,y,z
-x,y,1/2-z
-x,-y,-z
x,-y,1/2+z
1/2+x,1/2+y,z
1/2-x,1/2+y,1/2-z
1/2-x,1/2-y,-z
1/2+x,1/2-y,1/2+z
loop_
_atom_site_type_symbol
_atom_site_label
_atom_site_fract_x
_atom_site_fract_y
_atom_site_fract_z
Si Si1 0.323663 0.148126 0.459891
Si Si2 0.199203 0.967120 0.909795
Si Si3 0.000000 0.718309 0.250000
Si Si4 0.500000 0.289455 0.750000
O O1 0.301797 0.085280 0.414635
O O2 0.342531 0.178308 0.193282
O O3 0.159410 0.173885 0.468385
O O4 0.500000 0.161036 0.750000
O O5 0.000000 0.953931 0.750000
O O6 0.250565 0.012166 0.740491
O O7 0.053252 0.753818 0.543820
#
# Coordination Sequence:
#
# PCOD8150443 Si02
#       4
#     8   8   4   4
#     4  12  28  47  76 110 143 192 242 295 360 424
#     4  10  24  47  74 103 141 187 236 292 362 428
#     4  12  28  48  72 110 146 192 244 292 358 422
#     4  12  28  50  72 102 154 194 236 296 352 430
#
# _framework density 23.962236999999998
#
# number of rings (size 3 to 8) (size 9 to 14) (size 15 to 20)
#    0.000    0.667    3.333    2.000    9.333    1.333 
#    0.000    0.000    0.000    0.000    0.000    0.000 
#    0.000    0.000    0.000    0.000    0.000    0.000 
#
# Total GULP energy -148761.156796 kJ/mol
# GULP energy per Si atom -12396.763066 kJ/mol
# Density = 2.390770 g / cm^3
# Si number density = 23.962237 Si / 1000 Ang^3
#
#
#
# Elastic Constant Matrix: (Units=GPa)
#
#
# Indices 1 2 3 4 5 6 
#
# 1 125.4117 73.5818 51.0196 0.0000 10.3619 0.0000
# 2 73.5818 156.8999 41.8791 0.0000 5.9181 0.0000
# 3 51.0196 41.8791 101.8389 0.0000 -7.2742 0.0000
# 4 0.0000 0.0000 0.0000 42.9700 0.0000 16.0129
# 5 10.3619 5.9181 -7.2742 0.0000 40.0820 0.0000
# 6 0.0000 0.0000 0.0000 16.0129 0.0000 59.5719
#
#
#
# Elastic Compliance Matrix: (Units=1/GPa)
#
#
# Indices 1 2 3 4 5 6 
#
# 1 0.012965 -0.004656 -0.004833 0.000000 -0.003541 0.000000
# 2 -0.004656 0.008936 -0.001368 0.000000 -0.000364 0.000000
# 3 -0.004833 -0.001368 0.013076 0.000000 0.003825 0.000000
# 4 0.000000 0.000000 0.000000 0.025863 0.000000 -0.006952
# 5 -0.003541 -0.000364 0.003825 0.000000 0.026612 0.000000
# 6 0.000000 0.000000 0.000000 -0.006952 0.000000 0.018655
#
#
# Mechanical properties :
#
#
# Convention : Reuss Voigt Hill
#
# Bulk Modulus (GPa) = 75.40290 79.67907 77.54099
# Shear Modulus (GPa) = 37.80928 43.03612 40.42270
#
# Velocity S-wave (km/s) = 3.97655 4.24252 4.11169
# Velocity P-wave (km/s) = 7.25394 7.57118 7.41426
#
# Compressibility (1/GPa) = 0.01326209
#
# Stress axis : x y z
#
# Youngs Moduli (GPa) = 77.13358 111.90583 76.47319
#
# Poissons Ratio (x) = 0.52108 0.36960
# Poissons Ratio (y) = 0.35917 0.10461
# Poissons Ratio (z) = 0.37279 0.15309
#
# Static dielectric constant tensor:
#      x y z
#    x 4.530390 0.000000 -0.212350 
#    y 0.000000 4.312600 0.000000 
#    z -0.212350 0.000000 4.117190 
# 
# 
# High freq. dielectric constant tensor:
#      x y z
#    x 1.959070 0.000000 -0.006420 
#    y 0.000000 1.966610 0.000000 
#    z -0.006420 0.000000 1.932050 
# 
# From -- ./inp_files/1482.got.cif
#   From: 2010.06.25/outbox.cif.g09.slc.cpg/sg15_1_cif.got.tgz:1482.got - 2010.06.28 07:06:18.
