data_PCOD8150440
_publ_section_title
;
Structure prediction by ZEFSAII (Michael W. Deem and Ramdas Pophale) SiO2 
 PCOD8150440
Probable space group: C 2/C
;
_chemical_formula_sum "Si O2"
_cell_formula_units_Z 60
_cell_length_a 11.354286
_cell_length_b 9.089169
_cell_length_c 28.388335
_cell_angle_alpha 90.000000
_cell_angle_beta 67.828438
_cell_angle_gamma 90.000000
_cell_volume 2713.077006
_symmetry_space_group_name_H-M "C 2/C"
_symmetry_group_IT_number 15
_symmetry_cell_setting 'monoclinic'
loop_
_space_group_symop_operation_xyz
x,y,z
-x,y,1/2-z
-x,-y,-z
x,-y,1/2+z
1/2+x,1/2+y,z
1/2-x,1/2+y,1/2-z
1/2-x,1/2-y,-z
1/2+x,1/2-y,1/2+z
loop_
_atom_site_type_symbol
_atom_site_label
_atom_site_fract_x
_atom_site_fract_y
_atom_site_fract_z
Si Si1 0.830391 0.600388 0.225279
Si Si2 0.732285 0.722183 0.447982
Si Si3 0.906000 0.912927 0.223772
Si Si4 0.259590 0.889457 0.434682
Si Si5 0.797382 0.788807 0.840590
Si Si6 0.500000 0.115008 0.750000
Si Si7 0.579624 0.538038 0.616191
Si Si8 0.449722 0.317946 0.959430
O O1 0.853145 0.754798 0.248816
O O2 0.703163 0.532499 0.266701
O O3 0.814215 0.629789 0.171761
O O4 0.946136 0.487956 0.216163
O O5 0.750000 0.750000 0.500000
O O6 0.787652 0.562313 0.427151
O O7 0.810413 0.843333 0.407597
O O8 0.585800 0.740991 0.455242
O O9 0.000000 0.972780 0.250000
O O10 0.966266 0.888065 0.162878
O O11 0.237488 0.829635 0.385319
O O12 0.379400 0.811444 0.441582
O O13 0.130223 0.861278 0.482610
O O14 0.888967 0.712664 0.788665
O O15 0.872456 0.907548 0.858523
O O16 0.533451 0.466607 0.574023
#
# Coordination Sequence:
#
# PCOD8150440 Si02
#       8
#     8   8   8   8   8   4   8   8
#     4  12  26  45  73 101 141 188 229 297 352 425
#     4  12  26  45  73 108 141 189 237 296 358 424
#     4  12  26  46  71 106 144 183 242 293 355 429
#     4  10  24  47  72 106 143 192 236 298 360 424
#     4  11  25  47  71 101 146 188 233 295 361 420
#     4  12  26  46  70 104 140 186 242 286 360 428
#     4  11  26  46  73 106 140 191 240 294 361 422
#     4  10  24  49  70 103 151 184 239 298 357 425
#
# _framework density 22.115110000000001
#
# number of rings (size 3 to 8) (size 9 to 14) (size 15 to 20)
#    0.000    0.800    4.667    1.200    3.733    3.733 
#    0.000    0.000    0.000    0.000    0.000    0.000 
#    0.000    0.000    0.000    0.000    0.000    0.000 
#
# Total GULP energy -372097.485710 kJ/mol
# GULP energy per Si atom -12403.249524 kJ/mol
# Density = 2.206477 g / cm^3
# Si number density = 22.115110 Si / 1000 Ang^3
#
#
#
# Elastic Constant Matrix: (Units=GPa)
#
#
# Indices 1 2 3 4 5 6 
#
# 1 115.6946 39.8534 38.0829 0.0000 3.9095 0.0000
# 2 39.8534 129.1551 46.1940 0.0000 -7.9467 0.0000
# 3 38.0829 46.1940 125.8792 0.0000 0.8589 0.0000
# 4 0.0000 0.0000 0.0000 32.6855 0.0000 2.2394
# 5 3.9095 -7.9467 0.8589 0.0000 31.9125 0.0000
# 6 0.0000 0.0000 0.0000 2.2394 0.0000 36.7645
#
#
#
# Elastic Compliance Matrix: (Units=1/GPa)
#
#
# Indices 1 2 3 4 5 6 
#
# 1 0.010286 -0.002507 -0.002180 0.000000 -0.001826 0.000000
# 2 -0.002507 0.009697 -0.002819 0.000000 0.002798 0.000000
# 3 -0.002180 -0.002819 0.009643 0.000000 -0.000695 0.000000
# 4 0.000000 0.000000 0.000000 0.030723 0.000000 -0.001871
# 5 -0.001826 0.002798 -0.000695 0.000000 0.032275 0.000000
# 6 0.000000 0.000000 0.000000 -0.001871 0.000000 0.027314
#
#
# Mechanical properties :
#
#
# Convention : Reuss Voigt Hill
#
# Bulk Modulus (GPa) = 68.42436 68.77658 68.60047
# Shear Modulus (GPa) = 35.76044 36.71240 36.23642
#
# Velocity S-wave (km/s) = 4.02557 4.07880 4.05228
# Velocity P-wave (km/s) = 7.25357 7.30404 7.27885
#
# Compressibility (1/GPa) = 0.01461468
#
# Stress axis : x y z
#
# Youngs Moduli (GPa) = 97.21877 103.12956 103.70480
#
# Poissons Ratio (x) = 0.25852 0.22603
# Poissons Ratio (y) = 0.24370 0.29235
# Poissons Ratio (z) = 0.21189 0.29073
#
# Static dielectric constant tensor:
#      x y z
#    x 4.166860 0.000000 0.220320 
#    y 0.000000 4.263580 0.000000 
#    z 0.220320 0.000000 4.260110 
# 
# 
# High freq. dielectric constant tensor:
#      x y z
#    x 1.877330 0.000000 0.010430 
#    y 0.000000 1.887770 0.000000 
#    z 0.010430 0.000000 1.868030 
# 
# From -- ./inp_files/310285.got.cif
#   From: 2010.06.25/outbox.cif.g09.slc.cpg/sg15_156_cif.got.tgz:310285.got - 2010.06.28 07:06:18.
