data_PCOD8150640
_publ_section_title
;
Structure prediction by ZEFSAII (Michael W. Deem and Ramdas Pophale) SiO2 
 PCOD8150640
Probable space group: C 2/C
;
_chemical_formula_sum "Si O2"
_cell_formula_units_Z 52
_cell_length_a 9.603460
_cell_length_b 23.648779
_cell_length_c 12.505252
_cell_angle_alpha 90.000000
_cell_angle_beta 52.157408
_cell_angle_gamma 90.000000
_cell_volume 2242.800209
_symmetry_space_group_name_H-M "C 2/C"
_symmetry_group_IT_number 15
_symmetry_cell_setting 'monoclinic'
loop_
_space_group_symop_operation_xyz
x,y,z
-x,y,1/2-z
-x,-y,-z
x,-y,1/2+z
1/2+x,1/2+y,z
1/2-x,1/2+y,1/2-z
1/2-x,1/2-y,-z
1/2+x,1/2-y,1/2+z
loop_
_atom_site_type_symbol
_atom_site_label
_atom_site_fract_x
_atom_site_fract_y
_atom_site_fract_z
Si Si1 0.500000 0.334788 0.750000
Si Si2 0.528358 0.750836 0.421721
Si Si3 0.893613 0.805670 0.193244
Si Si4 0.650013 0.866177 0.988266
Si Si5 0.646754 0.584511 0.919002
Si Si6 0.720594 0.542362 0.367172
Si Si7 0.031606 0.552436 0.061454
O O1 0.530004 0.299095 0.628464
O O2 0.320401 0.371069 0.829032
O O3 0.725845 0.767984 0.300813
O O4 0.509642 0.728545 0.551706
O O5 0.395394 0.802115 0.460375
O O6 0.841816 0.868014 0.177222
O O7 0.000000 0.814750 0.250000
O O8 0.477900 0.892437 0.010665
O O9 0.697518 0.902129 0.071047
O O10 0.678895 0.522508 0.854944
O O11 0.451582 0.582361 0.065614
O O12 0.874222 0.562470 0.218609
O O13 0.784303 0.547423 0.461749
O O14 0.000000 0.500000 0.000000
#
# Coordination Sequence:
#
# PCOD8150640 Si02
#       7
#     4   8   8   8   8   8   8
#     4  12  22  46  72 108 138 182 246 302 352 428
#     4  12  26  47  72 108 141 189 241 304 356 429
#     4  12  28  48  73 106 150 191 240 296 367 436
#     4  12  24  43  76 102 139 188 237 294 361 421
#     4  11  24  46  72 101 139 189 235 293 354 427
#     4  10  25  45  66 103 143 181 238 291 356 426
#     4  11  24  43  68 101 140 184 232 295 352 427
#
# _framework density 23.185303999999999
#
# number of rings (size 3 to 8) (size 9 to 14) (size 15 to 20)
#    0.000    0.615    4.615    2.769    4.308    0.000 
#    2.769    0.000    0.000    0.000    0.000    0.000 
#    0.000    0.000    0.000    0.000    0.000    0.000 
#
# Total GULP energy -322433.475807 kJ/mol
# GULP energy per Si atom -12401.287531 kJ/mol
# Density = 2.313253 g / cm^3
# Si number density = 23.185304 Si / 1000 Ang^3
#
#
#
# Elastic Constant Matrix: (Units=GPa)
#
#
# Indices 1 2 3 4 5 6 
#
# 1 101.3302 24.5682 24.7337 0.0000 18.5645 0.0000
# 2 24.5682 85.7998 13.1132 0.0000 11.2416 0.0000
# 3 24.7337 13.1132 91.0659 0.0000 12.1164 0.0000
# 4 0.0000 0.0000 0.0000 29.1616 0.0000 -8.5579
# 5 18.5645 11.2416 12.1164 0.0000 34.6131 0.0000
# 6 0.0000 0.0000 0.0000 -8.5579 0.0000 31.6608
#
#
#
# Elastic Compliance Matrix: (Units=1/GPa)
#
#
# Indices 1 2 3 4 5 6 
#
# 1 0.011884 -0.002432 -0.002239 0.000000 -0.004801 0.000000
# 2 -0.002432 0.012816 -0.000844 0.000000 -0.002563 0.000000
# 3 -0.002239 -0.000844 0.012077 0.000000 -0.002753 0.000000
# 4 0.000000 0.000000 0.000000 0.037246 0.000000 0.010068
# 5 -0.004801 -0.002563 -0.002753 0.000000 0.033261 0.000000
# 6 0.000000 0.000000 0.000000 0.010068 0.000000 0.034306
#
#
# Mechanical properties :
#
#
# Convention : Reuss Voigt Hill
#
# Bulk Modulus (GPa) = 38.83820 44.78067 41.80944
# Shear Modulus (GPa) = 31.01674 33.47248 32.24461
#
# Velocity S-wave (km/s) = 3.66153 3.80372 3.73330
# Velocity P-wave (km/s) = 5.88756 6.21669 6.05436
#
# Compressibility (1/GPa) = 0.02574784
#
# Stress axis : x y z
#
# Youngs Moduli (GPa) = 84.14433 78.02660 82.80244
#
# Poissons Ratio (x) = 0.18975 0.18539
# Poissons Ratio (y) = 0.20463 0.06989
# Poissons Ratio (z) = 0.18839 0.06586
#
# Static dielectric constant tensor:
#      x y z
#    x 4.551960 0.000000 -0.007830 
#    y 0.000000 4.157970 0.000000 
#    z -0.007830 0.000000 4.153640 
# 
# 
# High freq. dielectric constant tensor:
#      x y z
#    x 1.920280 0.000000 -0.002310 
#    y 0.000000 1.922350 0.000000 
#    z -0.002310 0.000000 1.919970 
# 
# From -- ./inp_files/81173.got.cif
#   From: 2010.06.25/outbox.cif.g09.slc.cpg/sg15_41_cif.got.tgz:81173.got - 2010.06.28 07:06:18.
