data_PCOD8150871
_publ_section_title
;
Structure prediction by ZEFSAII (Michael W. Deem and Ramdas Pophale) SiO2 
 PCOD8150871
Probable space group: C 2/C
;
_chemical_formula_sum "Si O2"
_cell_formula_units_Z 40
_cell_length_a 5.459478
_cell_length_b 28.378509
_cell_length_c 11.866987
_cell_angle_alpha 90.000000
_cell_angle_beta 71.936547
_cell_angle_gamma 90.000000
_cell_volume 1747.957692
_symmetry_space_group_name_H-M "C 2/C"
_symmetry_group_IT_number 15
_symmetry_cell_setting 'monoclinic'
loop_
_space_group_symop_operation_xyz
x,y,z
-x,y,1/2-z
-x,-y,-z
x,-y,1/2+z
1/2+x,1/2+y,z
1/2-x,1/2+y,1/2-z
1/2-x,1/2-y,-z
1/2+x,1/2-y,1/2+z
loop_
_atom_site_type_symbol
_atom_site_label
_atom_site_fract_x
_atom_site_fract_y
_atom_site_fract_z
Si Si1 0.868377 0.797180 0.534005
Si Si2 0.287977 0.145795 0.864826
Si Si3 0.000000 0.925169 0.250000
Si Si4 0.000000 0.835159 0.750000
Si Si5 0.253922 0.471237 0.483679
Si Si6 0.480619 0.880434 0.571250
O O1 0.750000 0.750000 0.500000
O O2 0.653181 0.835078 0.546970
O O3 0.122239 0.809103 0.425767
O O4 0.942350 0.798967 0.655770
O O5 0.500000 0.166887 0.750000
O O6 0.130664 0.106834 0.823389
O O7 0.386792 0.115467 0.956286
O O8 0.809979 0.957750 0.347047
O O9 0.240449 0.870805 0.690468
O O10 0.500000 0.500000 0.500000
O O11 0.000000 0.500000 0.500000
O O12 0.160952 0.426076 0.573770
#
# Coordination Sequence:
#
# PCOD8150871 Si02
#       6
#     8   8   4   4   8   8
#     4  11  25  50  74 112 152 199 262 316 394 483
#     4  11  21  43  80 105 148 202 253 324 396 455
#     4  12  24  49  72 110 148 198 262 329 382 476
#     4  10  26  47  78 106 164 206 248 327 406 468
#     4  12  28  47  76 113 151 203 265 324 396 470
#     4  11  24  49  72 108 156 197 258 323 395 470
#
# _framework density 22.883849999999999
#
# number of rings (size 3 to 8) (size 9 to 14) (size 15 to 20)
#    0.000    0.800    4.000    1.800    2.800    4.000 
#   21.600    0.000    0.000    0.000    0.000    0.000 
#    0.000    0.000    0.000    0.000    0.000    0.000 
#
# Total GULP energy -247798.963913 kJ/mol
# GULP energy per Si atom -12389.948196 kJ/mol
# Density = 2.283176 g / cm^3
# Si number density = 22.883850 Si / 1000 Ang^3
#
#
#
# Elastic Constant Matrix: (Units=GPa)
#
#
# Indices 1 2 3 4 5 6 
#
# 1 151.5193 81.7673 63.8159 0.0000 -6.0471 0.0000
# 2 81.7673 163.8486 63.0083 0.0000 -7.1249 0.0000
# 3 63.8159 63.0083 168.3924 0.0000 -19.5354 0.0000
# 4 0.0000 0.0000 0.0000 100.1328 0.0000 63.3173
# 5 -6.0471 -7.1249 -19.5354 0.0000 53.2669 0.0000
# 6 0.0000 0.0000 0.0000 63.3173 0.0000 115.8848
#
#
#
# Elastic Compliance Matrix: (Units=1/GPa)
#
#
# Indices 1 2 3 4 5 6 
#
# 1 0.009670 -0.003990 -0.002200 0.000000 -0.000243 0.000000
# 2 -0.003990 0.008776 -0.001763 0.000000 0.000074 0.000000
# 3 -0.002200 -0.001763 0.007703 0.000000 0.002340 0.000000
# 4 0.000000 0.000000 0.000000 0.015258 0.000000 -0.008337
# 5 -0.000243 0.000074 0.002340 0.000000 0.019614 0.000000
# 6 0.000000 0.000000 0.000000 -0.008337 0.000000 0.013184
#
#
# Mechanical properties :
#
#
# Convention : Reuss Voigt Hill
#
# Bulk Modulus (GPa) = 97.62688 100.10481 98.86584
# Shear Modulus (GPa) = 53.46131 72.20149 62.83140
#
# Velocity S-wave (km/s) = 4.83867 5.62315 5.24559
# Velocity P-wave (km/s) = 8.60067 9.27359 8.94346
#
# Compressibility (1/GPa) = 0.01024308
#
# Stress axis : x y z
#
# Youngs Moduli (GPa) = 103.41269 113.95132 129.81714
#
# Poissons Ratio (x) = 0.45471 0.28556
# Poissons Ratio (y) = 0.41266 0.22884
# Poissons Ratio (z) = 0.22748 0.20087
#
# Static dielectric constant tensor:
#      x y z
#    x 3.020400 0.000000 -1.728350 
#    y 0.000000 5.324100 0.000000 
#    z -1.728350 0.000000 2.778170 
# 
# 
# High freq. dielectric constant tensor:
#      x y z
#    x 1.927360 0.000000 -0.010070 
#    y 0.000000 1.892790 0.000000 
#    z -0.010070 0.000000 1.919150 
# 
# From -- ./inp_files/73814.got.cif
#   From: 2010.06.25/outbox.cif.g09.slc.cpg/sg15_37_cif.got.tgz:73814.got - 2010.06.28 07:06:18.
