data_PCOD8150355
_publ_section_title
;
Structure prediction by ZEFSAII (Michael W. Deem and Ramdas Pophale) SiO2 
 PCOD8150355
Probable space group: C 2/C
;
_chemical_formula_sum "Si O2"
_cell_formula_units_Z 44
_cell_length_a 20.737241
_cell_length_b 5.443316
_cell_length_c 17.882896
_cell_angle_alpha 90.000000
_cell_angle_beta 111.592499
_cell_angle_gamma 90.000000
_cell_volume 1876.953175
_symmetry_space_group_name_H-M "C 2/C"
_symmetry_group_IT_number 15
_symmetry_cell_setting 'monoclinic'
loop_
_space_group_symop_operation_xyz
x,y,z
-x,y,1/2-z
-x,-y,-z
x,-y,1/2+z
1/2+x,1/2+y,z
1/2-x,1/2+y,1/2-z
1/2-x,1/2-y,-z
1/2+x,1/2-y,1/2+z
loop_
_atom_site_type_symbol
_atom_site_label
_atom_site_fract_x
_atom_site_fract_y
_atom_site_fract_z
Si Si1 0.000000 0.354402 0.250000
Si Si2 0.872303 0.958282 0.717147
Si Si3 0.732392 0.151926 0.909840
Si Si4 0.865439 0.900280 0.376622
Si Si5 0.924598 0.391078 0.458307
Si Si6 0.899628 0.346213 0.615381
O O1 0.968300 0.502727 0.166497
O O2 0.934857 0.226894 0.263182
O O3 0.854053 0.117182 0.782590
O O4 0.907718 0.091778 0.661711
O O5 0.798251 0.859955 0.657641
O O6 0.797738 0.030128 0.896019
O O7 0.673175 0.949974 0.888055
O O8 0.750000 0.250000 0.000000
O O9 0.883494 0.621280 0.406508
O O10 0.919489 0.128886 0.412283
O O11 0.894357 0.315169 0.525342
O O12 0.000000 0.500000 0.500000
#
# Coordination Sequence:
#
# PCOD8150355 Si02
#       6
#     4   8   8   8   8   8
#     4  10  24  46  70 108 140 186 256 298 376 432
#     4  11  27  43  76 104 149 194 245 309 369 446
#     4  11  25  48  70 105 144 192 247 297 371 441
#     4  12  29  47  74 109 150 190 249 308 367 443
#     4  12  28  48  77 108 150 192 246 306 376 441
#     4  11  25  45  76 100 145 196 241 303 370 449
#
# _framework density 23.442246999999998
#
# number of rings (size 3 to 8) (size 9 to 14) (size 15 to 20)
#    0.000    0.727    1.818    3.273   17.818    1.455 
#    0.000    0.000    0.000    0.000    0.000    0.000 
#    0.000    0.000    0.000    0.000    0.000    0.000 
#
# Total GULP energy -272584.634652 kJ/mol
# GULP energy per Si atom -12390.210666 kJ/mol
# Density = 2.338889 g / cm^3
# Si number density = 23.442247 Si / 1000 Ang^3
#
#
#
# Elastic Constant Matrix: (Units=GPa)
#
#
# Indices 1 2 3 4 5 6 
#
# 1 80.3704 2.6845 24.5317 0.0000 11.9491 0.0000
# 2 2.6845 93.4998 30.8107 0.0000 -1.7767 -0.0002
# 3 24.5317 30.8107 131.5471 0.0000 -12.9472 0.0000
# 4 0.0000 0.0000 0.0000 31.6996 0.0000 -6.4714
# 5 11.9491 -1.7767 -12.9472 0.0000 45.1510 0.0000
# 6 0.0000 -0.0002 0.0000 -6.4714 0.0000 -8.4162
#
#
#
# Elastic Compliance Matrix: (Units=1/GPa)
#
#
# Indices 1 2 3 4 5 6 
#
# 1 0.014094 0.000567 -0.003217 0.000000 -0.004630 0.000000
# 2 0.000567 0.011617 -0.002878 0.000000 -0.000518 0.000000
# 3 -0.003217 -0.002878 0.009208 0.000000 0.003379 0.000000
# 4 0.000000 0.000000 0.000000 0.027266 0.000000 -0.020966
# 5 -0.004630 -0.000518 0.003379 0.000000 0.024322 0.000000
# 6 0.000000 0.000000 0.000000 -0.020966 0.000000 -0.102698
#
#
# Mechanical properties :
#
#
# Convention : Reuss Voigt Hill
#
# Bulk Modulus (GPa) = 41.90265 46.83014 44.36639
# Shear Modulus (GPa) = 1773.85234 30.17956 902.01595
#
# Velocity S-wave (km/s) = 27.53785 3.59193 19.63715
# Velocity P-wave (km/s) = 32.07841 6.10105 23.08947
#
# Compressibility (1/GPa) = 0.02386484
#
# Stress axis : x y z
#
# Youngs Moduli (GPa) = 70.95367 86.07785 108.59752
#
# Poissons Ratio (x) = -0.04884 0.34934
# Poissons Ratio (y) = -0.04026 0.31253
# Poissons Ratio (z) = 0.22825 0.24772
#
# Static dielectric constant tensor:
#      x y z
#    x 6.067960 0.000040 4.083190 
#    y 0.000040 3.266700 0.000100 
#    z 4.083190 0.000100 12.907430 
# 
# 
# High freq. dielectric constant tensor:
#      x y z
#    x 1.934050 0.000000 0.001490 
#    y 0.000000 1.923820 0.000000 
#    z 0.001490 0.000000 1.947880 
# 
# From -- ./inp_files/212843.got.cif
#   From: 2010.06.25/outbox.cif.g09.slc.cpg/sg15_107_cif.got.tgz:212843.got - 2010.06.28 07:06:18.
