data_PCOD8150481
_publ_section_title
;
Structure prediction by ZEFSAII (Michael W. Deem and Ramdas Pophale) SiO2 
 PCOD8150481
Probable space group: C 2/C
;
_chemical_formula_sum "Si O2"
_cell_formula_units_Z 60
_cell_length_a 16.181503
_cell_length_b 8.596304
_cell_length_c 21.526369
_cell_angle_alpha 90.000000
_cell_angle_beta 63.097387
_cell_angle_gamma 90.000000
_cell_volume 2670.285025
_symmetry_space_group_name_H-M "C 2/C"
_symmetry_group_IT_number 15
_symmetry_cell_setting 'monoclinic'
loop_
_space_group_symop_operation_xyz
x,y,z
-x,y,1/2-z
-x,-y,-z
x,-y,1/2+z
1/2+x,1/2+y,z
1/2-x,1/2+y,1/2-z
1/2-x,1/2-y,-z
1/2+x,1/2-y,1/2+z
loop_
_atom_site_type_symbol
_atom_site_label
_atom_site_fract_x
_atom_site_fract_y
_atom_site_fract_z
Si Si1 0.204811 0.671860 0.874771
Si Si2 0.596203 0.813313 0.087289
Si Si3 0.138760 0.338203 0.611888
Si Si4 0.600615 0.182064 0.785189
Si Si5 0.000000 0.580547 0.250000
Si Si6 0.784550 0.835745 0.857046
Si Si7 0.887900 0.165425 0.546756
Si Si8 0.091636 0.170740 0.507591
O O1 0.273359 0.811494 0.872931
O O2 0.178893 0.668223 0.811222
O O3 0.255009 0.512201 0.871334
O O4 0.112669 0.699308 0.947481
O O5 0.496272 0.769734 0.150461
O O6 0.669396 0.695953 0.092225
O O7 0.631004 0.986440 0.089771
O O8 0.596730 0.788849 0.013684
O O9 0.142334 0.217558 0.553965
O O10 0.045943 0.307668 0.683494
O O11 0.641124 0.308489 0.723285
O O12 0.582235 0.024223 0.752566
O O13 0.694647 0.723233 0.880236
O O14 0.981431 0.161187 0.555953
O O15 0.866755 0.995067 0.526952
#
# Coordination Sequence:
#
# PCOD8150481 Si02
#       8
#     8   8   8   8   4   8   8   8
#     4  12  27  43  70 108 140 181 237 289 355 411
#     4  11  22  48  74  97 140 191 230 283 350 422
#     4  11  24  44  73  99 145 175 239 285 349 411
#     4  11  24  46  72  97 144 182 233 282 352 419
#     4  10  24  48  70  98 132 198 220 288 356 420
#     4  12  25  42  72 103 137 188 236 287 349 422
#     4  11  25  43  73 102 142 187 244 284 356 412
#     4  11  25  45  67 107 145 183 229 307 343 414
#
# _framework density 22.469512000000002
#
# number of rings (size 3 to 8) (size 9 to 14) (size 15 to 20)
#    0.000    0.800    4.000    3.200    5.600    1.067 
#    4.800    0.000    0.000    0.000    0.000    0.000 
#    0.000    0.000    0.000    0.000    0.000    0.000 
#
# Total GULP energy -371963.582265 kJ/mol
# GULP energy per Si atom -12398.786076 kJ/mol
# Density = 2.241837 g / cm^3
# Si number density = 22.469512 Si / 1000 Ang^3
#
#
#
# Elastic Constant Matrix: (Units=GPa)
#
#
# Indices 1 2 3 4 5 6 
#
# 1 109.7427 47.4442 26.5707 0.0000 6.8801 0.0001
# 2 47.4442 95.2736 30.2688 0.0001 -5.5867 0.0003
# 3 26.5707 30.2688 80.2488 0.0000 0.7500 0.0000
# 4 0.0000 0.0001 0.0000 24.2516 0.0000 -2.3576
# 5 6.8801 -5.5867 0.7500 0.0000 44.2033 0.0000
# 6 0.0001 0.0003 0.0000 -2.3576 0.0000 25.6252
#
#
#
# Elastic Compliance Matrix: (Units=1/GPa)
#
#
# Indices 1 2 3 4 5 6 
#
# 1 0.012152 -0.005603 -0.001886 0.000000 -0.002568 0.000000
# 2 -0.005603 0.014620 -0.003685 0.000000 0.002782 0.000000
# 3 -0.001886 -0.003685 0.014480 0.000000 -0.000418 0.000000
# 4 0.000000 0.000000 0.000000 0.041606 0.000000 0.003828
# 5 -0.002568 0.002782 -0.000418 0.000000 0.023381 0.000000
# 6 0.000000 0.000000 0.000000 0.003828 0.000000 0.039376
#
#
# Mechanical properties :
#
#
# Convention : Reuss Voigt Hill
#
# Bulk Modulus (GPa) = 52.90150 54.87025 53.88588
# Shear Modulus (GPa) = 28.69176 30.88144 29.78660
#
# Velocity S-wave (km/s) = 3.57728 3.71127 3.64489
# Velocity P-wave (km/s) = 6.37631 6.54504 6.46123
#
# Compressibility (1/GPa) = 0.01890306
#
# Stress axis : x y z
#
# Youngs Moduli (GPa) = 82.29030 68.39870 69.06160
#
# Poissons Ratio (x) = 0.38322 0.13027
# Poissons Ratio (y) = 0.46105 0.25452
# Poissons Ratio (z) = 0.15523 0.25208
#
# Static dielectric constant tensor:
#      x y z
#    x 4.182620 0.000000 -0.083880 
#    y 0.000000 3.812810 0.000000 
#    z -0.083880 0.000000 4.196190 
# 
# 
# High freq. dielectric constant tensor:
#      x y z
#    x 1.898240 0.000000 -0.005720 
#    y 0.000000 1.870770 0.000000 
#    z -0.005720 0.000000 1.889850 
# 
# From -- ./inp_files/273105.got.cif
#   From: 2010.06.25/outbox.cif.g09.slc.cpg/sg15_137_cif.got.tgz:273105.got - 2010.06.28 07:06:18.
