data_PCOD8150989
_publ_section_title
;
Structure prediction by ZEFSAII (Michael W. Deem and Ramdas Pophale) SiO2 
 PCOD8150989
Probable space group: C 2/C
;
_chemical_formula_sum "Si O2"
_cell_formula_units_Z 64
_cell_length_a 20.424713
_cell_length_b 11.552760
_cell_length_c 22.149006
_cell_angle_alpha 90.000000
_cell_angle_beta 38.409592
_cell_angle_gamma 90.000000
_cell_volume 3247.002394
_symmetry_space_group_name_H-M "C 2/C"
_symmetry_group_IT_number 15
_symmetry_cell_setting 'monoclinic'
loop_
_space_group_symop_operation_xyz
x,y,z
-x,y,1/2-z
-x,-y,-z
x,-y,1/2+z
1/2+x,1/2+y,z
1/2-x,1/2+y,1/2-z
1/2-x,1/2-y,-z
1/2+x,1/2-y,1/2+z
loop_
_atom_site_type_symbol
_atom_site_label
_atom_site_fract_x
_atom_site_fract_y
_atom_site_fract_z
Si Si1 0.657446 0.960811 0.597060
Si Si2 0.472205 0.777556 0.873202
Si Si3 0.727562 0.804788 0.079725
Si Si4 0.953480 0.898659 0.952215
Si Si5 0.652048 0.604578 0.620512
Si Si6 0.804710 0.702290 0.325371
Si Si7 0.420804 0.348447 0.525766
Si Si8 0.418062 0.374221 0.763317
O O1 0.569166 0.905389 0.616770
O O2 0.773873 0.947975 0.484541
O O3 0.651762 0.899277 0.664787
O O4 0.642125 0.094969 0.625632
O O5 0.437423 0.680720 0.848914
O O6 0.598687 0.771184 0.789008
O O7 0.431806 0.753836 0.969455
O O8 0.682992 0.711273 0.160530
O O9 0.750000 0.750000 0.000000
O O10 0.836201 0.852548 0.028322
O O11 0.005382 0.827968 0.969978
O O12 0.030573 0.882381 0.839592
O O13 0.948852 0.033066 0.971832
O O14 0.721389 0.687126 0.613389
O O15 0.605278 0.502578 0.694969
O O16 0.701266 0.659557 0.364143
O O17 0.500000 0.315275 0.750000
#
# Coordination Sequence:
#
# PCOD8150989 Si02
#       8
#     8   8   8   8   8   8   8   8
#     4  11  19  36  59  93 130 156 202 257 316 354
#     4  11  21  35  62  98 127 163 191 265 323 365
#     4  12  23  40  63  90 124 165 206 260 304 363
#     4  11  25  44  63  92 122 170 216 252 308 377
#     4  11  18  34  62  94 129 153 210 255 309 367
#     4  11  20  34  62  93 124 160 199 257 312 366
#     4  11  22  43  66  87 132 164 205 262 308 376
#     4  12  23  38  64  92 120 165 214 252 300 372
#
# _framework density 19.710488000000002
#
# number of rings (size 3 to 8) (size 9 to 14) (size 15 to 20)
#    0.000    0.750    6.250    4.500    0.000    2.000 
#    0.000    0.000    0.000    3.000    0.000    0.000 
#    0.000    0.000    0.000    0.000    0.000    0.000 
#
# Total GULP energy -396629.941474 kJ/mol
# GULP energy per Si atom -12394.685671 kJ/mol
# Density = 1.966563 g / cm^3
# Si number density = 19.710488 Si / 1000 Ang^3
#
#
#
# Elastic Constant Matrix: (Units=GPa)
#
#
# Indices 1 2 3 4 5 6 
#
# 1 113.6989 32.2399 40.7994 0.0000 3.1039 0.0000
# 2 32.2399 101.4518 35.0381 0.0000 5.2213 0.0000
# 3 40.7994 35.0381 104.0061 0.0000 -3.9343 0.0000
# 4 0.0000 0.0000 0.0000 24.4215 0.0000 -6.6219
# 5 3.1039 5.2213 -3.9343 0.0000 22.1682 0.0000
# 6 0.0000 0.0000 0.0000 -6.6219 0.0000 24.5335
#
#
#
# Elastic Compliance Matrix: (Units=1/GPa)
#
#
# Indices 1 2 3 4 5 6 
#
# 1 0.010710 -0.002090 -0.003559 0.000000 -0.001639 0.000000
# 2 -0.002090 0.011810 -0.003275 0.000000 -0.003070 0.000000
# 3 -0.003559 -0.003275 0.012245 0.000000 0.003443 0.000000
# 4 0.000000 0.000000 0.000000 0.044181 0.000000 0.011925
# 5 -0.001639 -0.003070 0.003443 0.000000 0.046673 0.000000
# 6 0.000000 0.000000 0.000000 0.011925 0.000000 0.043979
#
#
# Mechanical properties :
#
#
# Convention : Reuss Voigt Hill
#
# Bulk Modulus (GPa) = 59.11433 59.47906 59.29670
# Shear Modulus (GPa) = 25.89542 28.29661 27.09602
#
# Velocity S-wave (km/s) = 3.62855 3.79306 3.71172
# Velocity P-wave (km/s) = 6.90012 7.03029 6.96551
#
# Compressibility (1/GPa) = 0.01691637
#
# Stress axis : x y z
#
# Youngs Moduli (GPa) = 93.37398 84.67328 81.66921
#
# Poissons Ratio (x) = 0.17695 0.29067
# Poissons Ratio (y) = 0.19513 0.26747
# Poissons Ratio (z) = 0.33233 0.27730
#
# Static dielectric constant tensor:
#      x y z
#    x 3.199600 0.000000 0.044360 
#    y 0.000000 3.876560 0.000000 
#    z 0.044360 0.000000 3.611120 
# 
# 
# High freq. dielectric constant tensor:
#      x y z
#    x 1.740260 0.000000 -0.014260 
#    y 0.000000 1.765480 0.000000 
#    z -0.014260 0.000000 1.779580 
# 
# From -- ./inp_files/252550.got.cif
#   From: 2010.06.25/outbox.cif.g09.slc.cpg/sg15_127_cif.got.tgz:252550.got - 2010.06.28 07:06:18.
