data_PCOD8150801
_publ_section_title
;
Structure prediction by ZEFSAII (Michael W. Deem and Ramdas Pophale) SiO2 
 PCOD8150801
Probable space group: C 2/C
;
_chemical_formula_sum "Si O2"
_cell_formula_units_Z 36
_cell_length_a 14.269255
_cell_length_b 18.293364
_cell_length_c 8.711225
_cell_angle_alpha 90.000000
_cell_angle_beta 135.548116
_cell_angle_gamma 90.000000
_cell_volume 1592.445068
_symmetry_space_group_name_H-M "C 2/C"
_symmetry_group_IT_number 15
_symmetry_cell_setting 'monoclinic'
loop_
_space_group_symop_operation_xyz
x,y,z
-x,y,1/2-z
-x,-y,-z
x,-y,1/2+z
1/2+x,1/2+y,z
1/2-x,1/2+y,1/2-z
1/2-x,1/2-y,-z
1/2+x,1/2-y,1/2+z
loop_
_atom_site_type_symbol
_atom_site_label
_atom_site_fract_x
_atom_site_fract_y
_atom_site_fract_z
Si Si1 0.681916 0.551143 0.220175
Si Si2 0.916911 0.555581 0.999506
Si Si3 0.500000 0.509795 0.750000
Si Si4 0.268500 0.791463 0.859682
Si Si5 0.474088 0.786245 0.540235
O O1 0.768125 0.476666 0.340665
O O2 0.562391 0.545609 0.200604
O O3 0.774485 0.620186 0.373429
O O4 0.615117 0.557787 0.971381
O O5 0.911898 0.635499 0.914333
O O6 0.000000 0.566248 0.250000
O O7 0.000000 0.500000 0.000000
O O8 0.399373 0.765459 0.919273
O O9 0.136031 0.775726 0.608657
O O10 0.250000 0.750000 0.000000
O O11 0.500000 0.786684 0.750000
#
# Coordination Sequence:
#
# PCOD8150801 Si02
#       5
#     8   8   4   8   8
#     4  11  25  45  73 104 147 191 242 300 365 440
#     4  11  23  42  74 103 137 181 247 298 354 421
#     4  10  26  44  70 106 142 194 240 300 366 434
#     4  12  28  45  73 109 153 193 239 306 377 440
#     4  11  27  48  73 106 143 198 246 305 366 446
#
# _framework density 22.606743999999999
#
# number of rings (size 3 to 8) (size 9 to 14) (size 15 to 20)
#    0.000    0.889    2.222    2.667   14.000    1.778 
#    0.000    0.000    0.000    0.000    0.000    0.000 
#    0.000    0.000    0.000    0.000    0.000    0.000 
#
# Total GULP energy -223129.126282 kJ/mol
# GULP energy per Si atom -12396.062571 kJ/mol
# Density = 2.255529 g / cm^3
# Si number density = 22.606744 Si / 1000 Ang^3
#
#
#
# Elastic Constant Matrix: (Units=GPa)
#
#
# Indices 1 2 3 4 5 6 
#
# 1 147.7086 40.2683 35.8131 0.0000 7.5167 0.0000
# 2 40.2683 71.2279 30.0192 0.0000 1.4119 0.0000
# 3 35.8131 30.0192 118.2167 0.0000 3.4396 0.0000
# 4 0.0000 0.0000 0.0000 35.8289 0.0000 6.0942
# 5 7.5167 1.4119 3.4396 0.0000 44.2183 0.0000
# 6 0.0000 0.0000 0.0000 6.0942 0.0000 28.7723
#
#
#
# Elastic Compliance Matrix: (Units=1/GPa)
#
#
# Indices 1 2 3 4 5 6 
#
# 1 0.008285 -0.004051 -0.001447 0.000000 -0.001166 0.000000
# 2 -0.004051 0.017704 -0.003280 0.000000 0.000378 0.000000
# 3 -0.001447 -0.003280 0.009742 0.000000 -0.000407 0.000000
# 4 0.000000 0.000000 0.000000 0.028954 0.000000 -0.006133
# 5 -0.001166 0.000378 -0.000407 0.000000 0.022833 0.000000
# 6 0.000000 0.000000 0.000000 -0.006133 0.000000 0.036055
#
#
# Mechanical properties :
#
#
# Convention : Reuss Voigt Hill
#
# Bulk Modulus (GPa) = 55.01760 61.03936 58.02848
# Shear Modulus (GPa) = 33.97075 37.16740 35.56908
#
# Velocity S-wave (km/s) = 3.88065 4.05913 3.97089
# Velocity P-wave (km/s) = 6.66850 7.00199 6.83728
#
# Compressibility (1/GPa) = 0.01817600
#
# Stress axis : x y z
#
# Youngs Moduli (GPa) = 120.70576 56.48405 102.64706
#
# Poissons Ratio (x) = 0.22879 0.14856
# Poissons Ratio (y) = 0.48893 0.33664
# Poissons Ratio (z) = 0.17469 0.18524
#
# Static dielectric constant tensor:
#      x y z
#    x 5.313390 0.000000 0.292820 
#    y 0.000000 6.382260 0.000000 
#    z 0.292820 0.000000 4.258120 
# 
# 
# High freq. dielectric constant tensor:
#      x y z
#    x 1.904990 0.000000 0.000920 
#    y 0.000000 1.888050 0.000000 
#    z 0.000920 0.000000 1.897550 
# 
# From -- ./inp_files/41317.got.cif
#   From: 2010.06.25/outbox.cif.g09.slc.cpg/sg15_21_cif.got.tgz:41317.got - 2010.06.28 07:06:18.
