data_PCOD8150151
_publ_section_title
;
Structure prediction by ZEFSAII (Michael W. Deem and Ramdas Pophale) SiO2 
 PCOD8150151
Probable space group: C 2/C
;
_chemical_formula_sum "Si O2"
_cell_formula_units_Z 40
_cell_length_a 13.846004
_cell_length_b 13.963278
_cell_length_c 13.654041
_cell_angle_alpha 90.000000
_cell_angle_beta 41.907274
_cell_angle_gamma 90.000000
_cell_volume 1763.201994
_symmetry_space_group_name_H-M "C 2/C"
_symmetry_group_IT_number 15
_symmetry_cell_setting 'monoclinic'
loop_
_space_group_symop_operation_xyz
x,y,z
-x,y,1/2-z
-x,-y,-z
x,-y,1/2+z
1/2+x,1/2+y,z
1/2-x,1/2+y,1/2-z
1/2-x,1/2-y,-z
1/2+x,1/2-y,1/2+z
loop_
_atom_site_type_symbol
_atom_site_label
_atom_site_fract_x
_atom_site_fract_y
_atom_site_fract_z
Si Si1 0.493967 0.352346 0.883006
Si Si2 0.500000 0.043902 0.750000
Si Si3 0.000000 0.970932 0.250000
Si Si4 0.198882 0.614252 0.027220
Si Si5 0.315980 0.727669 0.106989
Si Si6 0.698814 0.201339 0.678164
O O1 0.499880 0.462861 0.847522
O O2 0.553755 0.338534 0.948808
O O3 0.598361 0.293900 0.728335
O O4 0.332054 0.308399 0.003254
O O5 0.598351 0.107178 0.748030
O O6 0.601766 0.980428 0.602857
O O7 0.858219 0.905294 0.362384
O O8 0.123335 0.693063 0.014784
O O9 0.206853 0.657232 0.131578
O O10 0.243454 0.784263 0.253568
#
# Coordination Sequence:
#
# PCOD8150151 Si02
#       6
#     8   4   4   8   8   8
#     4  10  24  44  70  96 131 179 215 274 329 399
#     4  12  25  41  68 100 134 164 234 273 329 378
#     4  12  25  41  70 102 134 164 236 269 329 380
#     4  11  26  42  68 101 132 180 213 283 321 397
#     4   9  26  45  69  91 143 174 224 256 351 388
#     4  10  24  44  69  96 131 177 219 273 332 394
#
# _framework density 22.685998999999999
#
# number of rings (size 3 to 8) (size 9 to 14) (size 15 to 20)
#    1.200    0.400    2.000    0.600    8.400    6.400 
#    0.000    0.000    0.000    0.000    0.000    0.000 
#    0.000    0.000    0.000    0.000    0.000    0.000 
#
# Total GULP energy -247845.456337 kJ/mol
# GULP energy per Si atom -12392.272817 kJ/mol
# Density = 2.263437 g / cm^3
# Si number density = 22.685999 Si / 1000 Ang^3
#
#
#
# Elastic Constant Matrix: (Units=GPa)
#
#
# Indices 1 2 3 4 5 6 
#
# 1 100.4545 29.8645 35.0643 0.0001 7.8470 0.0000
# 2 29.8645 85.2009 18.4849 0.0000 3.8308 0.0000
# 3 35.0643 18.4849 114.9300 0.0001 -2.1320 0.0000
# 4 0.0001 0.0000 0.0001 30.9252 -0.0001 6.2078
# 5 7.8470 3.8308 -2.1320 -0.0001 17.4266 0.0000
# 6 0.0000 0.0000 0.0000 6.2078 0.0000 14.5028
#
#
#
# Elastic Compliance Matrix: (Units=1/GPa)
#
#
# Indices 1 2 3 4 5 6 
#
# 1 0.012572 -0.003434 -0.003382 0.000000 -0.005320 0.000000
# 2 -0.003434 0.013249 -0.001111 0.000000 -0.001502 0.000000
# 3 -0.003382 -0.001111 0.009967 0.000000 0.002987 0.000000
# 4 0.000000 0.000000 0.000000 0.035376 0.000000 -0.015142
# 5 -0.005320 -0.001502 0.002987 0.000000 0.060475 0.000000
# 6 0.000000 0.000000 0.000000 -0.015142 0.000000 0.075434
#
#
# Mechanical properties :
#
#
# Convention : Reuss Voigt Hill
#
# Bulk Modulus (GPa) = 50.16554 51.93476 51.05015
# Shear Modulus (GPa) = 21.77981 27.04903 24.41442
#
# Velocity S-wave (km/s) = 3.10184 3.45675 3.28409
# Velocity P-wave (km/s) = 5.91519 6.23496 6.07718
#
# Compressibility (1/GPa) = 0.01993400
#
# Stress axis : x y z
#
# Youngs Moduli (GPa) = 79.54440 75.47652 100.33237
#
# Poissons Ratio (x) = 0.25916 0.33932
# Poissons Ratio (y) = 0.27313 0.11149
# Poissons Ratio (z) = 0.26901 0.08387
#
# Static dielectric constant tensor:
#      x y z
#    x 4.030010 0.000000 -0.031030 
#    y 0.000000 3.964270 0.000000 
#    z -0.031030 0.000000 3.770740 
# 
# 
# High freq. dielectric constant tensor:
#      x y z
#    x 1.898550 0.000000 0.002020 
#    y 0.000000 1.893250 0.000000 
#    z 0.002020 0.000000 1.884780 
# 
# From -- ./inp_files/211041.got.cif
#   From: 2010.06.25/outbox.cif.g09.slc.cpg/sg15_106_cif.got.tgz:211041.got - 2010.06.28 07:06:18.
