data_PCOD8150163
_publ_section_title
;
Structure prediction by ZEFSAII (Michael W. Deem and Ramdas Pophale) SiO2 
 PCOD8150163
Probable space group: C 2/C
;
_chemical_formula_sum "Si O2"
_cell_formula_units_Z 48
_cell_length_a 14.390763
_cell_length_b 10.565785
_cell_length_c 26.912311
_cell_angle_alpha 90.000000
_cell_angle_beta 29.091843
_cell_angle_gamma 90.000000
_cell_volume 1989.579717
_symmetry_space_group_name_H-M "C 2/C"
_symmetry_group_IT_number 15
_symmetry_cell_setting 'monoclinic'
loop_
_space_group_symop_operation_xyz
x,y,z
-x,y,1/2-z
-x,-y,-z
x,-y,1/2+z
1/2+x,1/2+y,z
1/2-x,1/2+y,1/2-z
1/2-x,1/2-y,-z
1/2+x,1/2-y,1/2+z
loop_
_atom_site_type_symbol
_atom_site_label
_atom_site_fract_x
_atom_site_fract_y
_atom_site_fract_z
Si Si1 0.481884 0.703622 0.139593
Si Si2 0.740422 0.096435 0.561799
Si Si3 0.916039 0.244941 0.567965
Si Si4 0.160405 0.313700 0.632563
Si Si5 0.105489 0.822631 0.311016
Si Si6 0.355631 0.456223 0.778131
O O1 0.587157 0.838905 0.095961
O O2 0.264235 0.717956 0.223605
O O3 0.486869 0.654239 0.193821
O O4 0.567695 0.602214 0.060898
O O5 0.776075 0.172237 0.595979
O O6 0.681657 0.955070 0.601885
O O7 0.915139 0.165685 0.619865
O O8 0.839696 0.390585 0.609606
O O9 0.134919 0.243621 0.444822
O O10 0.000000 0.308872 0.750000
O O11 0.094897 0.223586 0.617994
O O12 0.187154 0.949777 0.247396
O O13 0.500000 0.523438 0.750000
#
# Coordination Sequence:
#
# PCOD8150163 Si02
#       6
#     8   8   8   8   8   8
#     4  10  24  44  70 103 138 184 242 288 363 413
#     4  11  24  45  71 103 135 186 240 300 347 428
#     4  11  25  46  73 108 141 193 238 289 362 419
#     4  12  27  45  73 104 148 183 246 292 357 414
#     4  11  26  45  72 106 146 187 235 298 358 419
#     4  11  23  46  72 102 147 185 239 291 356 429
#
# _framework density 24.125696999999999
#
# number of rings (size 3 to 8) (size 9 to 14) (size 15 to 20)
#    0.000    1.000    1.667    3.500    9.333    0.000 
#    3.000    2.500    0.000    0.000    0.000    0.000 
#    0.000    0.000    0.000    0.000    0.000    0.000 
#
# Total GULP energy -297431.735557 kJ/mol
# GULP energy per Si atom -12392.988982 kJ/mol
# Density = 2.407079 g / cm^3
# Si number density = 24.125697 Si / 1000 Ang^3
#
#
#
# Elastic Constant Matrix: (Units=GPa)
#
#
# Indices 1 2 3 4 5 6 
#
# 1 89.2138 27.5202 27.7295 0.0004 -1.0921 0.0001
# 2 27.5202 70.3755 39.7715 0.0006 -11.5897 0.0000
# 3 27.7295 39.7715 138.0009 -0.0021 8.3465 0.0016
# 4 0.0004 0.0006 -0.0021 20.1536 0.0015 -2.9175
# 5 -1.0921 -11.5897 8.3465 0.0015 28.0383 -0.0003
# 6 0.0001 0.0000 0.0016 -2.9175 -0.0003 31.6611
#
#
#
# Elastic Compliance Matrix: (Units=1/GPa)
#
#
# Indices 1 2 3 4 5 6 
#
# 1 0.012983 -0.004542 -0.001239 0.000000 -0.001003 0.000000
# 2 -0.004542 0.020894 -0.005724 -0.000002 0.010164 0.000000
# 3 -0.001239 -0.005724 0.009461 0.000002 -0.005231 0.000000
# 4 0.000000 -0.000002 0.000002 0.050290 -0.000004 0.004634
# 5 -0.001003 0.010164 -0.005231 -0.000004 0.041385 0.000000
# 6 0.000000 0.000000 0.000000 0.004634 0.000000 0.032012
#
#
# Mechanical properties :
#
#
# Convention : Reuss Voigt Hill
#
# Bulk Modulus (GPa) = 49.19122 54.18143 51.68632
# Shear Modulus (GPa) = 25.40525 29.47518 27.44022
#
# Velocity S-wave (km/s) = 3.24857 3.49912 3.37617
# Velocity P-wave (km/s) = 5.87408 6.23152 6.05544
#
# Compressibility (1/GPa) = 0.02032883
#
# Stress axis : x y z
#
# Youngs Moduli (GPa) = 77.02411 47.86073 105.69460
#
# Poissons Ratio (x) = 0.21737 0.13097
# Poissons Ratio (y) = 0.34983 0.60496
# Poissons Ratio (z) = 0.09545 0.27394
#
# Static dielectric constant tensor:
#      x y z
#    x 4.236280 0.000000 0.014820 
#    y 0.000000 4.152980 0.000000 
#    z 0.014820 0.000000 4.557640 
# 
# 
# High freq. dielectric constant tensor:
#      x y z
#    x 1.963800 0.000000 0.003570 
#    y 0.000000 1.948010 0.000000 
#    z 0.003570 0.000000 1.966310 
# 
# From -- ./inp_files/296051.got.cif
#   From: 2010.06.25/outbox.cif.g09.slc.cpg/sg15_149_cif.got.tgz:296051.got - 2010.06.28 07:06:18.
