data_PCOD8150495
_publ_section_title
;
Structure prediction by ZEFSAII (Michael W. Deem and Ramdas Pophale) SiO2 
 PCOD8150495
Probable space group: C 2/C
;
_chemical_formula_sum "Si O2"
_cell_formula_units_Z 36
_cell_length_a 7.841931
_cell_length_b 29.954115
_cell_length_c 9.280813
_cell_angle_alpha 90.000000
_cell_angle_beta 134.124445
_cell_angle_gamma 90.000000
_cell_volume 1564.900493
_symmetry_space_group_name_H-M "C 2/C"
_symmetry_group_IT_number 15
_symmetry_cell_setting 'monoclinic'
loop_
_space_group_symop_operation_xyz
x,y,z
-x,y,1/2-z
-x,-y,-z
x,-y,1/2+z
1/2+x,1/2+y,z
1/2-x,1/2+y,1/2-z
1/2-x,1/2-y,-z
1/2+x,1/2-y,1/2+z
loop_
_atom_site_type_symbol
_atom_site_label
_atom_site_fract_x
_atom_site_fract_y
_atom_site_fract_z
Si Si1 0.000000 0.506003 0.750000
Si Si2 0.547662 0.699577 0.123584
Si Si3 0.946949 0.361121 0.881545
Si Si4 0.773787 0.445138 0.375208
Si Si5 0.232222 0.211435 0.802270
O O1 0.188831 0.533572 0.762009
O O2 0.844204 0.477482 0.547316
O O3 0.500000 0.721533 0.250000
O O4 0.664556 0.650250 0.216849
O O5 0.717202 0.735931 0.143609
O O6 0.308234 0.696094 0.888184
O O7 0.000000 0.371985 0.750000
O O8 0.044747 0.403189 0.027092
O O9 0.049948 0.315483 0.004880
O O10 0.500000 0.431134 0.250000
O O11 0.000000 0.196196 0.750000
#
# Coordination Sequence:
#
# PCOD8150495 Si02
#       5
#     4   8   8   8   8
#     4  10  24  48  76 108 138 176 220 280 346 426
#     4  12  26  41  62  96 132 180 231 287 335 391
#     4  12  25  43  66  99 137 177 233 282 329 405
#     4  11  24  46  75 106 141 178 223 278 347 410
#     4  12  23  41  66  88 129 183 233 274 335 398
#
# _framework density 23.004659
#
# number of rings (size 3 to 8) (size 9 to 14) (size 15 to 20)
#    0.000    0.444    5.556    3.333    0.000    1.778 
#    0.000    1.111    0.000    0.000    0.000    0.000 
#    0.000    0.000    0.000    0.000    0.000    0.000 
#
# Total GULP energy -223037.887998 kJ/mol
# GULP energy per Si atom -12390.993778 kJ/mol
# Density = 2.295230 g / cm^3
# Si number density = 23.004659 Si / 1000 Ang^3
#
#
#
# Elastic Constant Matrix: (Units=GPa)
#
#
# Indices 1 2 3 4 5 6 
#
# 1 63.3061 22.2712 7.8542 0.0000 -10.1550 0.0000
# 2 22.2712 112.0211 21.6794 0.0000 5.3584 0.0000
# 3 7.8542 21.6794 82.4727 0.0000 -11.3959 0.0000
# 4 0.0000 0.0000 0.0000 39.0697 0.0000 3.5853
# 5 -10.1550 5.3584 -11.3959 0.0000 39.5069 0.0000
# 6 0.0000 0.0000 0.0000 3.5853 0.0000 17.2992
#
#
#
# Elastic Compliance Matrix: (Units=1/GPa)
#
#
# Indices 1 2 3 4 5 6 
#
# 1 0.017963 -0.003817 0.000002 0.000000 0.005136 0.000000
# 2 -0.003817 0.010382 -0.002808 0.000000 -0.003199 0.000000
# 3 0.000002 -0.002808 0.013452 0.000000 0.004262 0.000000
# 4 0.000000 0.000000 0.000000 0.026091 0.000000 -0.005407
# 5 0.005136 -0.003199 0.004262 0.000000 0.028295 0.000000
# 6 0.000000 0.000000 0.000000 -0.005407 0.000000 0.058927
#
#
# Mechanical properties :
#
#
# Convention : Reuss Voigt Hill
#
# Bulk Modulus (GPa) = 35.02420 40.15662 37.59041
# Shear Modulus (GPa) = 28.10997 32.90817 30.50907
#
# Velocity S-wave (km/s) = 3.49940 3.78630 3.64567
# Velocity P-wave (km/s) = 5.62011 6.05050 5.83927
#
# Compressibility (1/GPa) = 0.02855168
#
# Stress axis : x y z
#
# Youngs Moduli (GPa) = 55.67084 96.31837 74.33887
#
# Poissons Ratio (x) = 0.36768 -0.00018
# Poissons Ratio (y) = 0.21252 0.20872
# Poissons Ratio (z) = -0.00014 0.27043
#
# Static dielectric constant tensor:
#      x y z
#    x 6.001080 0.000000 0.387140 
#    y 0.000000 3.938330 0.000000 
#    z 0.387140 0.000000 4.723100 
# 
# 
# High freq. dielectric constant tensor:
#      x y z
#    x 1.896450 0.000000 -0.009240 
#    y 0.000000 1.887750 0.000000 
#    z -0.009240 0.000000 1.937850 
# 
# From -- ./inp_files/25890.got.cif
#   From: 2010.06.25/outbox.cif.g09.slc.cpg/sg15_13_cif.got.tgz:25890.got - 2010.06.28 07:06:18.
