data_PCOD8150120
_publ_section_title
;
Structure prediction by ZEFSAII (Michael W. Deem and Ramdas Pophale) SiO2 
 PCOD8150120
Probable space group: C 2/C
;
_chemical_formula_sum "Si O2"
_cell_formula_units_Z 36
_cell_length_a 12.005460
_cell_length_b 12.680578
_cell_length_c 11.381718
_cell_angle_alpha 90.000000
_cell_angle_beta 115.719251
_cell_angle_gamma 90.000000
_cell_volume 1561.051870
_symmetry_space_group_name_H-M "C 2/C"
_symmetry_group_IT_number 15
_symmetry_cell_setting 'monoclinic'
loop_
_space_group_symop_operation_xyz
x,y,z
-x,y,1/2-z
-x,-y,-z
x,-y,1/2+z
1/2+x,1/2+y,z
1/2-x,1/2+y,1/2-z
1/2-x,1/2-y,-z
1/2+x,1/2-y,1/2+z
loop_
_atom_site_type_symbol
_atom_site_label
_atom_site_fract_x
_atom_site_fract_y
_atom_site_fract_z
Si Si1 0.372180 0.526252 0.123751
Si Si2 0.386241 0.072775 0.405330
Si Si3 0.633171 0.311344 0.491804
Si Si4 0.500000 0.822582 0.750000
Si Si5 0.036696 0.754448 0.895256
O O1 0.500000 0.504437 0.250000
O O2 0.248107 0.517428 0.147377
O O3 0.357574 0.436896 0.017941
O O4 0.378172 0.641214 0.068243
O O5 0.400360 0.102658 0.272252
O O6 0.386378 0.170688 0.495108
O O7 0.500000 0.000000 0.500000
O O8 0.750000 0.250000 0.500000
O O9 0.529428 0.257747 0.366358
O O10 0.596741 0.285672 0.609101
O O11 0.000000 0.711064 0.750000
#
# Coordination Sequence:
#
# PCOD8150120 Si02
#       5
#     8   8   8   4   8
#     4  11  23  44  72 105 138 181 235 295 357 403
#     4  11  25  48  69 103 140 189 233 290 347 430
#     4  11  23  45  70  99 139 186 232 288 352 427
#     4  10  24  44  68  96 136 182 234 278 352 422
#     4  10  24  44  68 105 141 182 233 289 349 417
#
# _framework density 23.061373
#
# number of rings (size 3 to 8) (size 9 to 14) (size 15 to 20)
#    0.000    1.333    1.111    4.000    7.778    0.000 
#    4.000    0.000    0.000    0.000    0.000    0.000 
#    0.000    0.000    0.000    0.000    0.000    0.000 
#
# Total GULP energy -222991.082270 kJ/mol
# GULP energy per Si atom -12388.393459 kJ/mol
# Density = 2.300888 g / cm^3
# Si number density = 23.061373 Si / 1000 Ang^3
#
#
#
# Elastic Constant Matrix: (Units=GPa)
#
#
# Indices 1 2 3 4 5 6 
#
# 1 168.7235 22.6042 36.2235 0.0000 -10.9111 0.0000
# 2 22.6042 93.6109 23.2539 0.0000 0.7550 0.0000
# 3 36.2235 23.2539 90.0597 0.0000 -27.8254 0.0000
# 4 0.0000 0.0000 0.0000 19.4814 0.0000 -5.2291
# 5 -10.9111 0.7550 -27.8254 0.0000 40.6174 0.0000
# 6 0.0000 0.0000 0.0000 -5.2291 0.0000 39.0431
#
#
#
# Elastic Compliance Matrix: (Units=1/GPa)
#
#
# Indices 1 2 3 4 5 6 
#
# 1 0.006574 -0.001012 -0.002323 0.000000 0.000193 0.000000
# 2 -0.001012 0.011833 -0.003552 0.000000 -0.002925 0.000000
# 3 -0.002323 -0.003552 0.016215 0.000000 0.010550 0.000000
# 4 0.000000 0.000000 0.000000 0.053245 0.000000 0.007131
# 5 0.000193 -0.002925 0.010550 0.000000 0.031954 0.000000
# 6 0.000000 0.000000 0.000000 0.007131 0.000000 0.026568
#
#
# Mechanical properties :
#
#
# Convention : Reuss Voigt Hill
#
# Bulk Modulus (GPa) = 47.96751 57.39524 52.68137
# Shear Modulus (GPa) = 29.92017 37.84921 33.88469
#
# Velocity S-wave (km/s) = 3.60587 4.05562 3.83734
# Velocity P-wave (km/s) = 6.17912 6.84637 6.52128
#
# Compressibility (1/GPa) = 0.02084744
#
# Stress axis : x y z
#
# Youngs Moduli (GPa) = 152.12245 84.51080 61.67154
#
# Poissons Ratio (x) = 0.08551 0.14327
# Poissons Ratio (y) = 0.15392 0.21906
# Poissons Ratio (z) = 0.35339 0.30019
#
# Static dielectric constant tensor:
#      x y z
#    x 4.736010 0.000000 -0.358110 
#    y 0.000000 4.187610 0.000000 
#    z -0.358110 0.000000 3.847370 
# 
# 
# High freq. dielectric constant tensor:
#      x y z
#    x 1.926420 0.000000 -0.017810 
#    y 0.000000 1.920410 0.000000 
#    z -0.017810 0.000000 1.894550 
# 
# From -- ./inp_files/84359.got.cif
#   From: 2010.06.25/outbox.cif.g09.slc.cpg/sg15_43_cif.got.tgz:84359.got - 2010.06.28 07:06:18.
