data_PCOD8150787
_publ_section_title
;
Structure prediction by ZEFSAII (Michael W. Deem and Ramdas Pophale) SiO2 
 PCOD8150787
Probable space group: C 2/C
;
_chemical_formula_sum "Si O2"
_cell_formula_units_Z 44
_cell_length_a 29.009728
_cell_length_b 8.658654
_cell_length_c 8.012933
_cell_angle_alpha 90.000000
_cell_angle_beta 64.051243
_cell_angle_gamma 90.000000
_cell_volume 1809.818272
_symmetry_space_group_name_H-M "C 2/C"
_symmetry_group_IT_number 15
_symmetry_cell_setting 'monoclinic'
loop_
_space_group_symop_operation_xyz
x,y,z
-x,y,1/2-z
-x,-y,-z
x,-y,1/2+z
1/2+x,1/2+y,z
1/2-x,1/2+y,1/2-z
1/2-x,1/2-y,-z
1/2+x,1/2-y,1/2+z
loop_
_atom_site_type_symbol
_atom_site_label
_atom_site_fract_x
_atom_site_fract_y
_atom_site_fract_z
Si Si1 0.479230 0.340005 0.966373
Si Si2 0.500000 0.866658 0.750000
Si Si3 0.386666 0.060684 0.432576
Si Si4 0.211674 0.075429 0.900521
Si Si5 0.188966 0.768534 0.774236
Si Si6 0.368221 0.765877 0.629491
O O1 0.500000 0.296809 0.750000
O O2 0.500000 0.500000 0.000000
O O3 0.496428 0.222827 0.081716
O O4 0.417765 0.344697 0.050107
O O5 0.551999 0.964004 0.646981
O O6 0.365434 0.188420 0.598119
O O7 0.367966 0.120475 0.285827
O O8 0.364757 0.887592 0.481767
O O9 0.270542 0.127964 0.801645
O O10 0.180983 0.155953 0.796939
O O11 0.206976 0.890237 0.889412
O O12 0.184573 0.132299 0.112750
#
# Coordination Sequence:
#
# PCOD8150787 Si02
#       6
#     8   4   8   8   8   8
#     4  11  25  42  68  97 137 183 232 294 348 421
#     4  10  26  44  66 102 138 184 242 284 362 416
#     4  11  25  45  68 100 139 183 231 294 344 421
#     4  11  25  44  70 106 135 187 229 288 354 420
#     4  11  25  44  72 100 145 179 234 289 350 420
#     4  11  26  42  70 100 136 182 234 286 355 415
#
# _framework density 24.311834000000001
#
# number of rings (size 3 to 8) (size 9 to 14) (size 15 to 20)
#    0.000    1.091    0.909    3.273    8.909    7.273 
#    0.000    0.000    0.000    0.000    0.000    0.000 
#    0.000    0.000    0.000    0.000    0.000    0.000 
#
# Total GULP energy -272744.423485 kJ/mol
# GULP energy per Si atom -12397.473795 kJ/mol
# Density = 2.425650 g / cm^3
# Si number density = 24.311834 Si / 1000 Ang^3
#
#
#
# Elastic Constant Matrix: (Units=GPa)
#
#
# Indices 1 2 3 4 5 6 
#
# 1 71.7769 0.8353 20.0600 0.0000 -1.9338 0.0000
# 2 0.8353 86.7770 9.3676 0.0000 -15.3503 0.0000
# 3 20.0600 9.3676 104.3757 0.0000 2.0850 0.0000
# 4 0.0000 0.0000 0.0000 25.7259 0.0000 -0.3161
# 5 -1.9338 -15.3503 2.0850 0.0000 30.8221 0.0000
# 6 0.0000 0.0000 0.0000 -0.3161 0.0000 34.3565
#
#
#
# Elastic Compliance Matrix: (Units=1/GPa)
#
#
# Indices 1 2 3 4 5 6 
#
# 1 0.014774 0.000406 -0.002902 0.000000 0.001325 0.000000
# 2 0.000406 0.012816 -0.001358 0.000000 0.006500 0.000000
# 3 -0.002902 -0.001358 0.010292 0.000000 -0.001555 0.000000
# 4 0.000000 0.000000 0.000000 0.038876 0.000000 0.000358
# 5 0.001325 0.006500 -0.001555 0.000000 0.035870 0.000000
# 6 0.000000 0.000000 0.000000 0.000358 0.000000 0.029110
#
#
# Mechanical properties :
#
#
# Convention : Reuss Voigt Hill
#
# Bulk Modulus (GPa) = 33.14292 35.93947 34.54119
# Shear Modulus (GPa) = 31.34705 33.69200 32.51953
#
# Velocity S-wave (km/s) = 3.59468 3.72671 3.66129
# Velocity P-wave (km/s) = 5.55797 5.77344 5.66673
#
# Compressibility (1/GPa) = 0.03017236
#
# Stress axis : x y z
#
# Youngs Moduli (GPa) = 67.68565 78.02547 97.16746
#
# Poissons Ratio (x) = -0.03164 0.28201
# Poissons Ratio (y) = -0.02745 0.13196
# Poissons Ratio (z) = 0.19645 0.10596
#
# Static dielectric constant tensor:
#      x y z
#    x 4.333230 0.000000 0.076990 
#    y 0.000000 4.677410 0.000000 
#    z 0.076990 0.000000 4.619750 
# 
# 
# High freq. dielectric constant tensor:
#      x y z
#    x 1.967240 0.000000 0.008370 
#    y 0.000000 1.969860 0.000000 
#    z 0.008370 0.000000 1.976590 
# 
# From -- ./inp_files/68495.got.cif
#   From: 2010.06.25/outbox.cif.g09.slc.cpg/sg15_35_cif.got.tgz:68495.got - 2010.06.28 07:06:18.
