data_PCOD8150822
_publ_section_title
;
Structure prediction by ZEFSAII (Michael W. Deem and Ramdas Pophale) SiO2 
 PCOD8150822
Probable space group: C 2/C
;
_chemical_formula_sum "Si O2"
_cell_formula_units_Z 56
_cell_length_a 15.236383
_cell_length_b 10.651285
_cell_length_c 15.077996
_cell_angle_alpha 90.000000
_cell_angle_beta 99.678520
_cell_angle_gamma 90.000000
_cell_volume 2412.134912
_symmetry_space_group_name_H-M "C 2/C"
_symmetry_group_IT_number 15
_symmetry_cell_setting 'monoclinic'
loop_
_space_group_symop_operation_xyz
x,y,z
-x,y,1/2-z
-x,-y,-z
x,-y,1/2+z
1/2+x,1/2+y,z
1/2-x,1/2+y,1/2-z
1/2-x,1/2-y,-z
1/2+x,1/2-y,1/2+z
loop_
_atom_site_type_symbol
_atom_site_label
_atom_site_fract_x
_atom_site_fract_y
_atom_site_fract_z
Si Si1 0.500000 0.607540 0.750000
Si Si2 0.301739 0.757146 0.207991
Si Si3 0.632508 0.818363 0.772949
Si Si4 0.500000 0.976538 0.250000
Si Si5 0.227034 0.885971 0.036868
Si Si6 0.929043 0.904366 0.607040
Si Si7 0.058584 0.688485 0.622947
Si Si8 0.676010 0.857760 0.977249
O O1 0.581544 0.693877 0.730764
O O2 0.464549 0.529253 0.659858
O O3 0.231034 0.675483 0.250884
O O4 0.249028 0.866720 0.144752
O O5 0.357728 0.660916 0.158949
O O6 0.365413 0.821826 0.289558
O O7 0.582578 0.941298 0.730636
O O8 0.628556 0.825873 0.878034
O O9 0.520350 0.894966 0.343924
O O10 0.284873 0.001845 0.010355
O O11 0.250000 0.750000 0.000000
O O12 0.124168 0.923457 0.995451
O O13 0.017766 0.825571 0.602093
O O14 0.098510 0.643165 0.537572
O O15 0.750000 0.750000 0.000000
#
# Coordination Sequence:
#
# PCOD8150822 Si02
#       8
#     4   8   8   4   8   8   8   8
#     4  11  23  46  70 104 153 193 246 312 380 455
#     4  11  22  47  71 103 142 194 247 307 370 455
#     4  11  27  43  70 105 147 191 248 307 376 441
#     4  11  25  44  66 110 133 195 242 294 374 437
#     4  10  26  45  73 110 146 193 258 305 379 458
#     4  11  23  45  72 110 139 196 255 305 382 446
#     4  12  24  45  77  99 153 194 244 312 371 452
#     4  12  26  47  70 111 149 193 252 310 378 447
#
# _framework density 23.215949999999999
#
# number of rings (size 3 to 8) (size 9 to 14) (size 15 to 20)
#    0.000    0.857    4.286    1.714    6.000    5.143 
#    0.000    2.143    0.000    0.000    0.000    0.000 
#    0.000    0.000    0.000    0.000    0.000    0.000 
#
# Total GULP energy -347014.906646 kJ/mol
# GULP energy per Si atom -12393.389523 kJ/mol
# Density = 2.316311 g / cm^3
# Si number density = 23.215950 Si / 1000 Ang^3
#
#
#
# Elastic Constant Matrix: (Units=GPa)
#
#
# Indices 1 2 3 4 5 6 
#
# 1 97.4322 46.7612 48.0393 0.0000 0.7713 0.0000
# 2 46.7612 125.9684 17.6948 0.0000 -7.4670 0.0000
# 3 48.0393 17.6948 104.8911 0.0000 -0.4422 0.0000
# 4 0.0000 0.0000 0.0000 26.2773 0.0000 7.1987
# 5 0.7713 -7.4670 -0.4422 0.0000 57.0512 0.0000
# 6 0.0000 0.0000 0.0000 7.1987 0.0000 11.5927
#
#
#
# Elastic Compliance Matrix: (Units=1/GPa)
#
#
# Indices 1 2 3 4 5 6 
#
# 1 0.015851 -0.005038 -0.006414 0.000000 -0.000923 0.000000
# 2 -0.005038 0.009796 0.000660 0.000000 0.001355 0.000000
# 3 -0.006414 0.000660 0.012361 0.000000 0.000269 0.000000
# 4 0.000000 0.000000 0.000000 0.045857 0.000000 -0.028475
# 5 -0.000923 0.001355 0.000269 0.000000 0.017720 0.000000
# 6 0.000000 0.000000 0.000000 -0.028475 0.000000 0.103944
#
#
# Mechanical properties :
#
#
# Convention : Reuss Voigt Hill
#
# Bulk Modulus (GPa) = 60.87982 61.47580 61.17781
# Shear Modulus (GPa) = 21.49742 33.37065 27.43404
#
# Velocity S-wave (km/s) = 3.04629 3.79542 3.44130
# Velocity P-wave (km/s) = 6.21718 6.76346 6.49607
#
# Compressibility (1/GPa) = 0.01642580
#
# Stress axis : x y z
#
# Youngs Moduli (GPa) = 63.08753 102.08030 80.90085
#
# Poissons Ratio (x) = 0.51427 0.51887
# Poissons Ratio (y) = 0.31783 -0.05343
# Poissons Ratio (z) = 0.40462 -0.06742
#
# Static dielectric constant tensor:
#      x y z
#    x 2.039110 0.000000 -0.626010 
#    y 0.000000 4.395760 0.000000 
#    z -0.626010 0.000000 4.002520 
# 
# 
# High freq. dielectric constant tensor:
#      x y z
#    x 1.923300 0.000000 0.014370 
#    y 0.000000 1.927740 0.000000 
#    z 0.014370 0.000000 1.913610 
# 
# From -- ./inp_files/152648.got.cif
#   From: 2010.06.25/outbox.cif.g09.slc.cpg/sg15_77_cif.got.tgz:152648.got - 2010.06.28 07:06:18.
