data_PCOD8150446
_publ_section_title
;
Structure prediction by ZEFSAII (Michael W. Deem and Ramdas Pophale) SiO2 
 PCOD8150446
Probable space group: C 2/C
;
_chemical_formula_sum "Si O2"
_cell_formula_units_Z 40
_cell_length_a 15.504631
_cell_length_b 24.389718
_cell_length_c 8.242883
_cell_angle_alpha 90.000000
_cell_angle_beta 32.726338
_cell_angle_gamma 90.000000
_cell_volume 1685.175573
_symmetry_space_group_name_H-M "C 2/C"
_symmetry_group_IT_number 15
_symmetry_cell_setting 'monoclinic'
loop_
_space_group_symop_operation_xyz
x,y,z
-x,y,1/2-z
-x,-y,-z
x,-y,1/2+z
1/2+x,1/2+y,z
1/2-x,1/2+y,1/2-z
1/2-x,1/2-y,-z
1/2+x,1/2-y,1/2+z
loop_
_atom_site_type_symbol
_atom_site_label
_atom_site_fract_x
_atom_site_fract_y
_atom_site_fract_z
Si Si1 0.225003 0.289440 0.797107
Si Si2 0.602083 0.810774 0.330427
Si Si3 0.500000 0.640498 0.750000
Si Si4 0.328056 0.013170 0.341041
Si Si5 0.383538 0.545859 0.118018
Si Si6 0.000000 0.601193 0.250000
O O1 0.294617 0.229617 0.722304
O O2 0.342408 0.322178 0.490224
O O3 0.195780 0.323019 0.012780
O O4 0.062432 0.280489 0.956027
O O5 0.564456 0.864690 0.494059
O O6 0.524175 0.603591 0.547845
O O7 0.186962 0.032158 0.446939
O O8 0.351075 0.062958 0.432391
O O9 0.269215 0.956556 0.520245
O O10 0.500000 0.000000 0.000000
O O11 0.500000 0.500000 0.000000
#
# Coordination Sequence:
#
# PCOD8150446 Si02
#       6
#     8   8   4   8   8   4
#     4  10  24  47  74 108 141 189 231 305 362 441
#     4  10  24  47  75 106 145 180 246 294 368 436
#     4  12  25  40  74 102 146 190 237 292 368 422
#     4  12  25  45  68  97 139 188 245 295 347 416
#     4  12  25  46  65  99 142 188 238 298 350 417
#     4  12  25  42  74 108 136 188 243 296 354 428
#
# _framework density 23.736398999999999
#
# number of rings (size 3 to 8) (size 9 to 14) (size 15 to 20)
#    0.000    0.800    4.000    1.800    2.800    4.800 
#    0.000    0.000    4.400    0.000    0.000    0.000 
#    0.000    0.000    0.000    0.000    0.000    0.000 
#
# Total GULP energy -247833.019450 kJ/mol
# GULP energy per Si atom -12391.650972 kJ/mol
# Density = 2.368237 g / cm^3
# Si number density = 23.736399 Si / 1000 Ang^3
#
#
#
# Elastic Constant Matrix: (Units=GPa)
#
#
# Indices 1 2 3 4 5 6 
#
# 1 134.8503 24.3514 20.0139 0.0000 -20.3368 0.0000
# 2 24.3514 56.3117 43.8247 0.0000 -6.4643 0.0000
# 3 20.0139 43.8247 151.0507 -0.0001 -1.3444 0.0000
# 4 0.0000 0.0000 -0.0001 56.5850 0.0000 7.1299
# 5 -20.3368 -6.4643 -1.3444 0.0000 35.8129 0.0000
# 6 0.0000 0.0000 0.0000 7.1299 0.0000 31.6598
#
#
#
# Elastic Compliance Matrix: (Units=1/GPa)
#
#
# Indices 1 2 3 4 5 6 
#
# 1 0.008660 -0.003077 -0.000216 0.000000 0.004354 0.000000
# 2 -0.003077 0.024586 -0.006704 0.000000 0.002439 0.000000
# 3 -0.000216 -0.006704 0.008585 0.000000 -0.001010 0.000000
# 4 0.000000 0.000000 0.000000 0.018189 0.000000 -0.004096
# 5 0.004354 0.002439 -0.001010 0.000000 0.030798 0.000000
# 6 0.000000 0.000000 0.000000 -0.004096 0.000000 0.032508
#
#
# Mechanical properties :
#
#
# Convention : Reuss Voigt Hill
#
# Bulk Modulus (GPa) = 45.79285 57.62141 51.70713
# Shear Modulus (GPa) = 33.20087 41.74641 37.47364
#
# Velocity S-wave (km/s) = 3.74402 4.19830 3.97765
# Velocity P-wave (km/s) = 6.16639 6.91586 6.55185
#
# Compressibility (1/GPa) = 0.02183747
#
# Stress axis : x y z
#
# Youngs Moduli (GPa) = 115.47365 40.67324 116.48339
#
# Poissons Ratio (x) = 0.12515 0.02515
# Poissons Ratio (y) = 0.35532 0.78089
# Poissons Ratio (z) = 0.02493 0.27267
#
# Static dielectric constant tensor:
#      x y z
#    x 4.415460 0.000000 -0.000840 
#    y 0.000000 4.400470 0.000000 
#    z -0.000840 0.000000 4.973220 
# 
# 
# High freq. dielectric constant tensor:
#      x y z
#    x 1.936430 0.000000 -0.005490 
#    y 0.000000 1.922550 0.000000 
#    z -0.005490 0.000000 1.970920 
# 
# From -- ./inp_files/51679.got.cif
#   From: 2010.06.25/outbox.cif.g09.slc.cpg/sg15_26_cif.got.tgz:51679.got - 2010.06.28 07:06:18.
