data_PCOD8150645
_publ_section_title
;
Structure prediction by ZEFSAII (Michael W. Deem and Ramdas Pophale) SiO2 
 PCOD8150645
Probable space group: C 2/C
;
_chemical_formula_sum "Si O2"
_cell_formula_units_Z 40
_cell_length_a 9.957148
_cell_length_b 9.639249
_cell_length_c 22.587311
_cell_angle_alpha 90.000000
_cell_angle_beta 125.039448
_cell_angle_gamma 90.000000
_cell_volume 1774.997270
_symmetry_space_group_name_H-M "C 2/C"
_symmetry_group_IT_number 15
_symmetry_cell_setting 'monoclinic'
loop_
_space_group_symop_operation_xyz
x,y,z
-x,y,1/2-z
-x,-y,-z
x,-y,1/2+z
1/2+x,1/2+y,z
1/2-x,1/2+y,1/2-z
1/2-x,1/2-y,-z
1/2+x,1/2-y,1/2+z
loop_
_atom_site_type_symbol
_atom_site_label
_atom_site_fract_x
_atom_site_fract_y
_atom_site_fract_z
Si Si1 0.271940 0.506915 0.632289
Si Si2 0.002749 0.300876 0.899009
Si Si3 0.198710 0.125720 0.740271
Si Si4 0.585077 0.358186 0.664282
Si Si5 0.846529 0.223849 0.448868
O O1 0.121618 0.425796 0.623890
O O2 0.356624 0.596160 0.706132
O O3 0.403696 0.400610 0.638901
O O4 0.201583 0.612211 0.565785
O O5 0.947152 0.199798 0.832199
O O6 0.181411 0.360078 0.924936
O O7 0.019436 0.212602 0.964631
O O8 0.362552 0.220845 0.785042
O O9 0.221520 0.977344 0.712778
O O10 0.576415 0.331346 0.592139
#
# Coordination Sequence:
#
# PCOD8150645 Si02
#       5
#     8   8   8   8   8
#     4  11  23  46  68  97 137 177 223 285 334 397
#     4  11  23  44  68  98 140 177 224 275 343 398
#     4  11  23  42  69  99 132 178 220 280 336 398
#     4  11  24  44  72  96 137 177 227 279 343 393
#     4  10  25  45  67  98 137 184 218 280 337 406
#
# _framework density 22.535247999999999
#
# number of rings (size 3 to 8) (size 9 to 14) (size 15 to 20)
#    0.000    1.200    4.000    1.200    2.800    1.600 
#   10.800    0.000    0.000    0.000    0.000    0.000 
#    0.000    0.000    0.000    0.000    0.000    0.000 
#
# Total GULP energy -247894.725156 kJ/mol
# GULP energy per Si atom -12394.736258 kJ/mol
# Density = 2.248396 g / cm^3
# Si number density = 22.535248 Si / 1000 Ang^3
#
#
#
# Elastic Constant Matrix: (Units=GPa)
#
#
# Indices 1 2 3 4 5 6 
#
# 1 106.7397 49.2482 51.6394 0.0000 -0.0932 0.0000
# 2 49.2482 83.5178 22.9600 0.0000 5.0002 0.0000
# 3 51.6394 22.9600 140.5507 0.0000 -19.3350 0.0000
# 4 0.0000 0.0000 0.0000 25.9605 0.0000 -3.2828
# 5 -0.0932 5.0002 -19.3350 0.0000 32.0539 0.0000
# 6 0.0000 0.0000 0.0000 -3.2828 0.0000 33.2004
#
#
#
# Elastic Compliance Matrix: (Units=1/GPa)
#
#
# Indices 1 2 3 4 5 6 
#
# 1 0.015014 -0.007529 -0.004491 0.000000 -0.001491 0.000000
# 2 -0.007529 0.016679 -0.000348 0.000000 -0.002834 0.000000
# 3 -0.004491 -0.000348 0.009626 0.000000 0.005848 0.000000
# 4 0.000000 0.000000 0.000000 0.039008 0.000000 0.003857
# 5 -0.001491 -0.002834 0.005848 0.000000 0.035163 0.000000
# 6 0.000000 0.000000 0.000000 0.003857 0.000000 0.030502
#
#
# Mechanical properties :
#
#
# Convention : Reuss Voigt Hill
#
# Bulk Modulus (GPa) = 60.30832 64.27816 62.29324
# Shear Modulus (GPa) = 28.36782 32.04035 30.20408
#
# Velocity S-wave (km/s) = 3.55183 3.77475 3.66499
# Velocity P-wave (km/s) = 6.60610 6.89809 6.75367
#
# Compressibility (1/GPa) = 0.01658146
#
# Stress axis : x y z
#
# Youngs Moduli (GPa) = 66.60380 59.95661 103.88112
#
# Poissons Ratio (x) = 0.45144 0.46658
# Poissons Ratio (y) = 0.50149 0.03615
# Poissons Ratio (z) = 0.29915 0.02087
#
# Static dielectric constant tensor:
#      x y z
#    x 3.729560 0.000000 -0.122030 
#    y 0.000000 4.126840 0.000000 
#    z -0.122030 0.000000 4.343660 
# 
# 
# High freq. dielectric constant tensor:
#      x y z
#    x 1.871520 0.000000 -0.010900 
#    y 0.000000 1.875210 0.000000 
#    z -0.010900 0.000000 1.914060 
# 
# From -- ./inp_files/291334.got.cif
#   From: 2010.06.25/outbox.cif.g09.slc.cpg/sg15_146_cif.got.tgz:291334.got - 2010.06.28 07:06:18.
