data_PCOD8150147
_publ_section_title
;
Structure prediction by ZEFSAII (Michael W. Deem and Ramdas Pophale) SiO2 
 PCOD8150147
Probable space group: C 2/C
;
_chemical_formula_sum "Si O2"
_cell_formula_units_Z 36
_cell_length_a 14.155787
_cell_length_b 13.840870
_cell_length_c 22.536937
_cell_angle_alpha 90.000000
_cell_angle_beta 20.892916
_cell_angle_gamma 90.000000
_cell_volume 1574.711613
_symmetry_space_group_name_H-M "C 2/C"
_symmetry_group_IT_number 15
_symmetry_cell_setting 'monoclinic'
loop_
_space_group_symop_operation_xyz
x,y,z
-x,y,1/2-z
-x,-y,-z
x,-y,1/2+z
1/2+x,1/2+y,z
1/2-x,1/2+y,1/2-z
1/2-x,1/2-y,-z
1/2+x,1/2-y,1/2+z
loop_
_atom_site_type_symbol
_atom_site_label
_atom_site_fract_x
_atom_site_fract_y
_atom_site_fract_z
Si Si1 0.000000 0.943388 0.250000
Si Si2 0.812687 0.595652 0.995540
Si Si3 0.216936 0.550193 0.667000
Si Si4 0.482459 0.741980 0.694703
Si Si5 0.546951 0.698090 0.045848
O O1 0.904003 0.871764 0.252521
O O2 0.226446 0.012632 0.091504
O O3 0.598619 0.623046 0.069832
O O4 0.089517 0.556134 0.806694
O O5 0.856190 0.693673 0.004778
O O6 0.500000 0.500000 0.500000
O O7 0.276892 0.660334 0.612304
O O8 0.000000 0.501200 0.750000
O O9 0.500000 0.791515 0.750000
O O10 0.750000 0.750000 0.500000
O O11 0.265105 0.801242 0.785211
#
# Coordination Sequence:
#
# PCOD8150147 Si02
#       5
#     4   8   8   8   8
#     4  10  26  46  70 110 146 190 252 308 374 446
#     4  10  24  44  73 105 142 187 249 305 377 438
#     4  10  24  44  69 103 138 193 240 300 367 444
#     4  10  26  47  71 106 146 194 243 306 384 443
#     4  10  24  44  72 100 143 189 243 301 372 443
#
# _framework density 22.861329000000001
#
# number of rings (size 3 to 8) (size 9 to 14) (size 15 to 20)
#    0.667    1.333    0.000    0.000   14.000    5.333 
#    0.000    0.000    0.000    0.000    0.000    0.000 
#    0.000    0.000    0.000    0.000    0.000    0.000 
#
# Total GULP energy -222989.767179 kJ/mol
# GULP energy per Si atom -12388.320399 kJ/mol
# Density = 2.280930 g / cm^3
# Si number density = 22.861329 Si / 1000 Ang^3
#
#
#
# Elastic Constant Matrix: (Units=GPa)
#
#
# Indices 1 2 3 4 5 6 
#
# 1 88.2570 43.2630 81.8389 2.1185 -2.8989 -0.9001
# 2 43.2630 106.5991 66.2482 -1.1065 9.8430 0.3365
# 3 81.8389 66.2482 203.0216 2.2530 10.9699 -0.7382
# 4 2.1185 -1.1065 2.2530 172.2796 -1.2680 -46.2989
# 5 -2.8989 9.8430 10.9699 -1.2680 55.3871 0.4088
# 6 -0.9001 0.3365 -0.7382 -46.2989 0.4088 54.9077
#
#
#
# Elastic Compliance Matrix: (Units=1/GPa)
#
#
# Indices 1 2 3 4 5 6 
#
# 1 0.019729 -0.004076 -0.006789 -0.000122 0.003098 0.000131
# 2 -0.004076 0.012712 -0.002399 0.000136 -0.001994 -0.000048
# 3 -0.006789 -0.002399 0.008533 -0.000061 -0.001620 -0.000021
# 4 -0.000122 0.000136 -0.000061 0.007509 0.000107 0.006327
# 5 0.003098 -0.001994 -0.001620 0.000107 0.018895 -0.000009
# 6 0.000131 -0.000048 -0.000021 0.006327 -0.000009 0.023550
#
#
# Mechanical properties :
#
#
# Convention : Reuss Voigt Hill
#
# Bulk Modulus (GPa) = 69.21692 86.73089 77.97390
# Shear Modulus (GPa) = 40.89316 70.28338 55.58827
#
# Velocity S-wave (km/s) = 4.23395 5.55068 4.93642
# Velocity P-wave (km/s) = 7.36508 8.89383 8.16531
#
# Compressibility (1/GPa) = 0.01444734
#
# Stress axis : x y z
#
# Youngs Moduli (GPa) = 50.68561 78.66805 117.19203
#
# Poissons Ratio (x) = 0.32065 0.79556
# Poissons Ratio (y) = 0.20659 0.28113
# Poissons Ratio (z) = 0.34408 0.18871
#
# Static dielectric constant tensor:
#      x y z
#    x 4.214180 0.001400 -0.122860 
#    y 0.001400 4.143470 0.001670 
#    z -0.122860 0.001670 3.828380 
# 
# 
# High freq. dielectric constant tensor:
#      x y z
#    x 1.890680 0.000000 0.006320 
#    y 0.000000 1.905120 0.000040 
#    z 0.006320 0.000040 1.906800 
# 
# From -- ./inp_files/274250.got.cif
#   From: 2010.06.25/outbox.cif.g09.slc.cpg/sg15_138_cif.got.tgz:274250.got - 2010.06.28 07:06:18.
