data_PCOD8150546
_publ_section_title
;
Structure prediction by ZEFSAII (Michael W. Deem and Ramdas Pophale) SiO2 
 PCOD8150546
Probable space group: C 2/C
;
_chemical_formula_sum "Si O2"
_cell_formula_units_Z 36
_cell_length_a 29.012567
_cell_length_b 10.409461
_cell_length_c 9.428709
_cell_angle_alpha 90.000000
_cell_angle_beta 145.919139
_cell_angle_gamma 90.000000
_cell_volume 1595.642466
_symmetry_space_group_name_H-M "C 2/C"
_symmetry_group_IT_number 15
_symmetry_cell_setting 'monoclinic'
loop_
_space_group_symop_operation_xyz
x,y,z
-x,y,1/2-z
-x,-y,-z
x,-y,1/2+z
1/2+x,1/2+y,z
1/2-x,1/2+y,1/2-z
1/2-x,1/2-y,-z
1/2+x,1/2-y,1/2+z
loop_
_atom_site_type_symbol
_atom_site_label
_atom_site_fract_x
_atom_site_fract_y
_atom_site_fract_z
Si Si1 0.500000 0.994962 0.250000
Si Si2 0.419190 0.747203 0.973742
Si Si3 0.182410 0.857480 0.805163
Si Si4 0.210203 0.902481 0.183313
Si Si5 0.393123 0.199490 0.106242
O O1 0.458966 0.084708 0.264545
O O2 0.572304 0.903432 0.497192
O O3 0.337730 0.703742 0.847043
O O4 0.414807 0.711491 0.796612
O O5 0.500000 0.680640 0.250000
O O6 0.104295 0.786834 0.530962
O O7 0.213549 0.963724 0.774190
O O8 0.250000 0.750000 0.000000
O O9 0.163395 0.918102 0.911316
O O10 0.302404 0.856727 0.396511
#
# Coordination Sequence:
#
# PCOD8150546 Si02
#       5
#     4   8   8   8   8
#     4  10  26  40  72 104 144 180 246 292 352 410
#     4  10  25  42  71 100 143 184 236 289 360 408
#     4  10  25  41  72 103 138 183 240 288 348 418
#     4  11  24  45  70 101 142 186 238 289 354 429
#     4  11  24  42  72 101 145 188 239 290 355 421
#
# _framework density 22.561447000000001
#
# number of rings (size 3 to 8) (size 9 to 14) (size 15 to 20)
#    0.667    0.889    0.000    2.667   15.556    0.000 
#    2.000    2.222    0.000    0.000    0.000    0.000 
#    0.000    0.000    0.000    0.000    0.000    0.000 
#
# Total GULP energy -223055.586233 kJ/mol
# GULP energy per Si atom -12391.977013 kJ/mol
# Density = 2.251010 g / cm^3
# Si number density = 22.561447 Si / 1000 Ang^3
#
#
#
# Elastic Constant Matrix: (Units=GPa)
#
#
# Indices 1 2 3 4 5 6 
#
# 1 128.5263 60.7370 51.8845 0.0000 -20.2234 0.0000
# 2 60.7370 108.2530 56.2850 0.0000 -10.8568 0.0000
# 3 51.8845 56.2850 106.1957 0.0000 -34.3682 0.0000
# 4 0.0000 0.0000 0.0000 43.0975 0.0000 1.7705
# 5 -20.2234 -10.8568 -34.3682 0.0000 58.4384 0.0000
# 6 0.0000 0.0000 0.0000 1.7705 0.0000 34.1331
#
#
#
# Elastic Compliance Matrix: (Units=1/GPa)
#
#
# Indices 1 2 3 4 5 6 
#
# 1 0.011342 -0.004957 -0.002399 0.000000 0.001594 0.000000
# 2 -0.004957 0.015107 -0.006462 0.000000 -0.002709 0.000000
# 3 -0.002399 -0.006462 0.016496 0.000000 0.007671 0.000000
# 4 0.000000 0.000000 0.000000 0.023253 0.000000 -0.001206
# 5 0.001594 -0.002709 0.007671 0.000000 0.021671 0.000000
# 6 0.000000 0.000000 0.000000 -0.001206 0.000000 0.029360
#
#
# Mechanical properties :
#
#
# Convention : Reuss Voigt Hill
#
# Bulk Modulus (GPa) = 65.31491 75.64312 70.47901
# Shear Modulus (GPa) = 33.34106 38.73838 36.03972
#
# Velocity S-wave (km/s) = 3.84837 4.14819 4.00109
# Velocity P-wave (km/s) = 6.98278 7.51955 7.25613
#
# Compressibility (1/GPa) = 0.01531044
#
# Stress axis : x y z
#
# Youngs Moduli (GPa) = 88.16926 66.19626 60.62167
#
# Poissons Ratio (x) = 0.32811 0.14541
# Poissons Ratio (y) = 0.43702 0.39172
# Poissons Ratio (z) = 0.21148 0.42774
#
# Static dielectric constant tensor:
#      x y z
#    x 4.124340 0.000000 -0.553070 
#    y 0.000000 4.013170 0.000000 
#    z -0.553070 0.000000 4.457740 
# 
# 
# High freq. dielectric constant tensor:
#      x y z
#    x 1.886070 0.000000 -0.022570 
#    y 0.000000 1.878720 0.000000 
#    z -0.022570 0.000000 1.895070 
# 
# From -- ./inp_files/54275.got.cif
#   From: 2010.06.25/outbox.cif.g09.slc.cpg/sg15_28_cif.got.tgz:54275.got - 2010.06.28 07:06:18.
