data_PCOD8150515
_publ_section_title
;
Structure prediction by ZEFSAII (Michael W. Deem and Ramdas Pophale) SiO2 
 PCOD8150515
Probable space group: C 2/C
;
_chemical_formula_sum "Si O2"
_cell_formula_units_Z 52
_cell_length_a 27.564930
_cell_length_b 10.917212
_cell_length_c 9.737800
_cell_angle_alpha 90.000000
_cell_angle_beta 57.942325
_cell_angle_gamma 90.000000
_cell_volume 2483.570498
_symmetry_space_group_name_H-M "C 2/C"
_symmetry_group_IT_number 15
_symmetry_cell_setting 'monoclinic'
loop_
_space_group_symop_operation_xyz
x,y,z
-x,y,1/2-z
-x,-y,-z
x,-y,1/2+z
1/2+x,1/2+y,z
1/2-x,1/2+y,1/2-z
1/2-x,1/2-y,-z
1/2+x,1/2-y,1/2+z
loop_
_atom_site_type_symbol
_atom_site_label
_atom_site_fract_x
_atom_site_fract_y
_atom_site_fract_z
Si Si1 0.608494 0.933239 0.194830
Si Si2 0.229547 0.832165 0.907805
Si Si3 0.849235 0.604269 0.152840
Si Si4 0.366542 0.503386 0.332970
Si Si5 0.194654 0.765270 0.675956
Si Si6 0.590239 0.351586 0.474760
Si Si7 0.000000 0.301511 0.250000
O O1 0.644968 0.828648 0.214384
O O2 0.544162 0.886553 0.267000
O O3 0.609546 0.054097 0.287901
O O4 0.636629 0.968793 0.007294
O O5 0.282729 0.920301 0.787044
O O6 0.212795 0.745130 0.806012
O O7 0.250000 0.750000 0.000000
O O8 0.174753 0.908150 0.032461
O O9 0.859653 0.749684 0.114432
O O10 0.328738 0.597157 0.302521
O O11 0.409884 0.435130 0.161747
O O12 0.401905 0.569971 0.398783
O O13 0.250000 0.750000 0.500000
O O14 0.530385 0.280773 0.586857
#
# Coordination Sequence:
#
# PCOD8150515 Si02
#       7
#     8   8   8   8   8   8   4
#     4  11  25  43  72  97 142 182 236 287 344 413
#     4  12  25  38  67 103 143 182 222 280 349 428
#     4  11  24  43  65 105 138 183 230 282 349 422
#     4  12  23  41  66 101 138 179 225 286 340 422
#     4  12  23  43  66  99 142 186 222 276 355 414
#     4  11  24  45  68  96 134 179 235 286 343 409
#     4  10  24  50  72 100 136 186 240 298 354 398
#
# _framework density 20.937598000000001
#
# number of rings (size 3 to 8) (size 9 to 14) (size 15 to 20)
#    0.000    0.615    7.692    0.923    2.154    3.077 
#    0.000    0.000    0.000    4.615    0.000    0.000 
#    0.000    0.000    0.000    0.000    0.000    0.000 
#
# Total GULP energy -322449.807267 kJ/mol
# GULP energy per Si atom -12401.915664 kJ/mol
# Density = 2.088994 g / cm^3
# Si number density = 20.937598 Si / 1000 Ang^3
#
#
#
# Elastic Constant Matrix: (Units=GPa)
#
#
# Indices 1 2 3 4 5 6 
#
# 1 127.5384 26.4922 54.7299 0.0000 10.7152 0.0000
# 2 26.4922 57.3843 34.5916 0.0000 13.3779 0.0000
# 3 54.7299 34.5916 139.1414 0.0000 18.6529 0.0000
# 4 0.0000 0.0000 0.0000 35.0587 0.0000 9.0082
# 5 10.7152 13.3779 18.6529 0.0000 47.5851 0.0000
# 6 0.0000 0.0000 0.0000 9.0082 0.0000 40.1076
#
#
#
# Elastic Compliance Matrix: (Units=1/GPa)
#
#
# Indices 1 2 3 4 5 6 
#
# 1 0.009748 -0.002532 -0.003173 0.000000 -0.000240 0.000000
# 2 -0.002532 0.021894 -0.003903 0.000000 -0.004055 0.000000
# 3 -0.003173 -0.003903 0.009671 0.000000 -0.001979 0.000000
# 4 0.000000 0.000000 0.000000 0.030270 0.000000 -0.006799
# 5 -0.000240 -0.004055 -0.001979 0.000000 0.022985 0.000000
# 6 0.000000 0.000000 0.000000 -0.006799 0.000000 0.026460
#
#
# Mechanical properties :
#
#
# Convention : Reuss Voigt Hill
#
# Bulk Modulus (GPa) = 45.25678 61.74350 53.50014
# Shear Modulus (GPa) = 33.87314 38.43363 36.15339
#
# Velocity S-wave (km/s) = 4.02657 4.28907 4.15989
# Velocity P-wave (km/s) = 6.57873 7.35401 6.97715
#
# Compressibility (1/GPa) = 0.02209614
#
# Stress axis : x y z
#
# Youngs Moduli (GPa) = 102.58094 45.67547 103.40572
#
# Poissons Ratio (x) = 0.11565 0.32809
# Poissons Ratio (y) = 0.25974 0.40363
# Poissons Ratio (z) = 0.32547 0.17829
#
# Static dielectric constant tensor:
#      x y z
#    x 2.053870 0.000000 -0.593820 
#    y 0.000000 3.715640 0.000000 
#    z -0.593820 0.000000 4.563420 
# 
# 
# High freq. dielectric constant tensor:
#      x y z
#    x 1.811210 0.000000 0.008030 
#    y 0.000000 1.815450 0.000000 
#    z 0.008030 0.000000 1.837640 
# 
# From -- ./inp_files/65379.got.cif
#   From: 2010.06.25/outbox.cif.g09.slc.cpg/sg15_33_cif.got.tgz:65379.got - 2010.06.28 07:06:18.
