data_PCOD8150381
_publ_section_title
;
Structure prediction by ZEFSAII (Michael W. Deem and Ramdas Pophale) SiO2 
 PCOD8150381
Probable space group: C 2/C
;
_chemical_formula_sum "Si O2"
_cell_formula_units_Z 48
_cell_length_a 8.660335
_cell_length_b 25.976194
_cell_length_c 14.659592
_cell_angle_alpha 90.000000
_cell_angle_beta 38.198728
_cell_angle_gamma 90.000000
_cell_volume 2039.366206
_symmetry_space_group_name_H-M "C 2/C"
_symmetry_group_IT_number 15
_symmetry_cell_setting 'monoclinic'
loop_
_space_group_symop_operation_xyz
x,y,z
-x,y,1/2-z
-x,-y,-z
x,-y,1/2+z
1/2+x,1/2+y,z
1/2-x,1/2+y,1/2-z
1/2-x,1/2-y,-z
1/2+x,1/2-y,1/2+z
loop_
_atom_site_type_symbol
_atom_site_label
_atom_site_fract_x
_atom_site_fract_y
_atom_site_fract_z
Si Si1 0.892648 0.793370 0.544851
Si Si2 0.000000 0.988088 0.750000
Si Si3 0.800585 0.458024 0.243539
Si Si4 0.072706 0.303192 0.869444
Si Si5 0.500000 0.046748 0.250000
Si Si6 0.029379 0.101095 0.016580
Si Si7 0.665296 0.097943 0.452609
O O1 0.790500 0.791811 0.695931
O O2 0.684375 0.802699 0.565391
O O3 0.057717 0.742606 0.450722
O O4 0.067716 0.843153 0.453300
O O5 0.255600 0.954978 0.632756
O O6 0.036623 0.024494 0.821322
O O7 0.979285 0.507995 0.172935
O O8 0.729444 0.436751 0.377028
O O9 0.918234 0.413077 0.126501
O O10 0.116928 0.356586 0.902766
O O11 0.256706 0.083140 0.365513
O O12 0.095199 0.108054 0.092855
#
# Coordination Sequence:
#
# PCOD8150381 Si02
#       7
#     8   4   8   8   4   8   8
#     4  10  24  46  72 104 136 186 233 292 369 423
#     4  12  26  42  66 106 146 194 246 288 354 422
#     4  12  26  43  69 107 147 193 238 296 351 428
#     4  10  24  46  74 101 141 180 237 299 355 436
#     4  12  22  46  70  98 148 196 238 288 352 424
#     4  12  25  44  72 102 143 191 241 293 362 418
#     4  12  25  45  69 105 144 186 242 297 353 425
#
# _framework density 23.536725000000001
#
# number of rings (size 3 to 8) (size 9 to 14) (size 15 to 20)
#    0.000    0.667    3.333    4.000    7.000    0.667 
#    0.000    0.000    0.000    0.000    0.000    0.000 
#    0.000    0.000    0.000    0.000    0.000    0.000 
#
# Total GULP energy -297418.722747 kJ/mol
# GULP energy per Si atom -12392.446781 kJ/mol
# Density = 2.348315 g / cm^3
# Si number density = 23.536725 Si / 1000 Ang^3
#
#
#
# Elastic Constant Matrix: (Units=GPa)
#
#
# Indices 1 2 3 4 5 6 
#
# 1 97.0262 52.1002 40.5478 0.0000 14.9446 0.0000
# 2 52.1002 127.0853 40.9589 0.0000 7.7765 0.0000
# 3 40.5478 40.9589 83.1285 0.0000 6.7789 0.0000
# 4 0.0000 0.0000 0.0000 37.2307 0.0000 6.2608
# 5 14.9446 7.7765 6.7789 0.0000 36.3767 0.0000
# 6 0.0000 0.0000 0.0000 6.2608 0.0000 46.5629
#
#
#
# Elastic Compliance Matrix: (Units=1/GPa)
#
#
# Indices 1 2 3 4 5 6 
#
# 1 0.015476 -0.004464 -0.004984 0.000000 -0.004475 0.000000
# 2 -0.004464 0.010690 -0.003100 0.000000 0.000126 0.000000
# 3 -0.004984 -0.003100 0.016010 0.000000 -0.000273 0.000000
# 4 0.000000 0.000000 0.000000 0.027481 0.000000 -0.003695
# 5 -0.004475 0.000126 -0.000273 0.000000 0.029352 0.000000
# 6 0.000000 0.000000 0.000000 -0.003695 0.000000 0.021973
#
#
# Mechanical properties :
#
#
# Convention : Reuss Voigt Hill
#
# Bulk Modulus (GPa) = 58.54951 63.82819 61.18885
# Shear Modulus (GPa) = 32.94391 35.60962 34.27677
#
# Velocity S-wave (km/s) = 3.74529 3.89387 3.82030
# Velocity P-wave (km/s) = 6.60551 6.88431 6.74635
#
# Compressibility (1/GPa) = 0.01707956
#
# Stress axis : x y z
#
# Youngs Moduli (GPa) = 64.61693 93.54248 62.45937
#
# Poissons Ratio (x) = 0.41761 0.31130
# Poissons Ratio (y) = 0.28847 0.19363
# Poissons Ratio (z) = 0.32206 0.28999
#
# Static dielectric constant tensor:
#      x y z
#    x 4.359700 0.000000 0.196040 
#    y 0.000000 4.433510 0.000000 
#    z 0.196040 0.000000 4.015420 
# 
# 
# High freq. dielectric constant tensor:
#      x y z
#    x 1.947890 0.000000 0.010210 
#    y 0.000000 1.935950 0.000000 
#    z 0.010210 0.000000 1.916230 
# 
# From -- ./inp_files/138973.got.cif
#   From: 2010.06.25/outbox.cif.g09.slc.cpg/sg15_70_cif.got.tgz:138973.got - 2010.06.28 07:06:18.
