data_PCOD8150652
_publ_section_title
;
Structure prediction by ZEFSAII (Michael W. Deem and Ramdas Pophale) SiO2 
 PCOD8150652
Probable space group: C 2/C
;
_chemical_formula_sum "Si O2"
_cell_formula_units_Z 60
_cell_length_a 25.008677
_cell_length_b 6.132268
_cell_length_c 20.268728
_cell_angle_alpha 90.000000
_cell_angle_beta 125.404280
_cell_angle_gamma 90.000000
_cell_volume 2533.617117
_symmetry_space_group_name_H-M "C 2/C"
_symmetry_group_IT_number 15
_symmetry_cell_setting 'monoclinic'
loop_
_space_group_symop_operation_xyz
x,y,z
-x,y,1/2-z
-x,-y,-z
x,-y,1/2+z
1/2+x,1/2+y,z
1/2-x,1/2+y,1/2-z
1/2-x,1/2-y,-z
1/2+x,1/2-y,1/2+z
loop_
_atom_site_type_symbol
_atom_site_label
_atom_site_fract_x
_atom_site_fract_y
_atom_site_fract_z
Si Si1 0.000000 0.649981 0.750000
Si Si2 0.958985 0.654216 0.924540
Si Si3 0.917837 0.643033 0.275459
Si Si4 0.842033 0.180317 0.514791
Si Si5 0.246284 0.951843 0.948448
Si Si6 0.981901 0.985882 0.625955
Si Si7 0.828340 0.849393 0.863954
Si Si8 0.297678 0.405357 0.215338
O O1 0.060612 0.492644 0.773508
O O2 0.030187 0.798024 0.829034
O O3 0.930532 0.517435 0.844401
O O4 0.897513 0.730185 0.923680
O O5 0.002488 0.861529 0.931659
O O6 0.000000 0.500000 0.000000
O O7 0.841321 0.707918 0.216535
O O8 0.956758 0.869506 0.308691
O O9 0.818004 0.433655 0.490603
O O10 0.816652 0.051386 0.429741
O O11 0.807253 0.105646 0.556158
O O12 0.919935 0.147777 0.576908
O O13 0.217094 0.914907 0.853057
O O14 0.250000 0.750000 0.000000
O O15 0.770096 0.685313 0.804373
O O16 0.836165 0.008538 0.807209
#
# Coordination Sequence:
#
# PCOD8150652 Si02
#       8
#     4   8   8   8   8   8   8   8
#     4  10  26  42  70 102 144 186 246 298 370 438
#     4  11  25  43  69 107 144 188 245 297 369 443
#     4  11  24  45  69 104 142 183 241 306 364 433
#     4  10  25  45  69 102 143 192 239 297 368 432
#     4  10  25  48  69 104 142 191 248 302 362 441
#     4  11  24  45  68 105 141 192 239 299 367 446
#     4  11  24  46  71 105 143 190 242 296 368 429
#     4  11  25  44  75 103 144 186 243 301 362 444
#
# _framework density 23.681557999999999
#
# number of rings (size 3 to 8) (size 9 to 14) (size 15 to 20)
#    0.000    1.333    1.333    2.000    7.467    5.333 
#    7.200    0.000    0.000    0.000    0.000    0.000 
#    0.000    0.000    0.000    0.000    0.000    0.000 
#
# Total GULP energy -371800.099534 kJ/mol
# GULP energy per Si atom -12393.336651 kJ/mol
# Density = 2.362766 g / cm^3
# Si number density = 23.681558 Si / 1000 Ang^3
#
#
#
# Elastic Constant Matrix: (Units=GPa)
#
#
# Indices 1 2 3 4 5 6 
#
# 1 137.2501 36.3680 40.9042 -0.0002 10.1210 -0.0003
# 2 36.3680 69.0229 14.7117 -0.0009 -0.2492 -0.0015
# 3 40.9042 14.7117 88.7400 -0.0001 -11.0796 -0.0002
# 4 -0.0002 -0.0009 -0.0001 38.3846 0.0000 1.0091
# 5 10.1210 -0.2492 -11.0796 0.0000 44.4300 -0.0001
# 6 -0.0003 -0.0015 -0.0002 1.0091 -0.0001 36.4178
#
#
#
# Elastic Compliance Matrix: (Units=1/GPa)
#
#
# Indices 1 2 3 4 5 6 
#
# 1 0.009966 -0.004348 -0.004293 0.000000 -0.003365 0.000000
# 2 -0.004348 0.016929 -0.000688 0.000000 0.000914 0.000001
# 3 -0.004293 -0.000688 0.013917 0.000000 0.004444 0.000000
# 4 0.000000 0.000000 0.000000 0.026071 0.000000 -0.000722
# 5 -0.003365 0.000914 0.004444 0.000000 0.024387 0.000000
# 6 0.000000 0.000001 0.000000 -0.000722 0.000000 0.027479
#
#
# Mechanical properties :
#
#
# Convention : Reuss Voigt Hill
#
# Bulk Modulus (GPa) = 45.14094 53.22007 49.18051
# Shear Modulus (GPa) = 34.53245 37.38177 35.95711
#
# Velocity S-wave (km/s) = 3.82278 3.97737 3.90084
# Velocity P-wave (km/s) = 6.21192 6.60413 6.41103
#
# Compressibility (1/GPa) = 0.02215284
#
# Stress axis : x y z
#
# Youngs Moduli (GPa) = 100.34490 59.07063 71.85625
#
# Poissons Ratio (x) = 0.25684 0.30847
# Poissons Ratio (y) = 0.43630 0.04946
# Poissons Ratio (z) = 0.43077 0.04066
#
# Static dielectric constant tensor:
#      x y z
#    x 4.637260 0.000000 -0.278430 
#    y 0.000000 4.172990 0.000000 
#    z -0.278430 0.000000 4.061010 
# 
# 
# High freq. dielectric constant tensor:
#      x y z
#    x 1.959270 0.000000 -0.015490 
#    y 0.000000 1.916230 0.000000 
#    z -0.015490 0.000000 1.944600 
# 
# From -- ./inp_files/256786.got.cif
#   From: 2010.06.25/outbox.cif.g09.slc.cpg/sg15_129_cif.got.tgz:256786.got - 2010.06.28 07:06:18.
