data_PCOD8150456
_publ_section_title
;
Structure prediction by ZEFSAII (Michael W. Deem and Ramdas Pophale) SiO2 
 PCOD8150456
Probable space group: C 2/C
;
_chemical_formula_sum "Si O2"
_cell_formula_units_Z 44
_cell_length_a 19.306026
_cell_length_b 17.250907
_cell_length_c 16.159619
_cell_angle_alpha 90.000000
_cell_angle_beta 157.139380
_cell_angle_gamma 90.000000
_cell_volume 2090.819704
_symmetry_space_group_name_H-M "C 2/C"
_symmetry_group_IT_number 15
_symmetry_cell_setting 'monoclinic'
loop_
_space_group_symop_operation_xyz
x,y,z
-x,y,1/2-z
-x,-y,-z
x,-y,1/2+z
1/2+x,1/2+y,z
1/2-x,1/2+y,1/2-z
1/2-x,1/2-y,-z
1/2+x,1/2-y,1/2+z
loop_
_atom_site_type_symbol
_atom_site_label
_atom_site_fract_x
_atom_site_fract_y
_atom_site_fract_z
Si Si1 0.688982 0.319209 0.993511
Si Si2 0.243372 0.691286 0.744769
Si Si3 0.333727 0.014254 0.624238
Si Si4 0.577521 0.075270 0.121970
Si Si5 0.419733 0.346737 0.989071
Si Si6 0.500000 0.419994 0.250000
O O1 0.688753 0.287498 0.087726
O O2 0.805710 0.397838 0.126235
O O3 0.500000 0.345382 0.750000
O O4 0.750000 0.250000 0.000000
O O5 0.063913 0.642315 0.548340
O O6 0.186251 0.766150 0.630739
O O7 0.405674 0.648777 0.876077
O O8 0.500000 0.023982 0.750000
O O9 0.388072 0.945560 0.745762
O O10 0.154938 0.978388 0.388033
O O11 0.769838 0.092866 0.291249
O O12 0.500000 0.000000 0.000000
O O13 0.461541 0.363708 0.130719
#
# Coordination Sequence:
#
# PCOD8150456 Si02
#       6
#     8   8   8   8   8   4
#     4  12  26  43  68  98 137 180 229 285 337 406
#     4  12  24  47  68 105 139 179 233 278 347 408
#     4  11  23  44  68  98 137 175 225 280 342 403
#     4  11  24  44  69 100 136 180 226 283 337 410
#     4  11  25  43  73  98 141 180 224 286 339 412
#     4  10  24  48  64 108 134 172 232 274 348 402
#
# _framework density 21.044378999999999
#
# number of rings (size 3 to 8) (size 9 to 14) (size 15 to 20)
#    0.000    0.727    4.545    2.727    0.000    4.364 
#    1.636    0.000    0.000    0.000    0.000    0.000 
#    0.000    0.000    0.000    0.000    0.000    0.000 
#
# Total GULP energy -272542.725359 kJ/mol
# GULP energy per Si atom -12388.305698 kJ/mol
# Density = 2.099648 g / cm^3
# Si number density = 21.044379 Si / 1000 Ang^3
#
#
#
# Elastic Constant Matrix: (Units=GPa)
#
#
# Indices 1 2 3 4 5 6 
#
# 1 120.7124 40.9837 62.4927 0.0137 5.9675 0.0035
# 2 40.9837 87.9186 39.4640 0.0132 -18.2363 0.0039
# 3 62.4927 39.4640 139.1469 0.0223 7.0944 0.0070
# 4 0.0137 0.0132 0.0223 49.5764 0.0135 -2.2951
# 5 5.9675 -18.2363 7.0944 0.0135 35.2029 0.0034
# 6 0.0035 0.0039 0.0070 -2.2951 0.0034 37.2221
#
#
#
# Elastic Compliance Matrix: (Units=1/GPa)
#
#
# Indices 1 2 3 4 5 6 
#
# 1 0.012063 -0.004620 -0.003922 0.000001 -0.003648 0.000000
# 2 -0.004620 0.017164 -0.003320 -0.000005 0.010344 -0.000002
# 3 -0.003922 -0.003320 0.010047 -0.000002 -0.003080 -0.000001
# 4 0.000001 -0.000005 -0.000002 0.020229 -0.000010 0.001247
# 5 -0.003648 0.010344 -0.003080 -0.000010 0.035004 -0.000004
# 6 0.000000 -0.000002 -0.000001 0.001247 -0.000004 0.026943
#
#
# Mechanical properties :
#
#
# Convention : Reuss Voigt Hill
#
# Bulk Modulus (GPa) = 64.30847 70.40652 67.35749
# Shear Modulus (GPa) = 33.25458 38.05612 35.65535
#
# Velocity S-wave (km/s) = 3.97950 4.25711 4.12064
# Velocity P-wave (km/s) = 7.19306 7.59558 7.39706
#
# Compressibility (1/GPa) = 0.01555005
#
# Stress axis : x y z
#
# Youngs Moduli (GPa) = 82.89750 58.26298 99.53606
#
# Poissons Ratio (x) = 0.26915 0.39033
# Poissons Ratio (y) = 0.38296 0.33050
# Poissons Ratio (z) = 0.32508 0.19346
#
# Static dielectric constant tensor:
#      x y z
#    x 3.451000 -0.000090 -0.006050 
#    y -0.000090 3.429530 -0.000020 
#    z -0.006050 -0.000020 4.208010 
# 
# 
# High freq. dielectric constant tensor:
#      x y z
#    x 1.810580 0.000000 0.003610 
#    y 0.000000 1.836950 0.000000 
#    z 0.003610 0.000000 1.856080 
# 
# From -- ./inp_files/216115.got.cif
#   From: 2010.06.25/outbox.cif.g09.slc.cpg/sg15_109_cif.got.tgz:216115.got - 2010.06.28 07:06:18.
