data_PCOD8150309
_publ_section_title
;
Structure prediction by ZEFSAII (Michael W. Deem and Ramdas Pophale) SiO2 
 PCOD8150309
Probable space group: C 2/C
;
_chemical_formula_sum "Si O2"
_cell_formula_units_Z 52
_cell_length_a 10.620302
_cell_length_b 12.371935
_cell_length_c 21.316901
_cell_angle_alpha 90.000000
_cell_angle_beta 53.852371
_cell_angle_gamma 90.000000
_cell_volume 2261.731239
_symmetry_space_group_name_H-M "C 2/C"
_symmetry_group_IT_number 15
_symmetry_cell_setting 'monoclinic'
loop_
_space_group_symop_operation_xyz
x,y,z
-x,y,1/2-z
-x,-y,-z
x,-y,1/2+z
1/2+x,1/2+y,z
1/2-x,1/2+y,1/2-z
1/2-x,1/2-y,-z
1/2+x,1/2-y,1/2+z
loop_
_atom_site_type_symbol
_atom_site_label
_atom_site_fract_x
_atom_site_fract_y
_atom_site_fract_z
Si Si1 0.112428 0.623663 0.551421
Si Si2 0.274518 0.117864 0.670364
Si Si3 0.829506 0.817570 0.888414
Si Si4 0.670241 0.499757 0.921063
Si Si5 0.177716 0.271035 0.589241
Si Si6 0.167546 0.813920 0.328754
Si Si7 0.000000 0.957895 0.750000
O O1 0.093294 0.749774 0.577218
O O2 0.181658 0.615588 0.460627
O O3 0.233269 0.577171 0.563780
O O4 0.945221 0.566399 0.608176
O O5 0.234606 0.179415 0.618950
O O6 0.266339 0.190742 0.735268
O O7 0.152752 0.024839 0.720418
O O8 0.771191 0.750543 0.846828
O O9 0.967740 0.892978 0.823315
O O10 0.761876 0.384229 0.897330
O O11 0.653296 0.560842 0.858291
O O12 0.500000 0.500000 0.000000
O O13 0.250000 0.250000 0.500000
O O14 0.992391 0.252925 0.636360
#
# Coordination Sequence:
#
# PCOD8150309 Si02
#       7
#     8   8   8   8   8   8   4
#     4  10  25  47  72 108 142 187 259 295 382 471
#     4  12  27  47  68 112 149 191 255 313 378 468
#     4  10  24  45  76 103 142 197 236 316 371 451
#     4  11  26  45  78 108 146 200 248 320 388 456
#     4  12  25  46  76 106 150 198 247 316 377 460
#     4  11  24  49  69 108 152 191 255 307 385 464
#     4  12  26  42  70 104 146 188 236 310 380 430
#
# _framework density 22.991236000000001
#
# number of rings (size 3 to 8) (size 9 to 14) (size 15 to 20)
#    0.000    0.923    3.077    1.846   10.769    3.692 
#    2.769    0.000    0.000    0.000    0.000    0.000 
#    0.000    0.000    0.000    0.000    0.000    0.000 
#
# Total GULP energy -322150.305241 kJ/mol
# GULP energy per Si atom -12390.396355 kJ/mol
# Density = 2.293891 g / cm^3
# Si number density = 22.991236 Si / 1000 Ang^3
#
#
#
# Elastic Constant Matrix: (Units=GPa)
#
#
# Indices 1 2 3 4 5 6 
#
# 1 91.3738 44.8134 47.5882 0.0000 -4.9778 0.0000
# 2 44.8134 95.8860 45.1248 0.0000 -13.5176 0.0000
# 3 47.5882 45.1248 184.7496 0.0001 -7.7270 0.0000
# 4 0.0000 0.0000 0.0001 145.7632 0.0000 -0.9172
# 5 -4.9778 -13.5176 -7.7270 0.0000 43.3817 0.0000
# 6 0.0000 0.0000 0.0000 -0.9172 0.0000 40.0079
#
#
#
# Elastic Compliance Matrix: (Units=1/GPa)
#
#
# Indices 1 2 3 4 5 6 
#
# 1 0.015134 -0.005997 -0.002457 0.000000 -0.000570 0.000000
# 2 -0.005997 0.014613 -0.001877 0.000000 0.003531 0.000000
# 3 -0.002457 -0.001877 0.006516 0.000000 0.000294 0.000000
# 4 0.000000 0.000000 0.000000 0.006861 0.000000 0.000157
# 5 -0.000570 0.003531 0.000294 0.000000 0.024138 0.000000
# 6 0.000000 0.000000 0.000000 0.000157 0.000000 0.024999
#
#
# Mechanical properties :
#
#
# Convention : Reuss Voigt Hill
#
# Bulk Modulus (GPa) = 64.09814 71.89583 67.99699
# Shear Modulus (GPa) = 42.32842 61.46275 51.89559
#
# Velocity S-wave (km/s) = 4.29542 5.17602 4.75614
# Velocity P-wave (km/s) = 7.24850 8.18904 7.73308
#
# Compressibility (1/GPa) = 0.01560108
#
# Stress axis : x y z
#
# Youngs Moduli (GPa) = 66.07669 68.43332 153.45927
#
# Poissons Ratio (x) = 0.41039 0.37710
# Poissons Ratio (y) = 0.39626 0.28801
# Poissons Ratio (z) = 0.16237 0.12843
#
# Static dielectric constant tensor:
#      x y z
#    x 4.387890 0.000000 0.144790 
#    y 0.000000 4.687560 0.000000 
#    z 0.144790 0.000000 4.435090 
# 
# 
# High freq. dielectric constant tensor:
#      x y z
#    x 1.917020 0.000000 0.000310 
#    y 0.000000 1.901100 0.000000 
#    z 0.000310 0.000000 1.928220 
# 
# From -- ./inp_files/269204.got.cif
#   From: 2010.06.25/outbox.cif.g09.slc.cpg/sg15_135_cif.got.tgz:269204.got - 2010.06.28 07:06:18.
