data_PCOD8150032
_publ_section_title
;
Structure prediction by ZEFSAII (Michael W. Deem and Ramdas Pophale) SiO2 
 PCOD8150032
Probable space group: C 2/C
;
_chemical_formula_sum "Si O2"
_cell_formula_units_Z 44
_cell_length_a 16.634984
_cell_length_b 14.883410
_cell_length_c 8.263771
_cell_angle_alpha 90.000000
_cell_angle_beta 109.888628
_cell_angle_gamma 90.000000
_cell_volume 1923.956519
_symmetry_space_group_name_H-M "C 2/C"
_symmetry_group_IT_number 15
_symmetry_cell_setting 'monoclinic'
loop_
_space_group_symop_operation_xyz
x,y,z
-x,y,1/2-z
-x,-y,-z
x,-y,1/2+z
1/2+x,1/2+y,z
1/2-x,1/2+y,1/2-z
1/2-x,1/2-y,-z
1/2+x,1/2-y,1/2+z
loop_
_atom_site_type_symbol
_atom_site_label
_atom_site_fract_x
_atom_site_fract_y
_atom_site_fract_z
Si Si1 0.495311 0.239151 0.564497
Si Si2 0.318400 0.403321 0.202672
Si Si3 0.303692 0.778022 0.881054
Si Si4 0.059162 0.561569 0.644892
Si Si5 0.000000 0.140634 0.750000
Si Si6 0.731664 0.955253 0.828740
O O1 0.500000 0.283365 0.750000
O O2 0.400294 0.196944 0.491573
O O3 0.568577 0.162282 0.575673
O O4 0.507677 0.307044 0.425170
O O5 0.302669 0.302198 0.250564
O O6 0.413642 0.417761 0.197748
O O7 0.307720 0.476067 0.337498
O O8 0.244309 0.425556 0.021974
O O9 0.262443 0.867936 0.779667
O O10 0.250000 0.750000 0.000000
O O11 0.144064 0.511136 0.756807
O O12 0.000000 0.591212 0.750000
O O13 0.000000 0.500000 0.500000
#
# Coordination Sequence:
#
# PCOD8150032 Si02
#       6
#     8   8   8   8   4   8
#     4  10  24  43  72 103 143 194 239 305 368 439
#     4  11  27  45  74 103 142 193 248 306 363 444
#     4  11  25  46  70 104 147 191 245 299 370 437
#     4  11  23  38  63 101 142 187 228 294 374 439
#     4  10  26  52  70 108 140 200 258 296 368 428
#     4  12  25  45  70 107 146 188 243 305 367 443
#
# _framework density 22.869541000000002
#
# number of rings (size 3 to 8) (size 9 to 14) (size 15 to 20)
#    0.000    1.091    1.818    2.727   11.455    3.636 
#    0.000    0.000    0.000    0.000    0.000    0.000 
#    0.000    0.000    0.000    0.000    0.000    0.000 
#
# Total GULP energy -272621.075048 kJ/mol
# GULP energy per Si atom -12391.867048 kJ/mol
# Density = 2.281749 g / cm^3
# Si number density = 22.869541 Si / 1000 Ang^3
#
#
#
# Elastic Constant Matrix: (Units=GPa)
#
#
# Indices 1 2 3 4 5 6 
#
# 1 125.2246 46.6571 27.8744 0.0000 8.9615 0.0000
# 2 46.6571 114.1550 38.1463 0.0000 6.5902 0.0000
# 3 27.8744 38.1463 128.9755 0.0000 6.7428 0.0000
# 4 0.0000 0.0000 0.0000 39.1064 0.0000 5.7162
# 5 8.9615 6.5902 6.7428 0.0000 35.1901 0.0000
# 6 0.0000 0.0000 0.0000 5.7162 0.0000 40.7290
#
#
#
# Elastic Compliance Matrix: (Units=1/GPa)
#
#
# Indices 1 2 3 4 5 6 
#
# 1 0.009626 -0.003522 -0.000954 0.000000 -0.001609 0.000000
# 2 -0.003522 0.011067 -0.002475 0.000000 -0.000701 0.000000
# 3 -0.000954 -0.002475 0.008742 0.000000 -0.000969 0.000000
# 4 0.000000 0.000000 0.000000 0.026107 0.000000 -0.003664
# 5 -0.001609 -0.000701 -0.000969 0.000000 0.029144 0.000000
# 6 0.000000 0.000000 0.000000 -0.003664 0.000000 0.025067
#
#
# Mechanical properties :
#
#
# Convention : Reuss Voigt Hill
#
# Bulk Modulus (GPa) = 64.38711 65.96789 65.17750
# Shear Modulus (GPa) = 38.80961 40.05024 39.42993
#
# Velocity S-wave (km/s) = 4.12394 4.18933 4.15676
# Velocity P-wave (km/s) = 7.13379 7.23247 7.18330
#
# Compressibility (1/GPa) = 0.01553106
#
# Stress axis : x y z
#
# Youngs Moduli (GPa) = 103.88950 90.35592 114.38447
#
# Poissons Ratio (x) = 0.31827 0.10917
# Poissons Ratio (y) = 0.36594 0.28315
# Poissons Ratio (z) = 0.09915 0.22367
#
# Static dielectric constant tensor:
#      x y z
#    x 3.416340 0.000000 -0.058610 
#    y 0.000000 4.073130 0.000000 
#    z -0.058610 0.000000 4.281920 
# 
# 
# High freq. dielectric constant tensor:
#      x y z
#    x 1.906310 0.000000 -0.002120 
#    y 0.000000 1.903380 0.000000 
#    z -0.002120 0.000000 1.918130 
# 
# From -- ./inp_files/47216.got.cif
#   From: 2010.06.25/outbox.cif.g09.slc.cpg/sg15_24_cif.got.tgz:47216.got - 2010.06.28 07:06:18.
