data_PCOD8150691
_publ_section_title
;
Structure prediction by ZEFSAII (Michael W. Deem and Ramdas Pophale) SiO2 
 PCOD8150691
Probable space group: C 2/C
;
_chemical_formula_sum "Si O2"
_cell_formula_units_Z 32
_cell_length_a 30.692205
_cell_length_b 5.221495
_cell_length_c 8.920209
_cell_angle_alpha 90.000000
_cell_angle_beta 61.115305
_cell_angle_gamma 90.000000
_cell_volume 1251.700890
_symmetry_space_group_name_H-M "C 2/C"
_symmetry_group_IT_number 15
_symmetry_cell_setting 'monoclinic'
loop_
_space_group_symop_operation_xyz
x,y,z
-x,y,1/2-z
-x,-y,-z
x,-y,1/2+z
1/2+x,1/2+y,z
1/2-x,1/2+y,1/2-z
1/2-x,1/2-y,-z
1/2+x,1/2-y,1/2+z
loop_
_atom_site_type_symbol
_atom_site_label
_atom_site_fract_x
_atom_site_fract_y
_atom_site_fract_z
Si Si1 0.766883 0.825873 0.636892
Si Si2 0.441557 0.698456 0.841626
Si Si3 0.886168 0.497334 0.685067
Si Si4 0.141382 0.158345 0.020271
O O1 0.760521 0.583404 0.757391
O O2 0.750000 0.750000 0.500000
O O3 0.825513 0.900391 0.532513
O O4 0.500000 0.662985 0.750000
O O5 0.416936 0.416233 0.878940
O O6 0.425093 0.840774 0.719190
O O7 0.421319 0.835272 0.022339
O O8 0.849154 0.315413 0.649294
O O9 0.848627 0.666268 0.850146
#
# Coordination Sequence:
#
# PCOD8150691 Si02
#       4
#     8   8   8   8
#     4  12  32  56  87 123 164 214 278 340 415 488
#     4  11  24  43  74 111 153 203 263 326 404 486
#     4  10  25  46  72 106 160 203 261 323 411 472
#     4  11  27  47  77 108 156 206 264 335 400 486
#
# _framework density 25.565213
#
# number of rings (size 3 to 8) (size 9 to 14) (size 15 to 20)
#    0.000    1.000    0.000    3.000   14.000    8.000 
#    0.000    0.000    0.000    0.000    0.000    0.000 
#    0.000    0.000    0.000    0.000    0.000    0.000 
#
# Total GULP energy -198449.930296 kJ/mol
# GULP energy per Si atom -12403.120643 kJ/mol
# Density = 2.550703 g / cm^3
# Si number density = 25.565213 Si / 1000 Ang^3
#
#
#
# Elastic Constant Matrix: (Units=GPa)
#
#
# Indices 1 2 3 4 5 6 
#
# 1 116.4143 68.2697 76.5885 0.0000 -3.3557 0.0000
# 2 68.2697 162.9270 75.7833 0.0000 17.7953 0.0000
# 3 76.5885 75.7833 159.2849 0.0000 33.3296 0.0000
# 4 0.0000 0.0000 0.0000 10.8131 0.0000 -16.9066
# 5 -3.3557 17.7953 33.3296 0.0000 36.9296 0.0000
# 6 0.0000 0.0000 0.0000 -16.9066 0.0000 34.8736
#
#
#
# Elastic Compliance Matrix: (Units=1/GPa)
#
#
# Indices 1 2 3 4 5 6 
#
# 1 0.017120 -0.004469 -0.008484 0.000000 0.011366 0.000000
# 2 -0.004469 0.009056 -0.001432 0.000000 -0.003477 0.000000
# 3 -0.008484 -0.001432 0.013630 0.000000 -0.012382 0.000000
# 4 0.000000 0.000000 0.000000 0.382130 0.000000 0.185255
# 5 0.011366 -0.003477 -0.012382 0.000000 0.040962 0.000000
# 6 0.000000 0.000000 0.000000 0.185255 0.000000 0.118486
#
#
# Mechanical properties :
#
#
# Convention : Reuss Voigt Hill
#
# Bulk Modulus (GPa) = 90.61502 97.76769 94.19136
# Shear Modulus (GPa) = 8.14556 31.05559 19.60057
#
# Velocity S-wave (km/s) = 1.78693 3.48912 2.77192
# Velocity P-wave (km/s) = 6.30707 7.38630 6.86792
#
# Compressibility (1/GPa) = 0.01103570
#
# Stress axis : x y z
#
# Youngs Moduli (GPa) = 58.41227 110.42039 73.37007
#
# Poissons Ratio (x) = 0.49345 0.62245
# Poissons Ratio (y) = 0.26103 0.10510
# Poissons Ratio (z) = 0.49555 0.15817
#
# Static dielectric constant tensor:
#      x y z
#    x 4.527200 0.000000 0.155050 
#    y 0.000000 4.947050 0.000000 
#    z 0.155050 0.000000 4.892770 
# 
# 
# High freq. dielectric constant tensor:
#      x y z
#    x 2.018010 0.000000 0.011890 
#    y 0.000000 2.038510 0.000000 
#    z 0.011890 0.000000 2.042830 
# 
# From -- ./inp_files/67973.got.cif
#   From: 2010.06.25/outbox.cif.g09.slc.cpg/sg15_34_cif.got.tgz:67973.got - 2010.06.28 07:06:18.
