data_PCOD8150971
_publ_section_title
;
Structure prediction by ZEFSAII (Michael W. Deem and Ramdas Pophale) SiO2 
 PCOD8150971
Probable space group: C 2/C
;
_chemical_formula_sum "Si O2"
_cell_formula_units_Z 52
_cell_length_a 17.714492
_cell_length_b 21.732332
_cell_length_c 14.275250
_cell_angle_alpha 90.000000
_cell_angle_beta 32.736371
_cell_angle_gamma 90.000000
_cell_volume 2971.904696
_symmetry_space_group_name_H-M "C 2/C"
_symmetry_group_IT_number 15
_symmetry_cell_setting 'monoclinic'
loop_
_space_group_symop_operation_xyz
x,y,z
-x,y,1/2-z
-x,-y,-z
x,-y,1/2+z
1/2+x,1/2+y,z
1/2-x,1/2+y,1/2-z
1/2-x,1/2-y,-z
1/2+x,1/2-y,1/2+z
loop_
_atom_site_type_symbol
_atom_site_label
_atom_site_fract_x
_atom_site_fract_y
_atom_site_fract_z
Si Si1 0.253518 0.545730 0.952553
Si Si2 0.576147 0.558079 0.971941
Si Si3 0.659571 0.006555 0.359803
Si Si4 0.000000 0.036339 0.250000
Si Si5 0.382439 0.230428 0.301847
Si Si6 0.272663 0.110377 0.344298
Si Si7 0.960388 0.140318 0.649228
O O1 0.172427 0.505586 0.958452
O O2 0.361977 0.502995 0.891084
O O3 0.330286 0.604179 0.828103
O O4 0.161375 0.571732 0.136102
O O5 0.741752 0.542585 0.797530
O O6 0.540120 0.622039 0.959189
O O7 0.500000 0.500000 0.000000
O O8 0.516705 0.573817 0.136482
O O9 0.705243 0.075261 0.277847
O O10 0.500000 0.000000 0.500000
O O11 0.500000 0.206272 0.250000
O O12 0.250000 0.250000 0.500000
O O13 0.347851 0.176639 0.263407
O O14 0.440620 0.287244 0.181060
O O15 0.108128 0.119980 0.539496
#
# Coordination Sequence:
#
# PCOD8150971 Si02
#       7
#     8   8   8   4   8   8   8
#     4  11  18  32  57  78 113 146 185 230 282 341
#     4  11  19  34  59  83 109 151 194 237 289 343
#     4  11  24  35  50  85 118 150 184 235 302 344
#     4  12  16  32  60  88  98 146 200 232 280 342
#     4  12  24  34  54  83 112 157 196 225 282 350
#     4  12  21  37  55  80 119 154 183 233 285 342
#     4  11  19  37  55  81 117 149 190 238 277 344
#
# _framework density 17.497195999999999
#
# number of rings (size 3 to 8) (size 9 to 14) (size 15 to 20)
#    0.000    0.615   10.769    0.000    2.154    0.000 
#    0.000    0.000    0.000    0.000    0.000    6.462 
#    0.000    0.000    0.000    0.000    0.000    0.000 
#
# Total GULP energy -322134.085689 kJ/mol
# GULP energy per Si atom -12389.772526 kJ/mol
# Density = 1.745737 g / cm^3
# Si number density = 17.497196 Si / 1000 Ang^3
#
#
#
# Elastic Constant Matrix: (Units=GPa)
#
#
# Indices 1 2 3 4 5 6 
#
# 1 106.3371 51.8203 33.2561 -0.0105 8.9622 0.0039
# 2 51.8203 97.8987 20.1897 -0.0055 7.0754 0.0025
# 3 33.2561 20.1897 57.3455 -0.0151 -2.2806 0.0139
# 4 -0.0105 -0.0055 -0.0151 26.0182 0.0105 3.4093
# 5 8.9622 7.0754 -2.2806 0.0105 40.5592 -0.0083
# 6 0.0039 0.0025 0.0139 3.4093 -0.0083 34.1065
#
#
#
# Elastic Compliance Matrix: (Units=1/GPa)
#
#
# Indices 1 2 3 4 5 6 
#
# 1 0.014670 -0.006264 -0.006402 0.000002 -0.002509 0.000001
# 2 -0.006264 0.013878 -0.001298 0.000000 -0.001110 0.000000
# 3 -0.006402 -0.001298 0.021722 0.000010 0.002862 -0.000008
# 4 0.000002 0.000000 0.000010 0.038945 -0.000011 -0.003893
# 5 -0.002509 -0.001110 0.002862 -0.000011 0.025564 0.000006
# 6 0.000001 0.000000 -0.000008 -0.003893 0.000006 0.029709
#
#
# Mechanical properties :
#
#
# Convention : Reuss Voigt Hill
#
# Bulk Modulus (GPa) = 44.75719 52.45708 48.60714
# Shear Modulus (GPa) = 27.79904 30.55781 29.17843
#
# Velocity S-wave (km/s) = 3.99026 4.18358 4.08806
# Velocity P-wave (km/s) = 6.84578 7.30628 7.07978
#
# Compressibility (1/GPa) = 0.02234278
#
# Stress axis : x y z
#
# Youngs Moduli (GPa) = 68.16573 72.05654 46.03703
#
# Poissons Ratio (x) = 0.45134 0.29473
# Poissons Ratio (y) = 0.42697 0.05974
# Poissons Ratio (z) = 0.43640 0.09351
#
# Static dielectric constant tensor:
#      x y z
#    x 3.469310 0.000000 0.060920 
#    y 0.000000 3.226520 0.000020 
#    z 0.060920 0.000020 3.284540 
# 
# 
# High freq. dielectric constant tensor:
#      x y z
#    x 1.679150 0.000000 -0.009260 
#    y 0.000000 1.644930 0.000000 
#    z -0.009260 0.000000 1.669470 
# 
# From -- ./inp_files/163615.got.cif
#   From: 2010.06.25/outbox.cif.g09.slc.cpg/sg15_82_cif.got.tgz:163615.got - 2010.06.28 07:06:18.
