data_PCOD8150861
_publ_section_title
;
Structure prediction by ZEFSAII (Michael W. Deem and Ramdas Pophale) SiO2 
 PCOD8150861
Probable space group: C 2/C
;
_chemical_formula_sum "Si O2"
_cell_formula_units_Z 60
_cell_length_a 5.435009
_cell_length_b 18.221955
_cell_length_c 27.520940
_cell_angle_alpha 90.000000
_cell_angle_beta 71.148950
_cell_angle_gamma 90.000000
_cell_volume 2579.382084
_symmetry_space_group_name_H-M "C 2/C"
_symmetry_group_IT_number 15
_symmetry_cell_setting 'monoclinic'
loop_
_space_group_symop_operation_xyz
x,y,z
-x,y,1/2-z
-x,-y,-z
x,-y,1/2+z
1/2+x,1/2+y,z
1/2-x,1/2+y,1/2-z
1/2-x,1/2-y,-z
1/2+x,1/2-y,1/2+z
loop_
_atom_site_type_symbol
_atom_site_label
_atom_site_fract_x
_atom_site_fract_y
_atom_site_fract_z
Si Si1 0.056026 0.975385 0.840015
Si Si2 0.899878 0.418436 0.004287
Si Si3 0.270725 0.705684 0.450583
Si Si4 0.733840 0.615513 0.623575
Si Si5 0.000000 0.565227 0.250000
Si Si6 0.724083 0.148630 0.325424
Si Si7 0.278769 0.798774 0.361402
Si Si8 0.227439 0.890722 0.915506
O O1 0.304431 0.991762 0.789612
O O2 0.139731 0.963223 0.890819
O O3 0.974864 0.896537 0.824919
O O4 0.820069 0.033934 0.851489
O O5 0.684562 0.412979 0.975137
O O6 0.125433 0.370239 0.966742
O O7 0.813484 0.388015 0.061965
O O8 0.000000 0.500000 0.000000
O O9 0.250000 0.750000 0.500000
O O10 0.161044 0.759930 0.416626
O O11 0.561912 0.683224 0.416501
O O12 0.445743 0.649578 0.645583
O O13 0.955062 0.656022 0.641885
O O14 0.130734 0.621600 0.279272
O O15 0.818579 0.234003 0.318951
O O16 0.514485 0.133424 0.381250
#
# Coordination Sequence:
#
# PCOD8150861 Si02
#       8
#     8   8   8   8   4   8   8   8
#     4  11  25  48  77 106 140 193 251 317 382 460
#     4  12  26  39  64 106 150 209 260 305 351 432
#     4  12  23  39  63  98 151 201 253 292 355 429
#     4  12  29  45  73 108 162 200 251 302 379 441
#     4  10  26  46  90 108 136 180 260 320 402 468
#     4  11  23  46  80 108 141 188 254 311 388 462
#     4  12  26  46  72 110 149 205 240 308 375 447
#     4  11  22  40  70 102 147 197 256 311 354 435
#
# _framework density 23.261384
#
# number of rings (size 3 to 8) (size 9 to 14) (size 15 to 20)
#    0.000    0.533    4.000    3.600    7.467    2.133 
#    0.000    0.000    5.867    0.000    0.000    0.000 
#    0.000    0.000    0.000    0.000    0.000    0.000 
#
# Total GULP energy -371752.323654 kJ/mol
# GULP energy per Si atom -12391.744122 kJ/mol
# Density = 2.320844 g / cm^3
# Si number density = 23.261384 Si / 1000 Ang^3
#
#
#
# Elastic Constant Matrix: (Units=GPa)
#
#
# Indices 1 2 3 4 5 6 
#
# 1 113.6987 43.4907 26.8712 0.0000 0.1149 0.0000
# 2 43.4907 109.3040 17.6637 0.0000 -1.2463 0.0000
# 3 26.8712 17.6637 95.3009 0.0000 6.3792 0.0000
# 4 0.0000 0.0000 0.0000 19.5280 0.0000 0.0208
# 5 0.1149 -1.2463 6.3792 0.0000 36.1024 0.0000
# 6 0.0000 0.0000 0.0000 0.0208 0.0000 47.9001
#
#
#
# Elastic Compliance Matrix: (Units=1/GPa)
#
#
# Indices 1 2 3 4 5 6 
#
# 1 0.010856 -0.003937 -0.002348 0.000000 0.000244 0.000000
# 2 -0.003937 0.010874 -0.000942 0.000000 0.000554 0.000000
# 3 -0.002348 -0.000942 0.011467 0.000000 -0.002051 0.000000
# 4 0.000000 0.000000 0.000000 0.051209 0.000000 -0.000022
# 5 0.000244 0.000554 -0.002051 0.000000 0.028080 0.000000
# 6 0.000000 0.000000 0.000000 -0.000022 0.000000 0.020877
#
#
# Mechanical properties :
#
#
# Convention : Reuss Voigt Hill
#
# Bulk Modulus (GPa) = 53.35497 54.92831 54.14164
# Shear Modulus (GPa) = 32.45411 36.05796 34.25604
#
# Velocity S-wave (km/s) = 3.73928 3.94143 3.84168
# Velocity P-wave (km/s) = 6.45212 6.66168 6.55774
#
# Compressibility (1/GPa) = 0.01874240
#
# Stress axis : x y z
#
# Youngs Moduli (GPa) = 92.11706 91.96259 87.20700
#
# Poissons Ratio (x) = 0.36208 0.20472
# Poissons Ratio (y) = 0.36269 0.08219
# Poissons Ratio (z) = 0.21625 0.08667
#
# Static dielectric constant tensor:
#      x y z
#    x 4.239710 0.000000 0.172200 
#    y 0.000000 4.261730 0.000000 
#    z 0.172200 0.000000 4.309940 
# 
# 
# High freq. dielectric constant tensor:
#      x y z
#    x 1.927660 0.000000 0.007240 
#    y 0.000000 1.920480 0.000000 
#    z 0.007240 0.000000 1.913710 
# 
# From -- ./inp_files/305772.got.cif
#   From: 2010.06.25/outbox.cif.g09.slc.cpg/sg15_153_cif.got.tgz:305772.got - 2010.06.28 07:06:18.
