data_PCOD8150112
_publ_section_title
;
Structure prediction by ZEFSAII (Michael W. Deem and Ramdas Pophale) SiO2 
 PCOD8150112
Probable space group: C 2/C
;
_chemical_formula_sum "Si O2"
_cell_formula_units_Z 56
_cell_length_a 14.231161
_cell_length_b 21.026574
_cell_length_c 13.388376
_cell_angle_alpha 90.000000
_cell_angle_beta 42.286370
_cell_angle_gamma 90.000000
_cell_volume 2695.543349
_symmetry_space_group_name_H-M "C 2/C"
_symmetry_group_IT_number 15
_symmetry_cell_setting 'monoclinic'
loop_
_space_group_symop_operation_xyz
x,y,z
-x,y,1/2-z
-x,-y,-z
x,-y,1/2+z
1/2+x,1/2+y,z
1/2-x,1/2+y,1/2-z
1/2-x,1/2-y,-z
1/2+x,1/2-y,1/2+z
loop_
_atom_site_type_symbol
_atom_site_label
_atom_site_fract_x
_atom_site_fract_y
_atom_site_fract_z
Si Si1 0.274779 0.011455 0.418344
Si Si2 0.562021 0.829360 0.909833
Si Si3 0.595944 0.745982 0.081652
Si Si4 0.529034 0.960377 0.571569
Si Si5 0.440247 0.598330 0.405810
Si Si6 0.847424 0.119482 0.101123
Si Si7 0.093502 0.771478 0.089854
O O1 0.323966 0.020233 0.493957
O O2 0.405929 0.021969 0.243898
O O3 0.173361 0.069628 0.472142
O O4 0.200472 0.942649 0.465038
O O5 0.458639 0.889149 0.981509
O O6 0.714689 0.856820 0.768129
O O7 0.504278 0.786719 0.865961
O O8 0.562297 0.794267 0.017087
O O9 0.500000 0.765562 0.250000
O O10 0.579465 0.673342 0.061623
O O11 0.750000 0.750000 0.000000
O O12 0.500000 0.000000 0.500000
O O13 0.500000 0.581891 0.250000
O O14 0.552633 0.581464 0.401749
O O15 0.907641 0.182438 0.003662
O O16 0.000000 0.803842 0.250000
O O17 0.250000 0.750000 0.000000
#
# Coordination Sequence:
#
# PCOD8150112 Si02
#       7
#     8   8   8   8   8   8   8
#     4  10  24  44  68  96 134 171 233 281 338 413
#     4  11  23  44  71  94 139 178 228 281 341 415
#     4  11  25  42  67 102 137 180 226 277 341 410
#     4  10  24  44  67  96 129 181 222 283 346 402
#     4  11  24  43  70  96 138 178 221 281 347 406
#     4  11  23  46  67  99 133 180 226 282 351 405
#     4  12  24  41  68  98 134 178 225 282 338 403
#
# _framework density 20.775033000000001
#
# number of rings (size 3 to 8) (size 9 to 14) (size 15 to 20)
#    0.000    1.143    2.857    3.000    8.000    1.714 
#    5.143    0.000    0.000    0.000    0.000    0.000 
#    0.000    0.000    0.000    0.000    0.000    0.000 
#
# Total GULP energy -346958.102462 kJ/mol
# GULP energy per Si atom -12391.360802 kJ/mol
# Density = 2.072775 g / cm^3
# Si number density = 20.775033 Si / 1000 Ang^3
#
#
#
# Elastic Constant Matrix: (Units=GPa)
#
#
# Indices 1 2 3 4 5 6 
#
# 1 184.6905 59.5752 45.9131 0.0004 1.5265 0.0001
# 2 59.5752 104.7370 31.1429 0.0015 13.2902 -0.0007
# 3 45.9131 31.1429 72.1099 -0.0004 1.0610 0.0007
# 4 0.0004 0.0015 -0.0004 31.6605 -0.0007 -0.0497
# 5 1.5265 13.2902 1.0610 -0.0007 32.6154 0.0000
# 6 0.0001 -0.0007 0.0007 -0.0497 0.0000 43.1485
#
#
#
# Elastic Compliance Matrix: (Units=1/GPa)
#
#
# Indices 1 2 3 4 5 6 
#
# 1 0.007277 -0.003326 -0.003213 0.000000 0.001119 0.000000
# 2 -0.003326 0.013116 -0.003472 -0.000001 -0.005076 0.000000
# 3 -0.003213 -0.003472 0.017399 0.000000 0.000999 0.000000
# 4 0.000000 -0.000001 0.000000 0.031585 0.000001 0.000036
# 5 0.001119 -0.005076 0.000999 0.000001 0.032644 0.000000
# 6 0.000000 0.000000 0.000000 0.000036 0.000000 0.023176
#
#
# Mechanical properties :
#
#
# Convention : Reuss Voigt Hill
#
# Bulk Modulus (GPa) = 56.27903 70.53330 63.40616
# Shear Modulus (GPa) = 33.08150 36.47863 34.78007
#
# Velocity S-wave (km/s) = 3.99478 4.19488 4.09605
# Velocity P-wave (km/s) = 6.95890 7.58204 7.27714
#
# Compressibility (1/GPa) = 0.01776861
#
# Stress axis : x y z
#
# Youngs Moduli (GPa) = 137.42335 76.24312 57.47558
#
# Poissons Ratio (x) = 0.25355 0.18469
# Poissons Ratio (y) = 0.45702 0.19958
# Poissons Ratio (z) = 0.44160 0.26475
#
# Static dielectric constant tensor:
#      x y z
#    x 2.937020 0.000000 -0.825700 
#    y 0.000000 3.707650 0.000020 
#    z -0.825700 0.000020 3.051900 
# 
# 
# High freq. dielectric constant tensor:
#      x y z
#    x 1.841760 0.000000 0.002860 
#    y 0.000000 1.818960 0.000000 
#    z 0.002860 0.000000 1.799800 
# 
# From -- ./inp_files/156161.got.cif
#   From: 2010.06.25/outbox.cif.g09.slc.cpg/sg15_79_cif.got.tgz:156161.got - 2010.06.28 07:06:18.
