data_PCOD8150052
_publ_section_title
;
Structure prediction by ZEFSAII (Michael W. Deem and Ramdas Pophale) SiO2 
 PCOD8150052
Probable space group: C 2/C
;
_chemical_formula_sum "Si O2"
_cell_formula_units_Z 44
_cell_length_a 19.838893
_cell_length_b 17.714429
_cell_length_c 14.425696
_cell_angle_alpha 90.000000
_cell_angle_beta 24.443011
_cell_angle_gamma 90.000000
_cell_volume 2097.776456
_symmetry_space_group_name_H-M "C 2/C"
_symmetry_group_IT_number 15
_symmetry_cell_setting 'monoclinic'
loop_
_space_group_symop_operation_xyz
x,y,z
-x,y,1/2-z
-x,-y,-z
x,-y,1/2+z
1/2+x,1/2+y,z
1/2-x,1/2+y,1/2-z
1/2-x,1/2-y,-z
1/2+x,1/2-y,1/2+z
loop_
_atom_site_type_symbol
_atom_site_label
_atom_site_fract_x
_atom_site_fract_y
_atom_site_fract_z
Si Si1 0.500000 0.257708 0.750000
Si Si2 0.183241 0.152187 0.298997
Si Si3 0.782926 0.889627 0.090152
Si Si4 0.989217 0.708449 0.565994
Si Si5 0.687504 0.047156 0.515768
Si Si6 0.003584 0.975236 0.137514
O O1 0.636995 0.309229 0.532086
O O2 0.439021 0.207120 0.739537
O O3 0.287612 0.118606 0.082531
O O4 0.096358 0.089540 0.467766
O O5 0.049360 0.211047 0.431290
O O6 0.319741 0.193780 0.190724
O O7 0.614035 0.861847 0.350052
O O8 0.744087 0.936298 0.047965
O O9 0.901439 0.944356 0.000871
O O10 0.500000 0.018478 0.750000
O O11 0.821469 0.982726 0.320844
O O12 0.000000 0.953639 0.250000
#
# Coordination Sequence:
#
# PCOD8150052 Si02
#       6
#     4   8   8   8   8   8
#     4  12  18  34  60  94 134 152 174 248 322 382
#     4  12  24  39  61  92 126 161 202 247 302 365
#     4  11  19  36  59  87 127 158 187 245 315 364
#     4  12  23  34  59  95 127 158 196 237 310 374
#     4  11  20  37  62  95 121 150 195 248 314 369
#     4  10  24  44  61  83 124 165 209 253 291 344
#
# _framework density 20.974589000000002
#
# number of rings (size 3 to 8) (size 9 to 14) (size 15 to 20)
#    0.000    0.727    8.182    2.182    0.000    0.727 
#    0.000    0.909    0.000    0.000    0.000    0.000 
#    0.000    0.000    0.000    0.000    0.000    0.000 
#
# Total GULP energy -272629.715388 kJ/mol
# GULP energy per Si atom -12392.259790 kJ/mol
# Density = 2.092685 g / cm^3
# Si number density = 20.974589 Si / 1000 Ang^3
#
#
#
# Elastic Constant Matrix: (Units=GPa)
#
#
# Indices 1 2 3 4 5 6 
#
# 1 45.6162 27.1310 42.6889 0.0014 -18.2023 -0.0026
# 2 27.1310 96.4790 70.2343 -0.0010 -10.8481 -0.0011
# 3 42.6889 70.2343 129.0600 -0.0125 -41.5743 0.0028
# 4 0.0014 -0.0010 -0.0125 30.1031 0.0069 10.0153
# 5 -18.2023 -10.8481 -41.5743 0.0069 31.7601 -0.0034
# 6 -0.0026 -0.0011 0.0028 10.0153 -0.0034 13.5900
#
#
#
# Elastic Compliance Matrix: (Units=1/GPa)
#
#
# Indices 1 2 3 4 5 6 
#
# 1 0.033878 -0.004512 -0.005174 -0.000013 0.011102 0.000020
# 2 -0.004512 0.020322 -0.014116 -0.000002 -0.014123 0.000002
# 3 -0.005174 -0.014116 0.025303 0.000006 0.025335 -0.000006
# 4 -0.000013 -0.000002 0.000006 0.044010 -0.000013 -0.032434
# 5 0.011102 -0.014123 0.025335 -0.000013 0.066189 0.000022
# 6 0.000020 0.000002 -0.000006 -0.032434 0.000022 0.097486
#
#
# Mechanical properties :
#
#
# Convention : Reuss Voigt Hill
#
# Bulk Modulus (GPa) = 31.34961 61.25150 46.30056
# Shear Modulus (GPa) = 14.47494 23.83071 19.15283
#
# Velocity S-wave (km/s) = 2.62986 3.37437 3.02511
# Velocity P-wave (km/s) = 4.91940 6.66693 5.85869
#
# Compressibility (1/GPa) = 0.03189833
#
# Stress axis : x y z
#
# Youngs Moduli (GPa) = 29.51810 49.20741 39.52095
#
# Poissons Ratio (x) = 0.22202 0.20447
# Poissons Ratio (y) = 0.13319 0.55789
# Poissons Ratio (z) = 0.15272 0.69463
#
# Static dielectric constant tensor:
#      x y z
#    x 3.994280 0.000000 -0.832160 
#    y 0.000000 3.635940 -0.000010 
#    z -0.832160 -0.000010 4.357480 
# 
# 
# High freq. dielectric constant tensor:
#      x y z
#    x 1.799890 0.000000 -0.044990 
#    y 0.000000 1.807310 0.000000 
#    z -0.044990 0.000000 1.818650 
# 
# From -- ./inp_files/39136.got.cif
#   From: 2010.06.25/outbox.cif.g09.slc.cpg/sg15_20_cif.got.tgz:39136.got - 2010.06.28 07:06:18.
