data_PCOD8150139
_publ_section_title
;
Structure prediction by ZEFSAII (Michael W. Deem and Ramdas Pophale) SiO2 
 PCOD8150139
Probable space group: C 2/C
;
_chemical_formula_sum "Si O2"
_cell_formula_units_Z 28
_cell_length_a 11.387189
_cell_length_b 15.747044
_cell_length_c 6.102096
_cell_angle_alpha 90.000000
_cell_angle_beta 113.561120
_cell_angle_gamma 90.000000
_cell_volume 1002.976269
_symmetry_space_group_name_H-M "C 2/C"
_symmetry_group_IT_number 15
_symmetry_cell_setting 'monoclinic'
loop_
_space_group_symop_operation_xyz
x,y,z
-x,y,1/2-z
-x,-y,-z
x,-y,1/2+z
1/2+x,1/2+y,z
1/2-x,1/2+y,1/2-z
1/2-x,1/2-y,-z
1/2+x,1/2-y,1/2+z
loop_
_atom_site_type_symbol
_atom_site_label
_atom_site_fract_x
_atom_site_fract_y
_atom_site_fract_z
Si Si1 0.000000 0.844807 0.250000
Si Si2 0.142774 0.607445 0.780254
Si Si3 0.798033 0.740112 0.289748
Si Si4 0.244786 0.425928 0.914009
O O1 0.062498 0.784952 0.105303
O O2 0.106695 0.905771 0.433061
O O3 0.198160 0.704410 0.874831
O O4 0.236172 0.526859 0.893797
O O5 0.144880 0.608206 0.518966
O O6 0.000000 0.591610 0.750000
O O7 0.799731 0.634214 0.330913
O O8 0.750000 0.750000 0.000000
#
# Coordination Sequence:
#
# PCOD8150139 Si02
#       4
#     4   8   8   8
#     4  10  24  44  68  98 152 184 240 294 356 436
#     4  11  24  43  72 105 141 191 242 294 354 434
#     4  11  26  42  71 106 144 192 233 303 366 416
#     4  11  25  45  69 108 144 187 242 297 363 417
#
# _framework density 27.916909
#
# number of rings (size 3 to 8) (size 9 to 14) (size 15 to 20)
#    0.000    1.143    0.000    6.000   10.000    4.571 
#    0.000    0.000    0.000    0.000    0.000    0.000 
#    0.000    0.000    0.000    0.000    0.000    0.000 
#
# Total GULP energy -173455.601029 kJ/mol
# GULP energy per Si atom -12389.685788 kJ/mol
# Density = 2.785337 g / cm^3
# Si number density = 27.916909 Si / 1000 Ang^3
#
#
#
# Elastic Constant Matrix: (Units=GPa)
#
#
# Indices 1 2 3 4 5 6 
#
# 1 215.1275 86.2830 54.6404 0.0000 13.3955 0.0000
# 2 86.2830 297.9437 87.3002 0.0000 -1.3451 0.0000
# 3 54.6404 87.3002 79.8057 0.0000 4.2886 0.0000
# 4 0.0000 0.0000 0.0000 56.8328 0.0000 1.7093
# 5 13.3955 -1.3451 4.2886 0.0000 35.4139 0.0000
# 6 0.0000 0.0000 0.0000 1.7093 0.0000 46.0555
#
#
#
# Elastic Compliance Matrix: (Units=1/GPa)
#
#
# Indices 1 2 3 4 5 6 
#
# 1 0.005861 -0.000824 -0.003010 0.000000 -0.001884 0.000000
# 2 -0.000824 0.005081 -0.005054 0.000000 0.001117 0.000000
# 3 -0.003010 -0.005054 0.020201 0.000000 -0.001500 0.000000
# 4 0.000000 0.000000 0.000000 0.017615 0.000000 -0.000654
# 5 -0.001884 0.001117 -0.001500 0.000000 0.029174 0.000000
# 6 0.000000 0.000000 0.000000 -0.000654 0.000000 0.021737
#
#
# Mechanical properties :
#
#
# Convention : Reuss Voigt Hill
#
# Bulk Modulus (GPa) = 74.81602 116.59158 95.70380
# Shear Modulus (GPa) = 41.01728 51.97065 46.49396
#
# Velocity S-wave (km/s) = 3.83725 4.31933 4.08541
# Velocity P-wave (km/s) = 6.81839 8.16884 7.52397
#
# Compressibility (1/GPa) = 0.01336612
#
# Stress axis : x y z
#
# Youngs Moduli (GPa) = 170.62951 196.82072 49.50318
#
# Poissons Ratio (x) = 0.16211 0.14902
# Poissons Ratio (y) = 0.14054 0.25019
# Poissons Ratio (z) = 0.51366 0.99473
#
# Static dielectric constant tensor:
#      x y z
#    x 5.306390 0.000000 -0.918690 
#    y 0.000000 7.362300 0.000000 
#    z -0.918690 0.000000 6.122090 
# 
# 
# High freq. dielectric constant tensor:
#      x y z
#    x 2.128540 0.000000 -0.047950 
#    y 0.000000 2.185360 0.000000 
#    z -0.047950 0.000000 2.174090 
# 
# From -- ./inp_files/27729.got.cif
#   From: 2010.06.25/outbox.cif.g09.slc.cpg/sg15_14_cif.got.tgz:27729.got - 2010.06.28 07:06:18.
