data_PCOD8150085
_publ_section_title
;
Structure prediction by ZEFSAII (Michael W. Deem and Ramdas Pophale) SiO2 
 PCOD8150085
Probable space group: C 2/C
;
_chemical_formula_sum "Si O2"
_cell_formula_units_Z 60
_cell_length_a 10.469546
_cell_length_b 23.357759
_cell_length_c 14.778515
_cell_angle_alpha 90.000000
_cell_angle_beta 46.046997
_cell_angle_gamma 90.000000
_cell_volume 2601.762414
_symmetry_space_group_name_H-M "C 2/C"
_symmetry_group_IT_number 15
_symmetry_cell_setting 'monoclinic'
loop_
_space_group_symop_operation_xyz
x,y,z
-x,y,1/2-z
-x,-y,-z
x,-y,1/2+z
1/2+x,1/2+y,z
1/2-x,1/2+y,1/2-z
1/2-x,1/2-y,-z
1/2+x,1/2-y,1/2+z
loop_
_atom_site_type_symbol
_atom_site_label
_atom_site_fract_x
_atom_site_fract_y
_atom_site_fract_z
Si Si1 0.146764 0.982430 0.353885
Si Si2 0.266333 0.313530 0.452497
Si Si3 0.622919 0.836479 0.871888
Si Si4 0.500000 0.054997 0.750000
Si Si5 0.930952 0.903941 0.685531
Si Si6 0.138244 0.854196 0.296765
Si Si7 0.703207 0.869858 0.021974
Si Si8 0.198931 0.726839 0.646401
O O1 0.336791 0.986432 0.308538
O O2 0.135168 0.922998 0.304148
O O3 0.139727 0.031440 0.280816
O O4 0.000000 0.000000 0.500000
O O5 0.250000 0.250000 0.500000
O O6 0.433500 0.339966 0.422179
O O7 0.302727 0.324293 0.327186
O O8 0.075585 0.342668 0.569883
O O9 0.775108 0.859637 0.728014
O O10 0.656190 0.771547 0.889003
O O11 0.653752 0.878372 0.941792
O O12 0.457519 0.097235 0.853328
O O13 0.000000 0.885033 0.750000
O O14 0.108427 0.897015 0.536920
O O15 0.275282 0.829749 0.303365
O O16 0.719185 0.800876 0.035613
O O17 0.000000 0.752517 0.750000
#
# Coordination Sequence:
#
# PCOD8150085 Si02
#       8
#     8   8   8   4   8   8   8   8
#     4  12  24  46  69 100 138 182 239 292 350 428
#     4  11  24  47  66  99 140 186 237 288 351 445
#     4  11  24  41  65  98 137 178 224 284 360 417
#     4  12  22  40  72  98 130 176 234 284 350 412
#     4  10  24  44  65  99 140 176 227 296 343 418
#     4  11  25  43  70  98 137 187 231 290 364 417
#     4  11  21  42  63 101 135 172 226 289 349 421
#     4  12  20  38  67  99 129 171 222 283 350 417
#
# _framework density 23.061291000000001
#
# number of rings (size 3 to 8) (size 9 to 14) (size 15 to 20)
#    0.000    0.800    4.667    3.200    1.867    2.133 
#    2.400    2.000    0.000    0.000    0.000    0.000 
#    0.000    0.000    0.000    0.000    0.000    0.000 
#
# Total GULP energy -371651.735649 kJ/mol
# GULP energy per Si atom -12388.391188 kJ/mol
# Density = 2.300880 g / cm^3
# Si number density = 23.061291 Si / 1000 Ang^3
#
#
#
# Elastic Constant Matrix: (Units=GPa)
#
#
# Indices 1 2 3 4 5 6 
#
# 1 81.1838 20.9721 31.9495 0.0000 -38.8510 0.0000
# 2 20.9721 116.2458 31.0893 0.0000 -16.5673 0.0000
# 3 31.9495 31.0893 101.3484 0.0000 -37.3210 0.0000
# 4 0.0000 0.0000 0.0000 29.1762 0.0000 -8.0031
# 5 -38.8510 -16.5673 -37.3210 0.0000 48.0196 0.0000
# 6 0.0000 0.0000 0.0000 -8.0031 0.0000 41.4819
#
#
#
# Elastic Compliance Matrix: (Units=1/GPa)
#
#
# Indices 1 2 3 4 5 6 
#
# 1 0.020313 -0.001366 -0.000149 0.000000 0.015848 0.000000
# 2 -0.001366 0.009531 -0.002366 0.000000 0.000344 0.000000
# 3 -0.000149 -0.002366 0.014423 0.000000 0.010273 0.000000
# 4 0.000000 0.000000 0.000000 0.036190 0.000000 0.006982
# 5 0.015848 0.000344 0.010273 0.000000 0.041749 0.000000
# 6 0.000000 0.000000 0.000000 0.006982 0.000000 0.025454
#
#
# Mechanical properties :
#
#
# Convention : Reuss Voigt Hill
#
# Bulk Modulus (GPa) = 27.39430 51.86664 39.63047
# Shear Modulus (GPa) = 29.83469 38.05335 33.94402
#
# Velocity S-wave (km/s) = 3.60072 4.06654 3.84070
# Velocity P-wave (km/s) = 5.40293 6.67747 6.07373
#
# Compressibility (1/GPa) = 0.03650394
#
# Stress axis : x y z
#
# Youngs Moduli (GPa) = 49.22889 104.92288 69.33598
#
# Poissons Ratio (x) = 0.14336 0.01030
# Poissons Ratio (y) = 0.06726 0.16407
# Poissons Ratio (z) = 0.00732 0.24829
#
# Static dielectric constant tensor:
#      x y z
#    x 4.271980 0.000000 -0.401620 
#    y 0.000000 4.029720 0.000000 
#    z -0.401620 0.000000 4.571930 
# 
# 
# High freq. dielectric constant tensor:
#      x y z
#    x 1.910300 0.000000 -0.024450 
#    y 0.000000 1.904160 0.000000 
#    z -0.024450 0.000000 1.917700 
# 
# From -- ./inp_files/200504.got.cif
#   From: 2010.06.25/outbox.cif.g09.slc.cpg/sg15_101_cif.got.tgz:200504.got - 2010.06.28 07:06:18.
