data_PCOD8150407
_publ_section_title
;
Structure prediction by ZEFSAII (Michael W. Deem and Ramdas Pophale) SiO2 
 PCOD8150407
Probable space group: C 2/C
;
_chemical_formula_sum "Si O2"
_cell_formula_units_Z 56
_cell_length_a 13.759658
_cell_length_b 15.760322
_cell_length_c 10.987463
_cell_angle_alpha 90.000000
_cell_angle_beta 85.338652
_cell_angle_gamma 90.000000
_cell_volume 2374.823369
_symmetry_space_group_name_H-M "C 2/C"
_symmetry_group_IT_number 15
_symmetry_cell_setting 'monoclinic'
loop_
_space_group_symop_operation_xyz
x,y,z
-x,y,1/2-z
-x,-y,-z
x,-y,1/2+z
1/2+x,1/2+y,z
1/2-x,1/2+y,1/2-z
1/2-x,1/2-y,-z
1/2+x,1/2-y,1/2+z
loop_
_atom_site_type_symbol
_atom_site_label
_atom_site_fract_x
_atom_site_fract_y
_atom_site_fract_z
Si Si1 0.446023 0.406382 0.378827
Si Si2 0.793733 0.638572 0.131141
Si Si3 0.708700 0.027609 0.730193
Si Si4 0.648828 0.846369 0.427261
Si Si5 0.047206 0.421236 0.065323
Si Si6 0.636341 0.431763 0.490337
Si Si7 0.317208 0.240732 0.346616
O O1 0.500000 0.434894 0.250000
O O2 0.530813 0.393360 0.470911
O O3 0.374029 0.481224 0.431077
O O4 0.388153 0.318826 0.369622
O O5 0.787616 0.570406 0.239568
O O6 0.692316 0.638296 0.066932
O O7 0.818669 0.724726 0.201233
O O8 0.881055 0.626307 0.031001
O O9 0.711911 0.077487 0.859766
O O10 0.605048 0.048327 0.677959
O O11 0.801226 0.052029 0.638804
O O12 0.537854 0.854482 0.391617
O O13 0.651697 0.842276 0.575496
O O14 0.702343 0.759127 0.383956
O O15 0.000000 0.500000 0.000000
#
# Coordination Sequence:
#
# PCOD8150407 Si02
#       7
#     8   8   8   8   8   8   8
#     4  11  24  47  73 106 140 186 237 299 351 417
#     4  11  24  42  70 106 138 182 230 290 355 428
#     4  11  23  44  72  98 142 179 233 290 346 421
#     4  11  24  44  63 101 136 190 225 282 348 422
#     4  11  23  40  69 105 132 177 236 285 346 420
#     4  10  24  46  77 102 135 184 247 287 343 422
#     4  11  27  43  70 100 146 186 227 288 371 414
#
# _framework density 23.580701000000001
#
# number of rings (size 3 to 8) (size 9 to 14) (size 15 to 20)
#    0.000    1.143    1.429    3.857   10.000    1.143 
#    5.143    2.143    0.000    0.000    0.000    0.000 
#    0.000    0.000    0.000    0.000    0.000    0.000 
#
# Total GULP energy -347035.963143 kJ/mol
# GULP energy per Si atom -12394.141541 kJ/mol
# Density = 2.352703 g / cm^3
# Si number density = 23.580701 Si / 1000 Ang^3
#
#
#
# Elastic Constant Matrix: (Units=GPa)
#
#
# Indices 1 2 3 4 5 6 
#
# 1 150.5866 41.5768 38.7623 0.0000 14.1201 0.0000
# 2 41.5768 63.3329 33.9285 0.0000 12.6738 0.0000
# 3 38.7623 33.9285 87.6893 0.0000 5.0354 0.0000
# 4 0.0000 0.0000 0.0000 43.3143 0.0000 9.1597
# 5 14.1201 12.6738 5.0354 0.0000 29.4249 0.0000
# 6 0.0000 0.0000 0.0000 9.1597 0.0000 36.7602
#
#
#
# Elastic Compliance Matrix: (Units=1/GPa)
#
#
# Indices 1 2 3 4 5 6 
#
# 1 0.008479 -0.004069 -0.002061 0.000000 -0.001963 0.000000
# 2 -0.004069 0.023571 -0.006918 0.000000 -0.007016 0.000000
# 3 -0.002061 -0.006918 0.014910 0.000000 0.001417 0.000000
# 4 0.000000 0.000000 0.000000 0.024371 0.000000 -0.006073
# 5 -0.001963 -0.007016 0.001417 0.000000 0.037706 0.000000
# 6 0.000000 0.000000 0.000000 -0.006073 0.000000 0.028717
#
#
# Mechanical properties :
#
#
# Convention : Reuss Voigt Hill
#
# Bulk Modulus (GPa) = 47.93085 58.90490 53.41787
# Shear Modulus (GPa) = 29.27297 34.38928 31.83113
#
# Velocity S-wave (km/s) = 3.52717 3.82300 3.67806
# Velocity P-wave (km/s) = 6.07933 6.67244 6.38278
#
# Compressibility (1/GPa) = 0.02086339
#
# Stress axis : x y z
#
# Youngs Moduli (GPa) = 117.94156 42.42444 67.06762
#
# Poissons Ratio (x) = 0.17264 0.13821
# Poissons Ratio (y) = 0.47994 0.46401
# Poissons Ratio (z) = 0.24305 0.29351
#
# Static dielectric constant tensor:
#      x y z
#    x 8.197860 0.000000 0.520520 
#    y 0.000000 3.947730 0.000000 
#    z 0.520520 0.000000 4.574470 
# 
# 
# High freq. dielectric constant tensor:
#      x y z
#    x 1.953030 0.000000 0.002530 
#    y 0.000000 1.904970 0.000000 
#    z 0.002530 0.000000 1.949400 
# 
# From -- ./inp_files/97026.got.cif
#   From: 2010.06.25/outbox.cif.g09.slc.cpg/sg15_49_cif.got.tgz:97026.got - 2010.06.28 07:06:18.
