data_PCOD8150053
_publ_section_title
;
Structure prediction by ZEFSAII (Michael W. Deem and Ramdas Pophale) SiO2 
 PCOD8150053
Probable space group: C 2/C
;
_chemical_formula_sum "Si O2"
_cell_formula_units_Z 52
_cell_length_a 31.567703
_cell_length_b 13.474558
_cell_length_c 8.984295
_cell_angle_alpha 90.000000
_cell_angle_beta 38.312318
_cell_angle_gamma 90.000000
_cell_volume 2369.172005
_symmetry_space_group_name_H-M "C 2/C"
_symmetry_group_IT_number 15
_symmetry_cell_setting 'monoclinic'
loop_
_space_group_symop_operation_xyz
x,y,z
-x,y,1/2-z
-x,-y,-z
x,-y,1/2+z
1/2+x,1/2+y,z
1/2-x,1/2+y,1/2-z
1/2-x,1/2-y,-z
1/2+x,1/2-y,1/2+z
loop_
_atom_site_type_symbol
_atom_site_label
_atom_site_fract_x
_atom_site_fract_y
_atom_site_fract_z
Si Si1 0.451383 0.960101 0.515624
Si Si2 0.183678 0.437577 0.059386
Si Si3 0.150400 0.247537 0.973138
Si Si4 0.888090 0.744021 0.250905
Si Si5 0.024041 0.138908 0.418684
Si Si6 0.776046 0.629974 0.733499
Si Si7 0.000000 0.984099 0.250000
O O1 0.500000 0.972967 0.250000
O O2 0.435797 0.847211 0.586265
O O3 0.500000 0.000000 0.500000
O O4 0.386060 0.028723 0.671934
O O5 0.224685 0.392745 0.087179
O O6 0.172398 0.358350 0.958548
O O7 0.217487 0.531754 0.885390
O O8 0.153271 0.231807 0.786742
O O9 0.201111 0.169988 0.907958
O O10 0.073942 0.230881 0.248713
O O11 0.833447 0.713853 0.530946
O O12 0.942622 0.830884 0.144388
O O13 0.043797 0.089043 0.522507
O O14 0.042510 0.056925 0.241311
#
# Coordination Sequence:
#
# PCOD8150053 Si02
#       7
#     8   8   8   8   8   8   4
#     4  11  20  35  63  96 126 164 202 265 334 392
#     4  11  24  44  63  96 134 167 224 272 332 407
#     4  12  24  44  69  95 131 179 224 273 331 399
#     4  11  22  42  65  97 132 172 215 275 331 399
#     4  11  23  44  68  96 133 170 226 273 335 388
#     4  11  26  44  65  97 133 175 221 275 335 399
#     4  10  24  44  62 100 132 174 220 280 324 394
#
# _framework density 21.948594
#
# number of rings (size 3 to 8) (size 9 to 14) (size 15 to 20)
#    0.000    0.923    1.538    7.385    2.154    1.231 
#    6.923    0.000    0.000    0.000    0.000    0.000 
#    0.000    0.000    0.000    0.000    0.000    0.000 
#
# Total GULP energy -322149.261878 kJ/mol
# GULP energy per Si atom -12390.356226 kJ/mol
# Density = 2.189864 g / cm^3
# Si number density = 21.948594 Si / 1000 Ang^3
#
#
#
# Elastic Constant Matrix: (Units=GPa)
#
#
# Indices 1 2 3 4 5 6 
#
# 1 101.8250 38.5443 25.3031 0.0000 6.9384 0.0000
# 2 38.5443 91.1567 18.7710 0.0000 -2.7303 0.0000
# 3 25.3031 18.7710 64.0585 0.0000 5.2176 0.0000
# 4 0.0000 0.0000 0.0000 21.1978 0.0000 3.3697
# 5 6.9384 -2.7303 5.2176 0.0000 37.1783 0.0000
# 6 0.0000 0.0000 0.0000 3.3697 0.0000 43.1964
#
#
#
# Elastic Compliance Matrix: (Units=1/GPa)
#
#
# Indices 1 2 3 4 5 6 
#
# 1 0.012597 -0.004688 -0.003421 0.000000 -0.002215 0.000000
# 2 -0.004688 0.013487 -0.002278 0.000000 0.002185 0.000000
# 3 -0.003421 -0.002278 0.017795 0.000000 -0.002026 0.000000
# 4 0.000000 0.000000 0.000000 0.047767 0.000000 -0.003726
# 5 -0.002215 0.002185 -0.002026 0.000000 0.027756 0.000000
# 6 0.000000 0.000000 0.000000 -0.003726 0.000000 0.023441
#
#
# Mechanical properties :
#
#
# Convention : Reuss Voigt Hill
#
# Bulk Modulus (GPa) = 43.28493 46.91969 45.10231
# Shear Modulus (GPa) = 29.18543 31.94261 30.56402
#
# Velocity S-wave (km/s) = 3.65049 3.81903 3.73571
# Velocity P-wave (km/s) = 6.12633 6.39297 6.26107
#
# Compressibility (1/GPa) = 0.02310273
#
# Stress axis : x y z
#
# Youngs Moduli (GPa) = 79.38709 74.14558 56.19604
#
# Poissons Ratio (x) = 0.34760 0.19227
# Poissons Ratio (y) = 0.37217 0.12803
# Poissons Ratio (z) = 0.27162 0.16892
#
# Static dielectric constant tensor:
#      x y z
#    x 4.134030 0.000000 0.110050 
#    y 0.000000 4.132140 0.000000 
#    z 0.110050 0.000000 3.960120 
# 
# 
# High freq. dielectric constant tensor:
#      x y z
#    x 1.870970 0.000000 0.013920 
#    y 0.000000 1.872940 0.000000 
#    z 0.013920 0.000000 1.854820 
# 
# From -- ./inp_files/70097.got.cif
#   From: 2010.06.25/outbox.cif.g09.slc.cpg/sg15_36_cif.got.tgz:70097.got - 2010.06.28 07:06:18.
