data_PCOD8150657
_publ_section_title
;
Structure prediction by ZEFSAII (Michael W. Deem and Ramdas Pophale) SiO2 
 PCOD8150657
Probable space group: C 2/C
;
_chemical_formula_sum "Si O2"
_cell_formula_units_Z 28
_cell_length_a 9.562741
_cell_length_b 25.425546
_cell_length_c 9.448710
_cell_angle_alpha 90.000000
_cell_angle_beta 29.973866
_cell_angle_gamma 90.000000
_cell_volume 1147.762203
_symmetry_space_group_name_H-M "C 2/C"
_symmetry_group_IT_number 15
_symmetry_cell_setting 'monoclinic'
loop_
_space_group_symop_operation_xyz
x,y,z
-x,y,1/2-z
-x,-y,-z
x,-y,1/2+z
1/2+x,1/2+y,z
1/2-x,1/2+y,1/2-z
1/2-x,1/2-y,-z
1/2+x,1/2-y,1/2+z
loop_
_atom_site_type_symbol
_atom_site_label
_atom_site_fract_x
_atom_site_fract_y
_atom_site_fract_z
Si Si1 0.500000 0.211992 0.250000
Si Si2 0.726553 0.135650 0.273135
Si Si3 0.500000 0.493671 0.750000
Si Si4 0.000000 0.788584 0.750000
Si Si5 0.780878 0.934154 0.209595
O O1 0.537273 0.174029 0.348636
O O2 0.250000 0.250000 0.500000
O O3 0.923319 0.172285 0.193299
O O4 0.511890 0.097229 0.543353
O O5 0.947548 0.101399 0.990541
O O6 0.679025 0.459260 0.481545
O O7 0.723231 0.525730 0.652782
O O8 0.250000 0.750000 0.500000
#
# Coordination Sequence:
#
# PCOD8150657 Si02
#       5
#     4   8   4   4   8
#     4  12  24  43  70 102 138 180 230 287 348 414
#     4  12  25  44  70 101 139 181 231 287 349 416
#     4  10  25  45  70 102 140 186 236 291 351 416
#     4  12  25  44  68  98 136 178 224 278 343 414
#     4  11  25  44  70 101 140 184 234 289 349 415
#
# _framework density 24.395296999999999
#
# number of rings (size 3 to 8) (size 9 to 14) (size 15 to 20)
#    0.000    0.571    0.000    7.714    0.000   10.286 
#    0.000    0.000    0.000    0.000    0.000    0.000 
#    0.000    0.000    0.000    0.000    0.000    0.000 
#
# Total GULP energy -173559.459453 kJ/mol
# GULP energy per Si atom -12397.104247 kJ/mol
# Density = 2.433977 g / cm^3
# Si number density = 24.395297 Si / 1000 Ang^3
#
#
#
# Elastic Constant Matrix: (Units=GPa)
#
#
# Indices 1 2 3 4 5 6 
#
# 1 139.9087 60.7592 39.5577 0.0000 13.5870 0.0000
# 2 60.7592 142.8002 59.0962 0.0000 -1.1757 0.0000
# 3 39.5577 59.0962 133.4405 0.0000 -16.9576 0.0000
# 4 0.0000 0.0000 0.0000 54.0724 0.0000 -13.1950
# 5 13.5870 -1.1757 -16.9576 0.0000 47.8899 0.0000
# 6 0.0000 0.0000 0.0000 -13.1950 0.0000 38.3761
#
#
#
# Elastic Compliance Matrix: (Units=1/GPa)
#
#
# Indices 1 2 3 4 5 6 
#
# 1 0.009405 -0.003304 -0.001753 0.000000 -0.003370 0.000000
# 2 -0.003304 0.009800 -0.003362 0.000000 -0.000013 0.000000
# 3 -0.001753 -0.003362 0.010006 0.000000 0.003958 0.000000
# 4 0.000000 0.000000 0.000000 0.020188 0.000000 0.006941
# 5 -0.003370 -0.000013 0.003958 0.000000 0.023239 0.000000
# 6 0.000000 0.000000 0.000000 0.006941 0.000000 0.028444
#
#
# Mechanical properties :
#
#
# Convention : Reuss Voigt Hill
#
# Bulk Modulus (GPa) = 80.82718 81.66395 81.24557
# Shear Modulus (GPa) = 40.96867 45.18344 43.07606
#
# Velocity S-wave (km/s) = 4.10245 4.30832 4.20664
# Velocity P-wave (km/s) = 7.45952 7.63523 7.54788
#
# Compressibility (1/GPa) = 0.01237208
#
# Stress axis : x y z
#
# Youngs Moduli (GPa) = 106.32180 102.04188 99.94338
#
# Poissons Ratio (x) = 0.33715 0.17522
# Poissons Ratio (y) = 0.35129 0.33603
# Poissons Ratio (z) = 0.18641 0.34308
#
# Static dielectric constant tensor:
#      x y z
#    x 4.473920 0.000000 0.036640 
#    y 0.000000 5.251790 0.000000 
#    z 0.036640 0.000000 4.218670 
# 
# 
# High freq. dielectric constant tensor:
#      x y z
#    x 1.981050 0.000000 -0.010000 
#    y 0.000000 2.000040 0.000000 
#    z -0.010000 0.000000 1.971870 
# 
# From -- ./inp_files/24222.got.cif
#   From: 2010.06.25/outbox.cif.g09.slc.cpg/sg15_13_cif.got.tgz:24222.got - 2010.06.28 07:06:18.
