data_PCOD8150238
_publ_section_title
;
Structure prediction by ZEFSAII (Michael W. Deem and Ramdas Pophale) SiO2 
 PCOD8150238
Probable space group: C 2/C
;
_chemical_formula_sum "Si O2"
_cell_formula_units_Z 56
_cell_length_a 15.085370
_cell_length_b 7.791624
_cell_length_c 21.701665
_cell_angle_alpha 90.000000
_cell_angle_beta 92.352652
_cell_angle_gamma 90.000000
_cell_volume 2548.653437
_symmetry_space_group_name_H-M "C 2/C"
_symmetry_group_IT_number 15
_symmetry_cell_setting 'monoclinic'
loop_
_space_group_symop_operation_xyz
x,y,z
-x,y,1/2-z
-x,-y,-z
x,-y,1/2+z
1/2+x,1/2+y,z
1/2-x,1/2+y,1/2-z
1/2-x,1/2-y,-z
1/2+x,1/2-y,1/2+z
loop_
_atom_site_type_symbol
_atom_site_label
_atom_site_fract_x
_atom_site_fract_y
_atom_site_fract_z
Si Si1 0.645606 0.273430 0.999733
Si Si2 0.239768 0.413973 0.814186
Si Si3 0.892110 0.514711 0.908606
Si Si4 0.042932 0.533215 0.815635
Si Si5 0.068297 0.874703 0.871210
Si Si6 0.734583 0.527435 0.822338
Si Si7 0.382794 0.422529 0.912655
O O1 0.600577 0.110539 0.032535
O O2 0.622100 0.461961 0.026290
O O3 0.750000 0.250000 0.000000
O O4 0.603513 0.269391 0.931030
O O5 0.137566 0.443354 0.826858
O O6 0.266942 0.460313 0.746481
O O7 0.304227 0.498695 0.866942
O O8 0.266464 0.219221 0.820871
O O9 0.808825 0.438509 0.867196
O O10 0.879328 0.716553 0.927818
O O11 0.979691 0.485181 0.870561
O O12 0.057711 0.737929 0.815523
O O13 0.000000 0.474708 0.750000
O O14 0.138350 0.015262 0.850684
O O15 0.975318 0.967177 0.881637
#
# Coordination Sequence:
#
# PCOD8150238 Si02
#       7
#     8   8   8   8   8   8   8
#     4  12  24  45  73  97 137 181 234 282 330 409
#     4  11  24  42  67  98 134 178 220 284 337 416
#     4  10  24  45  67 101 135 177 228 278 340 402
#     4  11  23  43  68  97 135 175 224 282 342 406
#     4  11  25  44  66 100 135 180 223 284 339 402
#     4  11  23  41  66  97 137 171 226 277 343 403
#     4  10  26  44  66 100 136 176 224 277 343 393
#
# _framework density 21.972384999999999
#
# number of rings (size 3 to 8) (size 9 to 14) (size 15 to 20)
#    0.000    1.143    2.857    2.143    8.000    2.857 
#    2.571    0.000    0.000    0.000    0.000    0.000 
#    0.000    0.000    0.000    0.000    0.000    0.000 
#
# Total GULP energy -347149.048070 kJ/mol
# GULP energy per Si atom -12398.180288 kJ/mol
# Density = 2.192238 g / cm^3
# Si number density = 21.972385 Si / 1000 Ang^3
#
#
#
# Elastic Constant Matrix: (Units=GPa)
#
#
# Indices 1 2 3 4 5 6 
#
# 1 147.1667 19.5738 28.4908 0.0000 -2.5142 0.0000
# 2 19.5738 77.2156 31.3883 0.0000 -14.5350 0.0000
# 3 28.4908 31.3883 57.3465 0.0000 -13.8165 0.0000
# 4 0.0000 0.0000 0.0000 38.8826 0.0000 -8.9270
# 5 -2.5142 -14.5350 -13.8165 0.0000 33.5981 0.0000
# 6 0.0000 0.0000 0.0000 -8.9270 0.0000 34.4622
#
#
#
# Elastic Compliance Matrix: (Units=1/GPa)
#
#
# Indices 1 2 3 4 5 6 
#
# 1 0.007578 -0.000646 -0.003709 0.000000 -0.001238 0.000000
# 2 -0.000646 0.017170 -0.008102 0.000000 0.004048 0.000000
# 3 -0.003709 -0.008102 0.025312 0.000000 0.006626 0.000000
# 4 0.000000 0.000000 0.000000 0.027345 0.000000 0.007083
# 5 -0.001238 0.004048 0.006626 0.000000 0.034147 0.000000
# 6 0.000000 0.000000 0.000000 0.007083 0.000000 0.030852
#
#
# Mechanical properties :
#
#
# Convention : Reuss Voigt Hill
#
# Bulk Modulus (GPa) = 39.76902 48.95939 44.36421
# Shear Modulus (GPa) = 28.45771 34.87363 31.66567
#
# Velocity S-wave (km/s) = 3.60273 3.98824 3.80038
# Velocity P-wave (km/s) = 5.95358 6.59838 6.28426
#
# Compressibility (1/GPa) = 0.02514520
#
# Stress axis : x y z
#
# Youngs Moduli (GPa) = 131.96203 58.24180 39.50753
#
# Poissons Ratio (x) = 0.03763 0.14655
# Poissons Ratio (y) = 0.08526 0.32007
# Poissons Ratio (z) = 0.48951 0.47185
#
# Static dielectric constant tensor:
#      x y z
#    x 4.054030 0.000000 -0.083760 
#    y 0.000000 3.906990 0.000000 
#    z -0.083760 0.000000 3.731660 
# 
# 
# High freq. dielectric constant tensor:
#      x y z
#    x 1.886100 0.000000 0.003960 
#    y 0.000000 1.853340 0.000000 
#    z 0.003960 0.000000 1.866210 
# 
# From -- ./inp_files/242770.got.cif
#   From: 2010.06.25/outbox.cif.g09.slc.cpg/sg15_122_cif.got.tgz:242770.got - 2010.06.28 07:06:18.
