data_PCOD8150096
_publ_section_title
;
Structure prediction by ZEFSAII (Michael W. Deem and Ramdas Pophale) SiO2 
 PCOD8150096
Probable space group: C 2/C
;
_chemical_formula_sum "Si O2"
_cell_formula_units_Z 48
_cell_length_a 25.451191
_cell_length_b 9.685429
_cell_length_c 8.783551
_cell_angle_alpha 90.000000
_cell_angle_beta 107.867770
_cell_angle_gamma 90.000000
_cell_volume 2060.761866
_symmetry_space_group_name_H-M "C 2/C"
_symmetry_group_IT_number 15
_symmetry_cell_setting 'monoclinic'
loop_
_space_group_symop_operation_xyz
x,y,z
-x,y,1/2-z
-x,-y,-z
x,-y,1/2+z
1/2+x,1/2+y,z
1/2-x,1/2+y,1/2-z
1/2-x,1/2-y,-z
1/2+x,1/2-y,1/2+z
loop_
_atom_site_type_symbol
_atom_site_label
_atom_site_fract_x
_atom_site_fract_y
_atom_site_fract_z
Si Si1 0.012370 0.147966 0.939876
Si Si2 0.754451 0.521945 0.026452
Si Si3 0.377264 0.278686 0.811647
Si Si4 0.910993 0.740010 0.498182
Si Si5 0.179121 0.066749 0.711904
Si Si6 0.832708 0.520491 0.339927
O O1 0.973660 0.254647 0.996958
O O2 0.000000 0.147415 0.750000
O O3 0.075403 0.193933 0.020742
O O4 0.000000 0.000000 0.000000
O O5 0.721232 0.417728 0.107861
O O6 0.803623 0.594484 0.167760
O O7 0.710338 0.618458 0.895412
O O8 0.788457 0.439103 0.929506
O O9 0.406462 0.268226 0.673121
O O10 0.334682 0.405089 0.775547
O O11 0.342725 0.141998 0.822263
O O12 0.876074 0.849509 0.368031
O O13 0.890751 0.587644 0.435489
#
# Coordination Sequence:
#
# PCOD8150096 Si02
#       6
#     8   8   8   8   8   8
#     4  12  28  47  78 107 136 178 234 294 356 419
#     4  10  24  44  66 108 140 194 236 286 340 420
#     4  12  26  48  72 106 143 185 235 294 353 417
#     4  12  26  48  72 106 143 185 235 294 353 417
#     4  11  24  41  76 102 140 189 242 285 346 408
#     4  11  26  45  72 100 152 187 232 285 356 412
#
# _framework density 23.292356000000002
#
# number of rings (size 3 to 8) (size 9 to 14) (size 15 to 20)
#    0.000    0.667    5.000    1.500    4.667    8.667 
#    0.000    0.000    0.000    0.000    0.000    0.000 
#    0.000    0.000    0.000    0.000    0.000    0.000 
#
# Total GULP energy -297440.680691 kJ/mol
# GULP energy per Si atom -12393.361695 kJ/mol
# Density = 2.323934 g / cm^3
# Si number density = 23.292356 Si / 1000 Ang^3
#
#
#
# Elastic Constant Matrix: (Units=GPa)
#
#
# Indices 1 2 3 4 5 6 
#
# 1 106.4816 18.1230 34.6269 0.0000 0.5945 0.0000
# 2 18.1230 78.2510 10.1638 0.0000 -4.2234 0.0000
# 3 34.6269 10.1638 173.1013 0.0000 6.7582 0.0000
# 4 0.0000 0.0000 0.0000 20.2988 0.0000 5.6089
# 5 0.5945 -4.2234 6.7582 0.0000 46.0855 0.0000
# 6 0.0000 0.0000 0.0000 5.6089 0.0000 21.8853
#
#
#
# Elastic Compliance Matrix: (Units=1/GPa)
#
#
# Indices 1 2 3 4 5 6 
#
# 1 0.010393 -0.002156 -0.001951 0.000000 -0.000046 0.000000
# 2 -0.002156 0.013403 -0.000407 0.000000 0.001316 0.000000
# 3 -0.001951 -0.000407 0.006227 0.000000 -0.000925 0.000000
# 4 0.000000 0.000000 0.000000 0.053019 0.000000 -0.013588
# 5 -0.000046 0.001316 -0.000925 0.000000 0.021956 0.000000
# 6 0.000000 0.000000 0.000000 -0.013588 0.000000 0.049175
#
#
# Mechanical properties :
#
#
# Convention : Reuss Voigt Hill
#
# Bulk Modulus (GPa) = 47.62984 53.74014 50.68499
# Shear Modulus (GPa) = 29.37757 37.31526 33.34642
#
# Velocity S-wave (km/s) = 3.55527 4.00689 3.78782
# Velocity P-wave (km/s) = 6.11116 6.67300 6.39825
#
# Compressibility (1/GPa) = 0.02099524
#
# Stress axis : x y z
#
# Youngs Moduli (GPa) = 96.22020 74.61232 160.58637
#
# Poissons Ratio (x) = 0.16087 0.31324
# Poissons Ratio (y) = 0.20746 0.06536
# Poissons Ratio (z) = 0.18769 0.03037
#
# Static dielectric constant tensor:
#      x y z
#    x 4.344810 0.000000 0.261360 
#    y 0.000000 3.774280 0.000000 
#    z 0.261360 0.000000 4.826970 
# 
# 
# High freq. dielectric constant tensor:
#      x y z
#    x 1.930140 0.000000 0.006680 
#    y 0.000000 1.885260 0.000000 
#    z 0.006680 0.000000 1.951860 
# 
# From -- ./inp_files/60669.got.cif
#   From: 2010.06.25/outbox.cif.g09.slc.cpg/sg15_31_cif.got.tgz:60669.got - 2010.06.28 07:06:18.
