data_PCOD8150165
_publ_section_title
;
Structure prediction by ZEFSAII (Michael W. Deem and Ramdas Pophale) SiO2 
 PCOD8150165
Probable space group: C 2/C
;
_chemical_formula_sum "Si O2"
_cell_formula_units_Z 36
_cell_length_a 5.179614
_cell_length_b 33.369168
_cell_length_c 10.683164
_cell_angle_alpha 90.000000
_cell_angle_beta 63.474344
_cell_angle_gamma 90.000000
_cell_volume 1652.101936
_symmetry_space_group_name_H-M "C 2/C"
_symmetry_group_IT_number 15
_symmetry_cell_setting 'monoclinic'
loop_
_space_group_symop_operation_xyz
x,y,z
-x,y,1/2-z
-x,-y,-z
x,-y,1/2+z
1/2+x,1/2+y,z
1/2-x,1/2+y,1/2-z
1/2-x,1/2-y,-z
1/2+x,1/2-y,1/2+z
loop_
_atom_site_type_symbol
_atom_site_label
_atom_site_fract_x
_atom_site_fract_y
_atom_site_fract_z
Si Si1 0.584271 0.630547 0.092538
Si Si2 0.000000 0.513403 0.250000
Si Si3 0.959622 0.784804 0.992439
Si Si4 0.000000 0.039307 0.750000
Si Si5 0.638269 0.081047 0.031273
Si Si6 0.000000 0.249983 0.750000
O O1 0.500000 0.642207 0.250000
O O2 0.306536 0.610039 0.089474
O O3 0.857019 0.601441 0.032961
O O4 0.670576 0.671296 0.002229
O O5 0.283141 0.487123 0.213869
O O6 0.046480 0.540241 0.118224
O O7 0.988761 0.780276 0.135185
O O8 0.750000 0.750000 0.000000
O O9 0.240386 0.780096 0.842471
O O10 0.164247 0.069753 0.626165
#
# Coordination Sequence:
#
# PCOD8150165 Si02
#       6
#     8   4   8   4   8   4
#     4  12  25  45  73  97 147 187 234 295 347 420
#     4  12  22  47  76 100 141 182 237 278 352 438
#     4  11  25  45  72 102 140 189 247 289 354 420
#     4  12  26  45  72 108 139 180 227 300 348 424
#     4  12  26  46  70 109 139 184 233 286 362 424
#     4  10  24  44  70 104 136 178 258 290 348 420
#
# _framework density 21.790422
#
# number of rings (size 3 to 8) (size 9 to 14) (size 15 to 20)
#    0.000    0.444    2.222    6.000    9.333    0.889 
#    4.000    0.000    0.000    0.000    0.000    0.000 
#    0.000    0.000    0.000    0.000    0.000    0.000 
#
# Total GULP energy -223216.996522 kJ/mol
# GULP energy per Si atom -12400.944251 kJ/mol
# Density = 2.174083 g / cm^3
# Si number density = 21.790422 Si / 1000 Ang^3
#
#
#
# Elastic Constant Matrix: (Units=GPa)
#
#
# Indices 1 2 3 4 5 6 
#
# 1 116.2488 40.9394 19.8102 0.0000 -9.4507 0.0000
# 2 40.9394 98.7004 27.8726 0.0000 10.3783 0.0000
# 3 19.8102 27.8726 140.5698 0.0000 -8.1146 0.0000
# 4 0.0000 0.0000 0.0000 28.8975 0.0000 4.2529
# 5 -9.4507 10.3783 -8.1146 0.0000 18.7169 0.0000
# 6 0.0000 0.0000 0.0000 4.2529 0.0000 28.5046
#
#
#
# Elastic Compliance Matrix: (Units=1/GPa)
#
#
# Indices 1 2 3 4 5 6 
#
# 1 0.011295 -0.005624 0.000033 0.000000 0.008836 0.000000
# 2 -0.005624 0.014523 -0.002786 0.000000 -0.012100 0.000000
# 3 0.000033 -0.002786 0.007951 0.000000 0.005008 0.000000
# 4 0.000000 0.000000 0.000000 0.035382 0.000000 -0.005279
# 5 0.008836 -0.012100 0.005008 0.000000 0.066770 0.000000
# 6 0.000000 0.000000 0.000000 -0.005279 0.000000 0.035870
#
#
# Mechanical properties :
#
#
# Convention : Reuss Voigt Hill
#
# Bulk Modulus (GPa) = 58.76383 59.19593 58.97988
# Shear Modulus (GPa) = 25.74460 33.01692 29.38076
#
# Velocity S-wave (km/s) = 3.44097 3.89678 3.67595
# Velocity P-wave (km/s) = 6.54319 6.88996 6.71881
#
# Compressibility (1/GPa) = 0.01701727
#
# Stress axis : x y z
#
# Youngs Moduli (GPa) = 88.53159 68.85502 125.77548
#
# Poissons Ratio (x) = 0.38722 -0.00419
# Poissons Ratio (y) = 0.49787 0.35037
# Poissons Ratio (z) = -0.00295 0.19181
#
# Static dielectric constant tensor:
#      x y z
#    x 4.176510 0.000000 -0.053680 
#    y 0.000000 3.815440 0.000000 
#    z -0.053680 0.000000 4.029990 
# 
# 
# High freq. dielectric constant tensor:
#      x y z
#    x 1.869530 0.000000 0.002700 
#    y 0.000000 1.864020 0.000000 
#    z 0.002700 0.000000 1.871180 
# 
# From -- ./inp_files/73573.got.cif
#   From: 2010.06.25/outbox.cif.g09.slc.cpg/sg15_37_cif.got.tgz:73573.got - 2010.06.28 07:06:18.
