data_PCOD8150349
_publ_section_title
;
Structure prediction by ZEFSAII (Michael W. Deem and Ramdas Pophale) SiO2 
 PCOD8150349
Probable space group: C 2/C
;
_chemical_formula_sum "Si O2"
_cell_formula_units_Z 56
_cell_length_a 30.576698
_cell_length_b 11.280595
_cell_length_c 8.737951
_cell_angle_alpha 90.000000
_cell_angle_beta 61.777485
_cell_angle_gamma 90.000000
_cell_volume 2655.621137
_symmetry_space_group_name_H-M "C 2/C"
_symmetry_group_IT_number 15
_symmetry_cell_setting 'monoclinic'
loop_
_space_group_symop_operation_xyz
x,y,z
-x,y,1/2-z
-x,-y,-z
x,-y,1/2+z
1/2+x,1/2+y,z
1/2-x,1/2+y,1/2-z
1/2-x,1/2-y,-z
1/2+x,1/2-y,1/2+z
loop_
_atom_site_type_symbol
_atom_site_label
_atom_site_fract_x
_atom_site_fract_y
_atom_site_fract_z
Si Si1 0.528051 0.902394 0.547099
Si Si2 0.139999 0.111825 0.438379
Si Si3 0.580658 0.537136 0.816594
Si Si4 0.138763 0.625291 0.835559
Si Si5 0.254149 0.626951 0.086559
Si Si6 0.505274 0.324903 0.905917
Si Si7 0.802173 0.465698 0.542497
O O1 0.500000 0.898189 0.750000
O O2 0.585973 0.936920 0.456373
O O3 0.526272 0.770761 0.485416
O O4 0.500000 0.000000 0.500000
O O5 0.097614 0.104862 0.636585
O O6 0.136609 0.234189 0.353690
O O7 0.192142 0.096898 0.436358
O O8 0.128415 0.007924 0.334633
O O9 0.544085 0.431536 0.831079
O O10 0.549882 0.633881 0.960442
O O11 0.157294 0.597737 0.632567
O O12 0.174989 0.577144 0.906359
O O13 0.241068 0.518952 0.993850
O O14 0.217982 0.627625 0.296529
O O15 0.250000 0.750000 0.000000
O O16 0.500000 0.263459 0.750000
#
# Coordination Sequence:
#
# PCOD8150349 Si02
#       7
#     8   8   8   8   8   8   8
#     4  12  25  43  68  98 136 177 227 276 329 399
#     4  12  23  44  66 100 134 171 229 270 337 405
#     4  11  24  41  66  96 133 176 218 274 324 399
#     4  11  23  44  69  97 133 179 223 277 335 402
#     4  11  23  46  70 100 130 176 221 282 339 402
#     4  11  23  42  64  93 136 175 221 267 333 385
#     4  10  24  46  69  95 137 173 223 278 345 402
#
# _framework density 21.087344999999999
#
# number of rings (size 3 to 8) (size 9 to 14) (size 15 to 20)
#    0.000    0.857    4.286    3.000    0.000    0.571 
#    7.714    0.000    0.000    0.000    0.000    0.000 
#    0.000    0.000    0.000    0.000    0.000    0.000 
#
# Total GULP energy -347193.420973 kJ/mol
# GULP energy per Si atom -12399.765035 kJ/mol
# Density = 2.103935 g / cm^3
# Si number density = 21.087345 Si / 1000 Ang^3
#
#
#
# Elastic Constant Matrix: (Units=GPa)
#
#
# Indices 1 2 3 4 5 6 
#
# 1 90.7463 8.5788 22.0326 0.0000 -3.7925 0.0000
# 2 8.5788 66.9955 41.2573 0.0000 -3.4041 0.0000
# 3 22.0326 41.2573 167.0740 0.0000 0.4235 0.0000
# 4 0.0000 0.0000 0.0000 38.2734 0.0000 1.1862
# 5 -3.7925 -3.4041 0.4235 0.0000 34.5586 0.0000
# 6 0.0000 0.0000 0.0000 1.1862 0.0000 27.9013
#
#
#
# Elastic Compliance Matrix: (Units=1/GPa)
#
#
# Indices 1 2 3 4 5 6 
#
# 1 0.011458 -0.000558 -0.001376 0.000000 0.001219 0.000000
# 2 -0.000558 0.017742 -0.004312 0.000000 0.001739 0.000000
# 3 -0.001376 -0.004312 0.007233 0.000000 -0.000664 0.000000
# 4 0.000000 0.000000 0.000000 0.026162 0.000000 -0.001112
# 5 0.001219 0.001739 -0.000664 0.000000 0.029250 0.000000
# 6 0.000000 0.000000 0.000000 -0.001112 0.000000 0.035888
#
#
# Mechanical properties :
#
#
# Convention : Reuss Voigt Hill
#
# Bulk Modulus (GPa) = 41.77001 52.06146 46.91573
# Shear Modulus (GPa) = 33.73718 37.00979 35.37348
#
# Velocity S-wave (km/s) = 4.00419 4.19390 4.10014
# Velocity P-wave (km/s) = 6.42099 6.94218 6.68666
#
# Compressibility (1/GPa) = 0.02394062
#
# Stress axis : x y z
#
# Youngs Moduli (GPa) = 87.27849 56.36485 138.24837
#
# Poissons Ratio (x) = 0.03143 0.19028
# Poissons Ratio (y) = 0.04867 0.59612
# Poissons Ratio (z) = 0.12013 0.24304
#
# Static dielectric constant tensor:
#      x y z
#    x 3.990690 0.000000 0.022170 
#    y 0.000000 3.674740 0.000000 
#    z 0.022170 0.000000 4.012080 
# 
# 
# High freq. dielectric constant tensor:
#      x y z
#    x 1.839990 0.000000 0.004880 
#    y 0.000000 1.816080 0.000000 
#    z 0.004880 0.000000 1.843920 
# 
# From -- ./inp_files/65411.got.cif
#   From: 2010.06.25/outbox.cif.g09.slc.cpg/sg15_33_cif.got.tgz:65411.got - 2010.06.28 07:06:18.
