data_PCOD8150797
_publ_section_title
;
Structure prediction by ZEFSAII (Michael W. Deem and Ramdas Pophale) SiO2 
 PCOD8150797
Probable space group: C 2/C
;
_chemical_formula_sum "Si O2"
_cell_formula_units_Z 44
_cell_length_a 14.444330
_cell_length_b 19.454604
_cell_length_c 8.035032
_cell_angle_alpha 90.000000
_cell_angle_beta 60.114077
_cell_angle_gamma 90.000000
_cell_volume 1957.654833
_symmetry_space_group_name_H-M "C 2/C"
_symmetry_group_IT_number 15
_symmetry_cell_setting 'monoclinic'
loop_
_space_group_symop_operation_xyz
x,y,z
-x,y,1/2-z
-x,-y,-z
x,-y,1/2+z
1/2+x,1/2+y,z
1/2-x,1/2+y,1/2-z
1/2-x,1/2-y,-z
1/2+x,1/2-y,1/2+z
loop_
_atom_site_type_symbol
_atom_site_label
_atom_site_fract_x
_atom_site_fract_y
_atom_site_fract_z
Si Si1 0.534604 0.834157 0.408851
Si Si2 0.477320 0.687260 0.455885
Si Si3 0.257094 0.390155 0.167326
Si Si4 0.228014 0.512903 0.999062
Si Si5 0.000000 0.428985 0.750000
Si Si6 0.435522 0.561610 0.970885
O O1 0.500000 0.851766 0.250000
O O2 0.494681 0.761620 0.524870
O O3 0.663188 0.836638 0.288503
O O4 0.492936 0.887977 0.582784
O O5 0.500000 0.709126 0.250000
O O6 0.361701 0.655490 0.593609
O O7 0.565806 0.630694 0.419365
O O8 0.248844 0.429670 0.995034
O O9 0.253592 0.455231 0.296989
O O10 0.105778 0.524574 0.161600
O O11 0.312143 0.546587 0.051702
O O12 0.500000 0.581389 0.750000
O O13 0.500000 0.500000 0.000000
#
# Coordination Sequence:
#
# PCOD8150797 Si02
#       6
#     8   8   8   8   4   8
#     4  10  26  46  67  97 140 187 232 286 337 428
#     4  11  25  42  67  98 137 182 229 285 347 419
#     4  11  25  43  67 102 136 178 231 287 356 405
#     4  11  24  41  68 103 135 180 224 293 346 412
#     4  10  26  44  70 104 134 190 234 278 360 406
#     4  12  22  39  64 101 133 173 224 286 352 398
#
# _framework density 22.475871999999999
#
# number of rings (size 3 to 8) (size 9 to 14) (size 15 to 20)
#    0.000    1.091    3.636    0.545    7.636    5.818 
#    0.000    3.636    0.000    0.000    0.000    0.000 
#    0.000    0.000    0.000    0.000    0.000    0.000 
#
# Total GULP energy -272562.152192 kJ/mol
# GULP energy per Si atom -12389.188736 kJ/mol
# Density = 2.242472 g / cm^3
# Si number density = 22.475872 Si / 1000 Ang^3
#
#
#
# Elastic Constant Matrix: (Units=GPa)
#
#
# Indices 1 2 3 4 5 6 
#
# 1 132.9731 45.5248 33.9614 0.0000 -25.0688 0.0000
# 2 45.5248 112.4370 19.5984 0.0000 -8.2038 0.0000
# 3 33.9614 19.5984 68.4613 0.0000 -12.5333 0.0000
# 4 0.0000 0.0000 0.0000 10.9035 0.0000 -2.9641
# 5 -25.0688 -8.2038 -12.5333 0.0000 44.2935 0.0000
# 6 0.0000 0.0000 0.0000 -2.9641 0.0000 39.3596
#
#
#
# Elastic Compliance Matrix: (Units=1/GPa)
#
#
# Indices 1 2 3 4 5 6 
#
# 1 0.010313 -0.003272 -0.003398 0.000000 0.004270 0.000000
# 2 -0.003272 0.010444 -0.001425 0.000000 -0.000321 0.000000
# 3 -0.003398 -0.001425 0.017190 0.000000 0.002677 0.000000
# 4 0.000000 0.000000 0.000000 0.093630 0.000000 0.007051
# 5 0.004270 -0.000321 0.002677 0.000000 0.025691 0.000000
# 6 0.000000 0.000000 0.000000 0.007051 0.000000 0.025938
#
#
# Mechanical properties :
#
#
# Convention : Reuss Voigt Hill
#
# Bulk Modulus (GPa) = 45.96167 56.89341 51.42754
# Shear Modulus (GPa) = 24.19558 33.23045 28.71301
#
# Velocity S-wave (km/s) = 3.28459 3.84929 3.57810
# Velocity P-wave (km/s) = 5.90579 6.71745 6.32465
#
# Compressibility (1/GPa) = 0.02175726
#
# Stress axis : x y z
#
# Youngs Moduli (GPa) = 96.96303 95.75153 58.17178
#
# Poissons Ratio (x) = 0.31330 0.19765
# Poissons Ratio (y) = 0.31726 0.08291
# Poissons Ratio (z) = 0.32946 0.13648
#
# Static dielectric constant tensor:
#      x y z
#    x 4.336730 0.000000 0.177220 
#    y 0.000000 4.014440 0.000000 
#    z 0.177220 0.000000 4.161540 
# 
# 
# High freq. dielectric constant tensor:
#      x y z
#    x 1.896050 0.000000 -0.002460 
#    y 0.000000 1.883810 0.000000 
#    z -0.002460 0.000000 1.890460 
# 
# From -- ./inp_files/31026.got.cif
#   From: 2010.06.25/outbox.cif.g09.slc.cpg/sg15_16_cif.got.tgz:31026.got - 2010.06.28 07:06:18.
