data_PCOD8150006
_publ_section_title
;
Structure prediction by ZEFSAII (Michael W. Deem and Ramdas Pophale) SiO2 
 PCOD8150006
Probable space group: C 2/C
;
_chemical_formula_sum "Si O2"
_cell_formula_units_Z 48
_cell_length_a 9.103685
_cell_length_b 21.298561
_cell_length_c 12.449061
_cell_angle_alpha 90.000000
_cell_angle_beta 74.658471
_cell_angle_gamma 90.000000
_cell_volume 2327.801410
_symmetry_space_group_name_H-M "C 2/C"
_symmetry_group_IT_number 15
_symmetry_cell_setting 'monoclinic'
loop_
_space_group_symop_operation_xyz
x,y,z
-x,y,1/2-z
-x,-y,-z
x,-y,1/2+z
1/2+x,1/2+y,z
1/2-x,1/2+y,1/2-z
1/2-x,1/2-y,-z
1/2+x,1/2-y,1/2+z
loop_
_atom_site_type_symbol
_atom_site_label
_atom_site_fract_x
_atom_site_fract_y
_atom_site_fract_z
Si Si1 0.500000 0.411417 0.250000
Si Si2 0.000000 0.472016 0.750000
Si Si3 0.815809 0.603734 0.435230
Si Si4 0.849736 0.870954 0.852465
Si Si5 0.007148 0.833457 0.032639
Si Si6 0.054765 0.700069 0.361605
Si Si7 0.227386 0.509972 0.865709
O O1 0.488811 0.369518 0.147236
O O2 0.647098 0.455165 0.229360
O O3 0.856088 0.428179 0.812606
O O4 0.934977 0.513622 0.664977
O O5 0.672921 0.650176 0.451440
O O6 0.789465 0.546441 0.520158
O O7 0.961872 0.644882 0.439940
O O8 0.732645 0.818806 0.828837
O O9 0.000000 0.870453 0.750000
O O10 0.775304 0.939006 0.876280
O O11 0.884572 0.853674 0.968759
O O12 0.982627 0.760622 0.060361
O O13 0.000000 0.710283 0.250000
#
# Coordination Sequence:
#
# PCOD8150006 Si02
#       7
#     4   4   8   8   8   8   8
#     4  10  24  43  68  98 131 180 216 280 330 392
#     4  12  22  41  62  98 137 168 220 270 336 392
#     4  11  24  40  67  98 124 181 216 275 334 386
#     4  12  25  43  68 102 134 177 224 276 333 398
#     4  11  25  44  68  96 135 175 226 272 333 394
#     4  12  23  45  70  93 134 175 227 274 330 398
#     4  11  24  39  66  98 135 171 222 270 336 394
#
# _framework density 20.620315000000002
#
# number of rings (size 3 to 8) (size 9 to 14) (size 15 to 20)
#    0.000    0.667    4.167    3.500    2.333    1.333 
#    0.000    0.000    0.000    0.000    0.000    0.000 
#    0.000    0.000    0.000    0.000    0.000    0.000 
#
# Total GULP energy -297595.614936 kJ/mol
# GULP energy per Si atom -12399.817289 kJ/mol
# Density = 2.057338 g / cm^3
# Si number density = 20.620315 Si / 1000 Ang^3
#
#
#
# Elastic Constant Matrix: (Units=GPa)
#
#
# Indices 1 2 3 4 5 6 
#
# 1 125.6484 48.4920 44.5701 0.0000 4.4888 0.0000
# 2 48.4920 111.7656 37.2207 0.0000 -1.7727 0.0000
# 3 44.5701 37.2207 89.9848 0.0000 1.5528 0.0000
# 4 0.0000 0.0000 0.0000 5.0310 0.0000 -0.9309
# 5 4.4888 -1.7727 1.5528 0.0000 42.9341 0.0000
# 6 0.0000 0.0000 0.0000 -0.9309 0.0000 20.5512
#
#
#
# Elastic Compliance Matrix: (Units=1/GPa)
#
#
# Indices 1 2 3 4 5 6 
#
# 1 0.010669 -0.003355 -0.003877 0.000000 -0.001114 0.000000
# 2 -0.003355 0.011447 -0.003089 0.000000 0.000935 0.000000
# 3 -0.003877 -0.003089 0.014315 0.000000 -0.000240 0.000000
# 4 0.000000 0.000000 0.000000 0.200449 0.000000 0.009079
# 5 -0.001114 0.000935 -0.000240 0.000000 0.023455 0.000000
# 6 0.000000 0.000000 0.000000 0.009079 0.000000 0.049070
#
#
# Mechanical properties :
#
#
# Convention : Reuss Voigt Hill
#
# Bulk Modulus (GPa) = 63.34061 65.32937 64.33499
# Shear Modulus (GPa) = 14.91156 26.84431 20.87793
#
# Velocity S-wave (km/s) = 2.69206 3.61201 3.18542
# Velocity P-wave (km/s) = 6.35981 7.01045 6.69304
#
# Compressibility (1/GPa) = 0.01578766
#
# Stress axis : x y z
#
# Youngs Moduli (GPa) = 93.73146 87.36212 69.85568
#
# Poissons Ratio (x) = 0.29313 0.27085
# Poissons Ratio (y) = 0.31450 0.21578
# Poissons Ratio (z) = 0.36342 0.26985
#
# Static dielectric constant tensor:
#      x y z
#    x 3.925630 0.000000 -0.135550 
#    y 0.000000 3.836090 0.000000 
#    z -0.135550 0.000000 3.802850 
# 
# 
# High freq. dielectric constant tensor:
#      x y z
#    x 1.814420 0.000000 -0.004870 
#    y 0.000000 1.811050 0.000000 
#    z -0.004870 0.000000 1.815920 
# 
# From -- ./inp_files/79836.got.cif
#   From: 2010.06.25/outbox.cif.g09.slc.cpg/sg15_40_cif.got.tgz:79836.got - 2010.06.28 07:06:18.
