data_PCOD8150140
_publ_section_title
;
Structure prediction by ZEFSAII (Michael W. Deem and Ramdas Pophale) SiO2 
 PCOD8150140
Probable space group: C 2/C
;
_chemical_formula_sum "Si O2"
_cell_formula_units_Z 40
_cell_length_a 21.257213
_cell_length_b 8.335553
_cell_length_c 10.360609
_cell_angle_alpha 90.000000
_cell_angle_beta 73.941270
_cell_angle_gamma 90.000000
_cell_volume 1764.167294
_symmetry_space_group_name_H-M "C 2/C"
_symmetry_group_IT_number 15
_symmetry_cell_setting 'monoclinic'
loop_
_space_group_symop_operation_xyz
x,y,z
-x,y,1/2-z
-x,-y,-z
x,-y,1/2+z
1/2+x,1/2+y,z
1/2-x,1/2+y,1/2-z
1/2-x,1/2-y,-z
1/2+x,1/2-y,1/2+z
loop_
_atom_site_type_symbol
_atom_site_label
_atom_site_fract_x
_atom_site_fract_y
_atom_site_fract_z
Si Si1 0.629027 0.562385 0.472657
Si Si2 0.064411 0.666226 0.871054
Si Si3 0.167493 0.416671 0.852612
Si Si4 0.797567 0.095757 0.801250
Si Si5 0.923765 0.251204 0.417562
O O1 0.593323 0.732937 0.474594
O O2 0.674183 0.566547 0.573111
O O3 0.670879 0.520951 0.322181
O O4 0.573275 0.426704 0.523181
O O5 0.101923 0.498055 0.831527
O O6 0.076269 0.769529 0.735435
O O7 0.986018 0.643497 0.931949
O O8 0.194631 0.282593 0.739373
O O9 0.220720 0.553084 0.851818
O O10 0.144322 0.334299 0.999587
#
# Coordination Sequence:
#
# PCOD8150140 Si02
#       5
#     8   8   8   8   8
#     4  11  23  46  69 104 131 182 219 286 328 412
#     4  11  23  43  70  97 139 176 225 278 334 401
#     4  11  26  44  68 101 134 181 223 283 330 412
#     4  11  26  42  73  98 138 175 231 272 348 388
#     4  10  24  44  68  99 136 178 225 276 339 394
#
# _framework density 22.673586
#
# number of rings (size 3 to 8) (size 9 to 14) (size 15 to 20)
#    0.000    1.200    2.000    2.400    5.600    3.200 
#    0.000    0.000    0.000    0.000    0.000    0.000 
#    0.000    0.000    0.000    0.000    0.000    0.000 
#
# Total GULP energy -248007.830053 kJ/mol
# GULP energy per Si atom -12400.391503 kJ/mol
# Density = 2.262198 g / cm^3
# Si number density = 22.673586 Si / 1000 Ang^3
#
#
#
# Elastic Constant Matrix: (Units=GPa)
#
#
# Indices 1 2 3 4 5 6 
#
# 1 126.0558 52.4847 39.4622 0.0000 2.2608 0.0000
# 2 52.4847 108.1983 13.2112 0.0000 -4.7562 0.0000
# 3 39.4622 13.2112 100.6315 0.0000 8.3131 0.0000
# 4 0.0000 0.0000 0.0000 23.7961 0.0000 -2.4163
# 5 2.2608 -4.7562 8.3131 0.0000 34.2520 0.0000
# 6 0.0000 0.0000 0.0000 -2.4163 0.0000 44.4257
#
#
#
# Elastic Compliance Matrix: (Units=1/GPa)
#
#
# Indices 1 2 3 4 5 6 
#
# 1 0.011175 -0.004995 -0.003682 0.000000 -0.000538 0.000000
# 2 -0.004995 0.011716 0.000264 0.000000 0.001892 0.000000
# 3 -0.003682 0.000264 0.011555 0.000000 -0.002525 0.000000
# 4 0.000000 0.000000 0.000000 0.042257 0.000000 0.002298
# 5 -0.000538 0.001892 -0.002525 0.000000 0.030106 0.000000
# 6 0.000000 0.000000 0.000000 0.002298 0.000000 0.022635
#
#
# Mechanical properties :
#
#
# Convention : Reuss Voigt Hill
#
# Bulk Modulus (GPa) = 56.75106 60.57795 58.66451
# Shear Modulus (GPa) = 32.86388 35.80995 34.33691
#
# Velocity S-wave (km/s) = 3.81127 3.97844 3.89575
# Velocity P-wave (km/s) = 6.66721 6.91949 6.79452
#
# Compressibility (1/GPa) = 0.01762082
#
# Stress axis : x y z
#
# Youngs Moduli (GPa) = 89.48589 85.35286 86.54244
#
# Poissons Ratio (x) = 0.42632 0.31866
# Poissons Ratio (y) = 0.44696 -0.02287
# Poissons Ratio (z) = 0.32949 -0.02255
#
# Static dielectric constant tensor:
#      x y z
#    x 4.041380 0.000000 -0.187770 
#    y 0.000000 4.026630 0.000000 
#    z -0.187770 0.000000 4.020640 
# 
# 
# High freq. dielectric constant tensor:
#      x y z
#    x 1.893870 0.000000 -0.012160 
#    y 0.000000 1.897410 0.000000 
#    z -0.012160 0.000000 1.895110 
# 
# From -- ./inp_files/59934.got.cif
#   From: 2010.06.25/outbox.cif.g09.slc.cpg/sg15_30_cif.got.tgz:59934.got - 2010.06.28 07:06:18.
