data_PCOD8150795
_publ_section_title
;
Structure prediction by ZEFSAII (Michael W. Deem and Ramdas Pophale) SiO2 
 PCOD8150795
Probable space group: C 2/C
;
_chemical_formula_sum "Si O2"
_cell_formula_units_Z 48
_cell_length_a 19.977648
_cell_length_b 4.962148
_cell_length_c 23.400233
_cell_angle_alpha 90.000000
_cell_angle_beta 115.144337
_cell_angle_gamma 90.000000
_cell_volume 2099.897603
_symmetry_space_group_name_H-M "C 2/C"
_symmetry_group_IT_number 15
_symmetry_cell_setting 'monoclinic'
loop_
_space_group_symop_operation_xyz
x,y,z
-x,y,1/2-z
-x,-y,-z
x,-y,1/2+z
1/2+x,1/2+y,z
1/2-x,1/2+y,1/2-z
1/2-x,1/2-y,-z
1/2+x,1/2-y,1/2+z
loop_
_atom_site_type_symbol
_atom_site_label
_atom_site_fract_x
_atom_site_fract_y
_atom_site_fract_z
Si Si1 0.422253 0.761512 0.117125
Si Si2 0.125165 0.769609 0.331532
Si Si3 0.799349 0.335310 0.275132
Si Si4 0.182335 0.244860 0.519241
Si Si5 0.793796 0.250597 0.396736
Si Si6 0.057821 0.148770 0.224452
O O1 0.370184 0.541501 0.128813
O O2 0.507447 0.646534 0.148557
O O3 0.418680 0.042275 0.150119
O O4 0.393808 0.803979 0.042308
O O5 0.208816 0.676823 0.351453
O O6 0.084152 0.852647 0.256639
O O7 0.764144 0.630029 0.269192
O O8 0.832409 0.241524 0.348554
O O9 0.868920 0.334273 0.256384
O O10 0.250000 0.250000 0.500000
O O11 0.194864 0.456692 0.573408
O O12 0.173124 0.957465 0.546077
O O13 0.000000 0.273541 0.250000
#
# Coordination Sequence:
#
# PCOD8150795 Si02
#       6
#     8   8   8   8   8   8
#     4  11  24  40  66  99 138 175 229 280 341 395
#     4  11  21  40  65 100 132 174 224 288 331 404
#     4  12  27  45  70 101 141 182 228 288 353 414
#     4  12  22  40  67 101 137 182 232 283 331 411
#     4  12  23  40  67 100 136 174 234 284 338 402
#     4  10  26  44  69 101 138 180 226 285 350 412
#
# _framework density 22.858256999999998
#
# number of rings (size 3 to 8) (size 9 to 14) (size 15 to 20)
#    0.000    0.667    5.000    2.500    4.667    8.667 
#    0.000    1.667    0.000    0.000    0.000    0.000 
#    0.000    0.000    0.000    0.000    0.000    0.000 
#
# Total GULP energy -297473.000915 kJ/mol
# GULP energy per Si atom -12394.708371 kJ/mol
# Density = 2.280623 g / cm^3
# Si number density = 22.858257 Si / 1000 Ang^3
#
#
#
# Elastic Constant Matrix: (Units=GPa)
#
#
# Indices 1 2 3 4 5 6 
#
# 1 104.4929 14.1660 30.4110 -0.0004 9.7375 0.0022
# 2 14.1660 91.0794 20.7154 -0.0029 3.0655 0.0075
# 3 30.4110 20.7154 138.8996 -0.0002 24.4149 0.0010
# 4 -0.0004 -0.0029 -0.0002 43.3282 0.0010 -4.6482
# 5 9.7375 3.0655 24.4149 0.0010 40.9690 -0.0018
# 6 0.0022 0.0075 0.0010 -4.6482 -0.0018 13.8961
#
#
#
# Elastic Compliance Matrix: (Units=1/GPa)
#
#
# Indices 1 2 3 4 5 6 
#
# 1 0.010391 -0.001146 -0.001882 0.000000 -0.001262 -0.000001
# 2 -0.001146 0.011492 -0.001519 0.000000 0.000318 -0.000006
# 3 -0.001882 -0.001519 0.008645 0.000000 -0.004591 0.000000
# 4 0.000000 0.000000 0.000000 0.023939 0.000000 0.008007
# 5 -0.001262 0.000318 -0.004591 0.000000 0.027421 0.000004
# 6 -0.000001 -0.000006 0.000000 0.008007 0.000004 0.074641
#
#
# Mechanical properties :
#
#
# Convention : Reuss Voigt Hill
#
# Bulk Modulus (GPa) = 46.65346 51.67297 49.16322
# Shear Modulus (GPa) = 28.94067 37.58396 33.26231
#
# Velocity S-wave (km/s) = 3.56208 4.05929 3.81879
# Velocity P-wave (km/s) = 6.11327 6.68022 6.40303
#
# Compressibility (1/GPa) = 0.02143464
#
# Stress axis : x y z
#
# Youngs Moduli (GPa) = 96.23934 87.01410 115.67320
#
# Poissons Ratio (x) = 0.09968 0.21773
# Poissons Ratio (y) = 0.11025 0.17571
# Poissons Ratio (z) = 0.18115 0.13217
#
# Static dielectric constant tensor:
#      x y z
#    x 4.015590 -0.000010 0.186350 
#    y -0.000010 4.050140 0.000000 
#    z 0.186350 0.000000 4.621740 
# 
# 
# High freq. dielectric constant tensor:
#      x y z
#    x 1.866170 0.000000 0.009460 
#    y 0.000000 1.910220 0.000000 
#    z 0.009460 0.000000 1.912410 
# 
# From -- ./inp_files/299785.got.cif
#   From: 2010.06.25/outbox.cif.g09.slc.cpg/sg15_150_cif.got.tgz:299785.got - 2010.06.28 07:06:18.
