data_PCOD8150772
_publ_section_title
;
Structure prediction by ZEFSAII (Michael W. Deem and Ramdas Pophale) SiO2 
 PCOD8150772
Probable space group: C 2/C
;
_chemical_formula_sum "Si O2"
_cell_formula_units_Z 52
_cell_length_a 15.885915
_cell_length_b 8.932783
_cell_length_c 17.051736
_cell_angle_alpha 90.000000
_cell_angle_beta 65.225330
_cell_angle_gamma 90.000000
_cell_volume 2197.028480
_symmetry_space_group_name_H-M "C 2/C"
_symmetry_group_IT_number 15
_symmetry_cell_setting 'monoclinic'
loop_
_space_group_symop_operation_xyz
x,y,z
-x,y,1/2-z
-x,-y,-z
x,-y,1/2+z
1/2+x,1/2+y,z
1/2-x,1/2+y,1/2-z
1/2-x,1/2-y,-z
1/2+x,1/2-y,1/2+z
loop_
_atom_site_type_symbol
_atom_site_label
_atom_site_fract_x
_atom_site_fract_y
_atom_site_fract_z
Si Si1 0.689181 0.229131 0.598041
Si Si2 0.631817 0.779826 0.408897
Si Si3 0.000000 0.711694 0.250000
Si Si4 0.676959 0.895827 0.861901
Si Si5 0.016632 0.164942 0.910809
Si Si6 0.005621 0.144295 0.340423
Si Si7 0.693205 0.080229 0.175668
O O1 0.750000 0.250000 0.500000
O O2 0.720642 0.357560 0.646589
O O3 0.583864 0.251760 0.612679
O O4 0.717228 0.070330 0.622065
O O5 0.569708 0.719536 0.504832
O O6 0.591066 0.748704 0.336267
O O7 0.734210 0.709173 0.377223
O O8 0.636689 0.958102 0.421239
O O9 0.015497 0.812030 0.318670
O O10 0.911450 0.614383 0.307717
O O11 0.609661 0.751580 0.902804
O O12 0.695418 0.945738 0.766863
O O13 0.014087 0.983509 0.906079
O O14 0.000000 0.097125 0.250000
#
# Coordination Sequence:
#
# PCOD8150772 Si02
#       7
#     8   8   4   8   8   8   8
#     4  12  27  44  70 106 143 180 237 297 346 416
#     4  12  26  44  76 103 139 191 233 291 351 426
#     4  10  26  42  74 102 138 182 234 302 336 420
#     4  11  25  45  70 103 142 188 231 288 354 423
#     4  11  24  46  70 102 143 182 237 284 357 414
#     4  12  25  43  70 103 140 186 235 286 354 415
#     4  11  25  46  71 100 145 186 238 281 361 416
#
# _framework density 23.668333000000001
#
# number of rings (size 3 to 8) (size 9 to 14) (size 15 to 20)
#    0.000    0.615    0.769    6.462    9.692    1.846 
#    0.000    0.000    0.000    0.000    0.000    0.000 
#    0.000    0.000    0.000    0.000    0.000    0.000 
#
# Total GULP energy -322148.079406 kJ/mol
# GULP energy per Si atom -12390.310746 kJ/mol
# Density = 2.361446 g / cm^3
# Si number density = 23.668333 Si / 1000 Ang^3
#
#
#
# Elastic Constant Matrix: (Units=GPa)
#
#
# Indices 1 2 3 4 5 6 
#
# 1 119.0741 44.8352 -17.8597 0.0000 -32.5358 0.0000
# 2 44.8352 103.3141 -35.4576 0.0000 -20.0720 -0.0001
# 3 -17.8597 -35.4576 -37.0500 0.0000 -74.7001 0.0000
# 4 0.0000 0.0000 0.0000 9.1168 0.0000 -49.9604
# 5 -32.5358 -20.0720 -74.7001 0.0000 4.4210 0.0000
# 6 0.0000 -0.0001 0.0000 -49.9604 0.0000 -47.3588
#
#
#
# Elastic Compliance Matrix: (Units=1/GPa)
#
#
# Indices 1 2 3 4 5 6 
#
# 1 0.010323 -0.005220 -0.003005 0.000000 0.001500 0.000000
# 2 -0.005220 0.010959 -0.000880 0.000000 -0.003518 0.000000
# 3 -0.003005 -0.000880 0.000797 0.000000 -0.012646 0.000000
# 4 0.000000 0.000000 0.000000 0.016176 0.000000 -0.017064
# 5 0.001500 -0.003518 -0.012646 0.000000 0.007583 0.000000
# 6 0.000000 0.000000 0.000000 -0.017064 0.000000 -0.003114
#
#
# Mechanical properties :
#
#
# Convention : Reuss Voigt Hill
#
# Bulk Modulus (GPa) = 258.35583 18.70824 138.53204
# Shear Modulus (GPa) = 80.35844 6.15715 43.25779
#
# Velocity S-wave (km/s) = 5.83315 1.61464 4.27976
# Velocity P-wave (km/s) = 12.44030 3.37603 9.11479
#
# Compressibility (1/GPa) = 0.00387063
#
# Stress axis : x y z
#
# Youngs Moduli (GPa) = 96.87473 91.24870 1255.29856
#
# Poissons Ratio (x) = 0.47628 3.77188
# Poissons Ratio (y) = 0.50564 1.10406
# Poissons Ratio (z) = 0.29109 0.08026
#
# Static dielectric constant tensor:
#      x y z
#    x 4.180320 0.000000 0.133980 
#    y 0.000000 4.657070 0.000000 
#    z 0.133980 0.000000 4.245260 
# 
# 
# High freq. dielectric constant tensor:
#      x y z
#    x 1.945840 0.000000 0.003230 
#    y 0.000000 1.941640 0.000000 
#    z 0.003230 0.000000 1.950860 
# 
# From -- ./inp_files/209449.got.cif
#   From: 2010.06.25/outbox.cif.g09.slc.cpg/sg15_105_cif.got.tgz:209449.got - 2010.06.28 07:06:18.
