data_PCOD8150480
_publ_section_title
;
Structure prediction by ZEFSAII (Michael W. Deem and Ramdas Pophale) SiO2 
 PCOD8150480
Probable space group: C 2/C
;
_chemical_formula_sum "Si O2"
_cell_formula_units_Z 36
_cell_length_a 12.971859
_cell_length_b 8.292234
_cell_length_c 18.872434
_cell_angle_alpha 90.000000
_cell_angle_beta 131.679871
_cell_angle_gamma 90.000000
_cell_volume 1516.169551
_symmetry_space_group_name_H-M "C 2/C"
_symmetry_group_IT_number 15
_symmetry_cell_setting 'monoclinic'
loop_
_space_group_symop_operation_xyz
x,y,z
-x,y,1/2-z
-x,-y,-z
x,-y,1/2+z
1/2+x,1/2+y,z
1/2-x,1/2+y,1/2-z
1/2-x,1/2-y,-z
1/2+x,1/2-y,1/2+z
loop_
_atom_site_type_symbol
_atom_site_label
_atom_site_fract_x
_atom_site_fract_y
_atom_site_fract_z
Si Si1 0.516970 0.933312 0.110010
Si Si2 0.494146 0.431347 0.574975
Si Si3 0.686198 0.472695 0.785098
Si Si4 0.742092 0.416066 0.455152
Si Si5 0.000000 0.690315 0.750000
O O1 0.540461 0.753627 0.091084
O O2 0.655458 0.039243 0.167644
O O3 0.465771 0.924263 0.168198
O O4 0.396690 0.020393 0.010916
O O5 0.500000 0.500000 0.500000
O O6 0.595674 0.527431 0.675801
O O7 0.340538 0.452721 0.535814
O O8 0.673119 0.598730 0.845191
O O9 0.632624 0.299754 0.789573
O O10 0.750000 0.250000 0.500000
#
# Coordination Sequence:
#
# PCOD8150480 Si02
#       5
#     8   8   8   8   4
#     4  11  25  44  76 101 140 191 238 290 371 429
#     4  11  25  45  72 105 140 186 244 295 367 441
#     4  11  23  47  70 100 144 184 233 306 361 417
#     4  12  25  45  68 107 146 187 240 299 360 432
#     4  10  24  48  70 108 142 190 234 306 358 422
#
# _framework density 23.744049
#
# number of rings (size 3 to 8) (size 9 to 14) (size 15 to 20)
#    0.000    0.889    4.444    2.667    3.111    5.333 
#    4.000    0.000    0.000    0.000    0.000    0.000 
#    0.000    0.000    0.000    0.000    0.000    0.000 
#
# Total GULP energy -223179.952268 kJ/mol
# GULP energy per Si atom -12398.886237 kJ/mol
# Density = 2.369001 g / cm^3
# Si number density = 23.744049 Si / 1000 Ang^3
#
#
#
# Elastic Constant Matrix: (Units=GPa)
#
#
# Indices 1 2 3 4 5 6 
#
# 1 138.2423 27.3262 68.1212 0.0000 9.4934 0.0000
# 2 27.3262 72.0405 46.4240 0.0000 3.7509 0.0000
# 3 68.1212 46.4240 162.4112 0.0000 -18.8011 0.0000
# 4 0.0000 0.0000 0.0000 25.3070 0.0000 3.8564
# 5 9.4934 3.7509 -18.8011 0.0000 68.4372 0.0000
# 6 0.0000 0.0000 0.0000 3.8564 0.0000 26.2202
#
#
#
# Elastic Compliance Matrix: (Units=1/GPa)
#
#
# Indices 1 2 3 4 5 6 
#
# 1 0.009561 -0.000908 -0.004027 0.000000 -0.002383 0.000000
# 2 -0.000908 0.017473 -0.004865 0.000000 -0.002168 0.000000
# 3 -0.004027 -0.004865 0.009639 0.000000 0.003473 0.000000
# 4 0.000000 0.000000 0.000000 0.040421 0.000000 -0.005945
# 5 -0.002383 -0.002168 0.003473 0.000000 0.016015 0.000000
# 6 0.000000 0.000000 0.000000 -0.005945 0.000000 0.039013
#
#
# Mechanical properties :
#
#
# Convention : Reuss Voigt Hill
#
# Bulk Modulus (GPa) = 58.56664 72.93742 65.75203
# Shear Modulus (GPa) = 31.76381 39.38104 35.57242
#
# Velocity S-wave (km/s) = 3.66151 4.07697 3.87481
# Velocity P-wave (km/s) = 6.52647 7.27647 6.91166
#
# Compressibility (1/GPa) = 0.01707457
#
# Stress axis : x y z
#
# Youngs Moduli (GPa) = 104.59289 57.23025 103.74827
#
# Poissons Ratio (x) = 0.05195 0.41774
# Poissons Ratio (y) = 0.09495 0.50472
# Poissons Ratio (z) = 0.42115 0.27842
#
# Static dielectric constant tensor:
#      x y z
#    x 4.490300 0.000000 -0.134020 
#    y 0.000000 3.872750 0.000000 
#    z -0.134020 0.000000 4.802440 
# 
# 
# High freq. dielectric constant tensor:
#      x y z
#    x 1.960500 0.000000 -0.012700 
#    y 0.000000 1.900250 0.000000 
#    z -0.012700 0.000000 1.959420 
# 
# From -- ./inp_files/242878.got.cif
#   From: 2010.06.25/outbox.cif.g09.slc.cpg/sg15_122_cif.got.tgz:242878.got - 2010.06.28 07:06:18.
