data_PCOD8150605
_publ_section_title
;
Structure prediction by ZEFSAII (Michael W. Deem and Ramdas Pophale) SiO2 
 PCOD8150605
Probable space group: C 2/C
;
_chemical_formula_sum "Si O2"
_cell_formula_units_Z 56
_cell_length_a 9.135601
_cell_length_b 24.788697
_cell_length_c 14.777183
_cell_angle_alpha 90.000000
_cell_angle_beta 123.775541
_cell_angle_gamma 90.000000
_cell_volume 2781.630474
_symmetry_space_group_name_H-M "C 2/C"
_symmetry_group_IT_number 15
_symmetry_cell_setting 'monoclinic'
loop_
_space_group_symop_operation_xyz
x,y,z
-x,y,1/2-z
-x,-y,-z
x,-y,1/2+z
1/2+x,1/2+y,z
1/2-x,1/2+y,1/2-z
1/2-x,1/2-y,-z
1/2+x,1/2-y,1/2+z
loop_
_atom_site_type_symbol
_atom_site_label
_atom_site_fract_x
_atom_site_fract_y
_atom_site_fract_z
Si Si1 0.441499 0.271132 0.042705
Si Si2 0.576904 0.081261 0.502424
Si Si3 0.203266 0.328454 0.626328
Si Si4 0.539577 0.021099 0.871101
Si Si5 0.540556 0.377966 0.363820
Si Si6 0.541846 0.658080 0.126702
Si Si7 0.082674 0.058316 0.518093
O O1 0.589255 0.225620 0.090620
O O2 0.502293 0.314730 0.138539
O O3 0.250000 0.250000 0.000000
O O4 0.424208 0.300962 0.941865
O O5 0.416970 0.122761 0.447853
O O6 0.594304 0.053155 0.608007
O O7 0.756040 0.112239 0.541535
O O8 0.546755 0.039821 0.409628
O O9 0.284969 0.340874 0.752185
O O10 0.364450 0.321069 0.613066
O O11 0.500000 0.022295 0.750000
O O12 0.721852 0.051554 0.951469
O O13 0.500000 0.397173 0.250000
O O14 0.413412 0.413347 0.383038
O O15 0.523547 0.595915 0.088550
O O16 0.000000 0.000000 0.500000
#
# Coordination Sequence:
#
# PCOD8150605 Si02
#       7
#     8   8   8   8   8   8   8
#     4  11  24  41  67  94 130 159 217 278 319 388
#     4  11  23  42  64  97 134 166 224 270 313 399
#     4  11  23  44  68  93 131 172 219 267 322 394
#     4  11  24  41  65  94 130 180 214 266 327 385
#     4  11  24  42  63  95 128 171 210 266 331 382
#     4  10  25  44  66  96 128 179 213 263 331 387
#     4  11  22  43  63  94 136 166 216 264 317 397
#
# _framework density 20.132076999999999
#
# number of rings (size 3 to 8) (size 9 to 14) (size 15 to 20)
#    0.000    1.143    4.286    1.286    4.000    0.000 
#    2.571    0.000    0.000    0.000    0.000    0.000 
#    0.000    0.000    0.000    0.000    0.000    0.000 
#
# Total GULP energy -347192.288184 kJ/mol
# GULP energy per Si atom -12399.724578 kJ/mol
# Density = 2.008626 g / cm^3
# Si number density = 20.132077 Si / 1000 Ang^3
#
#
#
# Elastic Constant Matrix: (Units=GPa)
#
#
# Indices 1 2 3 4 5 6 
#
# 1 71.4597 39.5220 -5.2317 0.0000 -0.0159 0.0000
# 2 39.5220 146.2489 38.3560 0.0000 -0.4488 0.0000
# 3 -5.2317 38.3560 43.2619 0.0000 -8.4977 0.0000
# 4 0.0000 0.0000 0.0000 15.7536 0.0000 0.0008
# 5 -0.0159 -0.4488 -8.4977 0.0000 32.2360 0.0000
# 6 0.0000 0.0000 0.0000 0.0008 0.0000 32.1499
#
#
#
# Elastic Compliance Matrix: (Units=1/GPa)
#
#
# Indices 1 2 3 4 5 6 
#
# 1 0.018880 -0.007580 0.009475 0.000000 0.002401 0.000000
# 2 -0.007580 0.012085 -0.012232 0.000000 -0.003060 0.000000
# 3 0.009475 -0.012232 0.036988 0.000000 0.009585 0.000000
# 4 0.000000 0.000000 0.000000 0.063477 0.000000 -0.000002
# 5 0.002401 -0.003060 0.009585 0.000000 0.033506 0.000000
# 6 0.000000 0.000000 0.000000 -0.000002 0.000000 0.031104
#
#
# Mechanical properties :
#
#
# Convention : Reuss Voigt Hill
#
# Bulk Modulus (GPa) = 21.15049 45.14032 33.14540
# Shear Modulus (GPa) = 21.50773 28.58286 25.04530
#
# Velocity S-wave (km/s) = 3.27208 3.77207 3.53093
# Velocity P-wave (km/s) = 4.98036 6.43755 5.75526
#
# Compressibility (1/GPa) = 0.04728023
#
# Stress axis : x y z
#
# Youngs Moduli (GPa) = 52.96533 82.74983 27.03553
#
# Poissons Ratio (x) = 0.62723 -0.25617
# Poissons Ratio (y) = 0.40147 0.33070
# Poissons Ratio (z) = -0.50186 1.01219
#
# Static dielectric constant tensor:
#      x y z
#    x 3.926030 0.000000 -0.112160 
#    y 0.000000 3.707810 0.000000 
#    z -0.112160 0.000000 3.546610 
# 
# 
# High freq. dielectric constant tensor:
#      x y z
#    x 1.806690 0.000000 -0.010330 
#    y 0.000000 1.797560 0.000000 
#    z -0.010330 0.000000 1.778320 
# 
# From -- ./inp_files/137930.got.cif
#   From: 2010.06.25/outbox.cif.g09.slc.cpg/sg15_69_cif.got.tgz:137930.got - 2010.06.28 07:06:18.
