data_PCOD8150933
_publ_section_title
;
Structure prediction by ZEFSAII (Michael W. Deem and Ramdas Pophale) SiO2 
 PCOD8150933
Probable space group: C 2/C
;
_chemical_formula_sum "Si O2"
_cell_formula_units_Z 52
_cell_length_a 8.802858
_cell_length_b 10.960135
_cell_length_c 28.519511
_cell_angle_alpha 90.000000
_cell_angle_beta 121.834220
_cell_angle_gamma 90.000000
_cell_volume 2337.678800
_symmetry_space_group_name_H-M "C 2/C"
_symmetry_group_IT_number 15
_symmetry_cell_setting 'monoclinic'
loop_
_space_group_symop_operation_xyz
x,y,z
-x,y,1/2-z
-x,-y,-z
x,-y,1/2+z
1/2+x,1/2+y,z
1/2-x,1/2+y,1/2-z
1/2-x,1/2-y,-z
1/2+x,1/2-y,1/2+z
loop_
_atom_site_type_symbol
_atom_site_label
_atom_site_fract_x
_atom_site_fract_y
_atom_site_fract_z
Si Si1 0.635588 0.864310 0.661515
Si Si2 0.543603 0.143577 0.658400
Si Si3 0.904749 0.872219 0.985054
Si Si4 0.717046 0.784808 0.571267
Si Si5 0.000000 0.237083 0.250000
Si Si6 0.794082 0.466083 0.461804
Si Si7 0.789330 0.235489 0.623838
O O1 0.644678 0.835745 0.608364
O O2 0.498656 0.767645 0.662981
O O3 0.828744 0.849887 0.716844
O O4 0.567600 0.000168 0.658544
O O5 0.363013 0.178987 0.600929
O O6 0.524710 0.176086 0.709550
O O7 0.705909 0.221375 0.662130
O O8 0.765651 0.879175 0.005537
O O9 0.047883 0.764934 0.015166
O O10 0.800367 0.846007 0.920042
O O11 0.000000 0.000000 0.000000
O O12 0.802856 0.900389 0.556837
O O13 0.745203 0.394269 0.406538
O O14 0.000000 0.500000 0.500000
#
# Coordination Sequence:
#
# PCOD8150933 Si02
#       7
#     8   8   8   8   4   8   8
#     4  11  24  48  72  98 133 173 223 287 346 404
#     4  11  26  46  72 101 130 174 228 282 348 408
#     4  12  25  38  62 100 145 187 226 270 320 393
#     4  11  23  43  66  99 142 186 229 270 326 402
#     4  10  28  50  72 100 128 164 222 294 356 414
#     4  12  23  39  64  96 144 190 227 268 319 390
#     4  12  24  40  68 102 134 183 227 268 331 399
#
# _framework density 22.244288000000001
#
# number of rings (size 3 to 8) (size 9 to 14) (size 15 to 20)
#    0.000    0.615    4.615    3.231    2.154    4.308 
#    0.000    0.000    0.000    0.000    0.000    0.000 
#    0.000    0.000    0.000    0.000    0.000    0.000 
#
# Total GULP energy -322488.641285 kJ/mol
# GULP energy per Si atom -12403.409280 kJ/mol
# Density = 2.219366 g / cm^3
# Si number density = 22.244288 Si / 1000 Ang^3
#
#
#
# Elastic Constant Matrix: (Units=GPa)
#
#
# Indices 1 2 3 4 5 6 
#
# 1 115.3406 52.4562 42.7509 0.0000 8.9362 0.0000
# 2 52.4562 145.0762 28.2395 0.0000 16.1782 0.0000
# 3 42.7509 28.2395 83.2003 0.0000 16.1771 0.0000
# 4 0.0000 0.0000 0.0000 18.3007 0.0000 2.0989
# 5 8.9362 16.1782 16.1771 0.0000 38.9963 0.0000
# 6 0.0000 0.0000 0.0000 2.0989 0.0000 40.8805
#
#
#
# Elastic Compliance Matrix: (Units=1/GPa)
#
#
# Indices 1 2 3 4 5 6 
#
# 1 0.012109 -0.003456 -0.005208 0.000000 0.000819 0.000000
# 2 -0.003456 0.008545 -0.000641 0.000000 -0.002487 0.000000
# 3 -0.005208 -0.000641 0.015913 0.000000 -0.005142 0.000000
# 4 0.000000 0.000000 0.000000 0.054966 0.000000 -0.002822
# 5 0.000819 -0.002487 -0.005142 0.000000 0.028620 0.000000
# 6 0.000000 0.000000 0.000000 -0.002822 0.000000 0.024606
#
#
# Mechanical properties :
#
#
# Convention : Reuss Voigt Hill
#
# Bulk Modulus (GPa) = 55.69156 65.61225 60.65191
# Shear Modulus (GPa) = 29.52396 34.31353 31.91874
#
# Velocity S-wave (km/s) = 3.64711 3.93183 3.79214
# Velocity P-wave (km/s) = 6.54415 7.08326 6.81904
#
# Compressibility (1/GPa) = 0.01795604
#
# Stress axis : x y z
#
# Youngs Moduli (GPa) = 82.58638 117.03357 62.84346
#
# Poissons Ratio (x) = 0.40444 0.32730
# Poissons Ratio (y) = 0.28540 0.04028
# Poissons Ratio (z) = 0.43012 0.07501
#
# Static dielectric constant tensor:
#      x y z
#    x 4.392120 0.000000 -0.014950 
#    y 0.000000 4.405570 0.000000 
#    z -0.014950 0.000000 3.970900 
# 
# 
# High freq. dielectric constant tensor:
#      x y z
#    x 1.889900 0.000000 -0.000050 
#    y 0.000000 1.892370 0.000000 
#    z -0.000050 0.000000 1.858210 
# 
# From -- ./inp_files/287644.got.cif
#   From: 2010.06.25/outbox.cif.g09.slc.cpg/sg15_144_cif.got.tgz:287644.got - 2010.06.28 07:06:18.
