data_PCOD8150331
_publ_section_title
;
Structure prediction by ZEFSAII (Michael W. Deem and Ramdas Pophale) SiO2 
 PCOD8150331
Probable space group: C 2/C
;
_chemical_formula_sum "Si O2"
_cell_formula_units_Z 52
_cell_length_a 15.990339
_cell_length_b 17.350989
_cell_length_c 9.259901
_cell_angle_alpha 90.000000
_cell_angle_beta 121.194051
_cell_angle_gamma 90.000000
_cell_volume 2197.691128
_symmetry_space_group_name_H-M "C 2/C"
_symmetry_group_IT_number 15
_symmetry_cell_setting 'monoclinic'
loop_
_space_group_symop_operation_xyz
x,y,z
-x,y,1/2-z
-x,-y,-z
x,-y,1/2+z
1/2+x,1/2+y,z
1/2-x,1/2+y,1/2-z
1/2-x,1/2-y,-z
1/2+x,1/2-y,1/2+z
loop_
_atom_site_type_symbol
_atom_site_label
_atom_site_fract_x
_atom_site_fract_y
_atom_site_fract_z
Si Si1 0.705788 0.129813 0.162016
Si Si2 0.778071 0.126862 0.909797
Si Si3 0.128625 0.541763 0.613574
Si Si4 0.616247 0.328827 0.472992
Si Si5 0.431641 0.500422 0.073892
Si Si6 0.000000 0.512013 0.250000
Si Si7 0.590595 0.735714 0.647776
O O1 0.688215 0.038994 0.164827
O O2 0.795141 0.165073 0.335275
O O3 0.607176 0.173712 0.126590
O O4 0.728218 0.149177 0.015788
O O5 0.852284 0.192133 0.928334
O O6 0.698591 0.113382 0.711798
O O7 0.830894 0.044691 0.970066
O O8 0.080893 0.560720 0.413117
O O9 0.049045 0.541004 0.671203
O O10 0.591037 0.414142 0.395675
O O11 0.523090 0.287171 0.464583
O O12 0.639147 0.282120 0.347105
O O13 0.500000 0.543672 0.250000
O O14 0.500000 0.500000 0.000000
#
# Coordination Sequence:
#
# PCOD8150331 Si02
#       7
#     8   8   8   8   8   4   8
#     4  12  26  45  69 104 140 190 239 291 368 428
#     4  12  25  42  71 104 143 183 232 301 360 426
#     4  11  24  45  71 102 137 182 244 303 353 428
#     4  11  23  45  70 102 135 190 241 286 359 429
#     4  12  21  37  68 105 140 174 226 292 352 416
#     4  10  24  46  68 100 134 180 236 300 358 414
#     4  11  26  46  66 102 149 186 235 293 360 435
#
# _framework density 23.661196
#
# number of rings (size 3 to 8) (size 9 to 14) (size 15 to 20)
#    0.000    0.615    6.154    1.846    4.308    1.231 
#    5.538    0.000    0.000    0.000    0.000    0.000 
#    0.000    0.000    0.000    0.000    0.000    0.000 
#
# Total GULP energy -322298.179113 kJ/mol
# GULP energy per Si atom -12396.083812 kJ/mol
# Density = 2.360734 g / cm^3
# Si number density = 23.661196 Si / 1000 Ang^3
#
#
#
# Elastic Constant Matrix: (Units=GPa)
#
#
# Indices 1 2 3 4 5 6 
#
# 1 90.6279 19.6170 35.0014 0.0000 -11.1976 0.0000
# 2 19.6170 55.7164 14.8291 0.0000 -5.3149 0.0000
# 3 35.0014 14.8291 162.8203 0.0000 5.5219 0.0000
# 4 0.0000 0.0000 0.0000 19.6322 0.0000 -7.5962
# 5 -11.1976 -5.3149 5.5219 0.0000 48.6719 0.0000
# 6 0.0000 0.0000 0.0000 -7.5962 0.0000 30.5592
#
#
#
# Elastic Compliance Matrix: (Units=1/GPa)
#
#
# Indices 1 2 3 4 5 6 
#
# 1 0.013196 -0.003674 -0.002602 0.000000 0.002930 0.000000
# 2 -0.003674 0.019656 -0.001049 0.000000 0.001420 0.000000
# 3 -0.002602 -0.001049 0.006847 0.000000 -0.001490 0.000000
# 4 0.000000 0.000000 0.000000 0.056357 0.000000 0.014009
# 5 0.002930 0.001420 -0.001490 0.000000 0.021544 0.000000
# 6 0.000000 0.000000 0.000000 0.014009 0.000000 0.036206
#
#
# Mechanical properties :
#
#
# Convention : Reuss Voigt Hill
#
# Bulk Modulus (GPa) = 39.91893 49.78441 44.85167
# Shear Modulus (GPa) = 28.27975 35.75380 32.01677
#
# Velocity S-wave (km/s) = 3.46091 3.89147 3.68249
# Velocity P-wave (km/s) = 5.73395 6.42476 6.08916
#
# Compressibility (1/GPa) = 0.02505077
#
# Stress axis : x y z
#
# Youngs Moduli (GPa) = 75.77942 50.87441 146.04931
#
# Poissons Ratio (x) = 0.18693 0.37995
# Poissons Ratio (y) = 0.27844 0.15313
# Poissons Ratio (z) = 0.19714 0.05334
#
# Static dielectric constant tensor:
#      x y z
#    x 4.390410 0.000000 0.076090 
#    y 0.000000 6.925240 0.000000 
#    z 0.076090 0.000000 4.413980 
# 
# 
# High freq. dielectric constant tensor:
#      x y z
#    x 1.949930 0.000000 -0.002860 
#    y 0.000000 1.915680 0.000000 
#    z -0.002860 0.000000 1.948970 
# 
# From -- ./inp_files/49239.got.cif
#   From: 2010.06.25/outbox.cif.g09.slc.cpg/sg15_25_cif.got.tgz:49239.got - 2010.06.28 07:06:18.
