data_PCOD8150127
_publ_section_title
;
Structure prediction by ZEFSAII (Michael W. Deem and Ramdas Pophale) SiO2 
 PCOD8150127
Probable space group: C 2/C
;
_chemical_formula_sum "Si O2"
_cell_formula_units_Z 60
_cell_length_a 11.306857
_cell_length_b 18.221179
_cell_length_c 14.014085
_cell_angle_alpha 90.000000
_cell_angle_beta 74.448946
_cell_angle_gamma 90.000000
_cell_volume 2781.545269
_symmetry_space_group_name_H-M "C 2/C"
_symmetry_group_IT_number 15
_symmetry_cell_setting 'monoclinic'
loop_
_space_group_symop_operation_xyz
x,y,z
-x,y,1/2-z
-x,-y,-z
x,-y,1/2+z
1/2+x,1/2+y,z
1/2-x,1/2+y,1/2-z
1/2-x,1/2-y,-z
1/2+x,1/2-y,1/2+z
loop_
_atom_site_type_symbol
_atom_site_label
_atom_site_fract_x
_atom_site_fract_y
_atom_site_fract_z
Si Si1 0.268481 0.781307 0.786653
Si Si2 0.510098 0.641095 0.956569
Si Si3 0.003753 0.418034 0.540999
Si Si4 0.156902 0.280224 0.941424
Si Si5 0.432173 0.394168 0.665808
Si Si6 0.500000 0.876783 0.750000
Si Si7 0.742895 0.368769 0.097384
Si Si8 0.372910 0.547145 0.722081
O O1 0.267494 0.775827 0.672704
O O2 0.148569 0.824718 0.843881
O O3 0.388161 0.823000 0.795972
O O4 0.259348 0.705599 0.843215
O O5 0.538712 0.727353 0.958989
O O6 0.372448 0.628954 0.948604
O O7 0.613496 0.605911 0.865656
O O8 0.526086 0.600686 0.056056
O O9 0.134001 0.381018 0.488474
O O10 0.000000 0.500000 0.500000
O O11 0.895517 0.362871 0.526203
O O12 0.984957 0.426651 0.659156
O O13 0.250000 0.250000 0.000000
O O14 0.500000 0.380899 0.750000
O O15 0.345348 0.466217 0.687468
O O16 0.733419 0.431893 0.180534
O O17 0.500000 0.542717 0.750000
#
# Coordination Sequence:
#
# PCOD8150127 Si02
#       8
#     8   8   8   8   8   4   8   8
#     4  11  22  40  68  93 132 173 224 279 322 405
#     4  11  21  42  70  93 129 170 224 278 328 394
#     4  11  26  47  69 101 142 181 231 287 347 421
#     4  11  24  44  66  99 140 182 224 278 347 405
#     4  11  23  38  60  92 131 167 213 268 335 397
#     4  10  24  44  68  96 130 178 230 280 346 388
#     4  11  22  42  70 101 124 174 232 276 327 399
#     4   9  21  38  63  97 127 159 214 273 329 387
#
# _framework density 21.570744000000001
#
# number of rings (size 3 to 8) (size 9 to 14) (size 15 to 20)
#    0.000    1.333    1.333    4.400    4.667    1.600 
#    9.600    0.000    0.000    0.000    0.000    0.000 
#    0.000    0.000    0.000    0.000    0.000    0.000 
#
# Total GULP energy -371914.378572 kJ/mol
# GULP energy per Si atom -12397.145952 kJ/mol
# Density = 2.152165 g / cm^3
# Si number density = 21.570744 Si / 1000 Ang^3
#
#
#
# Elastic Constant Matrix: (Units=GPa)
#
#
# Indices 1 2 3 4 5 6 
#
# 1 62.8303 7.0043 30.8367 0.0000 0.2979 0.0000
# 2 7.0043 108.7219 46.3672 0.0000 5.3715 0.0000
# 3 30.8367 46.3672 129.4647 0.0000 0.7380 0.0000
# 4 0.0000 0.0000 0.0000 30.3211 0.0000 -2.7053
# 5 0.2979 5.3715 0.7380 0.0000 30.8701 0.0000
# 6 0.0000 0.0000 0.0000 -2.7053 0.0000 25.8563
#
#
#
# Elastic Compliance Matrix: (Units=1/GPa)
#
#
# Indices 1 2 3 4 5 6 
#
# 1 0.018082 0.000804 -0.004594 0.000000 -0.000205 0.000000
# 2 0.000804 0.010992 -0.004118 0.000000 -0.001822 0.000000
# 3 -0.004594 -0.004118 0.010290 0.000000 0.000515 0.000000
# 4 0.000000 0.000000 0.000000 0.033291 0.000000 0.003483
# 5 -0.000205 -0.001822 0.000515 0.000000 0.032700 0.000000
# 6 0.000000 0.000000 0.000000 0.003483 0.000000 0.039040
#
#
# Mechanical properties :
#
#
# Convention : Reuss Voigt Hill
#
# Bulk Modulus (GPa) = 42.46405 52.15929 47.31167
# Shear Modulus (GPa) = 29.75128 31.86342 30.80735
#
# Velocity S-wave (km/s) = 3.71784 3.84755 3.78325
# Velocity P-wave (km/s) = 6.17726 6.63108 6.40819
#
# Compressibility (1/GPa) = 0.02354933
#
# Stress axis : x y z
#
# Youngs Moduli (GPa) = 55.30435 90.97360 97.18000
#
# Poissons Ratio (x) = -0.07317 0.44642
# Poissons Ratio (y) = -0.04448 0.40019
# Poissons Ratio (z) = 0.25405 0.37463
#
# Static dielectric constant tensor:
#      x y z
#    x 3.600370 0.000000 -0.077000 
#    y 0.000000 4.097580 0.000000 
#    z -0.077000 0.000000 4.234600 
# 
# 
# High freq. dielectric constant tensor:
#      x y z
#    x 1.822430 0.000000 -0.006750 
#    y 0.000000 1.852570 0.000000 
#    z -0.006750 0.000000 1.871420 
# 
# From -- ./inp_files/145643.got.cif
#   From: 2010.06.25/outbox.cif.g09.slc.cpg/sg15_73_cif.got.tgz:145643.got - 2010.06.28 07:06:18.
