data_PCOD8150211
_publ_section_title
;
Structure prediction by ZEFSAII (Michael W. Deem and Ramdas Pophale) SiO2 
 PCOD8150211
Probable space group: C 2/C
;
_chemical_formula_sum "Si O2"
_cell_formula_units_Z 48
_cell_length_a 19.958496
_cell_length_b 8.578282
_cell_length_c 17.888551
_cell_angle_alpha 90.000000
_cell_angle_beta 43.471140
_cell_angle_gamma 90.000000
_cell_volume 2107.098614
_symmetry_space_group_name_H-M "C 2/C"
_symmetry_group_IT_number 15
_symmetry_cell_setting 'monoclinic'
loop_
_space_group_symop_operation_xyz
x,y,z
-x,y,1/2-z
-x,-y,-z
x,-y,1/2+z
1/2+x,1/2+y,z
1/2-x,1/2+y,1/2-z
1/2-x,1/2-y,-z
1/2+x,1/2-y,1/2+z
loop_
_atom_site_type_symbol
_atom_site_label
_atom_site_fract_x
_atom_site_fract_y
_atom_site_fract_z
Si Si1 0.472158 0.497168 0.155162
Si Si2 0.848238 0.465255 0.403235
Si Si3 0.845136 0.208273 0.160034
Si Si4 0.466083 0.841048 0.928863
Si Si5 0.132927 0.885287 0.616160
Si Si6 0.838537 0.484659 0.743183
O O1 0.426377 0.584448 0.120709
O O2 0.477054 0.314049 0.140281
O O3 0.407156 0.524924 0.280189
O O4 0.582171 0.557640 0.080362
O O5 0.911658 0.577033 0.403957
O O6 0.895843 0.296047 0.353134
O O7 0.744909 0.430462 0.524124
O O8 0.840717 0.550445 0.329744
O O9 0.817610 0.332153 0.246732
O O10 0.745916 0.119642 0.223160
O O11 0.886680 0.305781 0.056484
O O12 0.556420 0.950432 0.880775
#
# Coordination Sequence:
#
# PCOD8150211 Si02
#       6
#     8   8   8   8   8   8
#     4  11  24  46  70 106 143 185 235 298 355 428
#     4  11  25  46  72 108 138 188 242 294 350 432
#     4  12  27  48  71 105 149 190 238 295 363 431
#     4  12  28  44  76 106 144 190 244 296 355 430
#     4  10  24  44  75  99 143 187 235 295 360 423
#     4  12  27  46  71 103 146 190 237 297 358 424
#
# _framework density 22.780138999999998
#
# number of rings (size 3 to 8) (size 9 to 14) (size 15 to 20)
#    0.000    0.667    1.667    4.500   11.667    2.667 
#    0.000    0.000    0.000    0.000    0.000    0.000 
#    0.000    0.000    0.000    0.000    0.000    0.000 
#
# Total GULP energy -297649.052051 kJ/mol
# GULP energy per Si atom -12402.043835 kJ/mol
# Density = 2.272829 g / cm^3
# Si number density = 22.780139 Si / 1000 Ang^3
#
#
#
# Elastic Constant Matrix: (Units=GPa)
#
#
# Indices 1 2 3 4 5 6 
#
# 1 147.6586 64.0907 23.3621 0.0001 -5.8344 -0.0001
# 2 64.0907 128.7326 22.3649 0.0003 -2.7162 -0.0004
# 3 23.3621 22.3649 71.2889 0.0001 -4.5611 -0.0001
# 4 0.0001 0.0003 0.0001 35.2462 -0.0002 -4.1270
# 5 -5.8344 -2.7162 -4.5611 -0.0002 31.6370 0.0002
# 6 -0.0001 -0.0004 -0.0001 -4.1270 0.0002 53.1405
#
#
#
# Elastic Compliance Matrix: (Units=1/GPa)
#
#
# Indices 1 2 3 4 5 6 
#
# 1 0.008843 -0.004113 -0.001540 0.000000 0.001056 0.000000
# 2 -0.004113 0.010132 -0.001841 0.000000 -0.000154 0.000000
# 3 -0.001540 -0.001841 0.015222 0.000000 0.001752 0.000000
# 4 0.000000 0.000000 0.000000 0.028632 0.000000 0.002224
# 5 0.001056 -0.000154 0.001752 0.000000 0.032043 0.000000
# 6 0.000000 0.000000 0.000000 0.002224 0.000000 0.018991
#
#
# Mechanical properties :
#
#
# Convention : Reuss Voigt Hill
#
# Bulk Modulus (GPa) = 52.05720 63.03506 57.54613
# Shear Modulus (GPa) = 36.96788 39.86225 38.41507
#
# Velocity S-wave (km/s) = 4.03278 4.18768 4.11096
# Velocity P-wave (km/s) = 6.67728 7.14936 6.91735
#
# Compressibility (1/GPa) = 0.01920964
#
# Stress axis : x y z
#
# Youngs Moduli (GPa) = 113.08583 98.69612 65.69551
#
# Poissons Ratio (x) = 0.40590 0.10118
# Poissons Ratio (y) = 0.46508 0.12093
# Poissons Ratio (z) = 0.17417 0.18168
#
# Static dielectric constant tensor:
#      x y z
#    x 4.375880 0.000000 -0.093610 
#    y 0.000000 4.252500 0.000000 
#    z -0.093610 0.000000 3.968960 
# 
# 
# High freq. dielectric constant tensor:
#      x y z
#    x 1.912750 0.000000 -0.007680 
#    y 0.000000 1.913250 0.000000 
#    z -0.007680 0.000000 1.899710 
# 
# From -- ./inp_files/213727.got.cif
#   From: 2010.06.25/outbox.cif.g09.slc.cpg/sg15_107_cif.got.tgz:213727.got - 2010.06.28 07:06:18.
