data_PCOD8150977
_publ_section_title
;
Structure prediction by ZEFSAII (Michael W. Deem and Ramdas Pophale) SiO2 
 PCOD8150977
Probable space group: C 2/C
;
_chemical_formula_sum "Si O2"
_cell_formula_units_Z 64
_cell_length_a 24.560269
_cell_length_b 19.719516
_cell_length_c 19.835137
_cell_angle_alpha 90.000000
_cell_angle_beta 22.730069
_cell_angle_gamma 90.000000
_cell_volume 3711.851648
_symmetry_space_group_name_H-M "C 2/C"
_symmetry_group_IT_number 15
_symmetry_cell_setting 'monoclinic'
loop_
_space_group_symop_operation_xyz
x,y,z
-x,y,1/2-z
-x,-y,-z
x,-y,1/2+z
1/2+x,1/2+y,z
1/2-x,1/2+y,1/2-z
1/2-x,1/2-y,-z
1/2+x,1/2-y,1/2+z
loop_
_atom_site_type_symbol
_atom_site_label
_atom_site_fract_x
_atom_site_fract_y
_atom_site_fract_z
Si Si1 0.413309 0.813177 0.629618
Si Si2 0.972184 0.542987 0.858304
Si Si3 0.409990 0.551396 0.022212
Si Si4 0.525939 0.809321 0.094280
Si Si5 0.837178 0.804063 0.773403
Si Si6 0.896027 0.201147 0.051951
Si Si7 0.151092 0.953563 0.750844
Si Si8 0.397142 0.966922 0.673005
O O1 0.473917 0.824245 0.485426
O O2 0.258118 0.781026 0.799922
O O3 0.498804 0.763640 0.582843
O O4 0.419745 0.886838 0.655107
O O5 0.012873 0.621653 0.823180
O O6 0.000000 0.522951 0.750000
O O7 0.075774 0.498711 0.785302
O O8 0.812624 0.523114 0.060592
O O9 0.440871 0.629726 0.966360
O O10 0.391060 0.552407 0.123645
O O11 0.266720 0.519888 0.156335
O O12 0.541515 0.507332 0.844144
O O13 0.412436 0.749619 0.237418
O O14 0.674269 0.783281 0.953732
O O15 0.905157 0.803684 0.622095
O O16 0.859491 0.880841 0.775211
O O17 0.500000 0.000000 0.500000
#
# Coordination Sequence:
#
# PCOD8150977 Si02
#       8
#     8   8   8   8   8   8   8   8
#     4   9  16  28  47  71 102 126 160 208 250 304
#     4  11  22  35  50  71 104 139 173 212 254 301
#     4   9  17  30  53  76 105 128 163 216 257 301
#     4   9  16  30  45  66  97 133 167 209 249 285
#     4   8  15  26  44  65  97 128 167 206 241 292
#     4   8  15  26  41  74 102 124 151 200 259 295
#     4   9  17  32  48  76 104 131 166 213 259 295
#     4  11  18  33  52  76  98 131 176 212 251 300
#
# _framework density 17.242068
#
# number of rings (size 3 to 8) (size 9 to 14) (size 15 to 20)
#    0.000    2.750    2.500    1.500    0.000    2.000 
#    4.500    3.125    0.000    0.000    0.000    7.875 
#    0.000    0.000    0.000    0.000    0.000    0.000 
#
# Total GULP energy -396542.026631 kJ/mol
# GULP energy per Si atom -12391.938332 kJ/mol
# Density = 1.720282 g / cm^3
# Si number density = 17.242068 Si / 1000 Ang^3
#
#
#
# Elastic Constant Matrix: (Units=GPa)
#
#
# Indices 1 2 3 4 5 6 
#
# 1 61.2112 43.6023 22.5233 -0.0057 -13.3499 0.0028
# 2 43.6023 91.5905 39.9934 -0.0006 -25.5231 -0.0006
# 3 22.5233 39.9934 40.6478 -0.0001 -22.8911 0.0012
# 4 -0.0057 -0.0006 -0.0001 26.6769 -0.0013 -15.9383
# 5 -13.3499 -25.5231 -22.8911 -0.0013 24.2228 0.0007
# 6 0.0028 -0.0006 0.0012 -15.9383 0.0007 26.1505
#
#
#
# Elastic Compliance Matrix: (Units=1/GPa)
#
#
# Indices 1 2 3 4 5 6 
#
# 1 0.025062 -0.010359 -0.004410 0.000005 -0.001271 0.000001
# 2 -0.010359 0.023720 -0.014403 0.000000 0.005672 0.000002
# 3 -0.004410 -0.014403 0.066911 -0.000002 0.045625 -0.000005
# 4 0.000005 0.000000 -0.000002 0.058953 0.000003 0.035931
# 5 -0.001271 0.005672 0.045625 0.000003 0.089677 -0.000003
# 6 0.000001 0.000002 -0.000005 0.035931 -0.000003 0.060139
#
#
# Mechanical properties :
#
#
# Convention : Reuss Voigt Hill
#
# Bulk Modulus (GPa) = 17.43769 45.07637 31.25703
# Shear Modulus (GPa) = 12.44024 21.23206 16.83615
#
# Velocity S-wave (km/s) = 2.68900 3.51295 3.12822
# Velocity P-wave (km/s) = 4.44706 6.53104 5.58708
#
# Compressibility (1/GPa) = 0.05734705
#
# Stress axis : x y z
#
# Youngs Moduli (GPa) = 39.90177 42.15909 14.94525
#
# Poissons Ratio (x) = 0.43673 0.06591
# Poissons Ratio (y) = 0.41335 0.21526
# Poissons Ratio (z) = 0.17596 0.60724
#
# Static dielectric constant tensor:
#      x y z
#    x 2.943860 -0.000020 -0.394270 
#    y -0.000020 3.671290 0.000020 
#    z -0.394270 0.000020 3.120510 
# 
# 
# High freq. dielectric constant tensor:
#      x y z
#    x 1.627830 0.000000 -0.037570 
#    y 0.000000 1.673310 0.000000 
#    z -0.037570 0.000000 1.642640 
# 
# From -- ./inp_files/216142.got.cif
#   From: 2010.06.25/outbox.cif.g09.slc.cpg/sg15_109_cif.got.tgz:216142.got - 2010.06.28 07:06:18.
