data_PCOD8150493
_publ_section_title
;
Structure prediction by ZEFSAII (Michael W. Deem and Ramdas Pophale) SiO2 
 PCOD8150493
Probable space group: C 2/C
;
_chemical_formula_sum "Si O2"
_cell_formula_units_Z 40
_cell_length_a 8.243453
_cell_length_b 28.547369
_cell_length_c 8.421387
_cell_angle_alpha 90.000000
_cell_angle_beta 112.806049
_cell_angle_gamma 90.000000
_cell_volume 1826.863335
_symmetry_space_group_name_H-M "C 2/C"
_symmetry_group_IT_number 15
_symmetry_cell_setting 'monoclinic'
loop_
_space_group_symop_operation_xyz
x,y,z
-x,y,1/2-z
-x,-y,-z
x,-y,1/2+z
1/2+x,1/2+y,z
1/2-x,1/2+y,1/2-z
1/2-x,1/2-y,-z
1/2+x,1/2-y,1/2+z
loop_
_atom_site_type_symbol
_atom_site_label
_atom_site_fract_x
_atom_site_fract_y
_atom_site_fract_z
Si Si1 0.000000 0.759317 0.750000
Si Si2 0.500000 0.626846 0.750000
Si Si3 0.293849 0.472134 0.677985
Si Si4 0.297609 0.688471 0.917991
Si Si5 0.717453 0.065277 0.492488
Si Si6 0.907460 0.604660 0.548796
O O1 0.176311 0.728669 0.793313
O O2 0.962779 0.791061 0.580050
O O3 0.365289 0.658207 0.797491
O O4 0.393933 0.594723 0.587193
O O5 0.500000 0.480668 0.750000
O O6 0.200783 0.521407 0.605890
O O7 0.247754 0.433455 0.527608
O O8 0.220180 0.453898 0.816189
O O9 0.177235 0.656591 0.989138
O O10 0.548198 0.098329 0.459620
O O11 0.000000 0.595839 0.750000
#
# Coordination Sequence:
#
# PCOD8150493 Si02
#       6
#     4   4   8   8   8   8
#     4  10  24  48  75  98 136 170 223 284 368 412
#     4  12  24  42  71 104 140 178 233 278 342 406
#     4  12  26  43  68 100 139 191 238 284 333 398
#     4  11  24  46  73 104 133 181 218 293 345 423
#     4  12  25  43  66 102 143 190 234 284 331 399
#     4  12  24  45  68  99 142 182 232 283 339 405
#
# _framework density 21.895451999999999
#
# number of rings (size 3 to 8) (size 9 to 14) (size 15 to 20)
#    0.000    0.400    4.000    4.200    4.200    0.800 
#    0.000    0.000    0.000    0.000    0.000    0.000 
#    0.000    0.000    0.000    0.000    0.000    0.000 
#
# Total GULP energy -248069.019923 kJ/mol
# GULP energy per Si atom -12403.450996 kJ/mol
# Density = 2.184562 g / cm^3
# Si number density = 21.895452 Si / 1000 Ang^3
#
#
#
# Elastic Constant Matrix: (Units=GPa)
#
#
# Indices 1 2 3 4 5 6 
#
# 1 97.6436 38.5692 30.5392 0.0000 -8.5773 0.0000
# 2 38.5692 123.0320 60.4225 0.0000 -0.4991 0.0000
# 3 30.5392 60.4225 121.3747 0.0000 5.5188 0.0000
# 4 0.0000 0.0000 0.0000 15.5672 0.0000 2.6696
# 5 -8.5773 -0.4991 5.5188 0.0000 38.9923 0.0000
# 6 0.0000 0.0000 0.0000 2.6696 0.0000 31.2542
#
#
#
# Elastic Compliance Matrix: (Units=1/GPa)
#
#
# Indices 1 2 3 4 5 6 
#
# 1 0.012207 -0.002968 -0.001726 0.000000 0.002892 0.000000
# 2 -0.002968 0.011511 -0.004993 0.000000 0.000201 0.000000
# 3 -0.001726 -0.004993 0.011251 0.000000 -0.002036 0.000000
# 4 0.000000 0.000000 0.000000 0.065193 0.000000 -0.005569
# 5 0.002892 0.000201 -0.002036 0.000000 0.026573 0.000000
# 6 0.000000 0.000000 0.000000 -0.005569 0.000000 0.032471
#
#
# Mechanical properties :
#
#
# Convention : Reuss Voigt Hill
#
# Bulk Modulus (GPa) = 64.11343 66.79020 65.45182
# Shear Modulus (GPa) = 27.20671 31.33070 29.26870
#
# Velocity S-wave (km/s) = 3.52884 3.78686 3.66012
# Velocity P-wave (km/s) = 6.77855 7.04917 6.91518
#
# Compressibility (1/GPa) = 0.01559736
#
# Stress axis : x y z
#
# Youngs Moduli (GPa) = 81.91853 86.87193 88.87879
#
# Poissons Ratio (x) = 0.25780 0.15337
# Poissons Ratio (y) = 0.24310 0.44377
# Poissons Ratio (z) = 0.14136 0.43375
#
# Static dielectric constant tensor:
#      x y z
#    x 4.019080 0.000000 0.277720 
#    y 0.000000 4.208400 0.000000 
#    z 0.277720 0.000000 4.075640 
# 
# 
# High freq. dielectric constant tensor:
#      x y z
#    x 1.858910 0.000000 0.020740 
#    y 0.000000 1.868720 0.000000 
#    z 0.020740 0.000000 1.868630 
# 
# From -- ./inp_files/25418.got.cif
#   From: 2010.06.25/outbox.cif.g09.slc.cpg/sg15_13_cif.got.tgz:25418.got - 2010.06.28 07:06:18.
