data_PCOD8150536
_publ_section_title
;
Structure prediction by ZEFSAII (Michael W. Deem and Ramdas Pophale) SiO2 
 PCOD8150536
Probable space group: C 2/C
;
_chemical_formula_sum "Si O2"
_cell_formula_units_Z 56
_cell_length_a 25.817428
_cell_length_b 9.189803
_cell_length_c 12.175404
_cell_angle_alpha 90.000000
_cell_angle_beta 105.885603
_cell_angle_gamma 90.000000
_cell_volume 2778.381627
_symmetry_space_group_name_H-M "C 2/C"
_symmetry_group_IT_number 15
_symmetry_cell_setting 'monoclinic'
loop_
_space_group_symop_operation_xyz
x,y,z
-x,y,1/2-z
-x,-y,-z
x,-y,1/2+z
1/2+x,1/2+y,z
1/2-x,1/2+y,1/2-z
1/2-x,1/2-y,-z
1/2+x,1/2-y,1/2+z
loop_
_atom_site_type_symbol
_atom_site_label
_atom_site_fract_x
_atom_site_fract_y
_atom_site_fract_z
Si Si1 0.193671 0.281985 0.330297
Si Si2 0.369124 0.558454 0.338499
Si Si3 0.320026 0.287677 0.431278
Si Si4 0.863597 0.501364 0.350092
Si Si5 0.441779 0.624404 0.739616
Si Si6 0.976140 0.402863 0.854564
Si Si7 0.580403 0.208708 0.490615
O O1 0.180595 0.151373 0.238244
O O2 0.256961 0.300984 0.375552
O O3 0.167603 0.247816 0.434286
O O4 0.170994 0.433800 0.269191
O O5 0.347765 0.438929 0.412508
O O6 0.397560 0.490839 0.248651
O O7 0.414956 0.658929 0.420147
O O8 0.341985 0.159345 0.366755
O O9 0.926482 0.492368 0.351431
O O10 0.866711 0.394972 0.459266
O O11 0.500000 0.548870 0.750000
O O12 0.452230 0.738910 0.842886
O O13 0.417103 0.720073 0.627065
O O14 0.000000 0.447604 0.750000
O O15 0.025545 0.390466 0.971026
#
# Coordination Sequence:
#
# PCOD8150536 Si02
#       7
#     8   8   8   8   8   8   8
#     4  10  25  41  57  92 117 143 211 249 280 358
#     4  11  20  40  60  84 118 158 190 240 300 345
#     4  11  23  40  64  84 117 159 192 249 301 336
#     4  11  21  39  62  86 115 160 190 240 301 345
#     4   9  19  35  54  83 116 150 190 233 280 350
#     4   9  19  35  56  86 119 148 188 236 280 355
#     4   9  21  35  56  87 121 149 195 238 280 355
#
# _framework density 20.155619000000002
#
# number of rings (size 3 to 8) (size 9 to 14) (size 15 to 20)
#    0.000    2.286    1.429    2.143    4.000    2.286 
#    2.571    1.429    0.000    9.429    0.000    0.000 
#    0.000    0.000    0.000    0.000    0.000    0.000 
#
# Total GULP energy -346919.428519 kJ/mol
# GULP energy per Si atom -12389.979590 kJ/mol
# Density = 2.010974 g / cm^3
# Si number density = 20.155619 Si / 1000 Ang^3
#
#
#
# Elastic Constant Matrix: (Units=GPa)
#
#
# Indices 1 2 3 4 5 6 
#
# 1 82.4221 26.8366 37.5681 0.0000 2.5301 0.0000
# 2 26.8366 73.2604 30.7123 0.0000 4.6277 0.0000
# 3 37.5681 30.7123 98.6841 0.0000 17.9702 0.0000
# 4 0.0000 0.0000 0.0000 25.0789 0.0000 5.2634
# 5 2.5301 4.6277 17.9702 0.0000 27.8003 0.0000
# 6 0.0000 0.0000 0.0000 5.2634 0.0000 24.8964
#
#
#
# Elastic Compliance Matrix: (Units=1/GPa)
#
#
# Indices 1 2 3 4 5 6 
#
# 1 0.015664 -0.003685 -0.005291 0.000000 0.002608 0.000000
# 2 -0.003685 0.016574 -0.003756 0.000000 0.000004 0.000000
# 3 -0.005291 -0.003756 0.014865 0.000000 -0.008502 0.000000
# 4 0.000000 0.000000 0.000000 0.041726 0.000000 -0.008821
# 5 0.002608 0.000004 -0.008502 0.000000 0.041228 0.000000
# 6 0.000000 0.000000 0.000000 -0.008821 0.000000 0.042031
#
#
# Mechanical properties :
#
#
# Convention : Reuss Voigt Hill
#
# Bulk Modulus (GPa) = 46.21362 49.40008 47.80685
# Shear Modulus (GPa) = 24.41814 26.17177 25.29495
#
# Velocity S-wave (km/s) = 3.48441 3.60736 3.54642
# Velocity P-wave (km/s) = 6.25830 6.47404 6.36709
#
# Compressibility (1/GPa) = 0.02163864
#
# Stress axis : x y z
#
# Youngs Moduli (GPa) = 63.84016 60.33518 67.27234
#
# Poissons Ratio (x) = 0.22231 0.35597
# Poissons Ratio (y) = 0.23522 0.25270
# Poissons Ratio (z) = 0.33781 0.22664
#
# Static dielectric constant tensor:
#      x y z
#    x 3.551770 0.000000 0.167670 
#    y 0.000000 3.677650 0.000000 
#    z 0.167670 0.000000 3.779100 
# 
# 
# High freq. dielectric constant tensor:
#      x y z
#    x 1.771670 0.000000 0.017490 
#    y 0.000000 1.789110 0.000000 
#    z 0.017490 0.000000 1.797120 
# 
# From -- ./inp_files/121999.got.cif
#   From: 2010.06.25/outbox.cif.g09.slc.cpg/sg15_61_cif.got.tgz:121999.got - 2010.06.28 07:06:18.
