data_PCOD8150525
_publ_section_title
;
Structure prediction by ZEFSAII (Michael W. Deem and Ramdas Pophale) SiO2 
 PCOD8150525
Probable space group: C 2/C
;
_chemical_formula_sum "Si O2"
_cell_formula_units_Z 36
_cell_length_a 5.028655
_cell_length_b 23.235107
_cell_length_c 12.214309
_cell_angle_alpha 90.000000
_cell_angle_beta 97.076431
_cell_angle_gamma 90.000000
_cell_volume 1416.265267
_symmetry_space_group_name_H-M "C 2/C"
_symmetry_group_IT_number 15
_symmetry_cell_setting 'monoclinic'
loop_
_space_group_symop_operation_xyz
x,y,z
-x,y,1/2-z
-x,-y,-z
x,-y,1/2+z
1/2+x,1/2+y,z
1/2-x,1/2+y,1/2-z
1/2-x,1/2-y,-z
1/2+x,1/2-y,1/2+z
loop_
_atom_site_type_symbol
_atom_site_label
_atom_site_fract_x
_atom_site_fract_y
_atom_site_fract_z
Si Si1 0.347696 0.298687 0.344323
Si Si2 0.741830 0.462378 0.468252
Si Si3 0.000000 0.908866 0.250000
Si Si4 0.515385 0.296354 0.909875
Si Si5 0.966660 0.632855 0.131993
O O1 0.500000 0.269364 0.250000
O O2 0.308799 0.367276 0.315942
O O3 0.525947 0.289081 0.462224
O O4 0.930874 0.265572 0.145286
O O5 0.500000 0.500000 0.500000
O O6 0.684552 0.448152 0.337817
O O7 0.795853 0.404020 0.536898
O O8 0.000000 0.500000 0.500000
O O9 0.235990 0.315866 0.844245
O O10 0.757470 0.342507 0.902834
O O11 0.000000 0.598995 0.250000
#
# Coordination Sequence:
#
# PCOD8150525 Si02
#       5
#     8   8   4   8   8
#     4   9  21  44  77 112 154 203 252 311 386 477
#     4  12  29  51  78 111 149 208 272 333 395 458
#     4  10  24  54  80 114 160 204 264 332 398 476
#     4  11  23  46  72 115 155 205 253 310 389 479
#     4  12  26  47  73 109 159 202 254 324 390 466
#
# _framework density 25.418969000000001
#
# number of rings (size 3 to 8) (size 9 to 14) (size 15 to 20)
#    0.667    0.444    2.222    2.667    3.111    3.556 
#    0.000    7.778    0.000    0.000    0.000    0.000 
#    0.000    0.000    0.000    0.000    0.000    0.000 
#
# Total GULP energy -223064.326224 kJ/mol
# GULP energy per Si atom -12392.462568 kJ/mol
# Density = 2.536111 g / cm^3
# Si number density = 25.418969 Si / 1000 Ang^3
#
#
#
# Elastic Constant Matrix: (Units=GPa)
#
#
# Indices 1 2 3 4 5 6 
#
# 1 114.7791 22.1818 49.4427 0.0000 -3.2229 0.0000
# 2 22.1818 94.4130 52.8176 0.0000 -0.3924 0.0000
# 3 49.4427 52.8176 219.9034 0.0000 7.0416 0.0000
# 4 0.0000 0.0000 0.0000 50.5517 0.0000 -2.9833
# 5 -3.2229 -0.3924 7.0416 0.0000 34.7097 0.0000
# 6 0.0000 0.0000 0.0000 -2.9833 0.0000 33.6366
#
#
#
# Elastic Compliance Matrix: (Units=1/GPa)
#
#
# Indices 1 2 3 4 5 6 
#
# 1 0.009827 -0.001206 -0.001961 0.000000 0.001297 0.000000
# 2 -0.001206 0.012403 -0.002726 0.000000 0.000581 0.000000
# 3 -0.001961 -0.002726 0.005687 0.000000 -0.001367 0.000000
# 4 0.000000 0.000000 0.000000 0.019886 0.000000 0.001764
# 5 0.001297 0.000581 -0.001367 0.000000 0.029215 0.000000
# 6 0.000000 0.000000 0.000000 0.001764 0.000000 0.029886
#
#
# Mechanical properties :
#
#
# Convention : Reuss Voigt Hill
#
# Bulk Modulus (GPa) = 62.00036 75.33107 68.66571
# Shear Modulus (GPa) = 40.30086 44.08983 42.19535
#
# Velocity S-wave (km/s) = 3.98611 4.16928 4.07872
# Velocity P-wave (km/s) = 6.75498 7.27168 7.01809
#
# Compressibility (1/GPa) = 0.01612894
#
# Stress axis : x y z
#
# Youngs Moduli (GPa) = 101.76329 80.62702 175.83911
#
# Poissons Ratio (x) = 0.09725 0.34486
# Poissons Ratio (y) = 0.12274 0.47941
# Poissons Ratio (z) = 0.19958 0.21982
#
# Static dielectric constant tensor:
#      x y z
#    x 3.284110 0.000000 1.047250 
#    y 0.000000 4.807360 0.000000 
#    z 1.047250 0.000000 3.800190 
# 
# 
# High freq. dielectric constant tensor:
#      x y z
#    x 2.008250 0.000000 0.009920 
#    y 0.000000 2.003880 0.000000 
#    z 0.009920 0.000000 2.046410 
# 
# From -- ./inp_files/72707.got.cif
#   From: 2010.06.25/outbox.cif.g09.slc.cpg/sg15_37_cif.got.tgz:72707.got - 2010.06.28 07:06:18.
