data_PCOD8150044
_publ_section_title
;
Structure prediction by ZEFSAII (Michael W. Deem and Ramdas Pophale) SiO2 
 PCOD8150044
Probable space group: C 2/C
;
_chemical_formula_sum "Si O2"
_cell_formula_units_Z 56
_cell_length_a 14.330923
_cell_length_b 27.657302
_cell_length_c 5.677546
_cell_angle_alpha 90.000000
_cell_angle_beta 93.306976
_cell_angle_gamma 90.000000
_cell_volume 2246.574610
_symmetry_space_group_name_H-M "C 2/C"
_symmetry_group_IT_number 15
_symmetry_cell_setting 'monoclinic'
loop_
_space_group_symop_operation_xyz
x,y,z
-x,y,1/2-z
-x,-y,-z
x,-y,1/2+z
1/2+x,1/2+y,z
1/2-x,1/2+y,1/2-z
1/2-x,1/2-y,-z
1/2+x,1/2-y,1/2+z
loop_
_atom_site_type_symbol
_atom_site_label
_atom_site_fract_x
_atom_site_fract_y
_atom_site_fract_z
Si Si1 0.103886 0.109460 0.316701
Si Si2 0.821019 0.020897 0.945696
Si Si3 0.679418 0.785231 0.621127
Si Si4 0.101715 0.371511 0.315793
Si Si5 0.741742 0.649293 0.986988
Si Si6 0.408257 0.691884 0.862416
Si Si7 0.897956 0.520945 0.590862
O O1 0.151427 0.077725 0.533089
O O2 0.094352 0.166255 0.383098
O O3 0.000000 0.088697 0.250000
O O4 0.176637 0.109458 0.109149
O O5 0.711628 0.009768 0.919253
O O6 0.863100 0.001095 0.701630
O O7 0.750000 0.750000 0.500000
O O8 0.655123 0.834050 0.485150
O O9 0.588606 0.750484 0.636755
O O10 0.724578 0.803428 0.867676
O O11 0.166227 0.379290 0.092994
O O12 0.086751 0.422130 0.446715
O O13 0.000000 0.349359 0.250000
O O14 0.685489 0.673460 0.770156
O O15 0.500000 0.671496 0.750000
O O16 0.940372 0.493847 0.360922
#
# Coordination Sequence:
#
# PCOD8150044 Si02
#       7
#     8   8   8   8   8   8   8
#     4  12  26  44  72 106 145 192 253 307 379 461
#     4  10  24  43  74 108 150 199 249 316 392 463
#     4  12  26  46  72 107 150 200 253 310 388 453
#     4  12  30  48  75 113 152 199 258 322 388 459
#     4  12  25  47  72 101 152 197 244 316 373 453
#     4  12  26  44  73 107 145 197 251 309 378 459
#     4  10  24  49  81 112 151 203 258 321 395 466
#
# _framework density 24.926839000000001
#
# number of rings (size 3 to 8) (size 9 to 14) (size 15 to 20)
#    0.000    0.571    4.286    2.143   12.000    1.714 
#    0.000    0.000    0.000    0.000    0.000    0.000 
#    0.000    0.000    0.000    0.000    0.000    0.000 
#
# Total GULP energy -347085.084750 kJ/mol
# GULP energy per Si atom -12395.895884 kJ/mol
# Density = 2.487010 g / cm^3
# Si number density = 24.926839 Si / 1000 Ang^3
#
#
#
# Elastic Constant Matrix: (Units=GPa)
#
#
# Indices 1 2 3 4 5 6 
#
# 1 126.8679 23.2032 58.0994 0.0000 -18.2255 0.0000
# 2 23.2032 133.7785 49.0611 0.0000 2.0400 0.0000
# 3 58.0994 49.0611 119.7089 0.0000 4.5077 0.0000
# 4 0.0000 0.0000 0.0000 41.4836 0.0000 -0.7648
# 5 -18.2255 2.0400 4.5077 0.0000 33.7919 0.0000
# 6 0.0000 0.0000 0.0000 -0.7648 0.0000 29.8073
#
#
#
# Elastic Compliance Matrix: (Units=1/GPa)
#
#
# Indices 1 2 3 4 5 6 
#
# 1 0.011591 0.000050 -0.005911 0.000000 0.007037 0.000000
# 2 0.000050 0.008798 -0.003629 0.000000 -0.000020 0.000000
# 3 -0.005911 -0.003629 0.012886 0.000000 -0.004688 0.000000
# 4 0.000000 0.000000 0.000000 0.024117 0.000000 0.000619
# 5 0.007037 -0.000020 -0.004688 0.000000 0.034015 0.000000
# 6 0.000000 0.000000 0.000000 0.000619 0.000000 0.033565
#
#
# Mechanical properties :
#
#
# Convention : Reuss Voigt Hill
#
# Bulk Modulus (GPa) = 69.95608 71.23142 70.59375
# Shear Modulus (GPa) = 33.62093 37.68266 35.65180
#
# Velocity S-wave (km/s) = 3.67656 3.89232 3.78598
# Velocity P-wave (km/s) = 6.79326 6.98845 6.89154
#
# Compressibility (1/GPa) = 0.01429468
#
# Stress axis : x y z
#
# Youngs Moduli (GPa) = 86.27424 113.66756 77.60156
#
# Poissons Ratio (x) = -0.00569 0.45871
# Poissons Ratio (y) = -0.00432 0.28163
# Poissons Ratio (z) = 0.50997 0.41251
#
# Static dielectric constant tensor:
#      x y z
#    x 5.305670 0.000000 -0.107250 
#    y 0.000000 5.059730 0.000000 
#    z -0.107250 0.000000 4.721600 
# 
# 
# High freq. dielectric constant tensor:
#      x y z
#    x 2.012060 0.000000 -0.000490 
#    y 0.000000 1.991780 0.000000 
#    z -0.000490 0.000000 1.993870 
# 
# From -- ./inp_files/9071.got.cif
#   From: 2010.06.25/outbox.cif.g09.slc.cpg/sg15_5_cif.got.tgz:9071.got - 2010.06.28 07:06:18.
