data_PCOD8150596
_publ_section_title
;
Structure prediction by ZEFSAII (Michael W. Deem and Ramdas Pophale) SiO2 
 PCOD8150596
Probable space group: C 2/C
;
_chemical_formula_sum "Si O2"
_cell_formula_units_Z 40
_cell_length_a 6.110977
_cell_length_b 14.149371
_cell_length_c 25.283199
_cell_angle_alpha 90.000000
_cell_angle_beta 127.283161
_cell_angle_gamma 90.000000
_cell_volume 1739.413018
_symmetry_space_group_name_H-M "C 2/C"
_symmetry_group_IT_number 15
_symmetry_cell_setting 'monoclinic'
loop_
_space_group_symop_operation_xyz
x,y,z
-x,y,1/2-z
-x,-y,-z
x,-y,1/2+z
1/2+x,1/2+y,z
1/2-x,1/2+y,1/2-z
1/2-x,1/2-y,-z
1/2+x,1/2-y,1/2+z
loop_
_atom_site_type_symbol
_atom_site_label
_atom_site_fract_x
_atom_site_fract_y
_atom_site_fract_z
Si Si1 0.262752 0.126383 0.855348
Si Si2 0.189629 0.030511 0.575524
Si Si3 0.301424 0.476955 0.809634
Si Si4 0.436701 0.720454 0.575772
Si Si5 0.492546 0.274050 0.809109
O O1 0.507493 0.051609 0.902268
O O2 0.250667 0.205250 0.900018
O O3 0.317209 0.190778 0.811739
O O4 0.995543 0.059230 0.813658
O O5 0.072985 0.122430 0.584446
O O6 0.183348 0.958598 0.624329
O O7 0.000000 0.000000 0.500000
O O8 0.350195 0.375637 0.790491
O O9 0.000000 0.512679 0.750000
O O10 0.250000 0.750000 0.500000
O O11 0.695039 0.790238 0.623197
O O12 0.500000 0.239638 0.750000
#
# Coordination Sequence:
#
# PCOD8150596 Si02
#       5
#     8   8   8   8   8
#     4  10  26  49  70  98 152 180 236 316 344 440
#     4  10  25  43  72 106 139 190 235 294 366 432
#     4  11  28  47  72 108 139 195 244 297 370 436
#     4  10  25  43  72 106 139 190 235 294 366 432
#     4  11  28  47  72 108 139 195 244 297 370 436
#
# _framework density 22.996265000000001
#
# number of rings (size 3 to 8) (size 9 to 14) (size 15 to 20)
#    0.000    1.600    0.000    0.000   14.000   12.000 
#    0.000    0.000    0.000    0.000    0.000    0.000 
#    0.000    0.000    0.000    0.000    0.000    0.000 
#
# Total GULP energy -247920.052183 kJ/mol
# GULP energy per Si atom -12396.002609 kJ/mol
# Density = 2.294392 g / cm^3
# Si number density = 22.996265 Si / 1000 Ang^3
#
#
#
# Elastic Constant Matrix: (Units=GPa)
#
#
# Indices 1 2 3 4 5 6 
#
# 1 164.2364 60.7871 78.4554 -0.0002 -2.7121 0.0000
# 2 60.7871 93.2046 42.8173 -0.0004 10.2815 0.0001
# 3 78.4554 42.8173 161.0659 -0.0004 -4.0522 0.0000
# 4 -0.0002 -0.0004 -0.0004 3.5149 0.0003 8.8406
# 5 -2.7121 10.2815 -4.0522 0.0003 28.7177 -0.0001
# 6 0.0000 0.0001 0.0000 8.8406 -0.0001 32.1540
#
#
#
# Elastic Compliance Matrix: (Units=1/GPa)
#
#
# Indices 1 2 3 4 5 6 
#
# 1 0.009517 -0.004951 -0.003264 -0.000002 0.002211 0.000001
# 2 -0.004951 0.015510 -0.001870 0.000006 -0.006284 -0.000002
# 3 -0.003264 -0.001870 0.008334 0.000001 0.001537 0.000000
# 4 -0.000002 0.000006 0.000001 0.922323 -0.000011 -0.253589
# 5 0.002211 -0.006284 0.001537 -0.000011 0.037497 0.000003
# 6 0.000001 -0.000002 0.000000 -0.253589 0.000003 0.100824
#
#
# Mechanical properties :
#
#
# Convention : Reuss Voigt Hill
#
# Bulk Modulus (GPa) = 75.80354 86.95850 81.38102
# Shear Modulus (GPa) = 4.46998 28.64046 16.55522
#
# Velocity S-wave (km/s) = 1.39571 3.53291 2.68602
# Velocity P-wave (km/s) = 5.96928 7.38500 6.71456
#
# Compressibility (1/GPa) = 0.01319200
#
# Stress axis : x y z
#
# Youngs Moduli (GPa) = 105.07444 64.47275 119.98841
#
# Poissons Ratio (x) = 0.31923 0.39163
# Poissons Ratio (y) = 0.52027 0.22432
# Poissons Ratio (z) = 0.34295 0.12053
#
# Static dielectric constant tensor:
#      x y z
#    x 5.851210 0.000000 0.170900 
#    y 0.000000 5.772900 0.000000 
#    z 0.170900 0.000000 3.778670 
# 
# 
# High freq. dielectric constant tensor:
#      x y z
#    x 1.930100 0.000000 0.000610 
#    y 0.000000 1.906860 0.000000 
#    z 0.000610 0.000000 1.913360 
# 
# From -- ./inp_files/305275.got.cif
#   From: 2010.06.25/outbox.cif.g09.slc.cpg/sg15_153_cif.got.tgz:305275.got - 2010.06.28 07:06:18.
