data_PCOD8150637
_publ_section_title
;
Structure prediction by ZEFSAII (Michael W. Deem and Ramdas Pophale) SiO2 
 PCOD8150637
Probable space group: C 2/C
;
_chemical_formula_sum "Si O2"
_cell_formula_units_Z 40
_cell_length_a 8.033640
_cell_length_b 12.564061
_cell_length_c 18.175010
_cell_angle_alpha 90.000000
_cell_angle_beta 92.117084
_cell_angle_gamma 90.000000
_cell_volume 1833.245048
_symmetry_space_group_name_H-M "C 2/C"
_symmetry_group_IT_number 15
_symmetry_cell_setting 'monoclinic'
loop_
_space_group_symop_operation_xyz
x,y,z
-x,y,1/2-z
-x,-y,-z
x,-y,1/2+z
1/2+x,1/2+y,z
1/2-x,1/2+y,1/2-z
1/2-x,1/2-y,-z
1/2+x,1/2-y,1/2+z
loop_
_atom_site_type_symbol
_atom_site_label
_atom_site_fract_x
_atom_site_fract_y
_atom_site_fract_z
Si Si1 0.851279 0.123459 0.385687
Si Si2 0.813545 0.897891 0.324130
Si Si3 0.813133 0.841946 0.160707
Si Si4 0.615662 0.235601 0.935849
Si Si5 0.857611 0.415561 0.478706
O O1 0.744588 0.221085 0.352771
O O2 0.784372 0.082810 0.462839
O O3 0.048759 0.155517 0.396676
O O4 0.834712 0.024840 0.330277
O O5 0.753930 0.876487 0.240485
O O6 0.674707 0.850141 0.376577
O O7 0.987826 0.840713 0.344291
O O8 0.732624 0.927359 0.102288
O O9 0.450659 0.197491 0.976545
O O10 0.750000 0.250000 0.000000
O O11 0.000000 0.500000 0.500000
#
# Coordination Sequence:
#
# PCOD8150637 Si02
#       5
#     8   8   8   8   8
#     4  11  24  45  66  97 137 171 223 281 327 395
#     4  11  24  45  66  98 133 181 215 277 344 392
#     4  10  25  45  63  98 138 166 231 271 329 414
#     4  11  23  40  70 100 131 175 228 269 334 400
#     4  11  22  42  67  96 130 173 220 276 329 392
#
# _framework density 21.819232
#
# number of rings (size 3 to 8) (size 9 to 14) (size 15 to 20)
#    0.000    1.200    2.000    4.800    2.800    8.000 
#    7.200    0.000    0.000    0.000    0.000    0.000 
#    0.000    0.000    0.000    0.000    0.000    0.000 
#
# Total GULP energy -247935.968882 kJ/mol
# GULP energy per Si atom -12396.798444 kJ/mol
# Density = 2.176957 g / cm^3
# Si number density = 21.819232 Si / 1000 Ang^3
#
#
#
# Elastic Constant Matrix: (Units=GPa)
#
#
# Indices 1 2 3 4 5 6 
#
# 1 89.4431 35.7467 40.1765 0.0000 16.2673 0.0000
# 2 35.7467 126.6883 57.9042 0.0000 10.6168 0.0000
# 3 40.1765 57.9042 143.9706 0.0000 25.2711 0.0000
# 4 0.0000 0.0000 0.0000 29.0873 0.0000 2.1948
# 5 16.2673 10.6168 25.2711 0.0000 37.8994 0.0000
# 6 0.0000 0.0000 0.0000 2.1948 0.0000 43.2233
#
#
#
# Elastic Compliance Matrix: (Units=1/GPa)
#
#
# Indices 1 2 3 4 5 6 
#
# 1 0.013883 -0.002613 -0.002158 0.000000 -0.003788 0.000000
# 2 -0.002613 0.010164 -0.003461 0.000000 0.000582 0.000000
# 3 -0.002158 -0.003461 0.009748 0.000000 -0.004604 0.000000
# 4 0.000000 0.000000 0.000000 0.034511 0.000000 -0.001752
# 5 -0.003788 0.000582 -0.004604 0.000000 0.030918 0.000000
# 6 0.000000 0.000000 0.000000 -0.001752 0.000000 0.023225
#
#
# Mechanical properties :
#
#
# Convention : Reuss Voigt Hill
#
# Bulk Modulus (GPa) = 57.70230 69.75075 63.72652
# Shear Modulus (GPa) = 34.55636 37.12697 35.84166
#
# Velocity S-wave (km/s) = 3.98396 4.12949 4.05738
# Velocity P-wave (km/s) = 6.90403 7.40093 7.15680
#
# Compressibility (1/GPa) = 0.01733033
#
# Stress axis : x y z
#
# Youngs Moduli (GPa) = 72.02990 98.38891 102.58313
#
# Poissons Ratio (x) = 0.25713 0.22140
# Poissons Ratio (y) = 0.18824 0.35501
# Poissons Ratio (z) = 0.15546 0.34049
#
# Static dielectric constant tensor:
#      x y z
#    x 4.303770 0.000000 0.372820 
#    y 0.000000 4.498500 0.000000 
#    z 0.372820 0.000000 4.990540 
# 
# 
# High freq. dielectric constant tensor:
#      x y z
#    x 1.869460 0.000000 0.005740 
#    y 0.000000 1.854280 0.000000 
#    z 0.005740 0.000000 1.863280 
# 
# From -- ./inp_files/187891.got.cif
#   From: 2010.06.25/outbox.cif.g09.slc.cpg/sg15_94_cif.got.tgz:187891.got - 2010.06.28 07:06:18.
