data_PCOD8150723
_publ_section_title
;
Structure prediction by ZEFSAII (Michael W. Deem and Ramdas Pophale) SiO2 
 PCOD8150723
Probable space group: C 2/C
;
_chemical_formula_sum "Si O2"
_cell_formula_units_Z 52
_cell_length_a 18.698946
_cell_length_b 13.542980
_cell_length_c 14.221131
_cell_angle_alpha 90.000000
_cell_angle_beta 144.834918
_cell_angle_gamma 90.000000
_cell_volume 2074.141495
_symmetry_space_group_name_H-M "C 2/C"
_symmetry_group_IT_number 15
_symmetry_cell_setting 'monoclinic'
loop_
_space_group_symop_operation_xyz
x,y,z
-x,y,1/2-z
-x,-y,-z
x,-y,1/2+z
1/2+x,1/2+y,z
1/2-x,1/2+y,1/2-z
1/2-x,1/2-y,-z
1/2+x,1/2-y,1/2+z
loop_
_atom_site_type_symbol
_atom_site_label
_atom_site_fract_x
_atom_site_fract_y
_atom_site_fract_z
Si Si1 0.871200 0.725323 0.294496
Si Si2 0.762717 0.149797 0.956938
Si Si3 0.320056 0.581229 0.326588
Si Si4 0.153586 0.485326 0.486678
Si Si5 0.467725 0.098015 0.905120
Si Si6 0.000000 0.660081 0.250000
Si Si7 0.565853 0.383919 0.009967
O O1 0.746523 0.658350 0.172696
O O2 0.856409 0.837463 0.316662
O O3 0.975929 0.689535 0.479628
O O4 0.926227 0.725359 0.247761
O O5 0.746960 0.056359 0.008744
O O6 0.673480 0.126842 0.770967
O O7 0.896545 0.161046 0.050880
O O8 0.750000 0.250000 0.000000
O O9 0.402954 0.500452 0.469783
O O10 0.418198 0.636591 0.363812
O O11 0.218178 0.521320 0.158003
O O12 0.108958 0.596241 0.416031
O O13 0.028916 0.419157 0.367006
O O14 0.500000 0.000000 0.000000
#
# Coordination Sequence:
#
# PCOD8150723 Si02
#       7
#     8   8   8   8   8   4   8
#     4  11  25  43  74 103 133 184 243 298 346 432
#     4  12  24  39  66 108 144 174 237 313 356 429
#     4  10  25  48  69  98 142 198 230 284 372 447
#     4  11  21  40  67 104 135 174 235 298 356 413
#     4  11  20  40  69 100 141 184 229 294 374 425
#     4  12  22  42  72 112 128 174 252 302 342 410
#     4  11  26  47  69  96 150 195 233 279 378 442
#
# _framework density 25.070613999999999
#
# number of rings (size 3 to 8) (size 9 to 14) (size 15 to 20)
#    0.000    0.923    3.077    4.615    4.308    0.615 
#    0.000    6.154    0.000    0.000    0.000    0.000 
#    0.000    0.000    0.000    0.000    0.000    0.000 
#
# Total GULP energy -322096.269498 kJ/mol
# GULP energy per Si atom -12388.318058 kJ/mol
# Density = 2.501355 g / cm^3
# Si number density = 25.070614 Si / 1000 Ang^3
#
#
#
# Elastic Constant Matrix: (Units=GPa)
#
#
# Indices 1 2 3 4 5 6 
#
# 1 210.2500 32.3103 18.7917 0.0000 13.9899 0.0000
# 2 32.3103 78.5188 8.4819 0.0000 8.1348 0.0000
# 3 18.7917 8.4819 49.2442 0.0000 7.5717 0.0000
# 4 0.0000 0.0000 0.0000 33.4341 0.0000 -9.7996
# 5 13.9899 8.1348 7.5717 0.0000 31.5050 0.0000
# 6 0.0000 0.0000 0.0000 -9.7996 0.0000 38.4890
#
#
#
# Elastic Compliance Matrix: (Units=1/GPa)
#
#
# Indices 1 2 3 4 5 6 
#
# 1 0.005272 -0.001855 -0.001460 0.000000 -0.001511 0.000000
# 2 -0.001855 0.013894 -0.001309 0.000000 -0.002449 0.000000
# 3 -0.001460 -0.001309 0.021741 0.000000 -0.004239 0.000000
# 4 0.000000 0.000000 0.000000 0.032322 0.000000 0.008229
# 5 -0.001511 -0.002449 -0.004239 0.000000 0.034063 0.000000
# 6 0.000000 0.000000 0.000000 0.008229 0.000000 0.028077
#
#
# Mechanical properties :
#
#
# Convention : Reuss Voigt Hill
#
# Bulk Modulus (GPa) = 31.58537 50.79784 41.19160
# Shear Modulus (GPa) = 32.22252 39.24754 35.73503
#
# Velocity S-wave (km/s) = 3.58896 3.96091 3.77951
# Velocity P-wave (km/s) = 5.45894 6.42061 5.95921
#
# Compressibility (1/GPa) = 0.03166023
#
# Stress axis : x y z
#
# Youngs Moduli (GPa) = 189.66656 71.97159 45.99544
#
# Poissons Ratio (x) = 0.13353 0.06715
# Poissons Ratio (y) = 0.35189 0.06019
# Poissons Ratio (z) = 0.27692 0.09418
#
# Static dielectric constant tensor:
#      x y z
#    x 4.993370 0.000000 0.326390 
#    y 0.000000 4.945020 0.000000 
#    z 0.326390 0.000000 4.370200 
# 
# 
# High freq. dielectric constant tensor:
#      x y z
#    x 2.022900 0.000000 0.014280 
#    y 0.000000 1.987750 0.000000 
#    z 0.014280 0.000000 1.973550 
# 
# From -- ./inp_files/162630.got.cif
#   From: 2010.06.25/outbox.cif.g09.slc.cpg/sg15_82_cif.got.tgz:162630.got - 2010.06.28 07:06:18.
