data_PCOD8150364
_publ_section_title
;
Structure prediction by ZEFSAII (Michael W. Deem and Ramdas Pophale) SiO2 
 PCOD8150364
Probable space group: C 2/C
;
_chemical_formula_sum "Si O2"
_cell_formula_units_Z 44
_cell_length_a 17.007586
_cell_length_b 7.311907
_cell_length_c 16.939199
_cell_angle_alpha 90.000000
_cell_angle_beta 72.587703
_cell_angle_gamma 90.000000
_cell_volume 2009.993952
_symmetry_space_group_name_H-M "C 2/C"
_symmetry_group_IT_number 15
_symmetry_cell_setting 'monoclinic'
loop_
_space_group_symop_operation_xyz
x,y,z
-x,y,1/2-z
-x,-y,-z
x,-y,1/2+z
1/2+x,1/2+y,z
1/2-x,1/2+y,1/2-z
1/2-x,1/2-y,-z
1/2+x,1/2-y,1/2+z
loop_
_atom_site_type_symbol
_atom_site_label
_atom_site_fract_x
_atom_site_fract_y
_atom_site_fract_z
Si Si1 0.500000 0.399669 0.750000
Si Si2 0.670248 0.870122 0.504714
Si Si3 0.865206 0.265097 0.398013
Si Si4 0.277657 0.091439 0.156929
Si Si5 0.094381 0.975153 0.985587
Si Si6 0.144240 0.072206 0.805148
O O1 0.549963 0.268565 0.675169
O O2 0.563475 0.531377 0.777008
O O3 0.750000 0.750000 0.500000
O O4 0.598166 0.720071 0.528025
O O5 0.645322 0.023081 0.575733
O O6 0.677600 0.954492 0.415740
O O7 0.786072 0.220483 0.369929
O O8 0.864451 0.137272 0.475783
O O9 0.349056 0.211670 0.177320
O O10 0.229051 0.978095 0.237043
O O11 0.140940 0.961932 0.888150
O O12 0.000000 0.000000 0.000000
#
# Coordination Sequence:
#
# PCOD8150364 Si02
#       6
#     4   8   8   8   8   8
#     4  10  24  46  70  98 146 182 226 292 344 408
#     4  12  24  42  74 103 134 185 229 282 349 404
#     4  11  23  46  72 104 138 181 231 287 341 414
#     4  11  23  44  71 104 139 177 235 289 338 419
#     4  12  24  44  70 102 140 179 228 286 344 414
#     4  11  23  43  70 100 141 182 227 287 347 403
#
# _framework density 21.890612999999998
#
# number of rings (size 3 to 8) (size 9 to 14) (size 15 to 20)
#    0.000    0.727    5.455    2.727    0.000    0.727 
#    0.000    2.727    0.000    0.000    0.000    0.000 
#    0.000    0.000    0.000    0.000    0.000    0.000 
#
# Total GULP energy -272805.446839 kJ/mol
# GULP energy per Si atom -12400.247584 kJ/mol
# Density = 2.184079 g / cm^3
# Si number density = 21.890613 Si / 1000 Ang^3
#
#
#
# Elastic Constant Matrix: (Units=GPa)
#
#
# Indices 1 2 3 4 5 6 
#
# 1 96.6070 63.2654 32.1628 0.0000 -1.8603 0.0000
# 2 63.2654 161.1168 38.5478 0.0001 8.9178 0.0001
# 3 32.1628 38.5478 109.1401 0.0000 4.5473 0.0000
# 4 0.0000 0.0001 0.0000 37.5786 0.0000 8.7057
# 5 -1.8603 8.9178 4.5473 0.0000 29.6026 0.0000
# 6 0.0000 0.0001 0.0000 8.7057 0.0000 38.9537
#
#
#
# Elastic Compliance Matrix: (Units=1/GPa)
#
#
# Indices 1 2 3 4 5 6 
#
# 1 0.014768 -0.005342 -0.002587 0.000000 0.002935 0.000000
# 2 -0.005342 0.008797 -0.001417 0.000000 -0.002768 0.000000
# 3 -0.002587 -0.001417 0.010482 0.000000 -0.001346 0.000000
# 4 0.000000 0.000000 0.000000 0.028064 0.000000 -0.006272
# 5 0.002935 -0.002768 -0.001346 0.000000 0.035006 0.000000
# 6 0.000000 0.000000 0.000000 -0.006272 0.000000 0.027073
#
#
# Mechanical properties :
#
#
# Convention : Reuss Voigt Hill
#
# Bulk Modulus (GPa) = 65.13699 70.53508 67.83604
# Shear Modulus (GPa) = 33.78381 36.75284 35.26833
#
# Velocity S-wave (km/s) = 3.93275 4.10192 4.01823
# Velocity P-wave (km/s) = 7.10227 7.39770 7.25149
#
# Compressibility (1/GPa) = 0.01535226
#
# Stress axis : x y z
#
# Youngs Moduli (GPa) = 67.71600 113.67925 95.40467
#
# Poissons Ratio (x) = 0.60729 0.24684
# Poissons Ratio (y) = 0.36175 0.13522
# Poissons Ratio (z) = 0.17520 0.16112
#
# Static dielectric constant tensor:
#      x y z
#    x 3.999210 0.000000 0.277390 
#    y 0.000000 3.808910 0.000000 
#    z 0.277390 0.000000 5.011400 
# 
# 
# High freq. dielectric constant tensor:
#      x y z
#    x 1.858950 0.000000 0.002160 
#    y 0.000000 1.860840 0.000000 
#    z 0.002160 0.000000 1.877490 
# 
# From -- ./inp_files/212859.got.cif
#   From: 2010.06.25/outbox.cif.g09.slc.cpg/sg15_107_cif.got.tgz:212859.got - 2010.06.28 07:06:18.
