data_PCOD8150918
_publ_section_title
;
Structure prediction by ZEFSAII (Michael W. Deem and Ramdas Pophale) SiO2 
 PCOD8150918
Probable space group: C 2/C
;
_chemical_formula_sum "Si O2"
_cell_formula_units_Z 52
_cell_length_a 26.213083
_cell_length_b 8.620521
_cell_length_c 11.058903
_cell_angle_alpha 90.000000
_cell_angle_beta 110.310235
_cell_angle_gamma 90.000000
_cell_volume 2343.615556
_symmetry_space_group_name_H-M "C 2/C"
_symmetry_group_IT_number 15
_symmetry_cell_setting 'monoclinic'
loop_
_space_group_symop_operation_xyz
x,y,z
-x,y,1/2-z
-x,-y,-z
x,-y,1/2+z
1/2+x,1/2+y,z
1/2-x,1/2+y,1/2-z
1/2-x,1/2-y,-z
1/2+x,1/2-y,1/2+z
loop_
_atom_site_type_symbol
_atom_site_label
_atom_site_fract_x
_atom_site_fract_y
_atom_site_fract_z
Si Si1 0.200024 0.195023 0.185552
Si Si2 0.089046 0.333891 0.735184
Si Si3 0.264323 0.451927 0.112777
Si Si4 0.375757 0.422274 0.073887
Si Si5 0.088112 0.743927 0.960889
Si Si6 0.500000 0.061180 0.750000
Si Si7 0.174022 0.574033 0.875933
O O1 0.236557 0.287744 0.119085
O O2 0.178641 0.297630 0.277395
O O3 0.237498 0.055726 0.266824
O O4 0.146556 0.131806 0.074417
O O5 0.083119 0.204827 0.836086
O O6 0.088084 0.251334 0.605241
O O7 0.040173 0.455824 0.704063
O O8 0.146439 0.421181 0.798724
O O9 0.326789 0.436938 0.128811
O O10 0.233368 0.533858 0.976477
O O11 0.407937 0.582009 0.086148
O O12 0.032047 0.670292 0.869139
O O13 0.138640 0.640840 0.957579
#
# Coordination Sequence:
#
# PCOD8150918 Si02
#       7
#     8   8   8   8   8   4   8
#     4  12  25  40  66  97 148 188 235 277 332 404
#     4  11  25  47  76 101 137 179 229 294 350 419
#     4  12  25  42  62 105 146 193 231 278 332 404
#     4  12  26  44  66 108 141 184 232 284 345 407
#     4  11  25  47  74 102 138 176 230 296 351 412
#     4  10  26  52  76 108 126 172 236 284 372 428
#     4  11  24  43  68  99 142 188 240 273 339 404
#
# _framework density 22.187940000000001
#
# number of rings (size 3 to 8) (size 9 to 14) (size 15 to 20)
#    0.000    0.615    3.077    4.154    8.615    0.615 
#    0.000    1.538    0.000    0.000    0.000    0.000 
#    0.000    0.000    0.000    0.000    0.000    0.000 
#
# Total GULP energy -322630.755800 kJ/mol
# GULP energy per Si atom -12408.875223 kJ/mol
# Density = 2.213744 g / cm^3
# Si number density = 22.187940 Si / 1000 Ang^3
#
#
#
# Elastic Constant Matrix: (Units=GPa)
#
#
# Indices 1 2 3 4 5 6 
#
# 1 65.8632 26.4683 31.2672 0.0000 7.8994 0.0000
# 2 26.4683 120.0105 45.0140 0.0000 17.8548 0.0000
# 3 31.2672 45.0140 122.1481 0.0000 5.1647 0.0000
# 4 0.0000 0.0000 0.0000 41.5374 0.0000 -2.5159
# 5 7.8994 17.8548 5.1647 0.0000 26.2648 0.0000
# 6 0.0000 0.0000 0.0000 -2.5159 0.0000 41.1008
#
#
#
# Elastic Compliance Matrix: (Units=1/GPa)
#
#
# Indices 1 2 3 4 5 6 
#
# 1 0.018206 -0.002122 -0.003739 0.000000 -0.003298 0.000000
# 2 -0.002122 0.010925 -0.003223 0.000000 -0.006155 0.000000
# 3 -0.003739 -0.003223 0.010277 0.000000 0.001294 0.000000
# 4 0.000000 0.000000 0.000000 0.024164 0.000000 0.001479
# 5 -0.003298 -0.006155 0.001294 0.000000 0.042995 0.000000
# 6 0.000000 0.000000 0.000000 0.001479 0.000000 0.024421
#
#
# Mechanical properties :
#
#
# Convention : Reuss Voigt Hill
#
# Bulk Modulus (GPa) = 47.07980 57.05786 52.06883
# Shear Modulus (GPa) = 32.00277 35.46542 33.73409
#
# Velocity S-wave (km/s) = 3.80195 4.00235 3.90343
# Velocity P-wave (km/s) = 6.36693 6.86512 6.62071
#
# Compressibility (1/GPa) = 0.02124053
#
# Stress axis : x y z
#
# Youngs Moduli (GPa) = 54.92581 91.53185 97.30747
#
# Poissons Ratio (x) = 0.19427 0.36382
# Poissons Ratio (y) = 0.11658 0.31358
# Poissons Ratio (z) = 0.20536 0.29497
#
# Static dielectric constant tensor:
#      x y z
#    x 3.739120 0.000000 0.032990 
#    y 0.000000 4.258640 0.000000 
#    z 0.032990 0.000000 4.052280 
# 
# 
# High freq. dielectric constant tensor:
#      x y z
#    x 1.854920 0.000000 -0.006670 
#    y 0.000000 1.891170 0.000000 
#    z -0.006670 0.000000 1.887510 
# 
# From -- ./inp_files/121432.got.cif
#   From: 2010.06.25/outbox.cif.g09.slc.cpg/sg15_61_cif.got.tgz:121432.got - 2010.06.28 07:06:18.
