data_PCOD8150982
_publ_section_title
;
Structure prediction by ZEFSAII (Michael W. Deem and Ramdas Pophale) SiO2 
 PCOD8150982
Probable space group: C 2/C
;
_chemical_formula_sum "Si O2"
_cell_formula_units_Z 64
_cell_length_a 29.895209
_cell_length_b 12.724184
_cell_length_c 9.766329
_cell_angle_alpha 90.000000
_cell_angle_beta 82.444183
_cell_angle_gamma 90.000000
_cell_volume 3682.778009
_symmetry_space_group_name_H-M "C 2/C"
_symmetry_group_IT_number 15
_symmetry_cell_setting 'monoclinic'
loop_
_space_group_symop_operation_xyz
x,y,z
-x,y,1/2-z
-x,-y,-z
x,-y,1/2+z
1/2+x,1/2+y,z
1/2-x,1/2+y,1/2-z
1/2-x,1/2-y,-z
1/2+x,1/2-y,1/2+z
loop_
_atom_site_type_symbol
_atom_site_label
_atom_site_fract_x
_atom_site_fract_y
_atom_site_fract_z
Si Si1 0.725644 0.903476 0.816348
Si Si2 0.314032 0.685441 0.704276
Si Si3 0.365368 0.621419 0.947959
Si Si4 0.476807 0.622372 0.386549
Si Si5 0.779181 0.398492 0.356224
Si Si6 0.321862 0.686135 0.237010
Si Si7 0.034233 0.117111 0.627625
Si Si8 0.621465 0.620181 0.043142
O O1 0.700407 0.804306 0.759863
O O2 0.778914 0.890359 0.768123
O O3 0.705913 0.000807 0.738182
O O4 0.715755 0.916367 0.982633
O O5 0.332110 0.627945 0.832134
O O6 0.272807 0.621428 0.656725
O O7 0.351919 0.690831 0.574195
O O8 0.415265 0.666680 0.888415
O O9 0.372316 0.502451 0.998068
O O10 0.340983 0.689617 0.075241
O O11 0.500000 0.683041 0.250000
O O12 0.514175 0.629894 0.486341
O O13 0.463015 0.506055 0.338809
O O14 0.428928 0.667877 0.452785
O O15 0.809960 0.302334 0.294416
O O16 0.362097 0.638218 0.309783
O O17 0.000000 0.172224 0.750000
#
# Coordination Sequence:
#
# PCOD8150982 Si02
#       8
#     8   8   8   8   8   8   8   8
#     4  11  23  39  57  74 105 140 173 219 270 304
#     4  11  22  36  52  78 106 137 183 214 256 308
#     4  11  22  30  53  80 106 147 179 211 252 311
#     4   9  17  27  47  68 100 140 174 205 252 308
#     4  11  23  39  57  74 105 140 172 221 267 305
#     4  11  22  36  52  78 110 133 183 222 247 309
#     4   9  17  31  43  70 106 138 174 208 249 302
#     4  11  18  34  51  74 108 147 175 214 258 302
#
# _framework density 17.378184999999998
#
# number of rings (size 3 to 8) (size 9 to 14) (size 15 to 20)
#    0.000    1.500    2.500    4.500    3.500    5.000 
#    0.000    0.000    0.000    0.000    0.000    0.000 
#    0.000   20.000    0.000    0.000    0.000    0.000 
#
# Total GULP energy -396714.230226 kJ/mol
# GULP energy per Si atom -12397.319695 kJ/mol
# Density = 1.733863 g / cm^3
# Si number density = 17.378185 Si / 1000 Ang^3
#
#
#
# Elastic Constant Matrix: (Units=GPa)
#
#
# Indices 1 2 3 4 5 6 
#
# 1 79.8705 10.4365 19.1487 0.0000 -10.0726 0.0000
# 2 10.4365 52.9992 9.6180 0.0000 -1.9290 0.0000
# 3 19.1487 9.6180 88.5892 0.0000 -12.9559 0.0000
# 4 0.0000 0.0000 0.0000 23.7413 0.0000 1.1459
# 5 -10.0726 -1.9290 -12.9559 0.0000 26.3035 0.0000
# 6 0.0000 0.0000 0.0000 1.1459 0.0000 9.9465
#
#
#
# Elastic Compliance Matrix: (Units=1/GPa)
#
#
# Indices 1 2 3 4 5 6 
#
# 1 0.013837 -0.002185 -0.002158 0.000000 0.004076 0.000000
# 2 -0.002185 0.019597 -0.001689 0.000000 -0.000232 0.000000
# 3 -0.002158 -0.001689 0.012715 0.000000 0.005313 0.000000
# 4 0.000000 0.000000 0.000000 0.042356 0.000000 -0.004880
# 5 0.004076 -0.000232 0.005313 0.000000 0.042178 0.000000
# 6 0.000000 0.000000 0.000000 -0.004880 0.000000 0.101100
#
#
# Mechanical properties :
#
#
# Convention : Reuss Voigt Hill
#
# Bulk Modulus (GPa) = 29.33839 33.31838 31.32838
# Shear Modulus (GPa) = 19.59185 24.14864 21.87025
#
# Velocity S-wave (km/s) = 3.36129 3.73177 3.55137
# Velocity P-wave (km/s) = 5.65538 6.14673 5.90617
#
# Compressibility (1/GPa) = 0.03408504
#
# Stress axis : x y z
#
# Youngs Moduli (GPa) = 72.26979 51.02930 78.64863
#
# Poissons Ratio (x) = 0.11149 0.16969
# Poissons Ratio (y) = 0.15790 0.13285
# Poissons Ratio (z) = 0.15593 0.08620
#
# Static dielectric constant tensor:
#      x y z
#    x 3.421630 0.000000 -0.094130 
#    y 0.000000 2.919550 0.000000 
#    z -0.094130 0.000000 3.394870 
# 
# 
# High freq. dielectric constant tensor:
#      x y z
#    x 1.675180 0.000000 -0.004570 
#    y 0.000000 1.617170 0.000000 
#    z -0.004570 0.000000 1.690420 
# 
# From -- ./inp_files/69391.got.cif
#   From: 2010.06.25/outbox.cif.g09.slc.cpg/sg15_35_cif.got.tgz:69391.got - 2010.06.28 07:06:18.
