data_PCOD8150821
_publ_section_title
;
Structure prediction by ZEFSAII (Michael W. Deem and Ramdas Pophale) SiO2 
 PCOD8150821
Probable space group: C 2/C
;
_chemical_formula_sum "Si O2"
_cell_formula_units_Z 40
_cell_length_a 13.100134
_cell_length_b 16.957349
_cell_length_c 19.256224
_cell_angle_alpha 90.000000
_cell_angle_beta 155.393609
_cell_angle_gamma 90.000000
_cell_volume 1781.135629
_symmetry_space_group_name_H-M "C 2/C"
_symmetry_group_IT_number 15
_symmetry_cell_setting 'monoclinic'
loop_
_space_group_symop_operation_xyz
x,y,z
-x,y,1/2-z
-x,-y,-z
x,-y,1/2+z
1/2+x,1/2+y,z
1/2-x,1/2+y,1/2-z
1/2-x,1/2-y,-z
1/2+x,1/2-y,1/2+z
loop_
_atom_site_type_symbol
_atom_site_label
_atom_site_fract_x
_atom_site_fract_y
_atom_site_fract_z
Si Si1 0.880940 0.347278 0.342918
Si Si2 0.513812 0.534328 0.930557
Si Si3 0.869256 0.672362 0.103616
Si Si4 0.103248 0.894769 0.886079
Si Si5 0.356799 0.195622 0.355430
O O1 0.750388 0.433291 0.259544
O O2 0.678377 0.288384 0.184122
O O3 0.130982 0.354230 0.454030
O O4 0.948898 0.318168 0.462446
O O5 0.613739 0.463982 0.946741
O O6 0.500000 0.500000 0.000000
O O7 0.708993 0.602724 0.036780
O O8 0.000000 0.709754 0.250000
O O9 0.049750 0.643776 0.152863
O O10 0.750000 0.750000 0.000000
O O11 0.000000 0.929661 0.750000
O O12 0.917878 0.828150 0.796441
#
# Coordination Sequence:
#
# PCOD8150821 Si02
#       5
#     8   8   8   8   8
#     4  11  26  47  75 108 147 193 248 310 372 454
#     4  12  29  46  71 109 151 197 245 312 385 447
#     4  12  26  44  73 107 145 193 249 311 372 445
#     4  10  26  45  72 102 146 197 240 303 380 452
#     4  11  24  47  75 108 145 192 253 307 371 446
#
# _framework density 22.457583
#
# number of rings (size 3 to 8) (size 9 to 14) (size 15 to 20)
#    0.000    0.800    2.000    3.000   11.200    1.600 
#    0.000    0.000    0.000    0.000    0.000    0.000 
#    0.000    0.000    0.000    0.000    0.000    0.000 
#
# Total GULP energy -247839.859592 kJ/mol
# GULP energy per Si atom -12391.992980 kJ/mol
# Density = 2.240647 g / cm^3
# Si number density = 22.457583 Si / 1000 Ang^3
#
#
#
# Elastic Constant Matrix: (Units=GPa)
#
#
# Indices 1 2 3 4 5 6 
#
# 1 183.4532 57.3970 64.1882 -0.0294 -11.5115 -0.0094
# 2 57.3970 102.7512 41.7941 0.0480 -20.7262 0.0095
# 3 64.1882 41.7941 119.4240 -0.0005 -16.2360 -0.0176
# 4 -0.0294 0.0480 -0.0005 31.5940 -0.0399 -0.1998
# 5 -11.5115 -20.7262 -16.2360 -0.0399 41.2406 -0.0142
# 6 -0.0094 0.0095 -0.0176 -0.1998 -0.0142 46.2864
#
#
#
# Elastic Compliance Matrix: (Units=1/GPa)
#
#
# Indices 1 2 3 4 5 6 
#
# 1 0.007417 -0.003050 -0.003007 0.000011 -0.000647 0.000001
# 2 -0.003050 0.013401 -0.002378 -0.000017 0.004948 -0.000003
# 3 -0.003007 -0.002378 0.011142 0.000004 0.002352 0.000005
# 4 0.000011 -0.000017 0.000004 0.031653 0.000027 0.000137
# 5 -0.000647 0.004948 0.002352 0.000027 0.027480 0.000008
# 6 0.000001 -0.000003 0.000005 0.000137 0.000008 0.021605
#
#
# Mechanical properties :
#
#
# Convention : Reuss Voigt Hill
#
# Bulk Modulus (GPa) = 66.27045 81.37633 73.82339
# Shear Modulus (GPa) = 37.14780 39.97413 38.56096
#
# Velocity S-wave (km/s) = 4.07151 4.22356 4.14823
# Velocity P-wave (km/s) = 7.18862 7.75235 7.47580
#
# Compressibility (1/GPa) = 0.01508968
#
# Stress axis : x y z
#
# Youngs Moduli (GPa) = 134.82811 74.61897 89.75439
#
# Poissons Ratio (x) = 0.22762 0.26987
# Poissons Ratio (y) = 0.41129 0.21342
# Poissons Ratio (z) = 0.40540 0.17743
#
# Static dielectric constant tensor:
#      x y z
#    x 4.964240 -0.000420 0.269280 
#    y -0.000420 3.992600 0.000110 
#    z 0.269280 0.000110 4.130050 
# 
# 
# High freq. dielectric constant tensor:
#      x y z
#    x 1.910570 0.000000 0.010310 
#    y 0.000000 1.882090 -0.000010 
#    z 0.010310 -0.000010 1.893770 
# 
# From -- ./inp_files/199725.got.cif
#   From: 2010.06.25/outbox.cif.g09.slc.cpg/sg15_100_cif.got.tgz:199725.got - 2010.06.28 07:06:18.
