data_PCOD8150841
_publ_section_title
;
Structure prediction by ZEFSAII (Michael W. Deem and Ramdas Pophale) SiO2 
 PCOD8150841
Probable space group: C 2/C
;
_chemical_formula_sum "Si O2"
_cell_formula_units_Z 44
_cell_length_a 8.116021
_cell_length_b 22.808089
_cell_length_c 11.327743
_cell_angle_alpha 90.000000
_cell_angle_beta 63.506451
_cell_angle_gamma 90.000000
_cell_volume 1876.683380
_symmetry_space_group_name_H-M "C 2/C"
_symmetry_group_IT_number 15
_symmetry_cell_setting 'monoclinic'
loop_
_space_group_symop_operation_xyz
x,y,z
-x,y,1/2-z
-x,-y,-z
x,-y,1/2+z
1/2+x,1/2+y,z
1/2-x,1/2+y,1/2-z
1/2-x,1/2-y,-z
1/2+x,1/2-y,1/2+z
loop_
_atom_site_type_symbol
_atom_site_label
_atom_site_fract_x
_atom_site_fract_y
_atom_site_fract_z
Si Si1 0.179001 0.573059 0.758515
Si Si2 0.142874 0.047661 0.303702
Si Si3 0.000000 0.613667 0.250000
Si Si4 0.336441 0.842044 0.035593
Si Si5 0.987188 0.871228 0.031085
Si Si6 0.039946 0.759799 0.601119
O O1 0.328166 0.521648 0.725688
O O2 0.107380 0.601638 0.903068
O O3 0.280669 0.623406 0.648243
O O4 0.000000 0.548343 0.750000
O O5 0.345439 0.076013 0.231136
O O6 0.058022 0.065547 0.458590
O O7 0.000000 0.070017 0.250000
O O8 0.914769 0.654380 0.378276
O O9 0.114655 0.845901 0.095739
O O10 0.404252 0.781634 0.069861
O O11 0.000573 0.827143 0.916195
O O12 0.250000 0.750000 0.500000
O O13 0.000000 0.747781 0.750000
#
# Coordination Sequence:
#
# PCOD8150841 Si02
#       6
#     8   8   4   8   8   8
#     4  12  25  45  72 108 146 188 242 301 362 443
#     4  11  24  44  73 103 150 189 239 296 367 432
#     4  10  26  46  68 112 134 192 242 298 354 430
#     4  11  25  46  72 100 146 187 241 299 360 433
#     4  11  25  46  70 106 144 190 243 293 374 434
#     4  12  27  46  74 109 144 192 245 305 374 438
#
# _framework density 23.445618
#
# number of rings (size 3 to 8) (size 9 to 14) (size 15 to 20)
#    0.000    0.727    0.909    6.000   10.182    2.182 
#    3.273    0.000    0.000    0.000    0.000    0.000 
#    0.000    0.000    0.000    0.000    0.000    0.000 
#
# Total GULP energy -272796.053066 kJ/mol
# GULP energy per Si atom -12399.820594 kJ/mol
# Density = 2.339225 g / cm^3
# Si number density = 23.445618 Si / 1000 Ang^3
#
#
#
# Elastic Constant Matrix: (Units=GPa)
#
#
# Indices 1 2 3 4 5 6 
#
# 1 158.9539 24.1552 34.6102 0.0000 0.0936 0.0000
# 2 24.1552 104.1360 41.7140 0.0000 8.7879 0.0000
# 3 34.6102 41.7140 132.9877 0.0000 2.7407 0.0000
# 4 0.0000 0.0000 0.0000 26.2209 0.0000 0.0618
# 5 0.0936 8.7879 2.7407 0.0000 35.4118 0.0000
# 6 0.0000 0.0000 0.0000 0.0618 0.0000 29.9917
#
#
#
# Elastic Compliance Matrix: (Units=1/GPa)
#
#
# Indices 1 2 3 4 5 6 
#
# 1 0.006761 -0.001018 -0.001447 0.000000 0.000347 0.000000
# 2 -0.001018 0.011355 -0.003244 0.000000 -0.002564 0.000000
# 3 -0.001447 -0.003244 0.008911 0.000000 0.000119 0.000000
# 4 0.000000 0.000000 0.000000 0.038138 0.000000 -0.000079
# 5 0.000347 -0.002564 0.000119 0.000000 0.028865 0.000000
# 6 0.000000 0.000000 0.000000 -0.000079 0.000000 0.033343
#
#
# Mechanical properties :
#
#
# Convention : Reuss Voigt Hill
#
# Bulk Modulus (GPa) = 64.06702 66.33738 65.20220
# Shear Modulus (GPa) = 34.72382 38.03142 36.37762
#
# Velocity S-wave (km/s) = 3.85260 4.03191 3.94328
# Velocity P-wave (km/s) = 6.86842 7.07324 6.97158
#
# Compressibility (1/GPa) = 0.01560866
#
# Stress axis : x y z
#
# Youngs Moduli (GPa) = 147.91288 88.06932 112.21783
#
# Poissons Ratio (x) = 0.08963 0.16243
# Poissons Ratio (y) = 0.15053 0.36402
# Poissons Ratio (z) = 0.21409 0.28569
#
# Static dielectric constant tensor:
#      x y z
#    x 4.428650 0.000000 -0.029880 
#    y 0.000000 4.101520 0.000000 
#    z -0.029880 0.000000 4.026530 
# 
# 
# High freq. dielectric constant tensor:
#      x y z
#    x 1.945100 0.000000 -0.002160 
#    y 0.000000 1.922980 0.000000 
#    z -0.002160 0.000000 1.925280 
# 
# From -- ./inp_files/79675.got.cif
#   From: 2010.06.25/outbox.cif.g09.slc.cpg/sg15_40_cif.got.tgz:79675.got - 2010.06.28 07:06:18.
