data_PCOD8150299
_publ_section_title
;
Structure prediction by ZEFSAII (Michael W. Deem and Ramdas Pophale) SiO2 
 PCOD8150299
Probable space group: C 2/C
;
_chemical_formula_sum "Si O2"
_cell_formula_units_Z 44
_cell_length_a 17.200466
_cell_length_b 12.404710
_cell_length_c 9.598026
_cell_angle_alpha 90.000000
_cell_angle_beta 72.877440
_cell_angle_gamma 90.000000
_cell_volume 1957.131285
_symmetry_space_group_name_H-M "C 2/C"
_symmetry_group_IT_number 15
_symmetry_cell_setting 'monoclinic'
loop_
_space_group_symop_operation_xyz
x,y,z
-x,y,1/2-z
-x,-y,-z
x,-y,1/2+z
1/2+x,1/2+y,z
1/2-x,1/2+y,1/2-z
1/2-x,1/2-y,-z
1/2+x,1/2-y,1/2+z
loop_
_atom_site_type_symbol
_atom_site_label
_atom_site_fract_x
_atom_site_fract_y
_atom_site_fract_z
Si Si1 0.909798 0.104760 0.457358
Si Si2 0.210967 0.740646 0.874499
Si Si3 0.888959 0.538911 0.554431
Si Si4 0.000000 0.520931 0.250000
Si Si5 0.399714 0.579908 0.156328
Si Si6 0.816732 0.301055 0.568843
O O1 0.866258 0.078813 0.332241
O O2 0.897309 0.228602 0.506950
O O3 0.004007 0.082613 0.394619
O O4 0.868668 0.027308 0.594249
O O5 0.183869 0.617853 0.863944
O O6 0.131436 0.815065 0.906708
O O7 0.281391 0.784634 0.739093
O O8 0.250000 0.750000 0.000000
O O9 0.947759 0.543157 0.659843
O O10 0.847940 0.423655 0.536142
O O11 0.936269 0.582640 0.388037
O O12 0.750000 0.250000 0.500000
#
# Coordination Sequence:
#
# PCOD8150299 Si02
#       6
#     8   8   8   4   8   8
#     4  10  24  45  72  99 133 181 234 278 340 407
#     4  12  28  43  68 102 145 182 227 291 344 418
#     4  11  26  46  68 108 133 185 237 283 362 398
#     4  10  24  46  76  94 142 174 230 310 324 434
#     4  10  24  46  70 100 134 182 231 283 334 407
#     4  12  26  43  72  98 138 188 224 288 349 421
#
# _framework density 22.481884000000001
#
# number of rings (size 3 to 8) (size 9 to 14) (size 15 to 20)
#    0.000    1.091    1.818    2.182   12.727    0.000 
#    0.000    0.000    0.000    0.000    0.000    0.000 
#    0.000    0.000    0.000    0.000    0.000    0.000 
#
# Total GULP energy -272550.826571 kJ/mol
# GULP energy per Si atom -12388.673935 kJ/mol
# Density = 2.243071 g / cm^3
# Si number density = 22.481884 Si / 1000 Ang^3
#
#
#
# Elastic Constant Matrix: (Units=GPa)
#
#
# Indices 1 2 3 4 5 6 
#
# 1 71.2677 36.7796 35.7572 0.0000 27.9428 0.0000
# 2 36.7796 149.2483 22.9339 0.0000 7.8654 0.0000
# 3 35.7572 22.9339 130.9226 0.0000 16.8563 0.0000
# 4 0.0000 0.0000 0.0000 28.8270 0.0000 0.6543
# 5 27.9428 7.8654 16.8563 0.0000 45.4020 0.0000
# 6 0.0000 0.0000 0.0000 0.6543 0.0000 26.2908
#
#
#
# Elastic Compliance Matrix: (Units=1/GPa)
#
#
# Indices 1 2 3 4 5 6 
#
# 1 0.022970 -0.004424 -0.003967 0.000000 -0.011898 0.000000
# 2 -0.004424 0.007764 -0.000346 0.000000 0.001506 0.000000
# 3 -0.003967 -0.000346 0.008885 0.000000 -0.000797 0.000000
# 4 0.000000 0.000000 0.000000 0.034709 0.000000 -0.000864
# 5 -0.011898 0.001506 -0.000797 0.000000 0.029383 0.000000
# 6 0.000000 0.000000 0.000000 -0.000864 0.000000 0.038058
#
#
# Mechanical properties :
#
#
# Convention : Reuss Voigt Hill
#
# Bulk Modulus (GPa) = 45.15481 60.26445 52.70963
# Shear Modulus (GPa) = 30.00781 37.16849 33.58815
#
# Velocity S-wave (km/s) = 3.65739 4.07045 3.86944
# Velocity P-wave (km/s) = 6.16149 6.99681 6.59239
#
# Compressibility (1/GPa) = 0.02214603
#
# Stress axis : x y z
#
# Youngs Moduli (GPa) = 43.53549 128.79622 112.55319
#
# Poissons Ratio (x) = 0.56979 0.44646
# Poissons Ratio (y) = 0.19260 0.03891
# Poissons Ratio (z) = 0.17269 0.04453
#
# Static dielectric constant tensor:
#      x y z
#    x 3.899800 0.000000 0.280910 
#    y 0.000000 2.440430 0.000000 
#    z 0.280910 0.000000 4.499710 
# 
# 
# High freq. dielectric constant tensor:
#      x y z
#    x 1.895420 0.000000 0.004750 
#    y 0.000000 1.871240 0.000000 
#    z 0.004750 0.000000 1.905070 
# 
# From -- ./inp_files/54359.got.cif
#   From: 2010.06.25/outbox.cif.g09.slc.cpg/sg15_28_cif.got.tgz:54359.got - 2010.06.28 07:06:18.
