data_PCOD8150713
_publ_section_title
;
Structure prediction by ZEFSAII (Michael W. Deem and Ramdas Pophale) SiO2 
 PCOD8150713
Probable space group: C 2/C
;
_chemical_formula_sum "Si O2"
_cell_formula_units_Z 36
_cell_length_a 12.309502
_cell_length_b 13.349858
_cell_length_c 10.408065
_cell_angle_alpha 90.000000
_cell_angle_beta 117.667092
_cell_angle_gamma 90.000000
_cell_volume 1514.796814
_symmetry_space_group_name_H-M "C 2/C"
_symmetry_group_IT_number 15
_symmetry_cell_setting 'monoclinic'
loop_
_space_group_symop_operation_xyz
x,y,z
-x,y,1/2-z
-x,-y,-z
x,-y,1/2+z
1/2+x,1/2+y,z
1/2-x,1/2+y,1/2-z
1/2-x,1/2-y,-z
1/2+x,1/2-y,1/2+z
loop_
_atom_site_type_symbol
_atom_site_label
_atom_site_fract_x
_atom_site_fract_y
_atom_site_fract_z
Si Si1 0.960934 0.220099 0.953455
Si Si2 0.500000 0.792553 0.250000
Si Si3 0.934525 0.556953 0.350176
Si Si4 0.929928 0.959181 0.085813
Si Si5 0.262492 0.922230 0.135430
O O1 0.928666 0.326480 0.876508
O O2 0.836948 0.155975 0.867027
O O3 0.067235 0.162726 0.929002
O O4 0.010001 0.225105 0.127557
O O5 0.380833 0.860090 0.155628
O O6 0.801312 0.503150 0.266000
O O7 0.000000 0.539163 0.250000
O O8 0.000000 0.500000 0.500000
O O9 0.000000 0.995276 0.250000
O O10 0.794608 0.009988 0.012236
O O11 0.000000 0.000000 0.000000
#
# Coordination Sequence:
#
# PCOD8150713 Si02
#       5
#     8   4   8   8   8
#     4  11  26  45  72 105 148 186 247 289 360 429
#     4  12  24  46  70 110 142 192 238 298 364 422
#     4  12  25  46  71 107 148 182 237 298 363 423
#     4  10  25  47  73 107 142 188 243 294 356 426
#     4  11  25  46  76 103 146 193 238 298 361 429
#
# _framework density 23.765561999999999
#
# number of rings (size 3 to 8) (size 9 to 14) (size 15 to 20)
#    0.000    0.889    3.333    1.333    9.333    7.111 
#    0.000    3.333    0.000    0.000    0.000    0.000 
#    0.000    0.000    0.000    0.000    0.000    0.000 
#
# Total GULP energy -223010.343220 kJ/mol
# GULP energy per Si atom -12389.463512 kJ/mol
# Density = 2.371147 g / cm^3
# Si number density = 23.765562 Si / 1000 Ang^3
#
#
#
# Elastic Constant Matrix: (Units=GPa)
#
#
# Indices 1 2 3 4 5 6 
#
# 1 64.1326 36.1516 54.3498 0.0000 4.3638 0.0000
# 2 36.1516 182.5502 80.6289 0.0000 17.2680 0.0000
# 3 54.3498 80.6289 220.6945 0.0000 5.4839 0.0000
# 4 0.0000 0.0000 0.0000 42.8146 0.0000 13.7447
# 5 4.3638 17.2680 5.4839 0.0000 47.5165 0.0000
# 6 0.0000 0.0000 0.0000 13.7447 0.0000 47.4361
#
#
#
# Elastic Compliance Matrix: (Units=1/GPa)
#
#
# Indices 1 2 3 4 5 6 
#
# 1 0.020420 -0.002112 -0.004242 0.000000 -0.000618 0.000000
# 2 -0.002112 0.006967 -0.001973 0.000000 -0.002110 0.000000
# 3 -0.004242 -0.001973 0.006287 0.000000 0.000381 0.000000
# 4 0.000000 0.000000 0.000000 0.025752 0.000000 -0.007462
# 5 -0.000618 -0.002110 0.000381 0.000000 0.021825 0.000000
# 6 0.000000 0.000000 0.000000 -0.007462 0.000000 0.023243
#
#
# Mechanical properties :
#
#
# Convention : Reuss Voigt Hill
#
# Bulk Modulus (GPa) = 58.75072 89.95975 74.35524
# Shear Modulus (GPa) = 39.42557 47.30323 43.36440
#
# Velocity S-wave (km/s) = 4.07742 4.46624 4.27625
# Velocity P-wave (km/s) = 6.85141 8.03316 7.46570
#
# Compressibility (1/GPa) = 0.01702107
#
# Stress axis : x y z
#
# Youngs Moduli (GPa) = 48.97153 143.53018 159.05613
#
# Poissons Ratio (x) = 0.30312 0.67469
# Poissons Ratio (y) = 0.10342 0.31380
# Poissons Ratio (z) = 0.20773 0.28317
#
# Static dielectric constant tensor:
#      x y z
#    x 4.557810 0.000000 0.327680 
#    y 0.000000 5.389610 0.000000 
#    z 0.327680 0.000000 4.921780 
# 
# 
# High freq. dielectric constant tensor:
#      x y z
#    x 1.912200 0.000000 0.000470 
#    y 0.000000 1.969280 0.000000 
#    z 0.000470 0.000000 1.959360 
# 
# From -- ./inp_files/97263.got.cif
#   From: 2010.06.25/outbox.cif.g09.slc.cpg/sg15_49_cif.got.tgz:97263.got - 2010.06.28 07:06:18.
