data_PCOD8150148
_publ_section_title
;
Structure prediction by ZEFSAII (Michael W. Deem and Ramdas Pophale) SiO2 
 PCOD8150148
Probable space group: C 2/C
;
_chemical_formula_sum "Si O2"
_cell_formula_units_Z 52
_cell_length_a 15.572344
_cell_length_b 16.517951
_cell_length_c 16.337266
_cell_angle_alpha 90.000000
_cell_angle_beta 143.229547
_cell_angle_gamma 90.000000
_cell_volume 2515.555692
_symmetry_space_group_name_H-M "C 2/C"
_symmetry_group_IT_number 15
_symmetry_cell_setting 'monoclinic'
loop_
_space_group_symop_operation_xyz
x,y,z
-x,y,1/2-z
-x,-y,-z
x,-y,1/2+z
1/2+x,1/2+y,z
1/2-x,1/2+y,1/2-z
1/2-x,1/2-y,-z
1/2+x,1/2-y,1/2+z
loop_
_atom_site_type_symbol
_atom_site_label
_atom_site_fract_x
_atom_site_fract_y
_atom_site_fract_z
Si Si1 0.365577 0.215773 0.322209
Si Si2 0.579606 0.908481 0.506570
Si Si3 0.769600 0.630612 0.711687
Si Si4 0.000000 0.940856 0.750000
Si Si5 0.271807 0.549532 0.669845
Si Si6 0.301267 0.224212 0.950980
Si Si7 0.255482 0.346055 0.491674
O O1 0.347229 0.133119 0.358669
O O2 0.305585 0.283150 0.338231
O O3 0.528553 0.232693 0.421975
O O4 0.268214 0.213025 0.166791
O O5 0.417641 0.876631 0.376587
O O6 0.648352 0.884471 0.473399
O O7 0.615314 0.004134 0.545241
O O8 0.680021 0.564911 0.697668
O O9 0.793265 0.618260 0.633874
O O10 0.105190 0.995915 0.776962
O O11 0.084698 0.880245 0.874503
O O12 0.256579 0.634140 0.610826
O O13 0.250000 0.250000 0.000000
O O14 0.250000 0.250000 0.500000
#
# Coordination Sequence:
#
# PCOD8150148 Si02
#       7
#     8   8   8   4   8   8   8
#     4  11  22  40  69  99 127 180 225 281 345 398
#     4  11  22  43  64  99 137 176 223 285 344 412
#     4  11  23  40  68  96 131 180 226 278 339 411
#     4  10  26  44  62 102 134 184 220 292 350 402
#     4  10  24  44  69  90 146 173 223 289 350 402
#     4  11  25  44  69 100 133 181 235 286 334 414
#     4  11  24  39  68  95 137 176 224 280 340 415
#
# _framework density 20.671378000000001
#
# number of rings (size 3 to 8) (size 9 to 14) (size 15 to 20)
#    0.000    1.231    4.615    1.385    6.462    3.077 
#    5.538    3.077    0.000    0.000    0.000    0.000 
#    0.000    0.000    0.000    0.000    0.000    0.000 
#
# Total GULP energy -322219.648359 kJ/mol
# GULP energy per Si atom -12393.063398 kJ/mol
# Density = 2.062433 g / cm^3
# Si number density = 20.671378 Si / 1000 Ang^3
#
#
#
# Elastic Constant Matrix: (Units=GPa)
#
#
# Indices 1 2 3 4 5 6 
#
# 1 109.7558 36.0869 37.0151 0.0003 -21.6703 0.0001
# 2 36.0869 115.5534 41.5969 0.0005 -12.6409 0.0003
# 3 37.0151 41.5969 52.1001 -0.0005 -14.2040 -0.0003
# 4 0.0003 0.0005 -0.0005 29.6758 0.0007 -1.4143
# 5 -21.6703 -12.6409 -14.2040 0.0007 49.5509 0.0004
# 6 0.0001 0.0003 -0.0003 -1.4143 0.0004 25.5959
#
#
#
# Elastic Compliance Matrix: (Units=1/GPa)
#
#
# Indices 1 2 3 4 5 6 
#
# 1 0.012491 -0.000942 -0.007267 0.000000 0.003140 0.000000
# 2 -0.000942 0.012221 -0.009058 0.000000 0.000109 0.000000
# 3 -0.007267 -0.009058 0.032644 0.000001 0.003868 0.000000
# 4 0.000000 0.000000 0.000001 0.033786 -0.000001 0.001867
# 5 0.003140 0.000109 0.003868 -0.000001 0.022691 0.000000
# 6 0.000000 0.000000 0.000000 0.001867 0.000000 0.039172
#
#
# Mechanical properties :
#
#
# Convention : Reuss Voigt Hill
#
# Bulk Modulus (GPa) = 43.81746 56.31193 50.06469
# Shear Modulus (GPa) = 25.62174 31.81186 28.71680
#
# Velocity S-wave (km/s) = 3.52444 3.92718 3.73125
# Velocity P-wave (km/s) = 6.14861 6.91840 6.54483
#
# Compressibility (1/GPa) = 0.02282196
#
# Stress axis : x y z
#
# Youngs Moduli (GPa) = 80.05519 81.82716 30.63381
#
# Poissons Ratio (x) = 0.07705 0.22261
# Poissons Ratio (y) = 0.07538 0.27749
# Poissons Ratio (z) = 0.58176 0.74123
#
# Static dielectric constant tensor:
#      x y z
#    x 4.054130 0.000000 0.035650 
#    y 0.000000 3.977430 0.000000 
#    z 0.035650 0.000000 3.835520 
# 
# 
# High freq. dielectric constant tensor:
#      x y z
#    x 1.840130 0.000000 -0.001990 
#    y 0.000000 1.807510 0.000000 
#    z -0.001990 0.000000 1.800180 
# 
# From -- ./inp_files/155562.got.cif
#   From: 2010.06.25/outbox.cif.g09.slc.cpg/sg15_78_cif.got.tgz:155562.got - 2010.06.28 07:06:18.
