data_PCOD8150037
_publ_section_title
;
Structure prediction by ZEFSAII (Michael W. Deem and Ramdas Pophale) SiO2 
 PCOD8150037
Probable space group: C 2/C
;
_chemical_formula_sum "Si O2"
_cell_formula_units_Z 56
_cell_length_a 20.692399
_cell_length_b 5.340895
_cell_length_c 21.705463
_cell_angle_alpha 90.000000
_cell_angle_beta 83.808402
_cell_angle_gamma 90.000000
_cell_volume 2384.806738
_symmetry_space_group_name_H-M "C 2/C"
_symmetry_group_IT_number 15
_symmetry_cell_setting 'monoclinic'
loop_
_space_group_symop_operation_xyz
x,y,z
-x,y,1/2-z
-x,-y,-z
x,-y,1/2+z
1/2+x,1/2+y,z
1/2-x,1/2+y,1/2-z
1/2-x,1/2-y,-z
1/2+x,1/2-y,1/2+z
loop_
_atom_site_type_symbol
_atom_site_label
_atom_site_fract_x
_atom_site_fract_y
_atom_site_fract_z
Si Si1 0.676390 0.300167 0.519265
Si Si2 0.986598 0.618848 0.814120
Si Si3 0.375027 0.438196 0.851264
Si Si4 0.206897 0.054628 0.753114
Si Si5 0.405862 0.420027 0.644616
Si Si6 0.886395 0.701484 0.524030
Si Si7 0.983830 0.763872 0.414339
O O1 0.750000 0.250000 0.500000
O O2 0.669757 0.304945 0.593624
O O3 0.658967 0.571171 0.493545
O O4 0.635747 0.072182 0.495030
O O5 0.043550 0.829899 0.808398
O O6 0.000000 0.455188 0.750000
O O7 0.914470 0.724197 0.811471
O O8 0.993607 0.500337 0.880257
O O9 0.332029 0.591559 0.806810
O O10 0.427711 0.608946 0.879796
O O11 0.247869 0.797381 0.743981
O O12 0.156929 0.041658 0.815981
O O13 0.384903 0.201962 0.598722
O O14 0.445222 0.610155 0.595311
O O15 0.959225 0.736504 0.487249
#
# Coordination Sequence:
#
# PCOD8150037 Si02
#       7
#     8   8   8   8   8   8   8
#     4  11  25  44  72  96 139 192 232 280 335 419
#     4  11  22  41  72  99 134 180 232 288 343 413
#     4  10  24  46  66 102 136 178 239 281 347 401
#     4  12  31  47  70 102 144 188 231 287 340 412
#     4  11  27  43  71 104 140 182 230 285 360 409
#     4  11  25  45  68 108 139 174 235 288 355 405
#     4  10  24  43  73 102 138 181 225 303 341 420
#
# _framework density 23.481985999999999
#
# number of rings (size 3 to 8) (size 9 to 14) (size 15 to 20)
#    0.000    1.143    2.857    0.857   12.000    0.571 
#    0.000    0.000    0.000    0.000    0.000    0.000 
#    0.000    0.000    0.000    0.000    0.000    0.000 
#
# Total GULP energy -346951.985124 kJ/mol
# GULP energy per Si atom -12391.142326 kJ/mol
# Density = 2.342854 g / cm^3
# Si number density = 23.481986 Si / 1000 Ang^3
#
#
#
# Elastic Constant Matrix: (Units=GPa)
#
#
# Indices 1 2 3 4 5 6 
#
# 1 103.0035 20.9608 46.5483 0.0000 -30.4980 0.0000
# 2 20.9608 78.1693 0.7924 0.0000 -8.7841 0.0000
# 3 46.5483 0.7924 117.2449 0.0000 -17.2093 0.0000
# 4 0.0000 0.0000 0.0000 25.1310 0.0000 -1.2931
# 5 -30.4980 -8.7841 -17.2093 0.0000 40.7973 0.0000
# 6 0.0000 0.0000 0.0000 -1.2931 0.0000 32.3395
#
#
#
# Elastic Compliance Matrix: (Units=1/GPa)
#
#
# Indices 1 2 3 4 5 6 
#
# 1 0.014965 -0.003002 -0.004663 0.000000 0.008574 0.000000
# 2 -0.003002 0.013725 0.001283 0.000000 0.001252 0.000000
# 3 -0.004663 0.001283 0.010554 0.000000 0.001243 0.000000
# 4 0.000000 0.000000 0.000000 0.039874 0.000000 0.001594
# 5 0.008574 0.001252 0.001243 0.000000 0.031715 0.000000
# 6 0.000000 0.000000 0.000000 0.001594 0.000000 0.030986
#
#
# Mechanical properties :
#
#
# Convention : Reuss Voigt Hill
#
# Bulk Modulus (GPa) = 37.76299 48.33564 43.04932
# Shear Modulus (GPa) = 30.59809 34.99463 32.79636
#
# Velocity S-wave (km/s) = 3.61369 3.86460 3.74125
# Velocity P-wave (km/s) = 5.79036 6.36728 6.08566
#
# Compressibility (1/GPa) = 0.02648095
#
# Stress axis : x y z
#
# Youngs Moduli (GPa) = 66.82253 72.85740 94.75067
#
# Poissons Ratio (x) = 0.21872 0.44178
# Poissons Ratio (y) = 0.20061 -0.12156
# Poissons Ratio (z) = 0.31157 -0.09347
#
# Static dielectric constant tensor:
#      x y z
#    x 4.671350 0.000000 0.064260 
#    y 0.000000 4.521800 0.000000 
#    z 0.064260 0.000000 4.679930 
# 
# 
# High freq. dielectric constant tensor:
#      x y z
#    x 1.931500 0.000000 -0.009150 
#    y 0.000000 1.919890 0.000000 
#    z -0.009150 0.000000 1.948290 
# 
# From -- ./inp_files/278632.got.cif
#   From: 2010.06.25/outbox.cif.g09.slc.cpg/sg15_140_cif.got.tgz:278632.got - 2010.06.28 07:06:18.
