data_PCOD8150517
_publ_section_title
;
Structure prediction by ZEFSAII (Michael W. Deem and Ramdas Pophale) SiO2 
 PCOD8150517
Probable space group: C 2/C
;
_chemical_formula_sum "Si O2"
_cell_formula_units_Z 52
_cell_length_a 16.612234
_cell_length_b 22.826369
_cell_length_c 8.233022
_cell_angle_alpha 90.000000
_cell_angle_beta 126.893068
_cell_angle_gamma 90.000000
_cell_volume 2496.791975
_symmetry_space_group_name_H-M "C 2/C"
_symmetry_group_IT_number 15
_symmetry_cell_setting 'monoclinic'
loop_
_space_group_symop_operation_xyz
x,y,z
-x,y,1/2-z
-x,-y,-z
x,-y,1/2+z
1/2+x,1/2+y,z
1/2-x,1/2+y,1/2-z
1/2-x,1/2-y,-z
1/2+x,1/2-y,1/2+z
loop_
_atom_site_type_symbol
_atom_site_label
_atom_site_fract_x
_atom_site_fract_y
_atom_site_fract_z
Si Si1 0.829395 0.501593 0.346116
Si Si2 0.000000 0.882112 0.750000
Si Si3 0.748477 0.304204 0.876019
Si Si4 0.966759 0.807981 0.027912
Si Si5 0.963187 0.305060 0.030980
Si Si6 0.283768 0.425343 0.523551
Si Si7 0.983688 0.579221 0.396447
O O1 0.760124 0.531256 0.395661
O O2 0.870132 0.552569 0.273899
O O3 0.934995 0.472990 0.527109
O O4 0.758618 0.450586 0.194145
O O5 0.982759 0.843563 0.563458
O O6 0.095021 0.924577 0.835580
O O7 0.653313 0.310804 0.641594
O O8 0.757315 0.360102 0.004013
O O9 0.750000 0.250000 0.000000
O O10 0.842932 0.302375 0.871081
O O11 0.000000 0.831196 0.250000
O O12 0.996826 0.739907 0.054848
O O13 0.000000 0.282541 0.250000
O O14 0.003072 0.371909 0.057931
O O15 0.000000 0.615389 0.250000
#
# Coordination Sequence:
#
# PCOD8150517 Si02
#       7
#     8   4   8   8   8   8   8
#     4  11  23  40  64  94 135 177 224 281 349 412
#     4  10  24  50  72  92 140 182 240 298 348 406
#     4  11  22  42  71 100 138 187 234 283 359 419
#     4  11  24  45  68 101 140 182 235 296 347 420
#     4  12  21  39  68  97 138 186 225 278 356 421
#     4  11  23  45  68  96 135 180 229 290 344 411
#     4  11  23  38  59  97 138 173 222 281 338 428
#
# _framework density 20.826725
#
# number of rings (size 3 to 8) (size 9 to 14) (size 15 to 20)
#    0.000    0.923    5.385    2.308    0.000    1.231 
#    8.308    0.000    0.000    0.000    0.000    0.000 
#    0.000    0.000    0.000    0.000    0.000    0.000 
#
# Total GULP energy -322113.828702 kJ/mol
# GULP energy per Si atom -12388.993412 kJ/mol
# Density = 2.077932 g / cm^3
# Si number density = 20.826725 Si / 1000 Ang^3
#
#
#
# Elastic Constant Matrix: (Units=GPa)
#
#
# Indices 1 2 3 4 5 6 
#
# 1 118.3841 46.9830 38.8346 0.0000 10.5816 0.0000
# 2 46.9830 115.7170 36.7494 0.0000 3.6374 0.0000
# 3 38.8346 36.7494 104.6726 0.0000 -2.9054 0.0000
# 4 0.0000 0.0000 0.0000 27.0838 0.0000 1.6214
# 5 10.5816 3.6374 -2.9054 0.0000 38.4573 0.0000
# 6 0.0000 0.0000 0.0000 1.6214 0.0000 38.7227
#
#
#
# Elastic Compliance Matrix: (Units=1/GPa)
#
#
# Indices 1 2 3 4 5 6 
#
# 1 0.011055 -0.003452 -0.002971 0.000000 -0.002940 0.000000
# 2 -0.003452 0.010858 -0.002539 0.000000 -0.000269 0.000000
# 3 -0.002971 -0.002539 0.011601 0.000000 0.001934 0.000000
# 4 0.000000 0.000000 0.000000 0.037015 0.000000 -0.001550
# 5 -0.002940 -0.000269 0.001934 0.000000 0.026983 0.000000
# 6 0.000000 0.000000 0.000000 -0.001550 0.000000 0.025890
#
#
# Mechanical properties :
#
#
# Convention : Reuss Voigt Hill
#
# Bulk Modulus (GPa) = 64.14574 64.87865 64.51220
# Shear Modulus (GPa) = 34.12451 35.26653 34.69552
#
# Velocity S-wave (km/s) = 4.05223 4.11947 4.08599
# Velocity P-wave (km/s) = 7.26365 7.33798 7.30091
#
# Compressibility (1/GPa) = 0.01558950
#
# Stress axis : x y z
#
# Youngs Moduli (GPa) = 90.46049 92.09592 86.20076
#
# Poissons Ratio (x) = 0.31796 0.25609
# Poissons Ratio (y) = 0.31231 0.21884
# Poissons Ratio (z) = 0.26874 0.23381
#
# Static dielectric constant tensor:
#      x y z
#    x 4.049610 0.000000 -0.020580 
#    y 0.000000 3.754080 0.000000 
#    z -0.020580 0.000000 3.774350 
# 
# 
# High freq. dielectric constant tensor:
#      x y z
#    x 1.828430 0.000000 0.001810 
#    y 0.000000 1.817540 0.000000 
#    z 0.001810 0.000000 1.794350 
# 
# From -- ./inp_files/42337.got.cif
#   From: 2010.06.25/outbox.cif.g09.slc.cpg/sg15_22_cif.got.tgz:42337.got - 2010.06.28 07:06:18.
