data_PCOD8150246
_publ_section_title
;
Structure prediction by ZEFSAII (Michael W. Deem and Ramdas Pophale) SiO2 
 PCOD8150246
Probable space group: C 2/C
;
_chemical_formula_sum "Si O2"
_cell_formula_units_Z 48
_cell_length_a 15.606659
_cell_length_b 26.624356
_cell_length_c 9.502308
_cell_angle_alpha 90.000000
_cell_angle_beta 145.996613
_cell_angle_gamma 90.000000
_cell_volume 2208.095572
_symmetry_space_group_name_H-M "C 2/C"
_symmetry_group_IT_number 15
_symmetry_cell_setting 'monoclinic'
loop_
_space_group_symop_operation_xyz
x,y,z
-x,y,1/2-z
-x,-y,-z
x,-y,1/2+z
1/2+x,1/2+y,z
1/2-x,1/2+y,1/2-z
1/2-x,1/2-y,-z
1/2+x,1/2-y,1/2+z
loop_
_atom_site_type_symbol
_atom_site_label
_atom_site_fract_x
_atom_site_fract_y
_atom_site_fract_z
Si Si1 0.319165 0.925566 0.265212
Si Si2 0.707229 0.373924 0.698305
Si Si3 0.389210 0.514648 0.474464
Si Si4 0.220692 0.808408 0.452968
Si Si5 0.000000 0.624037 0.250000
Si Si6 0.553849 0.653423 0.465263
Si Si7 0.000000 0.395844 0.250000
O O1 0.449948 0.911062 0.554015
O O2 0.179438 0.886704 0.087829
O O3 0.391911 0.928151 0.207400
O O4 0.261570 0.980426 0.227564
O O5 0.680603 0.429714 0.602658
O O6 0.656257 0.332220 0.511450
O O7 0.597261 0.373285 0.682858
O O8 0.882078 0.363628 0.991383
O O9 0.500000 0.500000 0.500000
O O10 0.500000 0.501683 0.750000
O O11 0.250000 0.750000 0.500000
O O12 0.371270 0.839771 0.632199
O O13 0.111249 0.811270 0.168385
O O14 0.500000 0.683437 0.250000
#
# Coordination Sequence:
#
# PCOD8150246 Si02
#       7
#     8   8   8   8   4   8   4
#     4  11  23  44  67 100 146 185 224 293 353 429
#     4  12  25  45  71 103 140 189 238 294 359 434
#     4  12  25  42  69 105 139 185 246 289 347 437
#     4  11  26  47  71 102 143 188 242 301 363 425
#     4  10  24  45  68 102 142 186 238 297 360 430
#     4  11  22  44  73 101 134 182 239 286 347 430
#     4  12  24  43  66 104 146 178 224 289 370 424
#
# _framework density 21.738189999999999
#
# number of rings (size 3 to 8) (size 9 to 14) (size 15 to 20)
#    0.000    0.667    5.000    3.000    4.667    1.333 
#    1.500    0.833    0.000    0.000    0.000    0.000 
#    0.000    0.000    0.000    0.000    0.000    0.000 
#
# Total GULP energy -297393.760987 kJ/mol
# GULP energy per Si atom -12391.406708 kJ/mol
# Density = 2.168871 g / cm^3
# Si number density = 21.738190 Si / 1000 Ang^3
#
#
#
# Elastic Constant Matrix: (Units=GPa)
#
#
# Indices 1 2 3 4 5 6 
#
# 1 151.6472 37.0317 46.4345 0.0000 -14.6934 0.0000
# 2 37.0317 129.0387 44.9551 0.0000 -15.8531 0.0000
# 3 46.4345 44.9551 150.0560 0.0000 -22.1729 0.0000
# 4 0.0000 0.0000 0.0000 31.4621 0.0000 17.8209
# 5 -14.6934 -15.8531 -22.1729 0.0000 44.0495 0.0000
# 6 0.0000 0.0000 0.0000 17.8209 0.0000 42.5020
#
#
#
# Elastic Compliance Matrix: (Units=1/GPa)
#
#
# Indices 1 2 3 4 5 6 
#
# 1 0.007590 -0.001428 -0.001753 0.000000 0.001135 0.000000
# 2 -0.001428 0.009080 -0.002016 0.000000 0.001777 0.000000
# 3 -0.001753 -0.002016 0.008229 0.000000 0.002832 0.000000
# 4 0.000000 0.000000 0.000000 0.041684 0.000000 -0.017478
# 5 0.001135 0.001777 0.002832 0.000000 0.025145 0.000000
# 6 0.000000 0.000000 0.000000 -0.017478 0.000000 0.030857
#
#
# Mechanical properties :
#
#
# Convention : Reuss Voigt Hill
#
# Bulk Modulus (GPa) = 68.94115 76.39826 72.66970
# Shear Modulus (GPa) = 36.28082 43.75743 40.01912
#
# Velocity S-wave (km/s) = 4.08976 4.49144 4.29529
# Velocity P-wave (km/s) = 7.35423 7.88152 7.62243
#
# Compressibility (1/GPa) = 0.01450513
#
# Stress axis : x y z
#
# Youngs Moduli (GPa) = 131.75681 110.13254 121.52073
#
# Poissons Ratio (x) = 0.15726 0.21304
# Poissons Ratio (y) = 0.18813 0.24497
# Poissons Ratio (z) = 0.23098 0.22201
#
# Static dielectric constant tensor:
#      x y z
#    x 4.159570 0.000000 -0.025230 
#    y 0.000000 3.519500 0.000000 
#    z -0.025230 0.000000 4.355370 
# 
# 
# High freq. dielectric constant tensor:
#      x y z
#    x 1.882150 0.000000 -0.003120 
#    y 0.000000 1.811570 0.000000 
#    z -0.003120 0.000000 1.880840 
# 
# From -- ./inp_files/44004.got.cif
#   From: 2010.06.25/outbox.cif.g09.slc.cpg/sg15_23_cif.got.tgz:44004.got - 2010.06.28 07:06:18.
