data_PCOD8150326
_publ_section_title
;
Structure prediction by ZEFSAII (Michael W. Deem and Ramdas Pophale) SiO2 
 PCOD8150326
Probable space group: C 2/C
;
_chemical_formula_sum "Si O2"
_cell_formula_units_Z 48
_cell_length_a 14.597936
_cell_length_b 20.379117
_cell_length_c 11.983994
_cell_angle_alpha 90.000000
_cell_angle_beta 140.127868
_cell_angle_gamma 90.000000
_cell_volume 2285.536708
_symmetry_space_group_name_H-M "C 2/C"
_symmetry_group_IT_number 15
_symmetry_cell_setting 'monoclinic'
loop_
_space_group_symop_operation_xyz
x,y,z
-x,y,1/2-z
-x,-y,-z
x,-y,1/2+z
1/2+x,1/2+y,z
1/2-x,1/2+y,1/2-z
1/2-x,1/2-y,-z
1/2+x,1/2-y,1/2+z
loop_
_atom_site_type_symbol
_atom_site_label
_atom_site_fract_x
_atom_site_fract_y
_atom_site_fract_z
Si Si1 0.695190 0.912155 0.619526
Si Si2 0.402301 0.593497 0.518890
Si Si3 0.892536 0.648186 0.897108
Si Si4 0.293050 0.551363 0.644205
Si Si5 0.831978 0.683666 0.601461
Si Si6 0.892273 0.757605 0.064387
O O1 0.819120 0.903132 0.825505
O O2 0.541762 0.890625 0.524006
O O3 0.728724 0.868649 0.542810
O O4 0.700182 0.987456 0.586707
O O5 0.307135 0.557082 0.523725
O O6 0.551639 0.553408 0.650089
O O7 0.436303 0.667282 0.586856
O O8 0.797066 0.612358 0.898059
O O9 0.805509 0.654410 0.699879
O O10 0.908245 0.721674 0.960032
O O11 0.750000 0.750000 0.500000
O O12 0.000000 0.697462 0.750000
O O13 0.000000 0.723058 0.250000
O O14 0.750000 0.750000 0.000000
#
# Coordination Sequence:
#
# PCOD8150326 Si02
#       6
#     8   8   8   8   8   8
#     4  11  25  43  68  95 135 182 227 278 339 408
#     4  11  23  44  66 100 135 173 230 284 343 407
#     4  11  24  42  68  98 137 177 222 283 339 412
#     4  11  24  43  64 100 134 176 226 281 345 411
#     4  10  24  46  66  99 134 179 232 277 337 408
#     4  12  21  39  65  99 133 168 221 279 345 403
#
# _framework density 21.001631
#
# number of rings (size 3 to 8) (size 9 to 14) (size 15 to 20)
#    0.000    1.000    3.333    3.000    2.333    5.333 
#    6.000    0.000    0.000    0.000    0.000    0.000 
#    0.000    0.000    0.000    0.000    0.000    0.000 
#
# Total GULP energy -297548.178184 kJ/mol
# GULP energy per Si atom -12397.840758 kJ/mol
# Density = 2.095383 g / cm^3
# Si number density = 21.001631 Si / 1000 Ang^3
#
#
#
# Elastic Constant Matrix: (Units=GPa)
#
#
# Indices 1 2 3 4 5 6 
#
# 1 87.1624 35.0499 33.7069 0.0000 -0.2878 0.0000
# 2 35.0499 100.7837 30.9819 0.0000 3.1415 0.0000
# 3 33.7069 30.9819 140.7939 0.0000 -22.6206 0.0000
# 4 0.0000 0.0000 0.0000 32.5965 0.0000 0.4965
# 5 -0.2878 3.1415 -22.6206 0.0000 33.9681 0.0000
# 6 0.0000 0.0000 0.0000 0.4965 0.0000 46.9470
#
#
#
# Elastic Compliance Matrix: (Units=1/GPa)
#
#
# Indices 1 2 3 4 5 6 
#
# 1 0.014142 -0.004046 -0.002705 0.000000 -0.001308 0.000000
# 2 -0.004046 0.012051 -0.002092 0.000000 -0.002542 0.000000
# 3 -0.002705 -0.002092 0.009225 0.000000 0.006314 0.000000
# 4 0.000000 0.000000 0.000000 0.030683 0.000000 -0.000324
# 5 -0.001308 -0.002542 0.006314 0.000000 0.033868 0.000000
# 6 0.000000 0.000000 0.000000 -0.000324 0.000000 0.021304
#
#
# Mechanical properties :
#
#
# Convention : Reuss Voigt Hill
#
# Bulk Modulus (GPa) = 56.39412 58.69084 57.54248
# Shear Modulus (GPa) = 34.51382 37.96908 36.24145
#
# Velocity S-wave (km/s) = 4.05827 4.25657 4.15860
# Velocity P-wave (km/s) = 6.99070 7.22249 7.10754
#
# Compressibility (1/GPa) = 0.01773235
#
# Stress axis : x y z
#
# Youngs Moduli (GPa) = 70.71343 82.97752 108.40138
#
# Poissons Ratio (x) = 0.33570 0.29327
# Poissons Ratio (y) = 0.28608 0.22675
# Poissons Ratio (z) = 0.19131 0.17357
#
# Static dielectric constant tensor:
#      x y z
#    x 2.879800 0.000000 0.440730 
#    y 0.000000 3.408990 0.000000 
#    z 0.440730 0.000000 3.574940 
# 
# 
# High freq. dielectric constant tensor:
#      x y z
#    x 1.830370 0.000000 -0.007030 
#    y 0.000000 1.827480 0.000000 
#    z -0.007030 0.000000 1.832780 
# 
# From -- ./inp_files/100063.got.cif
#   From: 2010.06.25/outbox.cif.g09.slc.cpg/sg15_51_cif.got.tgz:100063.got - 2010.06.28 07:06:18.
