data_PCOD8150368
_publ_section_title
;
Structure prediction by ZEFSAII (Michael W. Deem and Ramdas Pophale) SiO2 
 PCOD8150368
Probable space group: C 2/C
;
_chemical_formula_sum "Si O2"
_cell_formula_units_Z 40
_cell_length_a 21.602645
_cell_length_b 7.072270
_cell_length_c 14.410498
_cell_angle_alpha 90.000000
_cell_angle_beta 128.694165
_cell_angle_gamma 90.000000
_cell_volume 1718.360825
_symmetry_space_group_name_H-M "C 2/C"
_symmetry_group_IT_number 15
_symmetry_cell_setting 'monoclinic'
loop_
_space_group_symop_operation_xyz
x,y,z
-x,y,1/2-z
-x,-y,-z
x,-y,1/2+z
1/2+x,1/2+y,z
1/2-x,1/2+y,1/2-z
1/2-x,1/2-y,-z
1/2+x,1/2-y,1/2+z
loop_
_atom_site_type_symbol
_atom_site_label
_atom_site_fract_x
_atom_site_fract_y
_atom_site_fract_z
Si Si1 0.805623 0.401063 0.001260
Si Si2 0.598614 0.177775 0.073771
Si Si3 0.410754 0.231992 0.142488
Si Si4 0.426093 0.744264 0.442888
Si Si5 0.162052 0.049115 0.766454
O O1 0.874358 0.296324 0.007415
O O2 0.752907 0.511498 0.876481
O O3 0.750000 0.250000 0.000000
O O4 0.850059 0.556438 0.107304
O O5 0.663866 0.266732 0.203195
O O6 0.586720 0.963107 0.093089
O O7 0.518895 0.301566 0.013041
O O8 0.500000 0.164520 0.250000
O O9 0.387079 0.408820 0.184960
O O10 0.403491 0.297522 0.028693
O O11 0.373926 0.628426 0.321674
#
# Coordination Sequence:
#
# PCOD8150368 Si02
#       5
#     8   8   8   8   8
#     4  11  29  44  70 109 146 192 237 300 371 430
#     4  10  24  46  71 100 144 187 241 295 355 434
#     4  11  25  48  74 107 147 187 248 305 353 440
#     4  10  24  48  74 106 136 193 248 297 362 427
#     4  12  26  43  77 104 145 189 241 301 368 429
#
# _framework density 23.277999000000001
#
# number of rings (size 3 to 8) (size 9 to 14) (size 15 to 20)
#    0.000    1.200    2.000    1.200   11.200    0.000 
#    0.000    0.000    0.000    0.000    0.000    0.000 
#    0.000    0.000    0.000    0.000    0.000    0.000 
#
# Total GULP energy -248006.571065 kJ/mol
# GULP energy per Si atom -12400.328553 kJ/mol
# Density = 2.322502 g / cm^3
# Si number density = 23.277999 Si / 1000 Ang^3
#
#
#
# Elastic Constant Matrix: (Units=GPa)
#
#
# Indices 1 2 3 4 5 6 
#
# 1 107.1174 39.9610 15.2739 0.0000 -11.1448 0.0000
# 2 39.9610 78.9094 50.5936 0.0000 -7.6168 0.0000
# 3 15.2739 50.5936 111.1585 0.0000 2.9742 0.0000
# 4 0.0000 0.0000 0.0000 49.1372 0.0000 -7.1949
# 5 -11.1448 -7.6168 2.9742 0.0000 34.8729 0.0000
# 6 0.0000 0.0000 0.0000 -7.1949 0.0000 34.7002
#
#
#
# Elastic Compliance Matrix: (Units=1/GPa)
#
#
# Indices 1 2 3 4 5 6 
#
# 1 0.011856 -0.006646 0.001336 0.000000 0.002223 0.000000
# 2 -0.006646 0.022393 -0.009374 0.000000 0.003567 0.000000
# 3 0.001336 -0.009374 0.013153 0.000000 -0.002742 0.000000
# 4 0.000000 0.000000 0.000000 0.020988 0.000000 0.004352
# 5 0.002223 0.003567 -0.002742 0.000000 0.030399 0.000000
# 6 0.000000 0.000000 0.000000 0.004352 0.000000 0.029721
#
#
# Mechanical properties :
#
#
# Convention : Reuss Voigt Hill
#
# Bulk Modulus (GPa) = 55.45304 56.53801 55.99553
# Shear Modulus (GPa) = 30.50842 36.49918 33.50380
#
# Velocity S-wave (km/s) = 3.62416 3.96405 3.79791
# Velocity P-wave (km/s) = 6.43324 6.72997 6.58328
#
# Compressibility (1/GPa) = 0.01803328
#
# Stress axis : x y z
#
# Youngs Moduli (GPa) = 84.34746 44.65619 76.03017
#
# Poissons Ratio (x) = 0.29679 -0.10161
# Poissons Ratio (y) = 0.56059 0.71274
# Poissons Ratio (z) = -0.11273 0.41863
#
# Static dielectric constant tensor:
#      x y z
#    x 4.339850 0.000000 0.089850 
#    y 0.000000 4.057300 0.000000 
#    z 0.089850 0.000000 4.269590 
# 
# 
# High freq. dielectric constant tensor:
#      x y z
#    x 1.928290 0.000000 0.004790 
#    y 0.000000 1.918450 0.000000 
#    z 0.004790 0.000000 1.924470 
# 
# From -- ./inp_files/166495.got.cif
#   From: 2010.06.25/outbox.cif.g09.slc.cpg/sg15_84_cif.got.tgz:166495.got - 2010.06.28 07:06:18.
