data_PCOD8150512
_publ_section_title
;
Structure prediction by ZEFSAII (Michael W. Deem and Ramdas Pophale) SiO2 
 PCOD8150512
Probable space group: C 2/C
;
_chemical_formula_sum "Si O2"
_cell_formula_units_Z 52
_cell_length_a 7.374389
_cell_length_b 17.690472
_cell_length_c 19.535248
_cell_angle_alpha 90.000000
_cell_angle_beta 89.443652
_cell_angle_gamma 90.000000
_cell_volume 2548.378416
_symmetry_space_group_name_H-M "C 2/C"
_symmetry_group_IT_number 15
_symmetry_cell_setting 'monoclinic'
loop_
_space_group_symop_operation_xyz
x,y,z
-x,y,1/2-z
-x,-y,-z
x,-y,1/2+z
1/2+x,1/2+y,z
1/2-x,1/2+y,1/2-z
1/2-x,1/2-y,-z
1/2+x,1/2-y,1/2+z
loop_
_atom_site_type_symbol
_atom_site_label
_atom_site_fract_x
_atom_site_fract_y
_atom_site_fract_z
Si Si1 0.885453 0.259852 0.353222
Si Si2 0.000000 0.853420 0.750000
Si Si3 0.107096 0.054592 0.374907
Si Si4 0.808137 0.864855 0.955683
Si Si5 0.746301 0.304210 0.099308
Si Si6 0.888815 0.352033 0.955946
Si Si7 0.393775 0.380962 0.113736
O O1 0.860617 0.218560 0.427113
O O2 0.748950 0.329185 0.344825
O O3 0.857526 0.198874 0.292750
O O4 0.093454 0.288263 0.347440
O O5 0.883913 0.905167 0.698939
O O6 0.268863 0.083823 0.421508
O O7 0.914341 0.071021 0.412260
O O8 0.138330 0.966326 0.363642
O O9 0.595344 0.879211 0.948680
O O10 0.873141 0.868427 0.033002
O O11 0.641482 0.227760 0.080302
O O12 0.597336 0.358087 0.134819
O O13 0.835117 0.346931 0.035027
#
# Coordination Sequence:
#
# PCOD8150512 Si02
#       7
#     8   4   8   8   8   8   8
#     4  11  22  42  67  91 128 166 218 262 300 388
#     4  10  24  50  64  76 126 184 216 256 310 374
#     4  11  25  43  61  92 138 167 204 265 318 380
#     4  11  20  37  66  99 131 164 198 252 332 387
#     4  11  20  35  64 101 126 158 209 259 313 376
#     4  11  20  35  65  97 132 164 201 250 325 382
#     4  12  23  38  66 102 129 157 206 267 327 368
#
# _framework density 20.405131999999998
#
# number of rings (size 3 to 8) (size 9 to 14) (size 15 to 20)
#    0.000    0.923    7.692    1.846    0.000    1.846 
#    2.769    6.154    0.000    0.000    0.000    0.000 
#    0.000    0.000    0.000    0.000    0.000    0.000 
#
# Total GULP energy -322502.723570 kJ/mol
# GULP energy per Si atom -12403.950907 kJ/mol
# Density = 2.035869 g / cm^3
# Si number density = 20.405132 Si / 1000 Ang^3
#
#
#
# Elastic Constant Matrix: (Units=GPa)
#
#
# Indices 1 2 3 4 5 6 
#
# 1 149.8096 51.0675 28.9526 0.0000 -4.4962 0.0000
# 2 51.0675 149.8228 41.6270 0.0000 -7.5481 0.0000
# 3 28.9526 41.6270 67.3949 0.0000 -4.8541 0.0000
# 4 0.0000 0.0000 0.0000 15.6650 0.0000 -2.8577
# 5 -4.4962 -7.5481 -4.8541 0.0000 9.9217 0.0000
# 6 0.0000 0.0000 0.0000 -2.8577 0.0000 29.2781
#
#
#
# Elastic Compliance Matrix: (Units=1/GPa)
#
#
# Indices 1 2 3 4 5 6 
#
# 1 0.007791 -0.002047 -0.002012 0.000000 0.000989 0.000000
# 2 -0.002047 0.008738 -0.004256 0.000000 0.003638 0.000000
# 3 -0.002012 -0.004256 0.018690 0.000000 0.004995 0.000000
# 4 0.000000 0.000000 0.000000 0.064994 0.000000 0.006344
# 5 0.000989 0.003638 0.004995 0.000000 0.106449 0.000000
# 6 0.000000 0.000000 0.000000 0.006344 0.000000 0.034774
#
#
# Mechanical properties :
#
#
# Convention : Reuss Voigt Hill
#
# Bulk Modulus (GPa) = 53.78854 67.81350 60.80102
# Shear Modulus (GPa) = 18.92056 27.33163 23.12609
#
# Velocity S-wave (km/s) = 3.04837 3.66382 3.37017
# Velocity P-wave (km/s) = 6.22958 7.15568 6.70863
#
# Compressibility (1/GPa) = 0.01859132
#
# Stress axis : x y z
#
# Youngs Moduli (GPa) = 128.34711 114.44339 53.50336
#
# Poissons Ratio (x) = 0.23426 0.10762
# Poissons Ratio (y) = 0.26272 0.22769
# Poissons Ratio (z) = 0.25818 0.48703
#
# Static dielectric constant tensor:
#      x y z
#    x 3.812700 0.000000 -0.027970 
#    y 0.000000 3.653500 0.000000 
#    z -0.027970 0.000000 3.545550 
# 
# 
# High freq. dielectric constant tensor:
#      x y z
#    x 1.801820 0.000000 -0.001980 
#    y 0.000000 1.792650 0.000000 
#    z -0.001980 0.000000 1.775490 
# 
# From -- ./inp_files/231171.got.cif
#   From: 2010.06.25/outbox.cif.g09.slc.cpg/sg15_116_cif.got.tgz:231171.got - 2010.06.28 07:06:18.
