data_PCOD8150831
_publ_section_title
;
Structure prediction by ZEFSAII (Michael W. Deem and Ramdas Pophale) SiO2 
 PCOD8150831
Probable space group: C 2/C
;
_chemical_formula_sum "Si O2"
_cell_formula_units_Z 44
_cell_length_a 28.003233
_cell_length_b 16.558957
_cell_length_c 12.149844
_cell_angle_alpha 90.000000
_cell_angle_beta 159.572513
_cell_angle_gamma 90.000000
_cell_volume 1966.365432
_symmetry_space_group_name_H-M "C 2/C"
_symmetry_group_IT_number 15
_symmetry_cell_setting 'monoclinic'
loop_
_space_group_symop_operation_xyz
x,y,z
-x,y,1/2-z
-x,-y,-z
x,-y,1/2+z
1/2+x,1/2+y,z
1/2-x,1/2+y,1/2-z
1/2-x,1/2-y,-z
1/2+x,1/2-y,1/2+z
loop_
_atom_site_type_symbol
_atom_site_label
_atom_site_fract_x
_atom_site_fract_y
_atom_site_fract_z
Si Si1 0.627060 0.126726 0.782393
Si Si2 0.343944 0.132621 0.903416
Si Si3 0.270393 0.527175 0.661184
Si Si4 0.677459 0.165735 0.320752
Si Si5 0.500000 0.573092 0.750000
Si Si6 0.229688 0.808478 0.704109
O O1 0.695637 0.137524 0.810591
O O2 0.468461 0.152928 0.435683
O O3 0.706478 0.185209 0.037158
O O4 0.647030 0.034708 0.866074
O O5 0.254807 0.064673 0.772056
O O6 0.319624 0.216483 0.915633
O O7 0.500000 0.105889 0.250000
O O8 0.276640 0.595321 0.580600
O O9 0.416207 0.481490 0.981504
O O10 0.750000 0.250000 0.500000
O O11 0.660513 0.164398 0.151620
O O12 0.396855 0.631732 0.591739
#
# Coordination Sequence:
#
# PCOD8150831 Si02
#       6
#     8   8   8   8   4   8
#     4  11  26  44  72 102 138 184 229 286 348 406
#     4  12  23  45  72  99 139 178 235 278 346 413
#     4  11  26  45  69 106 136 184 227 286 342 413
#     4  12  24  45  71 102 137 179 230 286 340 405
#     4  10  26  46  66 100 140 180 226 280 352 396
#     4  11  24  46  70 101 139 182 231 284 342 416
#
# _framework density 22.376307000000001
#
# number of rings (size 3 to 8) (size 9 to 14) (size 15 to 20)
#    0.000    0.727    4.545    1.636    5.091    2.182 
#    3.273    0.000    0.000    0.000    0.000    0.000 
#    0.000    0.000    0.000    0.000    0.000    0.000 
#
# Total GULP energy -272806.387320 kJ/mol
# GULP energy per Si atom -12400.290333 kJ/mol
# Density = 2.232538 g / cm^3
# Si number density = 22.376307 Si / 1000 Ang^3
#
#
#
# Elastic Constant Matrix: (Units=GPa)
#
#
# Indices 1 2 3 4 5 6 
#
# 1 130.9928 29.9742 22.1000 0.0000 -19.9656 0.0000
# 2 29.9742 148.9660 51.5575 0.0000 6.4544 0.0000
# 3 22.1000 51.5575 98.2150 0.0000 -3.7012 0.0000
# 4 0.0000 0.0000 0.0000 29.1158 0.0000 -8.9276
# 5 -19.9656 6.4544 -3.7012 0.0000 28.7100 0.0000
# 6 0.0000 0.0000 0.0000 -8.9276 0.0000 31.4710
#
#
#
# Elastic Compliance Matrix: (Units=1/GPa)
#
#
# Indices 1 2 3 4 5 6 
#
# 1 0.009226 -0.001854 -0.000850 0.000000 0.006723 0.000000
# 2 -0.001854 0.008745 -0.004317 0.000000 -0.003812 0.000000
# 3 -0.000850 -0.004317 0.012715 0.000000 0.002019 0.000000
# 4 0.000000 0.000000 0.000000 0.037618 0.000000 0.010671
# 5 0.006723 -0.003812 0.002019 0.000000 0.040624 0.000000
# 6 0.000000 0.000000 0.000000 0.010671 0.000000 0.034802
#
#
# Mechanical properties :
#
#
# Convention : Reuss Voigt Hill
#
# Bulk Modulus (GPa) = 60.07575 65.04856 62.56215
# Shear Modulus (GPa) = 30.61457 36.16217 33.38837
#
# Velocity S-wave (km/s) = 3.70289 4.02443 3.86700
# Velocity P-wave (km/s) = 6.72221 7.12236 6.92518
#
# Compressibility (1/GPa) = 0.01664565
#
# Stress axis : x y z
#
# Youngs Moduli (GPa) = 108.38609 114.34659 78.64498
#
# Poissons Ratio (x) = 0.21197 0.06682
# Poissons Ratio (y) = 0.20092 0.33954
# Poissons Ratio (z) = 0.09208 0.49367
#
# Static dielectric constant tensor:
#      x y z
#    x 4.251960 0.000000 -0.177990 
#    y 0.000000 4.155130 0.000000 
#    z -0.177990 0.000000 3.920500 
# 
# 
# High freq. dielectric constant tensor:
#      x y z
#    x 1.882290 0.000000 -0.016270 
#    y 0.000000 1.896570 0.000000 
#    z -0.016270 0.000000 1.872020 
# 
# From -- ./inp_files/127326.got.cif
#   From: 2010.06.25/outbox.cif.g09.slc.cpg/sg15_64_cif.got.tgz:127326.got - 2010.06.28 07:06:18.
