data_PCOD8150852
_publ_section_title
;
Structure prediction by ZEFSAII (Michael W. Deem and Ramdas Pophale) SiO2 
 PCOD8150852
Probable space group: C 2/C
;
_chemical_formula_sum "Si O2"
_cell_formula_units_Z 60
_cell_length_a 21.205868
_cell_length_b 8.460829
_cell_length_c 18.068338
_cell_angle_alpha 90.000000
_cell_angle_beta 126.025122
_cell_angle_gamma 90.000000
_cell_volume 2621.841353
_symmetry_space_group_name_H-M "C 2/C"
_symmetry_group_IT_number 15
_symmetry_cell_setting 'monoclinic'
loop_
_space_group_symop_operation_xyz
x,y,z
-x,y,1/2-z
-x,-y,-z
x,-y,1/2+z
1/2+x,1/2+y,z
1/2-x,1/2+y,1/2-z
1/2-x,1/2-y,-z
1/2+x,1/2-y,1/2+z
loop_
_atom_site_type_symbol
_atom_site_label
_atom_site_fract_x
_atom_site_fract_y
_atom_site_fract_z
Si Si1 0.500000 0.432592 0.250000
Si Si2 0.657561 0.411398 0.054452
Si Si3 0.327185 0.545328 0.778165
Si Si4 0.276918 0.077285 0.038822
Si Si5 0.809745 0.554018 0.405183
Si Si6 0.615078 0.819635 0.761644
Si Si7 0.493344 0.401156 0.889371
Si Si8 0.441334 0.052808 0.896392
O O1 0.430094 0.317808 0.225842
O O2 0.472898 0.556031 0.168291
O O3 0.702651 0.477875 0.158143
O O4 0.703206 0.471138 0.013548
O O5 0.654074 0.224173 0.059933
O O6 0.565312 0.456492 0.991379
O O7 0.278725 0.437450 0.687507
O O8 0.322299 0.728999 0.748075
O O9 0.418247 0.508248 0.847002
O O10 0.340958 0.072956 0.147873
O O11 0.250000 0.250000 0.000000
O O12 0.315022 0.013376 0.990885
O O13 0.857045 0.443897 0.379204
O O14 0.559582 0.930296 0.673092
O O15 0.467188 0.220176 0.881462
O O16 0.500000 0.000000 0.000000
#
# Coordination Sequence:
#
# PCOD8150852 Si02
#       8
#     4   8   8   8   8   8   8   8
#     4  10  26  46  74 106 156 186 252 298 374 444
#     4  12  26  47  72 105 149 189 248 302 371 445
#     4  11  25  46  72 105 143 194 242 298 372 440
#     4  12  27  46  74 107 146 196 245 306 377 433
#     4  12  27  46  71 108 151 188 248 307 369 451
#     4  11  24  48  72 109 144 195 250 301 369 443
#     4  11  26  46  75 106 147 193 242 307 374 443
#     4  12  26  47  74 111 147 190 253 306 370 441
#
# _framework density 22.884679999999999
#
# number of rings (size 3 to 8) (size 9 to 14) (size 15 to 20)
#    0.000    0.533    4.000    2.400    9.333    2.667 
#    0.000    0.000    0.000    0.000    0.000    0.000 
#    0.000    0.000    0.000    0.000    0.000    0.000 
#
# Total GULP energy -371832.226148 kJ/mol
# GULP energy per Si atom -12394.407538 kJ/mol
# Density = 2.283259 g / cm^3
# Si number density = 22.884680 Si / 1000 Ang^3
#
#
#
# Elastic Constant Matrix: (Units=GPa)
#
#
# Indices 1 2 3 4 5 6 
#
# 1 97.0618 38.5495 47.8117 0.0000 -11.1363 0.0000
# 2 38.5495 73.8039 48.5463 0.0000 -8.0184 0.0000
# 3 47.8117 48.5463 173.6717 0.0000 -4.2097 0.0000
# 4 0.0000 0.0000 0.0000 38.9455 0.0000 -2.3363
# 5 -11.1363 -8.0184 -4.2097 0.0000 41.5740 0.0000
# 6 0.0000 0.0000 0.0000 -2.3363 0.0000 32.4701
#
#
#
# Elastic Compliance Matrix: (Units=1/GPa)
#
#
# Indices 1 2 3 4 5 6 
#
# 1 0.013865 -0.005522 -0.002215 0.000000 0.002425 0.000000
# 2 -0.005522 0.019118 -0.003780 0.000000 0.001826 0.000000
# 3 -0.002215 -0.003780 0.007410 0.000000 -0.000572 0.000000
# 4 0.000000 0.000000 0.000000 0.025788 0.000000 0.001855
# 5 0.002425 0.001826 -0.000572 0.000000 0.024997 0.000000
# 6 0.000000 0.000000 0.000000 0.001855 0.000000 0.030931
#
#
# Mechanical properties :
#
#
# Convention : Reuss Voigt Hill
#
# Bulk Modulus (GPa) = 57.60024 68.26138 62.93081
# Shear Modulus (GPa) = 33.12815 36.57326 34.85070
#
# Velocity S-wave (km/s) = 3.80888 4.00203 3.90665
# Velocity P-wave (km/s) = 6.67591 7.15878 6.92156
#
# Compressibility (1/GPa) = 0.01736104
#
# Stress axis : x y z
#
# Youngs Moduli (GPa) = 72.12456 52.30654 134.94591
#
# Poissons Ratio (x) = 0.28882 0.29887
# Poissons Ratio (y) = 0.39825 0.51005
# Poissons Ratio (z) = 0.15974 0.19770
#
# Static dielectric constant tensor:
#      x y z
#    x 4.243650 0.000000 -0.095000 
#    y 0.000000 3.979620 0.000000 
#    z -0.095000 0.000000 4.489350 
# 
# 
# High freq. dielectric constant tensor:
#      x y z
#    x 1.904310 0.000000 -0.008320 
#    y 0.000000 1.896880 0.000000 
#    z -0.008320 0.000000 1.927200 
# 
# From -- ./inp_files/214301.got.cif
#   From: 2010.06.25/outbox.cif.g09.slc.cpg/sg15_108_cif.got.tgz:214301.got - 2010.06.28 07:06:18.
