data_PCOD8150527
_publ_section_title
;
Structure prediction by ZEFSAII (Michael W. Deem and Ramdas Pophale) SiO2 
 PCOD8150527
Probable space group: C 2/C
;
_chemical_formula_sum "Si O2"
_cell_formula_units_Z 52
_cell_length_a 20.310767
_cell_length_b 21.661228
_cell_length_c 9.343428
_cell_angle_alpha 90.000000
_cell_angle_beta 144.828827
_cell_angle_gamma 90.000000
_cell_volume 2367.849229
_symmetry_space_group_name_H-M "C 2/C"
_symmetry_group_IT_number 15
_symmetry_cell_setting 'monoclinic'
loop_
_space_group_symop_operation_xyz
x,y,z
-x,y,1/2-z
-x,-y,-z
x,-y,1/2+z
1/2+x,1/2+y,z
1/2-x,1/2+y,1/2-z
1/2-x,1/2-y,-z
1/2+x,1/2-y,1/2+z
loop_
_atom_site_type_symbol
_atom_site_label
_atom_site_fract_x
_atom_site_fract_y
_atom_site_fract_z
Si Si1 0.500000 0.371191 0.250000
Si Si2 0.147799 0.713931 0.244685
Si Si3 0.422303 0.262952 0.924056
Si Si4 0.124802 0.921194 0.951556
Si Si5 0.249971 0.918021 0.647227
Si Si6 0.805374 0.790135 0.419034
Si Si7 0.785178 0.009932 0.152644
O O1 0.535246 0.329143 0.446491
O O2 0.610641 0.411867 0.401979
O O3 0.250000 0.750000 0.500000
O O4 0.184815 0.645585 0.263918
O O5 0.112322 0.756463 0.047083
O O6 0.028100 0.714352 0.118450
O O7 0.322078 0.235078 0.844192
O O8 0.358645 0.272820 0.663296
O O9 0.000000 0.892896 0.750000
O O10 0.138209 0.947605 0.814748
O O11 0.208818 0.863701 0.126370
O O12 0.139324 0.971974 0.100302
O O13 0.285090 0.964144 0.578437
O O14 0.290383 0.946017 0.874467
#
# Coordination Sequence:
#
# PCOD8150527 Si02
#       7
#     4   8   8   8   8   8   8
#     4  12  22  38  66  92 136 168 210 276 318 408
#     4  12  22  41  67  96 126 173 213 266 333 390
#     4  11  23  40  61  99 132 165 211 259 344 388
#     4  11  22  37  60  87 127 164 217 263 322 382
#     4  11  24  39  66  91 135 167 222 267 326 391
#     4  11  24  39  62  97 130 165 208 272 325 394
#     4  10  25  39  57  92 127 174 213 268 323 382
#
# _framework density 21.960858999999999
#
# number of rings (size 3 to 8) (size 9 to 14) (size 15 to 20)
#    0.000    0.923    3.077    3.692   10.769    0.000 
#    0.000    0.000    0.000    5.538    0.000    0.000 
#    0.000    0.000    0.000    0.000    0.000    0.000 
#
# Total GULP energy -322161.308725 kJ/mol
# GULP energy per Si atom -12390.819566 kJ/mol
# Density = 2.191087 g / cm^3
# Si number density = 21.960859 Si / 1000 Ang^3
#
#
#
# Elastic Constant Matrix: (Units=GPa)
#
#
# Indices 1 2 3 4 5 6 
#
# 1 60.4370 29.0512 34.4159 0.0000 -10.5612 0.0000
# 2 29.0512 134.0209 28.9788 0.0000 -6.3228 0.0000
# 3 34.4159 28.9788 73.3069 0.0000 -12.6097 0.0000
# 4 0.0000 0.0000 0.0000 22.6005 0.0000 -6.9724
# 5 -10.5612 -6.3228 -12.6097 0.0000 39.1244 0.0000
# 6 0.0000 0.0000 0.0000 -6.9724 0.0000 39.3893
#
#
#
# Elastic Compliance Matrix: (Units=1/GPa)
#
#
# Indices 1 2 3 4 5 6 
#
# 1 0.023928 -0.002984 -0.009556 0.000000 0.002897 0.000000
# 2 -0.002984 0.008534 -0.001984 0.000000 -0.000066 0.000000
# 3 -0.009556 -0.001984 0.019494 0.000000 0.003383 0.000000
# 4 0.000000 0.000000 0.000000 0.046803 0.000000 0.008285
# 5 0.002897 -0.000066 0.003383 0.000000 0.027421 0.000000
# 6 0.000000 0.000000 0.000000 0.008285 0.000000 0.026854
#
#
# Mechanical properties :
#
#
# Convention : Reuss Voigt Hill
#
# Bulk Modulus (GPa) = 43.65189 50.29516 46.97353
# Shear Modulus (GPa) = 26.35485 31.91076 29.13280
#
# Velocity S-wave (km/s) = 3.46798 3.81606 3.64617
# Velocity P-wave (km/s) = 5.99634 6.50909 6.25797
#
# Compressibility (1/GPa) = 0.02290852
#
# Stress axis : x y z
#
# Youngs Moduli (GPa) = 41.79136 117.17496 51.29849
#
# Poissons Ratio (x) = 0.34964 0.49020
# Poissons Ratio (y) = 0.12470 0.10178
# Poissons Ratio (z) = 0.39936 0.23248
#
# Static dielectric constant tensor:
#      x y z
#    x 4.335860 0.000000 -0.193660 
#    y 0.000000 4.157600 0.000000 
#    z -0.193660 0.000000 3.805830 
# 
# 
# High freq. dielectric constant tensor:
#      x y z
#    x 1.867790 0.000000 -0.032840 
#    y 0.000000 1.873050 0.000000 
#    z -0.032840 0.000000 1.845350 
# 
# From -- ./inp_files/58669.got.cif
#   From: 2010.06.25/outbox.cif.g09.slc.cpg/sg15_30_cif.got.tgz:58669.got - 2010.06.28 07:06:18.
