data_PCOD8150390
_publ_section_title
;
Structure prediction by ZEFSAII (Michael W. Deem and Ramdas Pophale) SiO2 
 PCOD8150390
Probable space group: C 2/C
;
_chemical_formula_sum "Si O2"
_cell_formula_units_Z 36
_cell_length_a 19.995025
_cell_length_b 8.080783
_cell_length_c 9.650149
_cell_angle_alpha 90.000000
_cell_angle_beta 74.280180
_cell_angle_gamma 90.000000
_cell_volume 1500.909155
_symmetry_space_group_name_H-M "C 2/C"
_symmetry_group_IT_number 15
_symmetry_cell_setting 'monoclinic'
loop_
_space_group_symop_operation_xyz
x,y,z
-x,y,1/2-z
-x,-y,-z
x,-y,1/2+z
1/2+x,1/2+y,z
1/2-x,1/2+y,1/2-z
1/2-x,1/2-y,-z
1/2+x,1/2-y,1/2+z
loop_
_atom_site_type_symbol
_atom_site_label
_atom_site_fract_x
_atom_site_fract_y
_atom_site_fract_z
Si Si1 0.000000 0.144111 0.750000
Si Si2 0.274643 0.423986 0.047301
Si Si3 0.938824 0.438994 0.939580
Si Si4 0.861570 0.399801 0.244527
Si Si5 0.859302 0.991728 0.752089
O O1 0.040967 0.252981 0.613845
O O2 0.059076 0.030166 0.783669
O O3 0.205747 0.499886 0.159599
O O4 0.332597 0.405861 0.134805
O O5 0.250000 0.250000 0.000000
O O6 0.310136 0.541740 0.911041
O O7 0.925970 0.547075 0.808055
O O8 0.871879 0.450343 0.078265
O O9 0.000000 0.500000 0.000000
O O10 0.851522 0.204528 0.247905
#
# Coordination Sequence:
#
# PCOD8150390 Si02
#       5
#     4   8   8   8   8
#     4  12  28  42  76 104 154 184 250 290 370 434
#     4  10  24  46  73 104 144 182 240 299 363 420
#     4  12  25  44  67 103 141 189 234 292 362 425
#     4  11  25  46  74 100 145 189 241 298 355 429
#     4  11  26  46  73 112 141 194 239 304 357 431
#
# _framework density 23.985461000000001
#
# number of rings (size 3 to 8) (size 9 to 14) (size 15 to 20)
#    0.000    0.889    2.222    2.667    9.333    5.333 
#    0.000    7.778    0.000    0.000    0.000    0.000 
#    0.000    0.000    0.000    0.000    0.000    0.000 
#
# Total GULP energy -223069.453783 kJ/mol
# GULP energy per Si atom -12392.747432 kJ/mol
# Density = 2.393087 g / cm^3
# Si number density = 23.985461 Si / 1000 Ang^3
#
#
#
# Elastic Constant Matrix: (Units=GPa)
#
#
# Indices 1 2 3 4 5 6 
#
# 1 123.5605 29.2382 46.5436 0.0000 14.8608 0.0000
# 2 29.2382 62.0368 29.5777 0.0000 4.7800 0.0000
# 3 46.5436 29.5777 175.9012 0.0000 -4.4653 0.0000
# 4 0.0000 0.0000 0.0000 24.0843 0.0000 -2.4415
# 5 14.8608 4.7800 -4.4653 0.0000 54.1745 0.0000
# 6 0.0000 0.0000 0.0000 -2.4415 0.0000 26.8425
#
#
#
# Elastic Compliance Matrix: (Units=1/GPa)
#
#
# Indices 1 2 3 4 5 6 
#
# 1 0.010044 -0.003515 -0.002133 0.000000 -0.002621 0.000000
# 2 -0.003515 0.018930 -0.002276 0.000000 -0.000894 0.000000
# 3 -0.002133 -0.002276 0.006666 0.000000 0.001335 0.000000
# 4 0.000000 0.000000 0.000000 0.041907 0.000000 0.003812
# 5 -0.002621 -0.000894 0.001335 0.000000 0.019367 0.000000
# 6 0.000000 0.000000 0.000000 0.003812 0.000000 0.037601
#
#
# Mechanical properties :
#
#
# Convention : Reuss Voigt Hill
#
# Bulk Modulus (GPa) = 50.52433 63.57972 57.05202
# Shear Modulus (GPa) = 31.85549 38.09619 34.97584
#
# Velocity S-wave (km/s) = 3.64829 3.98968 3.82279
# Velocity P-wave (km/s) = 6.23353 6.91292 6.58200
#
# Compressibility (1/GPa) = 0.01979244
#
# Stress axis : x y z
#
# Youngs Moduli (GPa) = 99.56609 52.82671 150.01514
#
# Poissons Ratio (x) = 0.18567 0.32000
# Poissons Ratio (y) = 0.34994 0.34140
# Poissons Ratio (z) = 0.21238 0.12022
#
# Static dielectric constant tensor:
#      x y z
#    x 4.881920 0.000000 -0.808350 
#    y 0.000000 4.291050 0.000000 
#    z -0.808350 0.000000 4.913790 
# 
# 
# High freq. dielectric constant tensor:
#      x y z
#    x 1.968590 0.000000 -0.013350 
#    y 0.000000 1.915660 0.000000 
#    z -0.013350 0.000000 1.978860 
# 
# From -- ./inp_files/53638.got.cif
#   From: 2010.06.25/outbox.cif.g09.slc.cpg/sg15_27_cif.got.tgz:53638.got - 2010.06.28 07:06:18.
