data_PCOD8150054
_publ_section_title
;
Structure prediction by ZEFSAII (Michael W. Deem and Ramdas Pophale) SiO2 
 PCOD8150054
Probable space group: C 2/C
;
_chemical_formula_sum "Si O2"
_cell_formula_units_Z 44
_cell_length_a 11.194940
_cell_length_b 26.090430
_cell_length_c 10.101609
_cell_angle_alpha 90.000000
_cell_angle_beta 135.478775
_cell_angle_gamma 90.000000
_cell_volume 2068.802425
_symmetry_space_group_name_H-M "C 2/C"
_symmetry_group_IT_number 15
_symmetry_cell_setting 'monoclinic'
loop_
_space_group_symop_operation_xyz
x,y,z
-x,y,1/2-z
-x,-y,-z
x,-y,1/2+z
1/2+x,1/2+y,z
1/2-x,1/2+y,1/2-z
1/2-x,1/2-y,-z
1/2+x,1/2-y,1/2+z
loop_
_atom_site_type_symbol
_atom_site_label
_atom_site_fract_x
_atom_site_fract_y
_atom_site_fract_z
Si Si1 0.495055 0.809943 0.957653
Si Si2 0.500000 0.107638 0.250000
Si Si3 0.500000 0.456457 0.750000
Si Si4 0.668458 0.392567 0.092401
Si Si5 0.500000 0.148160 0.750000
Si Si6 0.311711 0.554368 0.628407
Si Si7 0.376117 0.703144 0.772891
O O1 0.434680 0.858370 0.822873
O O2 0.387100 0.759838 0.840495
O O3 0.483570 0.817599 0.105622
O O4 0.688757 0.801959 0.064486
O O5 0.663906 0.072468 0.412502
O O6 0.480610 0.421092 0.605335
O O7 0.332357 0.492524 0.636191
O O8 0.829186 0.385421 0.122327
O O9 0.740065 0.428201 0.266097
O O10 0.594402 0.338619 0.087667
O O11 0.500000 0.579652 0.750000
O O12 0.500000 0.692478 0.750000
#
# Coordination Sequence:
#
# PCOD8150054 Si02
#       7
#     8   4   4   8   4   8   8
#     4  11  25  40  68 106 142 189 238 286 361 430
#     4  12  22  45  73 106 144 193 231 300 358 410
#     4  10  26  45  71 102 136 183 245 302 374 422
#     4  11  23  46  66 100 141 188 231 308 361 426
#     4  10  24  44  62 102 150 178 240 288 360 440
#     4  10  24  45  72 102 138 180 251 294 352 429
#     4  11  23  41  68 101 140 182 243 291 354 431
#
# _framework density 21.268342000000001
#
# number of rings (size 3 to 8) (size 9 to 14) (size 15 to 20)
#    0.545    0.727    4.545    1.636    0.000    7.273 
#    0.000    1.818    0.000    0.000    0.000    0.000 
#    0.000    0.000    0.000    0.000    0.000    0.000 
#
# Total GULP energy -272749.232212 kJ/mol
# GULP energy per Si atom -12397.692373 kJ/mol
# Density = 2.121993 g / cm^3
# Si number density = 21.268342 Si / 1000 Ang^3
#
#
#
# Elastic Constant Matrix: (Units=GPa)
#
#
# Indices 1 2 3 4 5 6 
#
# 1 112.7386 21.3042 38.6088 0.0000 0.9779 0.0000
# 2 21.3042 121.1925 63.5590 0.0000 0.1243 0.0000
# 3 38.6088 63.5590 148.8661 0.0000 -3.6583 0.0000
# 4 0.0000 0.0000 0.0000 53.6478 0.0000 -5.1701
# 5 0.9779 0.1243 -3.6583 0.0000 31.6197 0.0000
# 6 0.0000 0.0000 0.0000 -5.1701 0.0000 15.9936
#
#
#
# Elastic Compliance Matrix: (Units=1/GPa)
#
#
# Indices 1 2 3 4 5 6 
#
# 1 0.009768 -0.000490 -0.002338 0.000000 -0.000571 0.000000
# 2 -0.000490 0.010667 -0.004440 0.000000 -0.000540 0.000000
# 3 -0.002338 -0.004440 0.009248 0.000000 0.001160 0.000000
# 4 0.000000 0.000000 0.000000 0.019239 0.000000 0.006219
# 5 -0.000571 -0.000540 0.001160 0.000000 0.031780 0.000000
# 6 0.000000 0.000000 0.000000 0.006219 0.000000 0.064535
#
#
# Mechanical properties :
#
#
# Convention : Reuss Voigt Hill
#
# Bulk Modulus (GPa) = 66.02522 69.97124 67.99823
# Shear Modulus (GPa) = 30.33531 37.54055 33.93793
#
# Velocity S-wave (km/s) = 3.78075 4.20586 3.99896
# Velocity P-wave (km/s) = 7.08308 7.52039 7.30501
#
# Compressibility (1/GPa) = 0.01514573
#
# Stress axis : x y z
#
# Youngs Moduli (GPa) = 102.37084 93.74863 108.12946
#
# Poissons Ratio (x) = 0.04597 0.25282
# Poissons Ratio (y) = 0.05020 0.48013
# Poissons Ratio (z) = 0.23936 0.41628
#
# Static dielectric constant tensor:
#      x y z
#    x 3.748720 0.000000 -0.037250 
#    y 0.000000 3.920880 0.000000 
#    z -0.037250 0.000000 3.848580 
# 
# 
# High freq. dielectric constant tensor:
#      x y z
#    x 1.827820 0.000000 -0.007620 
#    y 0.000000 1.837910 0.000000 
#    z -0.007620 0.000000 1.835960 
# 
# From -- ./inp_files/91411.got.cif
#   From: 2010.06.25/outbox.cif.g09.slc.cpg/sg15_46_cif.got.tgz:91411.got - 2010.06.28 07:06:18.
