data_PCOD8150968
_publ_section_title
;
Structure prediction by ZEFSAII (Michael W. Deem and Ramdas Pophale) SiO2 
 PCOD8150968
Probable space group: C 2/C
;
_chemical_formula_sum "Si O2"
_cell_formula_units_Z 56
_cell_length_a 18.920722
_cell_length_b 12.311946
_cell_length_c 14.434583
_cell_angle_alpha 90.000000
_cell_angle_beta 125.467968
_cell_angle_gamma 90.000000
_cell_volume 2738.594717
_symmetry_space_group_name_H-M "C 2/C"
_symmetry_group_IT_number 15
_symmetry_cell_setting 'monoclinic'
loop_
_space_group_symop_operation_xyz
x,y,z
-x,y,1/2-z
-x,-y,-z
x,-y,1/2+z
1/2+x,1/2+y,z
1/2-x,1/2+y,1/2-z
1/2-x,1/2-y,-z
1/2+x,1/2-y,1/2+z
loop_
_atom_site_type_symbol
_atom_site_label
_atom_site_fract_x
_atom_site_fract_y
_atom_site_fract_z
Si Si1 0.977052 0.323002 0.088652
Si Si2 0.358152 0.992371 0.529554
Si Si3 0.812437 0.894347 0.584440
Si Si4 0.597658 0.199792 0.155117
Si Si5 0.500000 0.856882 0.750000
Si Si6 0.235497 0.205261 0.638891
Si Si7 0.500000 0.361092 0.750000
Si Si8 0.365316 0.042955 0.825720
O O1 0.003903 0.217642 0.164697
O O2 0.044460 0.421250 0.151613
O O3 0.885633 0.379139 0.047938
O O4 0.975459 0.293598 0.979436
O O5 0.419916 0.928286 0.647681
O O6 0.363768 0.933224 0.434448
O O7 0.255050 0.004168 0.476754
O O8 0.819849 0.829058 0.493312
O O9 0.787880 0.814481 0.651627
O O10 0.912002 0.934035 0.680778
O O11 0.545905 0.223562 0.210763
O O12 0.674286 0.280549 0.182889
O O13 0.644103 0.083499 0.200094
O O14 0.294443 0.105901 0.713408
#
# Coordination Sequence:
#
# PCOD8150968 Si02
#       8
#     8   8   8   8   4   8   4   8
#     4  11  18  32  53  86 121 146 182 244 306 345
#     4  11  21  34  56  91 121 150 194 241 299 351
#     4  11  21  35  55  88 122 151 194 242 296 353
#     4  11  21  36  54  89 121 152 196 239 296 352
#     4  12  21  34  62  89 122 156 186 247 302 351
#     4  11  21  35  56  86 121 155 191 243 298 351
#     4  12  21  32  60  87 122 152 194 245 300 349
#     4  11  20  34  56  84 125 153 184 247 298 346
#
# _framework density 20.448446000000001
#
# number of rings (size 3 to 8) (size 9 to 14) (size 15 to 20)
#    0.000    0.857    8.571    3.000    0.000    0.000 
#    0.000    0.714    0.000    1.714    0.000    0.000 
#    0.000    0.000    0.000    0.000    0.000    0.000 
#
# Total GULP energy -346893.195879 kJ/mol
# GULP energy per Si atom -12389.042710 kJ/mol
# Density = 2.040190 g / cm^3
# Si number density = 20.448446 Si / 1000 Ang^3
#
#
#
# Elastic Constant Matrix: (Units=GPa)
#
#
# Indices 1 2 3 4 5 6 
#
# 1 128.5842 18.2559 50.7214 0.0000 6.2117 0.0000
# 2 18.2559 24.4770 15.0545 0.0000 4.4372 0.0000
# 3 50.7214 15.0545 102.1996 0.0000 4.2603 0.0000
# 4 0.0000 0.0000 0.0000 10.8246 0.0000 -0.9707
# 5 6.2117 4.4372 4.2603 0.0000 49.6336 0.0000
# 6 0.0000 0.0000 0.0000 -0.9707 0.0000 18.2418
#
#
#
# Elastic Compliance Matrix: (Units=1/GPa)
#
#
# Indices 1 2 3 4 5 6 
#
# 1 0.010195 -0.004859 -0.004325 0.000000 -0.000470 0.000000
# 2 -0.004859 0.047841 -0.004499 0.000000 -0.003283 0.000000
# 3 -0.004325 -0.004499 0.012600 0.000000 -0.000138 0.000000
# 4 0.000000 0.000000 0.000000 0.092825 0.000000 0.004939
# 5 -0.000470 -0.003283 -0.000138 0.000000 0.020512 0.000000
# 6 0.000000 0.000000 0.000000 0.004939 0.000000 0.055082
#
#
# Mechanical properties :
#
#
# Convention : Reuss Voigt Hill
#
# Bulk Modulus (GPa) = 23.11024 47.03603 35.07314
# Shear Modulus (GPa) = 17.80354 27.15529 22.47942
#
# Velocity S-wave (km/s) = 2.95389 3.64811 3.31920
# Velocity P-wave (km/s) = 4.79168 6.38726 5.64612
#
# Compressibility (1/GPa) = 0.04327086
#
# Stress axis : x y z
#
# Youngs Moduli (GPa) = 98.08261 20.90264 79.36812
#
# Poissons Ratio (x) = 0.10157 0.34324
# Poissons Ratio (y) = 0.47659 0.35706
# Poissons Ratio (z) = 0.42417 0.09404
#
# Static dielectric constant tensor:
#      x y z
#    x 4.004400 0.000000 -0.047070 
#    y 0.000000 3.066780 0.000000 
#    z -0.047070 0.000000 3.904150 
# 
# 
# High freq. dielectric constant tensor:
#      x y z
#    x 1.806740 0.000000 0.001320 
#    y 0.000000 1.730130 0.000000 
#    z 0.001320 0.000000 1.811210 
# 
# From -- ./inp_files/162033.got.cif
#   From: 2010.06.25/outbox.cif.g09.slc.cpg/sg15_82_cif.got.tgz:162033.got - 2010.06.28 07:06:18.
