data_PCOD8150332
_publ_section_title
;
Structure prediction by ZEFSAII (Michael W. Deem and Ramdas Pophale) SiO2 
 PCOD8150332
Probable space group: C 2/C
;
_chemical_formula_sum "Si O2"
_cell_formula_units_Z 40
_cell_length_a 10.377034
_cell_length_b 10.505498
_cell_length_c 16.321941
_cell_angle_alpha 90.000000
_cell_angle_beta 100.658752
_cell_angle_gamma 90.000000
_cell_volume 1748.650690
_symmetry_space_group_name_H-M "C 2/C"
_symmetry_group_IT_number 15
_symmetry_cell_setting 'monoclinic'
loop_
_space_group_symop_operation_xyz
x,y,z
-x,y,1/2-z
-x,-y,-z
x,-y,1/2+z
1/2+x,1/2+y,z
1/2-x,1/2+y,1/2-z
1/2-x,1/2-y,-z
1/2+x,1/2-y,1/2+z
loop_
_atom_site_type_symbol
_atom_site_label
_atom_site_fract_x
_atom_site_fract_y
_atom_site_fract_z
Si Si1 0.782747 0.275700 0.115420
Si Si2 0.624695 0.921448 0.225663
Si Si3 0.373133 0.524794 0.184347
Si Si4 0.008060 0.363250 0.041765
Si Si5 0.504755 0.375881 0.442221
O O1 0.858137 0.307414 0.208493
O O2 0.637892 0.329616 0.102745
O O3 0.856207 0.330711 0.044084
O O4 0.804423 0.124468 0.114460
O O5 0.500000 0.001782 0.250000
O O6 0.761064 0.996681 0.238642
O O7 0.597041 0.867505 0.132434
O O8 0.500000 0.572141 0.250000
O O9 0.413503 0.406210 0.130578
O O10 0.000000 0.500000 0.000000
O O11 0.068354 0.248788 0.993571
O O12 0.500000 0.500000 0.500000
#
# Coordination Sequence:
#
# PCOD8150332 Si02
#       5
#     8   8   8   8   8
#     4  11  24  47  71 101 151 196 245 309 372 447
#     4  10  24  46  68 101 143 197 241 303 374 448
#     4  12  24  48  77 108 146 199 256 308 378 455
#     4  11  24  45  69 105 151 197 237 315 380 437
#     4  12  26  44  73 111 143 192 253 307 375 446
#
# _framework density 22.874779
#
# number of rings (size 3 to 8) (size 9 to 14) (size 15 to 20)
#    0.000    0.800    4.000    3.600    2.800    0.800 
#   10.800    0.000    0.000    0.000    0.000    0.000 
#    0.000    0.000    0.000    0.000    0.000    0.000 
#
# Total GULP energy -247830.470322 kJ/mol
# GULP energy per Si atom -12391.523516 kJ/mol
# Density = 2.282272 g / cm^3
# Si number density = 22.874779 Si / 1000 Ang^3
#
#
#
# Elastic Constant Matrix: (Units=GPa)
#
#
# Indices 1 2 3 4 5 6 
#
# 1 170.4118 44.1866 29.2279 0.0000 -15.0435 0.0000
# 2 44.1866 145.3921 43.6954 0.0000 -12.4747 0.0000
# 3 29.2279 43.6954 98.2835 0.0000 -8.8388 0.0000
# 4 0.0000 0.0000 0.0000 37.9322 0.0000 -2.2409
# 5 -15.0435 -12.4747 -8.8388 0.0000 35.6007 0.0000
# 6 0.0000 0.0000 0.0000 -2.2409 0.0000 34.9837
#
#
#
# Elastic Compliance Matrix: (Units=1/GPa)
#
#
# Indices 1 2 3 4 5 6 
#
# 1 0.006627 -0.001506 -0.001122 0.000000 0.001994 0.000000
# 2 -0.001506 0.008415 -0.003156 0.000000 0.001529 0.000000
# 3 -0.001122 -0.003156 0.012038 0.000000 0.001409 0.000000
# 4 0.000000 0.000000 0.000000 0.026463 0.000000 0.001695
# 5 0.001994 0.001529 0.001409 0.000000 0.029818 0.000000
# 6 0.000000 0.000000 0.000000 0.001695 0.000000 0.028693
#
#
# Mechanical properties :
#
#
# Convention : Reuss Voigt Hill
#
# Bulk Modulus (GPa) = 64.46253 72.03414 68.24834
# Shear Modulus (GPa) = 38.82208 41.50182 40.16195
#
# Velocity S-wave (km/s) = 4.12413 4.26409 4.19469
# Velocity P-wave (km/s) = 7.13580 7.47009 7.30486
#
# Compressibility (1/GPa) = 0.01551289
#
# Stress axis : x y z
#
# Youngs Moduli (GPa) = 150.89681 118.83193 83.06945
#
# Poissons Ratio (x) = 0.17893 0.09320
# Poissons Ratio (y) = 0.22721 0.26217
# Poissons Ratio (z) = 0.16931 0.37503
#
# Static dielectric constant tensor:
#      x y z
#    x 4.460840 0.000000 -0.119940 
#    y 0.000000 4.134600 0.000000 
#    z -0.119940 0.000000 4.323110 
# 
# 
# High freq. dielectric constant tensor:
#      x y z
#    x 1.911300 0.000000 0.005980 
#    y 0.000000 1.884310 0.000000 
#    z 0.005980 0.000000 1.924870 
# 
# From -- ./inp_files/195243.got.cif
#   From: 2010.06.25/outbox.cif.g09.slc.cpg/sg15_98_cif.got.tgz:195243.got - 2010.06.28 07:06:18.
