data_PCOD8150080
_publ_section_title
;
Structure prediction by ZEFSAII (Michael W. Deem and Ramdas Pophale) SiO2 
 PCOD8150080
Probable space group: C 2/C
;
_chemical_formula_sum "Si O2"
_cell_formula_units_Z 44
_cell_length_a 6.366310
_cell_length_b 13.844717
_cell_length_c 23.776460
_cell_angle_alpha 90.000000
_cell_angle_beta 66.108489
_cell_angle_gamma 90.000000
_cell_volume 1916.083432
_symmetry_space_group_name_H-M "C 2/C"
_symmetry_group_IT_number 15
_symmetry_cell_setting 'monoclinic'
loop_
_space_group_symop_operation_xyz
x,y,z
-x,y,1/2-z
-x,-y,-z
x,-y,1/2+z
1/2+x,1/2+y,z
1/2-x,1/2+y,1/2-z
1/2-x,1/2-y,-z
1/2+x,1/2-y,1/2+z
loop_
_atom_site_type_symbol
_atom_site_label
_atom_site_fract_x
_atom_site_fract_y
_atom_site_fract_z
Si Si1 0.109254 0.371559 0.982171
Si Si2 0.293866 0.319298 0.080930
Si Si3 0.000000 0.609820 0.250000
Si Si4 0.609262 0.243079 0.794283
Si Si5 0.254602 0.538934 0.793981
Si Si6 0.315614 0.548210 0.916791
O O1 0.058437 0.272902 0.954389
O O2 0.304177 0.432312 0.926722
O O3 0.200135 0.366613 0.035251
O O4 0.856368 0.416387 0.015471
O O5 0.440110 0.398798 0.100061
O O6 0.083294 0.277647 0.139023
O O7 0.204665 0.678227 0.204597
O O8 0.068164 0.540902 0.295088
O O9 0.500000 0.287907 0.750000
O O10 0.725523 0.140755 0.764832
O O11 0.500000 0.495274 0.750000
O O12 0.232834 0.565090 0.862112
#
# Coordination Sequence:
#
# PCOD8150080 Si02
#       6
#     8   8   4   8   8   8
#     4  10  24  44  65 106 140 187 234 284 356 418
#     4  11  24  44  71 101 141 184 236 293 349 426
#     4  12  30  48  72 104 144 190 238 296 372 428
#     4  12  26  47  72 104 142 188 239 299 364 428
#     4  12  26  47  72 104 142 188 239 299 364 428
#     4  11  24  44  71 101 141 184 236 293 349 426
#
# _framework density 22.963509999999999
#
# number of rings (size 3 to 8) (size 9 to 14) (size 15 to 20)
#    0.000    0.727    3.636    2.727    5.091    0.000 
#   13.091    0.000    0.000    0.000    0.000    0.000 
#    0.000    0.000    0.000    0.000    0.000    0.000 
#
# Total GULP energy -272680.767383 kJ/mol
# GULP energy per Si atom -12394.580336 kJ/mol
# Density = 2.291124 g / cm^3
# Si number density = 22.963510 Si / 1000 Ang^3
#
#
#
# Elastic Constant Matrix: (Units=GPa)
#
#
# Indices 1 2 3 4 5 6 
#
# 1 99.9698 49.5650 36.4840 0.0000 -3.6802 0.0000
# 2 49.5650 86.8917 24.3367 0.0001 1.7564 0.0000
# 3 36.4840 24.3367 76.2891 0.0000 -4.8639 0.0000
# 4 0.0000 0.0001 0.0000 43.8891 0.0000 -0.0752
# 5 -3.6802 1.7564 -4.8639 0.0000 35.0597 0.0000
# 6 0.0000 0.0000 0.0000 -0.0752 0.0000 55.1573
#
#
#
# Elastic Compliance Matrix: (Units=1/GPa)
#
#
# Indices 1 2 3 4 5 6 
#
# 1 0.015602 -0.007534 -0.004974 0.000000 0.001325 0.000000
# 2 -0.007534 0.016326 -0.001723 0.000000 -0.001848 0.000000
# 3 -0.004974 -0.001723 0.016151 0.000000 0.001805 0.000000
# 4 0.000000 0.000000 0.000000 0.022785 0.000000 0.000031
# 5 0.001325 -0.001848 0.001805 0.000000 0.029005 0.000000
# 6 0.000000 0.000000 0.000000 0.000031 0.000000 0.018130
#
#
# Mechanical properties :
#
#
# Convention : Reuss Voigt Hill
#
# Bulk Modulus (GPa) = 50.97181 53.76910 52.37046
# Shear Modulus (GPa) = 32.67994 37.00553 34.84274
#
# Velocity S-wave (km/s) = 3.77653 4.01870 3.89949
# Velocity P-wave (km/s) = 6.42349 6.70813 6.56736
#
# Compressibility (1/GPa) = 0.01961869
#
# Stress axis : x y z
#
# Youngs Moduli (GPa) = 64.09404 61.25266 61.91432
#
# Poissons Ratio (x) = 0.46145 0.30794
# Poissons Ratio (y) = 0.48285 0.10668
# Poissons Ratio (z) = 0.31878 0.10554
#
# Static dielectric constant tensor:
#      x y z
#    x 4.098850 0.000000 -0.136730 
#    y 0.000000 4.477960 0.000000 
#    z -0.136730 0.000000 4.464810 
# 
# 
# High freq. dielectric constant tensor:
#      x y z
#    x 1.900370 0.000000 -0.002270 
#    y 0.000000 1.926470 0.000000 
#    z -0.002270 0.000000 1.904110 
# 
# From -- ./inp_files/285402.got.cif
#   From: 2010.06.25/outbox.cif.g09.slc.cpg/sg15_143_cif.got.tgz:285402.got - 2010.06.28 07:06:18.
