data_PCOD8150362
_publ_section_title
;
Structure prediction by ZEFSAII (Michael W. Deem and Ramdas Pophale) SiO2 
 PCOD8150362
Probable space group: C 2/C
;
_chemical_formula_sum "Si O2"
_cell_formula_units_Z 40
_cell_length_a 13.879510
_cell_length_b 15.513890
_cell_length_c 13.812147
_cell_angle_alpha 90.000000
_cell_angle_beta 146.328852
_cell_angle_gamma 90.000000
_cell_volume 1648.918403
_symmetry_space_group_name_H-M "C 2/C"
_symmetry_group_IT_number 15
_symmetry_cell_setting 'monoclinic'
loop_
_space_group_symop_operation_xyz
x,y,z
-x,y,1/2-z
-x,-y,-z
x,-y,1/2+z
1/2+x,1/2+y,z
1/2-x,1/2+y,1/2-z
1/2-x,1/2-y,-z
1/2+x,1/2-y,1/2+z
loop_
_atom_site_type_symbol
_atom_site_label
_atom_site_fract_x
_atom_site_fract_y
_atom_site_fract_z
Si Si1 0.725351 0.195683 0.076541
Si Si2 0.812733 0.019128 0.088072
Si Si3 0.363967 0.176842 0.841617
Si Si4 0.510271 0.110975 0.368924
Si Si5 0.299493 0.488597 0.359773
O O1 0.836551 0.107441 0.169843
O O2 0.754647 0.245214 0.203483
O O3 0.750000 0.250000 0.000000
O O4 0.526303 0.166890 0.906006
O O5 0.000000 0.969887 0.250000
O O6 0.774600 0.046395 0.946820
O O7 0.654981 0.963577 0.996476
O O8 0.261512 0.087241 0.761133
O O9 0.428187 0.188937 0.007800
O O10 0.500000 0.146662 0.250000
O O11 0.323869 0.073943 0.252014
O O12 0.500000 0.500000 0.500000
#
# Coordination Sequence:
#
# PCOD8150362 Si02
#       5
#     8   8   8   8   8
#     4  12  25  41  65 105 149 189 221 283 364 438
#     4  11  22  40  67 105 146 181 231 294 360 422
#     4  12  25  43  67 100 144 188 236 285 360 427
#     4  10  24  46  70  98 138 186 243 302 345 416
#     4  11  23  39  70 104 141 184 236 295 357 422
#
# _framework density 24.258327000000001
#
# number of rings (size 3 to 8) (size 9 to 14) (size 15 to 20)
#    0.000    0.800    4.000    3.600    2.800    0.000 
#    0.000    1.000    0.000    0.000    0.000    0.000 
#    0.000    0.000    0.000    0.000    0.000    0.000 
#
# Total GULP energy -247808.071116 kJ/mol
# GULP energy per Si atom -12390.403556 kJ/mol
# Density = 2.420311 g / cm^3
# Si number density = 24.258327 Si / 1000 Ang^3
#
#
#
# Elastic Constant Matrix: (Units=GPa)
#
#
# Indices 1 2 3 4 5 6 
#
# 1 125.1255 36.1738 59.3281 -0.0026 -1.7875 -0.0025
# 2 36.1738 50.9437 36.9567 -0.0090 -11.2273 -0.0084
# 3 59.3281 36.9567 130.5065 -0.0079 2.7178 -0.0087
# 4 -0.0026 -0.0090 -0.0079 36.4368 -0.0048 -2.6608
# 5 -1.7875 -11.2273 2.7178 -0.0048 74.5084 -0.0047
# 6 -0.0025 -0.0084 -0.0087 -2.6608 -0.0047 21.6150
#
#
#
# Elastic Compliance Matrix: (Units=1/GPa)
#
#
# Indices 1 2 3 4 5 6 
#
# 1 0.011264 -0.005519 -0.003549 -0.000002 -0.000432 -0.000003
# 2 -0.005519 0.028648 -0.005695 0.000007 0.004392 0.000010
# 3 -0.003549 -0.005695 0.010916 0.000001 -0.001341 0.000002
# 4 -0.000002 0.000007 0.000001 0.027694 0.000003 0.003409
# 5 -0.000432 0.004392 -0.001341 0.000003 0.014122 0.000005
# 6 -0.000003 0.000010 0.000002 0.003409 0.000005 0.046684
#
#
# Mechanical properties :
#
#
# Convention : Reuss Voigt Hill
#
# Bulk Modulus (GPa) = 46.94261 63.49922 55.22092
# Shear Modulus (GPa) = 28.41655 38.11983 33.26819
#
# Velocity S-wave (km/s) = 3.42631 3.96840 3.70728
# Velocity P-wave (km/s) = 5.91996 6.87246 6.41392
#
# Compressibility (1/GPa) = 0.02130261
#
# Stress axis : x y z
#
# Youngs Moduli (GPa) = 88.77847 34.90670 91.60600
#
# Poissons Ratio (x) = 0.19265 0.32508
# Poissons Ratio (y) = 0.48998 0.52169
# Poissons Ratio (z) = 0.31505 0.19879
#
# Static dielectric constant tensor:
#      x y z
#    x 4.522780 -0.000010 -0.087120 
#    y -0.000010 4.043700 -0.000020 
#    z -0.087120 -0.000020 4.760300 
# 
# 
# High freq. dielectric constant tensor:
#      x y z
#    x 1.979380 0.000000 -0.000830 
#    y 0.000000 1.915530 0.000000 
#    z -0.000830 0.000000 1.986640 
# 
# From -- ./inp_files/155586.got.cif
#   From: 2010.06.25/outbox.cif.g09.slc.cpg/sg15_78_cif.got.tgz:155586.got - 2010.06.28 07:06:18.
