data_PCOD8150081
_publ_section_title
;
Structure prediction by ZEFSAII (Michael W. Deem and Ramdas Pophale) SiO2 
 PCOD8150081
Probable space group: C 2/C
;
_chemical_formula_sum "Si O2"
_cell_formula_units_Z 56
_cell_length_a 11.021242
_cell_length_b 8.980445
_cell_length_c 29.031957
_cell_angle_alpha 90.000000
_cell_angle_beta 108.356141
_cell_angle_gamma 90.000000
_cell_volume 2727.247950
_symmetry_space_group_name_H-M "C 2/C"
_symmetry_group_IT_number 15
_symmetry_cell_setting 'monoclinic'
loop_
_space_group_symop_operation_xyz
x,y,z
-x,y,1/2-z
-x,-y,-z
x,-y,1/2+z
1/2+x,1/2+y,z
1/2-x,1/2+y,1/2-z
1/2-x,1/2-y,-z
1/2+x,1/2-y,1/2+z
loop_
_atom_site_type_symbol
_atom_site_label
_atom_site_fract_x
_atom_site_fract_y
_atom_site_fract_z
Si Si1 0.143247 0.409268 0.659633
Si Si2 0.425733 0.110179 0.201341
Si Si3 0.798678 0.092269 0.839886
Si Si4 0.501610 0.250270 0.999045
Si Si5 0.664124 0.497418 0.561466
Si Si6 0.946787 0.493437 0.564495
Si Si7 0.639700 0.582373 0.759594
O O1 0.219795 0.266338 0.649544
O O2 0.243147 0.502810 0.701329
O O3 0.028060 0.336404 0.675719
O O4 0.075612 0.505527 0.611440
O O5 0.500000 0.019088 0.250000
O O6 0.360117 0.251966 0.218750
O O7 0.332363 0.994020 0.167474
O O8 0.843563 0.071437 0.793162
O O9 0.885521 0.021381 0.891344
O O10 0.612636 0.367391 0.024199
O O11 0.451558 0.162585 0.037727
O O12 0.383560 0.339044 0.962702
O O13 0.557768 0.133810 0.969558
O O14 0.817979 0.496222 0.578826
O O15 0.500000 0.506940 0.750000
#
# Coordination Sequence:
#
# PCOD8150081 Si02
#       7
#     8   8   8   8   8   8   8
#     4  12  24  42  64  96 130 170 212 262 318 377
#     4  11  22  43  66  87 131 170 208 266 309 376
#     4  12  22  41  65  95 128 166 215 258 316 381
#     4  10  24  44  65  93 129 163 212 266 319 382
#     4  11  23  42  67  95 126 168 211 264 319 377
#     4  11  23  43  67  94 126 167 212 263 321 379
#     4  11  24  44  64  93 134 171 211 260 314 381
#
# _framework density 20.533519999999999
#
# number of rings (size 3 to 8) (size 9 to 14) (size 15 to 20)
#    0.000    0.857    7.143    0.857    2.000    0.571 
#    5.143    1.429    0.000    0.000    0.000    0.000 
#    0.000    0.000    0.000    0.000    0.000    0.000 
#
# Total GULP energy -346914.148593 kJ/mol
# GULP energy per Si atom -12389.791021 kJ/mol
# Density = 2.048678 g / cm^3
# Si number density = 20.533520 Si / 1000 Ang^3
#
#
#
# Elastic Constant Matrix: (Units=GPa)
#
#
# Indices 1 2 3 4 5 6 
#
# 1 95.6643 46.3014 44.2733 0.0000 12.0729 0.0000
# 2 46.3014 96.3891 41.6177 0.0000 9.7336 0.0000
# 3 44.2733 41.6177 134.2014 0.0000 12.7347 0.0000
# 4 0.0000 0.0000 0.0000 27.3928 0.0000 6.0378
# 5 12.0729 9.7336 12.7347 0.0000 29.4046 0.0000
# 6 0.0000 0.0000 0.0000 6.0378 0.0000 15.4544
#
#
#
# Elastic Compliance Matrix: (Units=1/GPa)
#
#
# Indices 1 2 3 4 5 6 
#
# 1 0.014877 -0.005596 -0.002887 0.000000 -0.003005 0.000000
# 2 -0.005596 0.014256 -0.002446 0.000000 -0.001362 0.000000
# 3 -0.002887 -0.002446 0.009358 0.000000 -0.002058 0.000000
# 4 0.000000 0.000000 0.000000 0.039946 0.000000 -0.015606
# 5 -0.003005 -0.001362 -0.002058 0.000000 0.036584 0.000000
# 6 0.000000 0.000000 0.000000 -0.015606 0.000000 0.070804
#
#
# Mechanical properties :
#
#
# Convention : Reuss Voigt Hill
#
# Bulk Modulus (GPa) = 60.12200 65.62661 62.87430
# Shear Modulus (GPa) = 23.44906 27.38784 25.41845
#
# Velocity S-wave (km/s) = 3.38300 3.65610 3.52220
# Velocity P-wave (km/s) = 6.67855 7.06066 6.87226
#
# Compressibility (1/GPa) = 0.01663285
#
# Stress axis : x y z
#
# Youngs Moduli (GPa) = 67.21602 70.14411 106.86375
#
# Poissons Ratio (x) = 0.39255 0.30856
# Poissons Ratio (y) = 0.37616 0.26134
# Poissons Ratio (z) = 0.19408 0.17154
#
# Static dielectric constant tensor:
#      x y z
#    x 3.620820 0.000000 0.066660 
#    y 0.000000 3.730620 0.000000 
#    z 0.066660 0.000000 4.087580 
# 
# 
# High freq. dielectric constant tensor:
#      x y z
#    x 1.788490 0.000000 0.002740 
#    y 0.000000 1.797460 0.000000 
#    z 0.002740 0.000000 1.830930 
# 
# From -- ./inp_files/310030.got.cif
#   From: 2010.06.25/outbox.cif.g09.slc.cpg/sg15_156_cif.got.tgz:310030.got - 2010.06.28 07:06:18.
