data_PCOD8150483
_publ_section_title
;
Structure prediction by ZEFSAII (Michael W. Deem and Ramdas Pophale) SiO2 
 PCOD8150483
Probable space group: C 2/C
;
_chemical_formula_sum "Si O2"
_cell_formula_units_Z 60
_cell_length_a 8.592314
_cell_length_b 22.063264
_cell_length_c 21.204218
_cell_angle_alpha 90.000000
_cell_angle_beta 40.665714
_cell_angle_gamma 90.000000
_cell_volume 2619.467254
_symmetry_space_group_name_H-M "C 2/C"
_symmetry_group_IT_number 15
_symmetry_cell_setting 'monoclinic'
loop_
_space_group_symop_operation_xyz
x,y,z
-x,y,1/2-z
-x,-y,-z
x,-y,1/2+z
1/2+x,1/2+y,z
1/2-x,1/2+y,1/2-z
1/2-x,1/2-y,-z
1/2+x,1/2-y,1/2+z
loop_
_atom_site_type_symbol
_atom_site_label
_atom_site_fract_x
_atom_site_fract_y
_atom_site_fract_z
Si Si1 0.721659 0.777741 0.836424
Si Si2 0.958627 0.501351 0.189912
Si Si3 0.911154 0.378958 0.905849
Si Si4 0.117231 0.565512 0.958292
Si Si5 0.000000 0.026110 0.750000
Si Si6 0.879117 0.382799 0.424338
Si Si7 0.530932 0.291400 0.972426
Si Si8 0.758868 0.211026 0.793608
O O1 0.664911 0.849487 0.847790
O O2 0.601459 0.751045 0.936505
O O3 0.635056 0.744024 0.800072
O O4 0.000000 0.767592 0.750000
O O5 0.693266 0.508089 0.237813
O O6 0.000000 0.483023 0.250000
O O7 0.068816 0.568914 0.152486
O O8 0.115709 0.451019 0.105083
O O9 0.793435 0.410379 0.002601
O O10 0.766796 0.319954 0.929315
O O11 0.349440 0.566926 0.843295
O O12 0.928315 0.611576 0.984348
O O13 0.000000 0.500000 0.000000
O O14 0.627452 0.350122 0.495306
O O15 0.089741 0.344716 0.325588
O O16 0.598599 0.254363 0.888662
O O17 0.000000 0.185398 0.750000
#
# Coordination Sequence:
#
# PCOD8150483 Si02
#       8
#     8   8   8   8   4   8   8   8
#     4  12  28  49  76 109 146 199 250 309 379 447
#     4  11  28  48  74 118 148 200 257 305 388 453
#     4  12  27  48  75 110 154 191 248 315 377 455
#     4  11  24  47  70 109 147 193 250 296 382 451
#     4  10  24  48  72 102 154 202 248 306 368 458
#     4  11  26  46  76 107 149 194 245 317 374 457
#     4  12  28  49  73 111 149 194 253 312 378 457
#     4  12  27  49  74 108 147 193 255 311 378 441
#
# _framework density 22.905422000000002
#
# number of rings (size 3 to 8) (size 9 to 14) (size 15 to 20)
#    0.000    0.533    5.333    1.600   14.000    1.600 
#    0.000    0.000    0.000    0.000    0.000    0.000 
#    0.000    0.000    0.000    0.000    0.000    0.000 
#
# Total GULP energy -371727.247908 kJ/mol
# GULP energy per Si atom -12390.908264 kJ/mol
# Density = 2.285329 g / cm^3
# Si number density = 22.905422 Si / 1000 Ang^3
#
#
#
# Elastic Constant Matrix: (Units=GPa)
#
#
# Indices 1 2 3 4 5 6 
#
# 1 88.4592 10.2618 18.5172 -0.0015 2.5672 0.0005
# 2 10.2618 107.4942 15.5835 0.0002 -6.0497 -0.0003
# 3 18.5172 15.5835 70.6002 -0.0005 4.8205 0.0003
# 4 -0.0015 0.0002 -0.0005 0.7290 0.0015 25.1819
# 5 2.5672 -6.0497 4.8205 0.0015 36.5212 -0.0011
# 6 0.0005 -0.0003 0.0003 25.1819 -0.0011 16.2854
#
#
#
# Elastic Compliance Matrix: (Units=1/GPa)
#
#
# Indices 1 2 3 4 5 6 
#
# 1 0.012026 -0.000753 -0.002948 -0.000001 -0.000581 0.000001
# 2 -0.000753 0.009788 -0.002096 0.000000 0.001951 0.000000
# 3 -0.002948 -0.002096 0.015550 0.000000 -0.002192 0.000000
# 4 -0.000001 0.000000 0.000000 -0.026172 0.000002 0.040469
# 5 -0.000581 0.001951 -0.002192 0.000002 0.028035 -0.000002
# 6 0.000001 0.000000 0.000000 0.040469 -0.000002 -0.001172
#
#
# Mechanical properties :
#
#
# Convention : Reuss Voigt Hill
#
# Bulk Modulus (GPa) = 38.80665 39.47540 39.14102
# Shear Modulus (GPa) = 85.84953 25.51986 55.68470
#
# Velocity S-wave (km/s) = 6.12873 3.34150 4.93594
# Velocity P-wave (km/s) = 8.18906 5.67089 7.04343
#
# Compressibility (1/GPa) = 0.02576878
#
# Stress axis : x y z
#
# Youngs Moduli (GPa) = 83.15276 102.16128 64.30891
#
# Poissons Ratio (x) = 0.07696 0.18960
# Poissons Ratio (y) = 0.06264 0.13481
# Poissons Ratio (z) = 0.24516 0.21415
#
# Static dielectric constant tensor:
#      x y z
#    x 4.429810 0.000000 0.129570 
#    y 0.000000 4.253000 0.000000 
#    z 0.129570 0.000000 4.281930 
# 
# 
# High freq. dielectric constant tensor:
#      x y z
#    x 1.914770 0.000000 0.005330 
#    y 0.000000 1.912550 0.000000 
#    z 0.005330 0.000000 1.900510 
# 
# From -- ./inp_files/234545.got.cif
#   From: 2010.06.25/outbox.cif.g09.slc.cpg/sg15_118_cif.got.tgz:234545.got - 2010.06.28 07:06:18.
