data_PCOD8150706
_publ_section_title
;
Structure prediction by ZEFSAII (Michael W. Deem and Ramdas Pophale) SiO2 
 PCOD8150706
Probable space group: C 2/C
;
_chemical_formula_sum "Si O2"
_cell_formula_units_Z 44
_cell_length_a 5.277183
_cell_length_b 16.920051
_cell_length_c 21.668748
_cell_angle_alpha 90.000000
_cell_angle_beta 86.819919
_cell_angle_gamma 90.000000
_cell_volume 1931.827572
_symmetry_space_group_name_H-M "C 2/C"
_symmetry_group_IT_number 15
_symmetry_cell_setting 'monoclinic'
loop_
_space_group_symop_operation_xyz
x,y,z
-x,y,1/2-z
-x,-y,-z
x,-y,1/2+z
1/2+x,1/2+y,z
1/2-x,1/2+y,1/2-z
1/2-x,1/2-y,-z
1/2+x,1/2-y,1/2+z
loop_
_atom_site_type_symbol
_atom_site_label
_atom_site_fract_x
_atom_site_fract_y
_atom_site_fract_z
Si Si1 0.500000 0.524565 0.750000
Si Si2 0.000000 0.420674 0.750000
Si Si3 0.742577 0.904292 0.530253
Si Si4 0.184195 0.308398 0.651608
Si Si5 0.730924 0.913657 0.044936
Si Si6 0.500000 0.241760 0.750000
Si Si7 0.113486 0.154736 0.835088
O O1 0.749828 0.472982 0.754818
O O2 0.462731 0.577989 0.812158
O O3 0.016918 0.365128 0.810687
O O4 0.777631 0.846464 0.587223
O O5 0.494243 0.879550 0.494561
O O6 0.993684 0.894545 0.486366
O O7 0.702273 0.992840 0.555259
O O8 0.422900 0.297973 0.694218
O O9 0.071493 0.222673 0.637718
O O10 0.704491 0.871026 0.111214
O O11 0.270709 0.185805 0.774057
#
# Coordination Sequence:
#
# PCOD8150706 Si02
#       7
#     4   4   8   8   8   4   8
#     4  12  26  44  71 105 140 190 244 290 366 432
#     4  12  26  44  71 105 140 190 244 290 366 432
#     4  10  25  47  71 103 141 187 242 294 351 424
#     4  12  26  45  72 104 148 188 235 303 360 429
#     4  10  25  47  71 103 141 187 242 294 351 424
#     4  12  24  48  68 108 152 186 234 300 358 442
#     4  12  26  45  72 104 148 188 235 303 360 429
#
# _framework density 22.77636
#
# number of rings (size 3 to 8) (size 9 to 14) (size 15 to 20)
#    0.000    0.727    3.636    2.182    5.091    5.818 
#    0.000    0.000    0.000    0.000    0.000    0.000 
#    0.000    0.000    0.000    0.000    0.000    0.000 
#
# Total GULP energy -272919.173024 kJ/mol
# GULP energy per Si atom -12405.416956 kJ/mol
# Density = 2.272452 g / cm^3
# Si number density = 22.776360 Si / 1000 Ang^3
#
#
#
# Elastic Constant Matrix: (Units=GPa)
#
#
# Indices 1 2 3 4 5 6 
#
# 1 129.5825 41.8751 29.4226 0.0000 22.0254 0.0000
# 2 41.8751 108.1591 45.9033 0.0000 15.3914 0.0000
# 3 29.4226 45.9033 98.9519 0.0000 33.1881 0.0000
# 4 0.0000 0.0000 0.0000 44.3892 0.0000 5.8497
# 5 22.0254 15.3914 33.1881 0.0000 41.4061 0.0000
# 6 0.0000 0.0000 0.0000 5.8497 0.0000 25.7567
#
#
#
# Elastic Compliance Matrix: (Units=1/GPa)
#
#
# Indices 1 2 3 4 5 6 
#
# 1 0.009365 -0.003043 -0.000111 0.000000 -0.003761 0.000000
# 2 -0.003043 0.012501 -0.005305 0.000000 0.001224 0.000000
# 3 -0.000111 -0.005305 0.016301 0.000000 -0.011034 0.000000
# 4 0.000000 0.000000 0.000000 0.023223 0.000000 -0.005274
# 5 -0.003761 0.001224 -0.011034 0.000000 0.034541 0.000000
# 6 0.000000 0.000000 0.000000 -0.005274 0.000000 0.040023
#
#
# Mechanical properties :
#
#
# Convention : Reuss Voigt Hill
#
# Bulk Modulus (GPa) = 47.06321 63.45505 55.25913
# Shear Modulus (GPa) = 31.25867 36.94324 34.10095
#
# Velocity S-wave (km/s) = 3.70863 4.03177 3.87358
# Velocity P-wave (km/s) = 6.24873 7.04231 6.65736
#
# Compressibility (1/GPa) = 0.02124802
#
# Stress axis : x y z
#
# Youngs Moduli (GPa) = 106.77903 79.99287 61.34668
#
# Poissons Ratio (x) = 0.24344 0.00683
# Poissons Ratio (y) = 0.32496 0.32543
# Poissons Ratio (z) = 0.01190 0.42434
#
# Static dielectric constant tensor:
#      x y z
#    x 4.333460 0.000000 0.040260 
#    y 0.000000 4.339770 0.000000 
#    z 0.040260 0.000000 4.012710 
# 
# 
# High freq. dielectric constant tensor:
#      x y z
#    x 1.900450 0.000000 0.011790 
#    y 0.000000 1.910790 0.000000 
#    z 0.011790 0.000000 1.896980 
# 
# From -- ./inp_files/226987.got.cif
#   From: 2010.06.25/outbox.cif.g09.slc.cpg/sg15_114_cif.got.tgz:226987.got - 2010.06.28 07:06:18.
