data_PCOD8150752
_publ_section_title
;
Structure prediction by ZEFSAII (Michael W. Deem and Ramdas Pophale) SiO2 
 PCOD8150752
Probable space group: C 2/C
;
_chemical_formula_sum "Si O2"
_cell_formula_units_Z 60
_cell_length_a 16.761327
_cell_length_b 5.515246
_cell_length_c 29.809790
_cell_angle_alpha 90.000000
_cell_angle_beta 86.069432
_cell_angle_gamma 90.000000
_cell_volume 2749.219874
_symmetry_space_group_name_H-M "C 2/C"
_symmetry_group_IT_number 15
_symmetry_cell_setting 'monoclinic'
loop_
_space_group_symop_operation_xyz
x,y,z
-x,y,1/2-z
-x,-y,-z
x,-y,1/2+z
1/2+x,1/2+y,z
1/2-x,1/2+y,1/2-z
1/2-x,1/2-y,-z
1/2+x,1/2-y,1/2+z
loop_
_atom_site_type_symbol
_atom_site_label
_atom_site_fract_x
_atom_site_fract_y
_atom_site_fract_z
Si Si1 0.000000 0.519339 0.750000
Si Si2 0.426937 0.304530 0.178479
Si Si3 0.191041 0.083382 0.623314
Si Si4 0.788277 0.911886 0.125507
Si Si5 0.912975 0.900600 0.555388
Si Si6 0.580342 0.334359 0.044910
Si Si7 0.497574 0.972157 0.102104
Si Si8 0.058678 0.162569 0.175224
O O1 0.940153 0.366382 0.720749
O O2 0.933665 0.668483 0.781261
O O3 0.335217 0.373453 0.171001
O O4 0.470746 0.555393 0.186265
O O5 0.466574 0.196621 0.132177
O O6 0.237055 0.337476 0.630839
O O7 0.149557 0.093406 0.576557
O O8 0.241051 0.836213 0.620296
O O9 0.126592 0.044931 0.666654
O O10 0.848702 0.923974 0.080820
O O11 0.883174 0.838394 0.506484
O O12 0.918450 0.662906 0.586751
O O13 0.004211 0.990456 0.551357
O O14 0.549817 0.064364 0.057908
O O15 0.558759 0.815281 0.129394
#
# Coordination Sequence:
#
# PCOD8150752 Si02
#       8
#     4   8   8   8   8   8   8   8
#     4  10  26  40  86 102 130 160 246 304 342 406
#     4  11  22  44  74 103 130 178 238 286 350 422
#     4  12  26  44  71 102 148 193 224 279 359 430
#     4  12  26  44  71 102 148 193 224 279 359 430
#     4  11  23  40  66 100 137 189 251 298 331 395
#     4  11  23  40  66 100 137 189 251 298 331 395
#     4  11  17  39  71  98 134 178 237 303 333 395
#     4  11  22  44  74 103 130 178 238 286 350 422
#
# _framework density 21.824373000000001
#
# number of rings (size 3 to 8) (size 9 to 14) (size 15 to 20)
#    0.000    0.800    5.333    2.400    3.733    1.067 
#    0.000    0.000    5.867    0.000    0.000    0.000 
#    0.000    0.000    0.000    0.000    0.000    0.000 
#
# Total GULP energy -371758.404849 kJ/mol
# GULP energy per Si atom -12391.946828 kJ/mol
# Density = 2.177470 g / cm^3
# Si number density = 21.824373 Si / 1000 Ang^3
#
#
#
# Elastic Constant Matrix: (Units=GPa)
#
#
# Indices 1 2 3 4 5 6 
#
# 1 105.1921 46.5623 44.8559 0.0000 21.0179 0.0000
# 2 46.5623 114.0858 38.0967 0.0000 12.6016 0.0000
# 3 44.8559 38.0967 135.0989 0.0000 17.8641 0.0000
# 4 0.0000 0.0000 0.0000 34.9371 0.0000 2.1591
# 5 21.0179 12.6016 17.8641 0.0000 21.0691 0.0000
# 6 0.0000 0.0000 0.0000 2.1591 0.0000 47.7852
#
#
#
# Elastic Compliance Matrix: (Units=1/GPa)
#
#
# Indices 1 2 3 4 5 6 
#
# 1 0.014201 -0.003939 -0.002301 0.000000 -0.009860 0.000000
# 2 -0.003939 0.011064 -0.001641 0.000000 -0.001297 0.000000
# 3 -0.002301 -0.001641 0.009230 0.000000 -0.004550 0.000000
# 4 0.000000 0.000000 0.000000 0.028703 0.000000 -0.001297
# 5 -0.009860 -0.001297 -0.004550 0.000000 0.061933 0.000000
# 6 0.000000 0.000000 0.000000 -0.001297 0.000000 0.020986
#
#
# Mechanical properties :
#
#
# Convention : Reuss Voigt Hill
#
# Bulk Modulus (GPa) = 53.37505 68.15627 60.76566
# Shear Modulus (GPa) = 29.74050 35.74908 32.74479
#
# Velocity S-wave (km/s) = 3.69551 4.05165 3.87767
# Velocity P-wave (km/s) = 6.53596 7.29281 6.92473
#
# Compressibility (1/GPa) = 0.01873535
#
# Stress axis : x y z
#
# Youngs Moduli (GPa) = 70.41819 90.38349 108.34106
#
# Poissons Ratio (x) = 0.35598 0.24925
# Poissons Ratio (y) = 0.27734 0.17776
# Poissons Ratio (z) = 0.16200 0.14829
#
# Static dielectric constant tensor:
#      x y z
#    x 3.928780 0.000000 0.164170 
#    y 0.000000 4.183850 0.000000 
#    z 0.164170 0.000000 4.064390 
# 
# 
# High freq. dielectric constant tensor:
#      x y z
#    x 1.837410 0.000000 0.010990 
#    y 0.000000 1.877110 0.000000 
#    z 0.010990 0.000000 1.855130 
# 
# From -- ./inp_files/314887.got.cif
#   From: 2010.06.25/outbox.cif.g09.slc.cpg/sg15_158_cif.got.tgz:314887.got - 2010.06.28 07:06:18.
