data_PCOD8150958
_publ_section_title
;
Structure prediction by ZEFSAII (Michael W. Deem and Ramdas Pophale) SiO2 
 PCOD8150958
Probable space group: C 2/C
;
_chemical_formula_sum "Si O2"
_cell_formula_units_Z 64
_cell_length_a 27.017844
_cell_length_b 14.933139
_cell_length_c 12.899550
_cell_angle_alpha 90.000000
_cell_angle_beta 140.632638
_cell_angle_gamma 90.000000
_cell_volume 3301.143318
_symmetry_space_group_name_H-M "C 2/C"
_symmetry_group_IT_number 15
_symmetry_cell_setting 'monoclinic'
loop_
_space_group_symop_operation_xyz
x,y,z
-x,y,1/2-z
-x,-y,-z
x,-y,1/2+z
1/2+x,1/2+y,z
1/2-x,1/2+y,1/2-z
1/2-x,1/2-y,-z
1/2+x,1/2-y,1/2+z
loop_
_atom_site_type_symbol
_atom_site_label
_atom_site_fract_x
_atom_site_fract_y
_atom_site_fract_z
Si Si1 0.270043 0.978480 0.830268
Si Si2 0.299841 0.575675 0.090980
Si Si3 0.093534 0.000250 0.982353
Si Si4 0.830029 0.709076 0.415399
Si Si5 0.946556 0.179134 0.991810
Si Si6 0.562871 0.447232 0.204534
Si Si7 0.788476 0.359570 0.235893
Si Si8 0.879151 0.746315 0.724445
O O1 0.270974 0.966854 0.956849
O O2 0.178365 0.977856 0.658502
O O3 0.308359 0.890659 0.842467
O O4 0.314196 0.070074 0.867585
O O5 0.380127 0.525050 0.241239
O O6 0.313197 0.679389 0.143954
O O7 0.273369 0.577461 0.928098
O O8 0.078403 0.056851 0.853155
O O9 0.028666 0.031066 0.962636
O O10 0.074034 0.892802 0.948666
O O11 0.894418 0.735609 0.434820
O O12 0.755320 0.774841 0.285540
O O13 0.866043 0.706642 0.589117
O O14 0.919805 0.141735 0.835076
O O15 0.035544 0.211248 0.131150
O O16 0.862230 0.330261 0.284210
#
# Coordination Sequence:
#
# PCOD8150958 Si02
#       8
#     8   8   8   8   8   8   8   8
#     4  12  21  35  60  84 118 157 199 241 297 349
#     4  11  17  34  57  85 120 148 189 247 299 349
#     4  11  21  33  55  88 120 153 189 241 307 362
#     4  11  22  37  58  89 118 154 203 244 291 353
#     4  12  22  36  58  86 122 151 198 250 298 346
#     4  11  21  32  54  89 122 150 182 237 312 362
#     4  11  21  36  57  87 121 153 196 248 292 348
#     4  11  21  36  58  87 118 151 195 253 294 337
#
# _framework density 19.387222000000001
#
# number of rings (size 3 to 8) (size 9 to 14) (size 15 to 20)
#    0.000    0.750    7.500    3.000    1.750    0.000 
#    0.000    1.250    0.000    0.000    0.000    0.000 
#    0.000    0.000    0.000    0.000    0.000    0.000 
#
# Total GULP energy -396455.011627 kJ/mol
# GULP energy per Si atom -12389.219113 kJ/mol
# Density = 1.934310 g / cm^3
# Si number density = 19.387222 Si / 1000 Ang^3
#
#
#
# Elastic Constant Matrix: (Units=GPa)
#
#
# Indices 1 2 3 4 5 6 
#
# 1 96.2041 44.0121 10.2713 0.0000 0.5469 0.0000
# 2 44.0121 85.0315 16.3648 0.0000 -1.1067 0.0000
# 3 10.2713 16.3648 37.1397 0.0000 5.3995 0.0000
# 4 0.0000 0.0000 0.0000 27.1402 0.0000 3.5092
# 5 0.5469 -1.1067 5.3995 0.0000 16.8386 0.0000
# 6 0.0000 0.0000 0.0000 3.5092 0.0000 50.1625
#
#
#
# Elastic Compliance Matrix: (Units=1/GPa)
#
#
# Indices 1 2 3 4 5 6 
#
# 1 0.013645 -0.006955 -0.000606 0.000000 -0.000706 0.000000
# 2 -0.006955 0.016521 -0.005818 0.000000 0.003177 0.000000
# 3 -0.000606 -0.005818 0.031162 0.000000 -0.010355 0.000000
# 4 0.000000 0.000000 0.000000 0.037182 0.000000 -0.002601
# 5 -0.000706 0.003177 -0.010355 0.000000 0.062940 0.000000
# 6 0.000000 0.000000 0.000000 -0.002601 0.000000 0.020117
#
#
# Mechanical properties :
#
#
# Convention : Reuss Voigt Hill
#
# Bulk Modulus (GPa) = 28.92752 39.96352 34.44552
# Shear Modulus (GPa) = 22.74272 28.67675 25.70974
#
# Velocity S-wave (km/s) = 3.42874 3.85015 3.64554
# Velocity P-wave (km/s) = 5.53428 6.35791 5.96034
#
# Compressibility (1/GPa) = 0.03456915
#
# Stress axis : x y z
#
# Youngs Moduli (GPa) = 73.28556 60.52724 32.09017
#
# Poissons Ratio (x) = 0.42098 0.01946
# Poissons Ratio (y) = 0.50972 0.18671
# Poissons Ratio (z) = 0.04444 0.35216
#
# Static dielectric constant tensor:
#      x y z
#    x 3.873250 0.000000 -0.069320 
#    y 0.000000 3.488880 0.000000 
#    z -0.069320 0.000000 3.304970 
# 
# 
# High freq. dielectric constant tensor:
#      x y z
#    x 1.778490 0.000000 0.000810 
#    y 0.000000 1.729730 0.000000 
#    z 0.000810 0.000000 1.715560 
# 
# From -- ./inp_files/178181.got.cif
#   From: 2010.06.25/outbox.cif.g09.slc.cpg/sg15_90_cif.got.tgz:178181.got - 2010.06.28 07:06:18.
