data_PCOD8150790
_publ_section_title
;
Structure prediction by ZEFSAII (Michael W. Deem and Ramdas Pophale) SiO2 
 PCOD8150790
Probable space group: C 2/C
;
_chemical_formula_sum "Si O2"
_cell_formula_units_Z 52
_cell_length_a 12.269376
_cell_length_b 8.464208
_cell_length_c 27.980304
_cell_angle_alpha 90.000000
_cell_angle_beta 58.128957
_cell_angle_gamma 90.000000
_cell_volume 2467.692167
_symmetry_space_group_name_H-M "C 2/C"
_symmetry_group_IT_number 15
_symmetry_cell_setting 'monoclinic'
loop_
_space_group_symop_operation_xyz
x,y,z
-x,y,1/2-z
-x,-y,-z
x,-y,1/2+z
1/2+x,1/2+y,z
1/2-x,1/2+y,1/2-z
1/2-x,1/2-y,-z
1/2+x,1/2-y,1/2+z
loop_
_atom_site_type_symbol
_atom_site_label
_atom_site_fract_x
_atom_site_fract_y
_atom_site_fract_z
Si Si1 0.436642 0.915368 0.559301
Si Si2 0.500000 0.877725 0.250000
Si Si3 0.128354 0.065559 0.945066
Si Si4 0.185455 0.644255 0.054344
Si Si5 0.983016 0.075863 0.200887
Si Si6 0.288235 0.364451 0.363756
Si Si7 0.761036 0.070801 0.178332
O O1 0.372362 0.753838 0.557281
O O2 0.537810 0.881734 0.577468
O O3 0.500000 0.000000 0.500000
O O4 0.337755 0.030992 0.606807
O O5 0.502131 0.765692 0.201997
O O6 0.628773 0.979209 0.218032
O O7 0.242768 0.023075 0.955561
O O8 0.154645 0.993999 0.885978
O O9 0.000000 0.000000 0.000000
O O10 0.206386 0.729543 0.098760
O O11 0.250000 0.750000 0.000000
O O12 0.000000 0.999206 0.250000
O O13 0.848268 0.046342 0.205532
O O14 0.096856 0.982847 0.148613
O O15 0.279320 0.256744 0.317723
#
# Coordination Sequence:
#
# PCOD8150790 Si02
#       7
#     8   4   8   8   8   8   8
#     4  12  23  40  65  97 137 178 228 272 329 408
#     4  10  26  44  68 100 132 172 234 280 346 408
#     4  11  23  42  70 100 138 180 221 276 340 409
#     4  11  22  43  64  99 139 180 221 272 333 410
#     4  10  26  44  69 100 129 172 230 286 345 402
#     4  11  25  42  67  99 131 177 228 271 345 400
#     4  11  25  46  71  98 138 179 225 284 348 408
#
# _framework density 21.072320999999999
#
# number of rings (size 3 to 8) (size 9 to 14) (size 15 to 20)
#    0.462    0.615    3.077    2.769    3.231    4.308 
#    0.000    0.000    0.000    0.000    0.000    0.000 
#    0.000    0.000    0.000    0.000    0.000    0.000 
#
# Total GULP energy -322101.876847 kJ/mol
# GULP energy per Si atom -12388.533725 kJ/mol
# Density = 2.102436 g / cm^3
# Si number density = 21.072321 Si / 1000 Ang^3
#
#
#
# Elastic Constant Matrix: (Units=GPa)
#
#
# Indices 1 2 3 4 5 6 
#
# 1 175.3261 74.7633 47.8693 0.0000 -9.2908 0.0000
# 2 74.7633 163.3694 41.5722 0.0000 -15.2803 0.0000
# 3 47.8693 41.5722 64.6672 0.0000 -8.4283 0.0000
# 4 0.0000 0.0000 0.0000 27.6597 0.0000 -12.3279
# 5 -9.2908 -15.2803 -8.4283 0.0000 37.8003 0.0000
# 6 0.0000 0.0000 0.0000 -12.3279 0.0000 39.7151
#
#
#
# Elastic Compliance Matrix: (Units=1/GPa)
#
#
# Indices 1 2 3 4 5 6 
#
# 1 0.007954 -0.002562 -0.004244 0.000000 -0.000027 0.000000
# 2 -0.002562 0.008289 -0.003169 0.000000 0.002014 0.000000
# 3 -0.004244 -0.003169 0.020948 0.000000 0.002347 0.000000
# 4 0.000000 0.000000 0.000000 0.041959 0.000000 0.013024
# 5 -0.000027 0.002014 0.002347 0.000000 0.027786 0.000000
# 6 0.000000 0.000000 0.000000 0.013024 0.000000 0.029222
#
#
# Mechanical properties :
#
#
# Convention : Reuss Voigt Hill
#
# Bulk Modulus (GPa) = 58.00516 81.30804 69.65660
# Shear Modulus (GPa) = 30.89198 36.97887 33.93542
#
# Velocity S-wave (km/s) = 3.83299 4.19364 4.01737
# Velocity P-wave (km/s) = 6.86845 7.88149 7.39234
#
# Compressibility (1/GPa) = 0.01723985
#
# Stress axis : x y z
#
# Youngs Moduli (GPa) = 125.72917 120.64790 47.73636
#
# Poissons Ratio (x) = 0.30916 0.20258
# Poissons Ratio (y) = 0.32218 0.15128
# Poissons Ratio (z) = 0.53357 0.38234
#
# Static dielectric constant tensor:
#      x y z
#    x 4.488410 0.000000 0.015380 
#    y 0.000000 4.130620 0.000000 
#    z 0.015380 0.000000 3.756900 
# 
# 
# High freq. dielectric constant tensor:
#      x y z
#    x 1.837700 0.000000 -0.003130 
#    y 0.000000 1.841030 0.000000 
#    z -0.003130 0.000000 1.814220 
# 
# From -- ./inp_files/291470.got.cif
#   From: 2010.06.25/outbox.cif.g09.slc.cpg/sg15_146_cif.got.tgz:291470.got - 2010.06.28 07:06:18.
