data_PCOD8150199
_publ_section_title
;
Structure prediction by ZEFSAII (Michael W. Deem and Ramdas Pophale) SiO2 
 PCOD8150199
Probable space group: C 2/C
;
_chemical_formula_sum "Si O2"
_cell_formula_units_Z 60
_cell_length_a 29.105616
_cell_length_b 8.270628
_cell_length_c 23.949805
_cell_angle_alpha 90.000000
_cell_angle_beta 26.127620
_cell_angle_gamma 90.000000
_cell_volume 2538.849654
_symmetry_space_group_name_H-M "C 2/C"
_symmetry_group_IT_number 15
_symmetry_cell_setting 'monoclinic'
loop_
_space_group_symop_operation_xyz
x,y,z
-x,y,1/2-z
-x,-y,-z
x,-y,1/2+z
1/2+x,1/2+y,z
1/2-x,1/2+y,1/2-z
1/2-x,1/2-y,-z
1/2+x,1/2-y,1/2+z
loop_
_atom_site_type_symbol
_atom_site_label
_atom_site_fract_x
_atom_site_fract_y
_atom_site_fract_z
Si Si1 0.873639 0.373583 0.978805
Si Si2 0.500000 0.646462 0.250000
Si Si3 0.955824 0.223344 0.121367
Si Si4 0.375352 0.766454 0.647670
Si Si5 0.764852 0.054728 0.284310
Si Si6 0.080996 0.971440 0.054728
Si Si7 0.208511 0.369028 0.649062
Si Si8 0.441854 0.925319 0.244249
O O1 0.830168 0.485881 0.075435
O O2 0.772253 0.292679 0.058621
O O3 0.943989 0.221320 0.924697
O O4 0.949026 0.483071 0.856949
O O5 0.551765 0.532614 0.148381
O O6 0.418115 0.771102 0.309383
O O7 0.835082 0.182107 0.242410
O O8 0.959091 0.367361 0.161957
O O9 0.021304 0.068614 0.072194
O O10 0.010998 0.287614 0.004478
O O11 0.284448 0.862923 0.715564
O O12 0.345557 0.579267 0.675766
O O13 0.376647 0.823885 0.710681
O O14 0.206994 0.992586 0.915087
O O15 0.153861 0.448313 0.654326
#
# Coordination Sequence:
#
# PCOD8150199 Si02
#       8
#     8   4   8   8   8   8   8   8
#     4   9  22  42  66  91 137 170 217 277 331 404
#     4  10  24  44  72  98 130 170 224 290 358 398
#     4  11  24  38  65  95 140 179 227 278 329 396
#     4  11  23  39  60  97 134 185 229 270 324 404
#     4  11  24  39  61  95 134 190 219 273 330 396
#     4   9  22  44  66  97 132 173 223 291 328 408
#     4   9  23  39  68  93 135 176 222 276 331 397
#     4  11  23  44  69  99 130 177 223 285 343 408
#
# _framework density 23.632750999999999
#
# number of rings (size 3 to 8) (size 9 to 14) (size 15 to 20)
#    0.800    1.067    1.333    1.200    7.467    3.733 
#    0.000    2.000    0.000    0.000    0.000    0.000 
#    0.000    0.000    0.000    0.000    0.000    0.000 
#
# Total GULP energy -371678.905823 kJ/mol
# GULP energy per Si atom -12389.296861 kJ/mol
# Density = 2.357896 g / cm^3
# Si number density = 23.632751 Si / 1000 Ang^3
#
#
#
# Elastic Constant Matrix: (Units=GPa)
#
#
# Indices 1 2 3 4 5 6 
#
# 1 57.5060 22.7782 22.2461 -0.0061 -11.0273 0.0051
# 2 22.7782 55.1729 29.3450 -0.0113 -13.2349 0.0107
# 3 22.2461 29.3450 68.5224 0.0012 2.7290 0.0013
# 4 -0.0061 -0.0113 0.0012 32.8273 0.0024 -4.8034
# 5 -11.0273 -13.2349 2.7290 0.0024 21.9764 -0.0009
# 6 0.0051 0.0107 0.0013 -4.8034 -0.0009 33.3030
#
#
#
# Elastic Compliance Matrix: (Units=1/GPa)
#
#
# Indices 1 2 3 4 5 6 
#
# 1 0.023304 -0.003803 -0.006343 0.000002 0.010191 -0.000001
# 2 -0.003803 0.030815 -0.012688 0.000008 0.018225 -0.000007
# 3 -0.006343 -0.012688 0.022630 -0.000005 -0.013634 0.000003
# 4 0.000002 0.000008 -0.000005 0.031119 0.000003 0.004488
# 5 0.010191 0.018225 -0.013634 0.000003 0.063286 -0.000005
# 6 -0.000001 -0.000007 0.000003 0.004488 -0.000005 0.030675
#
#
# Mechanical properties :
#
#
# Convention : Reuss Voigt Hill
#
# Bulk Modulus (GPa) = 32.17380 36.65998 34.41689
# Shear Modulus (GPa) = 19.39068 24.74348 22.06708
#
# Velocity S-wave (km/s) = 2.86754 3.23925 3.05905
# Velocity P-wave (km/s) = 4.96058 5.43473 5.20306
#
# Compressibility (1/GPa) = 0.03108119
#
# Stress axis : x y z
#
# Youngs Moduli (GPa) = 42.91161 32.45166 44.18973
#
# Poissons Ratio (x) = 0.12340 0.28029
# Poissons Ratio (y) = 0.16318 0.56068
# Poissons Ratio (z) = 0.27219 0.41174
#
# Static dielectric constant tensor:
#      x y z
#    x 3.952900 -0.000010 -0.063890 
#    y -0.000010 4.394850 0.000040 
#    z -0.063890 0.000040 4.051120 
# 
# 
# High freq. dielectric constant tensor:
#      x y z
#    x 1.912660 0.000000 -0.003730 
#    y 0.000000 1.946990 0.000000 
#    z -0.003730 0.000000 1.926000 
# 
# From -- ./inp_files/284302.got.cif
#   From: 2010.06.25/outbox.cif.g09.slc.cpg/sg15_143_cif.got.tgz:284302.got - 2010.06.28 07:06:18.
