data_PCOD8150236
_publ_section_title
;
Structure prediction by ZEFSAII (Michael W. Deem and Ramdas Pophale) SiO2 
 PCOD8150236
Probable space group: C 2/C
;
_chemical_formula_sum "Si O2"
_cell_formula_units_Z 64
_cell_length_a 11.057015
_cell_length_b 12.564527
_cell_length_c 23.719334
_cell_angle_alpha 90.000000
_cell_angle_beta 112.293302
_cell_angle_gamma 90.000000
_cell_volume 3048.930593
_symmetry_space_group_name_H-M "C 2/C"
_symmetry_group_IT_number 15
_symmetry_cell_setting 'monoclinic'
loop_
_space_group_symop_operation_xyz
x,y,z
-x,y,1/2-z
-x,-y,-z
x,-y,1/2+z
1/2+x,1/2+y,z
1/2-x,1/2+y,1/2-z
1/2-x,1/2-y,-z
1/2+x,1/2-y,1/2+z
loop_
_atom_site_type_symbol
_atom_site_label
_atom_site_fract_x
_atom_site_fract_y
_atom_site_fract_z
Si Si1 0.401780 0.246801 0.026638
Si Si2 0.623981 0.869272 0.735460
Si Si3 0.270912 0.970462 0.157246
Si Si4 0.530637 0.040633 0.393352
Si Si5 0.511468 0.473740 0.436503
Si Si6 0.191468 0.152265 0.418672
Si Si7 0.846021 0.764216 0.706221
Si Si8 0.937501 0.334159 0.036673
O O1 0.457390 0.145979 0.068610
O O2 0.449890 0.351974 0.065897
O O3 0.250000 0.250000 0.000000
O O4 0.450018 0.239967 0.970388
O O5 0.500000 0.818801 0.750000
O O6 0.574648 0.937512 0.673597
O O7 0.738432 0.785989 0.737072
O O8 0.694568 0.954560 0.785700
O O9 0.118477 0.982286 0.122186
O O10 0.323429 0.854223 0.180783
O O11 0.330636 0.010431 0.109048
O O12 0.493776 0.939983 0.426326
O O13 0.500000 0.500000 0.500000
O O14 0.615552 0.550365 0.426953
O O15 0.189236 0.153699 0.350437
O O16 0.132339 0.265567 0.427458
O O17 0.337149 0.138274 0.468338
O O18 0.000000 0.778947 0.750000
#
# Coordination Sequence:
#
# PCOD8150236 Si02
#       8
#     8   8   8   8   8   8   8   8
#     4  12  25  39  61  97 138 175 213 270 337 399
#     4  10  24  45  66  97 132 174 221 282 340 395
#     4  11  23  43  68  95 128 173 224 275 335 397
#     4  11  22  41  66  95 132 178 219 272 334 399
#     4  12  23  41  64  96 137 174 218 271 337 401
#     4  11  23  39  69  97 129 171 222 276 321 392
#     4  12  24  45  72  99 130 178 233 276 327 402
#     4  11  22  40  64  98 130 171 222 269 326 393
#
# _framework density 20.990967000000001
#
# number of rings (size 3 to 8) (size 9 to 14) (size 15 to 20)
#    0.000    0.750    2.500    6.750    0.000    1.000 
#    0.000    4.375    0.000    0.000    0.000    0.000 
#    0.000    0.000    0.000    0.000    0.000    0.000 
#
# Total GULP energy -396729.137460 kJ/mol
# GULP energy per Si atom -12397.785546 kJ/mol
# Density = 2.094319 g / cm^3
# Si number density = 20.990967 Si / 1000 Ang^3
#
#
#
# Elastic Constant Matrix: (Units=GPa)
#
#
# Indices 1 2 3 4 5 6 
#
# 1 137.2080 26.0233 32.2157 0.0000 0.7265 0.0000
# 2 26.0233 106.8287 12.9228 0.0000 -8.8122 0.0000
# 3 32.2157 12.9228 81.7485 0.0000 -4.7990 0.0000
# 4 0.0000 0.0000 0.0000 53.8404 0.0000 -15.6327
# 5 0.7265 -8.8122 -4.7990 0.0000 24.5928 0.0000
# 6 0.0000 0.0000 0.0000 -15.6327 0.0000 41.1904
#
#
#
# Elastic Compliance Matrix: (Units=1/GPa)
#
#
# Indices 1 2 3 4 5 6 
#
# 1 0.008363 -0.001785 -0.003101 0.000000 -0.001492 0.000000
# 2 -0.001785 0.010174 -0.000696 0.000000 0.003562 0.000000
# 3 -0.003101 -0.000696 0.013713 0.000000 0.002518 0.000000
# 4 0.000000 0.000000 0.000000 0.020874 0.000000 0.007922
# 5 -0.001492 0.003562 0.002518 0.000000 0.042474 0.000000
# 6 0.000000 0.000000 0.000000 0.007922 0.000000 0.027284
#
#
# Mechanical properties :
#
#
# Convention : Reuss Voigt Hill
#
# Bulk Modulus (GPa) = 47.42616 52.01208 49.71912
# Shear Modulus (GPa) = 35.44268 40.89961 38.17115
#
# Velocity S-wave (km/s) = 4.11356 4.41890 4.26896
# Velocity P-wave (km/s) = 6.72343 7.13216 6.93081
#
# Compressibility (1/GPa) = 0.02108541
#
# Stress axis : x y z
#
# Youngs Moduli (GPa) = 119.57749 98.29326 72.92613
#
# Poissons Ratio (x) = 0.17546 0.22615
# Poissons Ratio (y) = 0.21346 0.05073
# Poissons Ratio (z) = 0.37081 0.06838
#
# Static dielectric constant tensor:
#      x y z
#    x 4.085160 0.000000 -0.128460 
#    y 0.000000 3.870990 0.000000 
#    z -0.128460 0.000000 4.015860 
# 
# 
# High freq. dielectric constant tensor:
#      x y z
#    x 1.834390 0.000000 -0.000770 
#    y 0.000000 1.825290 0.000000 
#    z -0.000770 0.000000 1.827910 
# 
# From -- ./inp_files/269267.got.cif
#   From: 2010.06.25/outbox.cif.g09.slc.cpg/sg15_135_cif.got.tgz:269267.got - 2010.06.28 07:06:18.
