data_PCOD8150271
_publ_section_title
;
Structure prediction by ZEFSAII (Michael W. Deem and Ramdas Pophale) SiO2 
 PCOD8150271
Probable space group: C 2/C
;
_chemical_formula_sum "Si O2"
_cell_formula_units_Z 24
_cell_length_a 26.771065
_cell_length_b 5.237689
_cell_length_c 10.333034
_cell_angle_alpha 90.000000
_cell_angle_beta 48.571550
_cell_angle_gamma 90.000000
_cell_volume 1086.347015
_symmetry_space_group_name_H-M "C 2/C"
_symmetry_group_IT_number 15
_symmetry_cell_setting 'monoclinic'
loop_
_space_group_symop_operation_xyz
x,y,z
-x,y,1/2-z
-x,-y,-z
x,-y,1/2+z
1/2+x,1/2+y,z
1/2-x,1/2+y,1/2-z
1/2-x,1/2-y,-z
1/2+x,1/2-y,1/2+z
loop_
_atom_site_type_symbol
_atom_site_label
_atom_site_fract_x
_atom_site_fract_y
_atom_site_fract_z
Si Si1 0.675041 0.829890 0.150813
Si Si2 0.614006 0.036242 0.492197
Si Si3 0.933629 0.044080 0.034618
O O1 0.628472 0.581540 0.259038
O O2 0.670993 0.016851 0.282616
O O3 0.750000 0.750000 0.000000
O O4 0.647913 0.983146 0.073457
O O5 0.576166 0.304032 0.542702
O O6 0.561879 0.800886 0.562030
O O7 0.000000 0.000000 0.000000
#
# Coordination Sequence:
#
# PCOD8150271 Si02
#       3
#     8   8   8
#     4  10  26  44  73 100 145 180 237 290 352 412
#     4  10  25  44  70 101 135 186 231 288 349 419
#     4  10  24  45  69  99 140 182 233 283 352 415
#
# _framework density 22.092389000000001
#
# number of rings (size 3 to 8) (size 9 to 14) (size 15 to 20)
#    2.000    0.000    0.000    1.000    9.333    2.667 
#    0.000    0.000    0.000    0.000    0.000    0.000 
#    0.000    0.000    0.000    0.000    0.000    0.000 
#
# Total GULP energy -148690.603107 kJ/mol
# GULP energy per Si atom -12390.883592 kJ/mol
# Density = 2.204211 g / cm^3
# Si number density = 22.092389 Si / 1000 Ang^3
#
#
#
# Elastic Constant Matrix: (Units=GPa)
#
#
# Indices 1 2 3 4 5 6 
#
# 1 98.6355 30.9441 23.5366 0.0000 1.9161 0.0000
# 2 30.9441 149.5078 7.3799 0.0000 -1.7267 0.0001
# 3 23.5366 7.3799 60.3513 0.0000 -2.9474 0.0000
# 4 0.0000 0.0000 0.0000 10.9888 0.0000 -9.1082
# 5 1.9161 -1.7267 -2.9474 0.0000 51.7403 0.0000
# 6 0.0000 0.0001 0.0000 -9.1082 0.0000 36.1963
#
#
#
# Elastic Compliance Matrix: (Units=1/GPa)
#
#
# Indices 1 2 3 4 5 6 
#
# 1 0.011913 -0.002257 -0.004408 0.000000 -0.000768 0.000000
# 2 -0.002257 0.007158 0.000021 0.000000 0.000324 0.000000
# 3 -0.004408 0.000021 0.018345 0.000000 0.001209 0.000000
# 4 0.000000 0.000000 0.000000 0.114984 0.000000 0.028934
# 5 -0.000768 0.000324 0.001209 0.000000 0.019435 0.000000
# 6 0.000000 0.000000 0.000000 0.028934 0.000000 0.034908
#
#
# Mechanical properties :
#
#
# Convention : Reuss Voigt Hill
#
# Bulk Modulus (GPa) = 41.44404 48.02397 44.73400
# Shear Modulus (GPa) = 21.92262 36.22735 29.07498
#
# Velocity S-wave (km/s) = 3.15352 4.05385 3.63169
# Velocity P-wave (km/s) = 5.66213 6.61034 6.15452
#
# Compressibility (1/GPa) = 0.02412892
#
# Stress axis : x y z
#
# Youngs Moduli (GPa) = 83.94155 139.69474 54.51053
#
# Poissons Ratio (x) = 0.31529 0.24026
# Poissons Ratio (y) = 0.18945 -0.00113
# Poissons Ratio (z) = 0.36997 -0.00289
#
# Static dielectric constant tensor:
#      x y z
#    x 4.158660 0.000000 0.141590 
#    y 0.000000 4.145510 0.000000 
#    z 0.141590 0.000000 3.858990 
# 
# 
# High freq. dielectric constant tensor:
#      x y z
#    x 1.869170 0.000000 0.011980 
#    y 0.000000 1.866620 0.000000 
#    z 0.011980 0.000000 1.860770 
# 
# From -- ./inp_files/59454.got.cif
#   From: 2010.06.25/outbox.cif.g09.slc.cpg/sg15_30_cif.got.tgz:59454.got - 2010.06.28 07:06:18.
