data_PCOD8150561
_publ_section_title
;
Structure prediction by ZEFSAII (Michael W. Deem and Ramdas Pophale) SiO2 
 PCOD8150561
Probable space group: C 2/C
;
_chemical_formula_sum "Si O2"
_cell_formula_units_Z 40
_cell_length_a 11.441374
_cell_length_b 7.739717
_cell_length_c 19.038729
_cell_angle_alpha 90.000000
_cell_angle_beta 83.484944
_cell_angle_gamma 90.000000
_cell_volume 1675.048856
_symmetry_space_group_name_H-M "C 2/C"
_symmetry_group_IT_number 15
_symmetry_cell_setting 'monoclinic'
loop_
_space_group_symop_operation_xyz
x,y,z
-x,y,1/2-z
-x,-y,-z
x,-y,1/2+z
1/2+x,1/2+y,z
1/2-x,1/2+y,1/2-z
1/2-x,1/2-y,-z
1/2+x,1/2-y,1/2+z
loop_
_atom_site_type_symbol
_atom_site_label
_atom_site_fract_x
_atom_site_fract_y
_atom_site_fract_z
Si Si1 0.400880 0.543937 0.712074
Si Si2 0.723086 0.685459 0.173859
Si Si3 0.158024 0.432239 0.061835
Si Si4 0.912760 0.088306 0.061641
Si Si5 0.591483 0.993358 0.418097
O O1 0.500000 0.647944 0.750000
O O2 0.370683 0.381629 0.764191
O O3 0.286562 0.656791 0.707919
O O4 0.454250 0.477192 0.635132
O O5 0.661600 0.754790 0.106634
O O6 0.818252 0.535032 0.150308
O O7 0.276869 0.539415 0.059521
O O8 0.042691 0.542946 0.095618
O O9 0.132702 0.387829 0.981516
O O10 0.912787 0.294426 0.057569
O O11 0.000000 0.000000 0.000000
#
# Coordination Sequence:
#
# PCOD8150561 Si02
#       5
#     8   8   8   8   8
#     4  11  26  45  69  98 138 187 228 288 346 415
#     4  11  25  45  68  99 141 179 239 282 353 414
#     4  10  25  42  69 105 136 179 230 282 352 412
#     4  11  26  45  72 104 140 182 235 286 350 415
#     4  11  24  42  72 103 140 179 227 295 348 409
#
# _framework density 23.879898000000001
#
# number of rings (size 3 to 8) (size 9 to 14) (size 15 to 20)
#    0.000    1.200    0.000    3.600   16.800    4.800 
#    0.000    1.000    0.000    0.000    0.000    0.000 
#    0.000    0.000    0.000    0.000    0.000    0.000 
#
# Total GULP energy -247896.264725 kJ/mol
# GULP energy per Si atom -12394.813236 kJ/mol
# Density = 2.382555 g / cm^3
# Si number density = 23.879898 Si / 1000 Ang^3
#
#
#
# Elastic Constant Matrix: (Units=GPa)
#
#
# Indices 1 2 3 4 5 6 
#
# 1 130.4618 27.2745 69.5563 0.0000 4.0384 0.0000
# 2 27.2745 87.7489 51.0895 0.0000 3.7723 0.0000
# 3 69.5563 51.0895 153.1093 0.0000 -11.9365 0.0000
# 4 0.0000 0.0000 0.0000 38.0818 0.0000 -10.3979
# 5 4.0384 3.7723 -11.9365 0.0000 34.4863 0.0000
# 6 0.0000 0.0000 0.0000 -10.3979 0.0000 23.5666
#
#
#
# Elastic Compliance Matrix: (Units=1/GPa)
#
#
# Indices 1 2 3 4 5 6 
#
# 1 0.010401 -0.000284 -0.004854 0.000000 -0.002867 0.000000
# 2 -0.000284 0.014520 -0.004971 0.000000 -0.003276 0.000000
# 3 -0.004854 -0.004971 0.010773 0.000000 0.004841 0.000000
# 4 0.000000 0.000000 0.000000 0.029856 0.000000 0.013173
# 5 -0.002867 -0.003276 0.004841 0.000000 0.031367 0.000000
# 6 0.000000 0.000000 0.000000 0.013173 0.000000 0.048245
#
#
# Mechanical properties :
#
#
# Convention : Reuss Voigt Hill
#
# Bulk Modulus (GPa) = 64.61901 74.12896 69.37398
# Shear Modulus (GPa) = 29.31907 34.12026 31.71966
#
# Velocity S-wave (km/s) = 3.50776 3.78408 3.64854
# Velocity P-wave (km/s) = 6.59732 7.08535 6.84568
#
# Compressibility (1/GPa) = 0.01547532
#
# Stress axis : x y z
#
# Youngs Moduli (GPa) = 96.14421 68.87229 92.82711
#
# Poissons Ratio (x) = 0.01953 0.45059
# Poissons Ratio (y) = 0.02726 0.46149
# Poissons Ratio (z) = 0.46669 0.34240
#
# Static dielectric constant tensor:
#      x y z
#    x 4.708300 0.000000 0.107150 
#    y 0.000000 3.994900 0.000000 
#    z 0.107150 0.000000 4.438210 
# 
# 
# High freq. dielectric constant tensor:
#      x y z
#    x 1.975970 0.000000 -0.002010 
#    y 0.000000 1.924480 0.000000 
#    z -0.002010 0.000000 1.952990 
# 
# From -- ./inp_files/195099.got.cif
#   From: 2010.06.25/outbox.cif.g09.slc.cpg/sg15_98_cif.got.tgz:195099.got - 2010.06.28 07:06:18.
