data_PCOD8150544
_publ_section_title
;
Structure prediction by ZEFSAII (Michael W. Deem and Ramdas Pophale) SiO2 
 PCOD8150544
Probable space group: C 2/C
;
_chemical_formula_sum "Si O2"
_cell_formula_units_Z 60
_cell_length_a 8.659119
_cell_length_b 16.709952
_cell_length_c 23.097817
_cell_angle_alpha 90.000000
_cell_angle_beta 62.444782
_cell_angle_gamma 90.000000
_cell_volume 2962.993054
_symmetry_space_group_name_H-M "C 2/C"
_symmetry_group_IT_number 15
_symmetry_cell_setting 'monoclinic'
loop_
_space_group_symop_operation_xyz
x,y,z
-x,y,1/2-z
-x,-y,-z
x,-y,1/2+z
1/2+x,1/2+y,z
1/2-x,1/2+y,1/2-z
1/2-x,1/2-y,-z
1/2+x,1/2-y,1/2+z
loop_
_atom_site_type_symbol
_atom_site_label
_atom_site_fract_x
_atom_site_fract_y
_atom_site_fract_z
Si Si1 0.616515 0.141589 0.143944
Si Si2 0.267377 0.963741 0.075620
Si Si3 0.438344 0.529918 0.702437
Si Si4 0.239048 0.869877 0.760637
Si Si5 0.861627 0.206523 0.931984
Si Si6 0.767041 0.132998 0.636496
Si Si7 0.370591 0.009142 0.934165
Si Si8 0.500000 0.237509 0.750000
O O1 0.753744 0.129171 0.171236
O O2 0.424673 0.125869 0.199171
O O3 0.627295 0.233057 0.123022
O O4 0.663726 0.079253 0.085124
O O5 0.248689 0.869435 0.068594
O O6 0.424861 0.976550 0.092794
O O7 0.284538 0.012520 0.012663
O O8 0.096535 0.998555 0.134861
O O9 0.500000 0.578080 0.750000
O O10 0.351709 0.450916 0.743569
O O11 0.307120 0.583483 0.687934
O O12 0.139278 0.790836 0.759111
O O13 0.061069 0.182065 0.914611
O O14 0.750000 0.250000 0.000000
O O15 0.602773 0.187258 0.683013
O O16 0.712233 0.076014 0.592972
#
# Coordination Sequence:
#
# PCOD8150544 Si02
#       8
#     8   8   8   8   8   8   8   4
#     4  11  23  42  69  94 129 177 222 267 337 399
#     4  10  25  41  69  95 136 174 219 284 329 394
#     4  11  23  42  67  98 129 174 224 268 334 394
#     4  11  24  41  65  96 130 176 215 275 328 401
#     4  11  23  46  66  94 131 175 219 271 337 396
#     4  11  27  41  68 101 131 176 220 283 328 399
#     4  11  23  45  67  98 131 172 231 273 333 391
#     4  12  26  42  62 102 144 160 224 278 338 388
#
# _framework density 20.249793
#
# number of rings (size 3 to 8) (size 9 to 14) (size 15 to 20)
#    0.000    1.067    4.667    0.800    5.600    4.267 
#    0.000    0.667    0.000    0.000    0.000    0.000 
#    0.000    0.000    0.000    0.000    0.000    0.000 
#
# Total GULP energy -371988.678477 kJ/mol
# GULP energy per Si atom -12399.622616 kJ/mol
# Density = 2.020370 g / cm^3
# Si number density = 20.249793 Si / 1000 Ang^3
#
#
#
# Elastic Constant Matrix: (Units=GPa)
#
#
# Indices 1 2 3 4 5 6 
#
# 1 89.5698 25.3251 29.9929 0.0000 18.7997 -0.0002
# 2 25.3251 88.8165 26.4432 0.0000 4.6587 -0.0001
# 3 29.9929 26.4432 76.6360 0.0000 10.2671 -0.0001
# 4 0.0000 0.0000 0.0000 39.7327 0.0000 0.6488
# 5 18.7997 4.6587 10.2671 0.0000 34.1861 0.0001
# 6 -0.0002 -0.0001 -0.0001 0.6488 0.0001 35.6131
#
#
#
# Elastic Compliance Matrix: (Units=1/GPa)
#
#
# Indices 1 2 3 4 5 6 
#
# 1 0.014589 -0.002651 -0.003927 0.000000 -0.006483 0.000000
# 2 -0.002651 0.013036 -0.003561 0.000000 0.000751 0.000000
# 3 -0.003927 -0.003561 0.016108 0.000000 -0.002193 0.000000
# 4 0.000000 0.000000 0.000000 0.025176 0.000000 -0.000459
# 5 -0.006483 0.000751 -0.002193 0.000000 0.033373 0.000000
# 6 0.000000 0.000000 0.000000 -0.000459 0.000000 0.028088
#
#
# Mechanical properties :
#
#
# Convention : Reuss Voigt Hill
#
# Bulk Modulus (GPa) = 42.63311 46.50498 44.56905
# Shear Modulus (GPa) = 31.55248 33.45710 32.50479
#
# Velocity S-wave (km/s) = 3.95164 4.06916 4.01083
# Velocity P-wave (km/s) = 6.47456 6.71513 6.59594
#
# Compressibility (1/GPa) = 0.02345595
#
# Stress axis : x y z
#
# Youngs Moduli (GPa) = 68.54256 76.71108 62.08074
#
# Poissons Ratio (x) = 0.20336 0.24377
# Poissons Ratio (y) = 0.18170 0.22108
# Poissons Ratio (z) = 0.26914 0.27318
#
# Static dielectric constant tensor:
#      x y z
#    x 3.852560 0.000000 -0.072710 
#    y 0.000000 3.769800 0.000000 
#    z -0.072710 0.000000 4.554990 
# 
# 
# High freq. dielectric constant tensor:
#      x y z
#    x 1.800290 0.000000 -0.001380 
#    y 0.000000 1.793030 0.000000 
#    z -0.001380 0.000000 1.801270 
# 
# From -- ./inp_files/233057.got.cif
#   From: 2010.06.25/outbox.cif.g09.slc.cpg/sg15_117_cif.got.tgz:233057.got - 2010.06.28 07:06:18.
