data_PCOD8150304
_publ_section_title
;
Structure prediction by ZEFSAII (Michael W. Deem and Ramdas Pophale) SiO2 
 PCOD8150304
Probable space group: C 2/C
;
_chemical_formula_sum "Si O2"
_cell_formula_units_Z 64
_cell_length_a 9.285547
_cell_length_b 27.560277
_cell_length_c 19.477437
_cell_angle_alpha 90.000000
_cell_angle_beta 142.727942
_cell_angle_gamma 90.000000
_cell_volume 3018.624041
_symmetry_space_group_name_H-M "C 2/C"
_symmetry_group_IT_number 15
_symmetry_cell_setting 'monoclinic'
loop_
_space_group_symop_operation_xyz
x,y,z
-x,y,1/2-z
-x,-y,-z
x,-y,1/2+z
1/2+x,1/2+y,z
1/2-x,1/2+y,1/2-z
1/2-x,1/2-y,-z
1/2+x,1/2-y,1/2+z
loop_
_atom_site_type_symbol
_atom_site_label
_atom_site_fract_x
_atom_site_fract_y
_atom_site_fract_z
Si Si1 0.153528 0.461082 0.740585
Si Si2 0.515383 0.869690 0.173467
Si Si3 0.747669 0.098068 0.479997
Si Si4 0.096321 0.701930 0.461895
Si Si5 0.011306 0.894003 0.938573
Si Si6 0.488749 0.777616 0.073296
Si Si7 0.711485 0.809042 0.782474
Si Si8 0.101964 0.944608 0.213977
O O1 0.410683 0.438524 0.856150
O O2 0.211986 0.512315 0.729129
O O3 0.000000 0.471137 0.750000
O O4 0.011935 0.424460 0.636230
O O5 0.500000 0.868067 0.250000
O O6 0.526595 0.816063 0.147791
O O7 0.754506 0.894925 0.239229
O O8 0.293606 0.897824 0.054535
O O9 0.740749 0.151379 0.511911
O O10 0.900298 0.105654 0.470911
O O11 0.879004 0.058637 0.577696
O O12 0.250000 0.750000 0.500000
O O13 0.983310 0.701899 0.494474
O O14 0.871731 0.697668 0.326623
O O15 0.938308 0.844515 0.871883
O O16 0.716270 0.742633 0.160081
O O17 0.250000 0.750000 0.000000
O O18 0.500000 0.831076 0.750000
O O19 0.000000 0.951637 0.250000
#
# Coordination Sequence:
#
# PCOD8150304 Si02
#       8
#     8   8   8   8   8   8   8   8
#     4  10  24  45  74 103 134 178 233 288 345 416
#     4  12  27  47  72  99 142 185 232 292 353 411
#     4  11  23  44  74 103 136 183 237 282 343 418
#     4  12  25  43  72 103 140 189 232 282 343 413
#     4  11  21  46  72 104 135 178 236 283 340 424
#     4  12  28  43  63 106 142 182 231 291 342 410
#     4  12  22  43  72 100 138 187 234 277 344 416
#     4  12  28  47  69 103 140 182 231 289 355 420
#
# _framework density 21.201713000000002
#
# number of rings (size 3 to 8) (size 9 to 14) (size 15 to 20)
#    0.000    0.500    6.250    1.500    5.250    2.000 
#    2.250    0.000    0.000    0.000    0.000    0.000 
#    0.000    0.000    0.000    0.000    0.000    0.000 
#
# Total GULP energy -396838.268045 kJ/mol
# GULP energy per Si atom -12401.195876 kJ/mol
# Density = 2.115346 g / cm^3
# Si number density = 21.201713 Si / 1000 Ang^3
#
#
#
# Elastic Constant Matrix: (Units=GPa)
#
#
# Indices 1 2 3 4 5 6 
#
# 1 70.3566 33.8824 40.1774 0.0006 -3.2977 0.0000
# 2 33.8824 111.3998 25.2957 -0.0001 -5.0394 0.0000
# 3 40.1774 25.2957 121.5597 0.0113 -10.1950 -0.0027
# 4 0.0006 -0.0001 0.0113 71.4096 0.0035 1.3575
# 5 -3.2977 -5.0394 -10.1950 0.0035 20.8537 -0.0009
# 6 0.0000 0.0000 -0.0027 1.3575 -0.0009 31.2703
#
#
#
# Elastic Compliance Matrix: (Units=1/GPa)
#
#
# Indices 1 2 3 4 5 6 
#
# 1 0.019642 -0.004744 -0.005569 0.000001 -0.000763 -0.000001
# 2 -0.004744 0.010606 -0.000508 0.000000 0.001564 0.000000
# 3 -0.005569 -0.000508 0.010520 -0.000002 0.004140 0.000001
# 4 0.000001 0.000000 -0.000002 0.014015 -0.000003 -0.000608
# 5 -0.000763 0.001564 0.004140 -0.000003 0.050234 0.000002
# 6 -0.000001 0.000000 0.000001 -0.000608 0.000002 0.032006
#
#
# Mechanical properties :
#
#
# Convention : Reuss Voigt Hill
#
# Bulk Modulus (GPa) = 52.28398 55.78080 54.03239
# Shear Modulus (GPa) = 30.29563 38.30410 34.29986
#
# Velocity S-wave (km/s) = 3.78421 4.25508 4.02654
# Velocity P-wave (km/s) = 6.61872 7.10687 6.86714
#
# Compressibility (1/GPa) = 0.01912632
#
# Stress axis : x y z
#
# Youngs Moduli (GPa) = 50.91025 94.28880 95.05848
#
# Poissons Ratio (x) = 0.44733 0.52937
# Poissons Ratio (y) = 0.24153 0.04826
# Poissons Ratio (z) = 0.28351 0.04787
#
# Static dielectric constant tensor:
#      x y z
#    x 3.614930 0.000000 -0.088990 
#    y 0.000000 4.000480 0.000000 
#    z -0.088990 0.000000 4.049370 
# 
# 
# High freq. dielectric constant tensor:
#      x y z
#    x 1.817010 0.000000 -0.001110 
#    y 0.000000 1.839320 0.000000 
#    z -0.001110 0.000000 1.849710 
# 
# From -- ./inp_files/194297.got.cif
#   From: 2010.06.25/outbox.cif.g09.slc.cpg/sg15_98_cif.got.tgz:194297.got - 2010.06.28 07:06:18.
