data_PCOD8150834
_publ_section_title
;
Structure prediction by ZEFSAII (Michael W. Deem and Ramdas Pophale) SiO2 
 PCOD8150834
Probable space group: C 2/C
;
_chemical_formula_sum "Si O2"
_cell_formula_units_Z 44
_cell_length_a 21.331253
_cell_length_b 11.512880
_cell_length_c 8.360242
_cell_angle_alpha 90.000000
_cell_angle_beta 82.424445
_cell_angle_gamma 90.000000
_cell_volume 2035.222891
_symmetry_space_group_name_H-M "C 2/C"
_symmetry_group_IT_number 15
_symmetry_cell_setting 'monoclinic'
loop_
_space_group_symop_operation_xyz
x,y,z
-x,y,1/2-z
-x,-y,-z
x,-y,1/2+z
1/2+x,1/2+y,z
1/2-x,1/2+y,1/2-z
1/2-x,1/2-y,-z
1/2+x,1/2-y,1/2+z
loop_
_atom_site_type_symbol
_atom_site_label
_atom_site_fract_x
_atom_site_fract_y
_atom_site_fract_z
Si Si1 0.555203 0.095279 0.982378
Si Si2 0.862000 0.555043 0.826639
Si Si3 0.270890 0.059631 0.109252
Si Si4 0.287324 0.646050 0.068320
Si Si5 0.000000 0.016318 0.250000
Si Si6 0.565329 0.652905 0.503846
O O1 0.582304 0.117670 0.791681
O O2 0.531117 0.222099 0.045599
O O3 0.500000 0.000000 0.000000
O O4 0.608828 0.054604 0.088123
O O5 0.811565 0.515408 0.716100
O O6 0.821163 0.627991 0.974031
O O7 0.229263 0.144151 0.235111
O O8 0.227135 0.975431 0.015848
O O9 0.360578 0.675520 0.032890
O O10 0.250000 0.750000 0.000000
O O11 0.947968 0.934008 0.347575
O O12 0.961543 0.098080 0.146843
#
# Coordination Sequence:
#
# PCOD8150834 Si02
#       6
#     8   8   8   8   4   8
#     4  11  23  37  64  95 130 167 214 270 332 377
#     4   9  19  37  56  96 132 161 202 269 316 394
#     4   9  19  37  61  91 129 163 210 249 321 388
#     4  11  21  40  67  95 127 175 208 271 331 385
#     4  10  26  46  66  88 128 184 220 274 312 394
#     4  11  24  45  64  93 130 168 230 264 326 391
#
# _framework density 21.619254000000002
#
# number of rings (size 3 to 8) (size 9 to 14) (size 15 to 20)
#    0.000    1.818    0.000    4.909    5.091    0.000 
#    0.000   10.000    0.000    0.000    0.000    0.000 
#    0.000    0.000    0.000    0.000    0.000    0.000 
#
# Total GULP energy -272550.708667 kJ/mol
# GULP energy per Si atom -12388.668576 kJ/mol
# Density = 2.157005 g / cm^3
# Si number density = 21.619254 Si / 1000 Ang^3
#
#
#
# Elastic Constant Matrix: (Units=GPa)
#
#
# Indices 1 2 3 4 5 6 
#
# 1 98.1165 33.0143 25.6226 0.0000 -19.7472 0.0000
# 2 33.0143 99.2774 14.5565 0.0000 -0.4451 0.0000
# 3 25.6226 14.5565 103.8102 0.0000 -12.1045 0.0000
# 4 0.0000 0.0000 0.0000 45.6134 0.0000 5.1936
# 5 -19.7472 -0.4451 -12.1045 0.0000 24.8896 0.0000
# 6 0.0000 0.0000 0.0000 5.1936 0.0000 27.8918
#
#
#
# Elastic Compliance Matrix: (Units=1/GPa)
#
#
# Indices 1 2 3 4 5 6 
#
# 1 0.014210 -0.004433 -0.001675 0.000000 0.010380 0.000000
# 2 -0.004433 0.011674 -0.000984 0.000000 -0.003787 0.000000
# 3 -0.001675 -0.000984 0.010630 0.000000 0.003823 0.000000
# 4 0.000000 0.000000 0.000000 0.022398 0.000000 -0.004171
# 5 0.010380 -0.003787 0.003823 0.000000 0.050204 0.000000
# 6 0.000000 0.000000 0.000000 -0.004171 0.000000 0.036629
#
#
# Mechanical properties :
#
#
# Convention : Reuss Voigt Hill
#
# Bulk Modulus (GPa) = 44.78530 49.73233 47.25882
# Shear Modulus (GPa) = 29.87276 34.87969 32.37622
#
# Velocity S-wave (km/s) = 3.72124 4.02103 3.87404
# Velocity P-wave (km/s) = 6.26291 6.67921 6.47441
#
# Compressibility (1/GPa) = 0.02232876
#
# Stress axis : x y z
#
# Youngs Moduli (GPa) = 70.37087 85.65710 94.07082
#
# Poissons Ratio (x) = 0.37975 0.15761
# Poissons Ratio (y) = 0.31198 0.09260
# Poissons Ratio (z) = 0.11790 0.08432
#
# Static dielectric constant tensor:
#      x y z
#    x 4.658180 0.000000 0.071270 
#    y 0.000000 3.279680 0.000000 
#    z 0.071270 0.000000 5.034410 
# 
# 
# High freq. dielectric constant tensor:
#      x y z
#    x 1.853310 0.000000 -0.002160 
#    y 0.000000 1.820270 0.000000 
#    z -0.002160 0.000000 1.874140 
# 
# From -- ./inp_files/54424.got.cif
#   From: 2010.06.25/outbox.cif.g09.slc.cpg/sg15_28_cif.got.tgz:54424.got - 2010.06.28 07:06:18.
