data_PCOD8150999
_publ_section_title
;
Structure prediction by ZEFSAII (Michael W. Deem and Ramdas Pophale) SiO2 
 PCOD8150999
Probable space group: C 2/C
;
_chemical_formula_sum "Si O2"
_cell_formula_units_Z 60
_cell_length_a 15.319640
_cell_length_b 18.952395
_cell_length_c 11.480315
_cell_angle_alpha 90.000000
_cell_angle_beta 84.288198
_cell_angle_gamma 90.000000
_cell_volume 3316.689839
_symmetry_space_group_name_H-M "C 2/C"
_symmetry_group_IT_number 15
_symmetry_cell_setting 'monoclinic'
loop_
_space_group_symop_operation_xyz
x,y,z
-x,y,1/2-z
-x,-y,-z
x,-y,1/2+z
1/2+x,1/2+y,z
1/2-x,1/2+y,1/2-z
1/2-x,1/2-y,-z
1/2+x,1/2-y,1/2+z
loop_
_atom_site_type_symbol
_atom_site_label
_atom_site_fract_x
_atom_site_fract_y
_atom_site_fract_z
Si Si1 0.037978 0.609960 0.086472
Si Si2 0.102359 0.759162 0.545793
Si Si3 0.141787 0.406308 0.346945
Si Si4 0.361743 0.062411 0.207947
Si Si5 0.000000 0.322291 0.250000
Si Si6 0.266971 0.194634 0.155867
Si Si7 0.027432 0.221911 0.619045
Si Si8 0.281535 0.291671 0.383752
O O1 0.104855 0.573904 0.166370
O O2 0.035477 0.693518 0.107307
O O3 0.941091 0.578245 0.109391
O O4 0.070594 0.587639 0.957049
O O5 0.025501 0.722148 0.631868
O O6 0.167155 0.802015 0.621932
O O7 0.162904 0.709382 0.456301
O O8 0.044104 0.807136 0.464982
O O9 0.173466 0.483016 0.301661
O O10 0.226414 0.362305 0.373158
O O11 0.088658 0.367604 0.251875
O O12 0.280533 0.114425 0.194324
O O13 0.280434 0.246237 0.264500
O O14 0.121237 0.185205 0.591069
O O15 0.000000 0.199418 0.750000
O O16 0.250000 0.250000 0.500000
#
# Coordination Sequence:
#
# PCOD8150999 Si02
#       8
#     8   8   8   8   4   8   8   8
#     4  11  18  36  55  81 116 154 180 223 290 368
#     4  11  22  35  58  86 116 148 192 239 290 336
#     4  12  24  34  54  89 118 147 190 240 289 349
#     4  11  21  36  55  81 118 155 183 224 301 360
#     4  12  20  36  54  90 120 142 180 242 296 342
#     4  11  21  38  57  82 119 153 190 238 290 347
#     4  12  19  37  61  80 112 156 199 234 286 347
#     4  12  21  38  60  83 118 154 205 244 279 347
#
# _framework density 18.090326999999998
#
# number of rings (size 3 to 8) (size 9 to 14) (size 15 to 20)
#    0.000    0.533    9.333    1.200    0.000    1.067 
#    0.000    0.000    0.000    0.800    1.733    0.000 
#    0.000    0.000    0.000    0.000    0.000    0.000 
#
# Total GULP energy -371832.454296 kJ/mol
# GULP energy per Si atom -12394.415143 kJ/mol
# Density = 1.804915 g / cm^3
# Si number density = 18.090327 Si / 1000 Ang^3
#
#
#
# Elastic Constant Matrix: (Units=GPa)
#
#
# Indices 1 2 3 4 5 6 
#
# 1 128.9153 37.3720 18.8882 0.0000 28.8375 0.0000
# 2 37.3720 76.4171 8.4813 0.0000 13.9555 0.0000
# 3 18.8882 8.4813 81.7909 0.0000 3.5510 0.0000
# 4 0.0000 0.0000 0.0000 9.5303 0.0000 2.8465
# 5 28.8375 13.9555 3.5510 0.0000 31.0229 0.0000
# 6 0.0000 0.0000 0.0000 2.8465 0.0000 26.9331
#
#
#
# Elastic Compliance Matrix: (Units=1/GPa)
#
#
# Indices 1 2 3 4 5 6 
#
# 1 0.010933 -0.003628 -0.001787 0.000000 -0.008326 0.000000
# 2 -0.003628 0.015581 -0.000623 0.000000 -0.003565 0.000000
# 3 -0.001787 -0.000623 0.012682 0.000000 0.000490 0.000000
# 4 0.000000 0.000000 0.000000 0.108349 0.000000 -0.011451
# 5 -0.008326 -0.003565 0.000490 0.000000 0.041522 0.000000
# 6 0.000000 0.000000 0.000000 -0.011451 0.000000 0.038339
#
#
# Mechanical properties :
#
#
# Convention : Reuss Voigt Hill
#
# Bulk Modulus (GPa) = 36.87341 46.28960 41.58150
# Shear Modulus (GPa) = 20.11891 28.32271 24.22081
#
# Velocity S-wave (km/s) = 3.33849 3.96109 3.66304
# Velocity P-wave (km/s) = 5.94036 6.82378 6.39734
#
# Compressibility (1/GPa) = 0.02711982
#
# Stress axis : x y z
#
# Youngs Moduli (GPa) = 91.46492 64.18253 78.84977
#
# Poissons Ratio (x) = 0.23285 0.14092
# Poissons Ratio (y) = 0.33183 0.04913
# Poissons Ratio (z) = 0.16346 0.03999
#
# Static dielectric constant tensor:
#      x y z
#    x 3.520140 0.000000 0.161570 
#    y 0.000000 2.976430 0.000000 
#    z 0.161570 0.000000 3.642890 
# 
# 
# High freq. dielectric constant tensor:
#      x y z
#    x 1.704220 0.000000 0.011320 
#    y 0.000000 1.651000 0.000000 
#    z 0.011320 0.000000 1.722750 
# 
# From -- ./inp_files/98299.got.cif
#   From: 2010.06.25/outbox.cif.g09.slc.cpg/sg15_50_cif.got.tgz:98299.got - 2010.06.28 07:06:18.
