data_PCOD8150131
_publ_section_title
;
Structure prediction by ZEFSAII (Michael W. Deem and Ramdas Pophale) SiO2 
 PCOD8150131
Probable space group: C 2/C
;
_chemical_formula_sum "Si O2"
_cell_formula_units_Z 52
_cell_length_a 11.101644
_cell_length_b 16.702093
_cell_length_c 14.983969
_cell_angle_alpha 90.000000
_cell_angle_beta 62.939495
_cell_angle_gamma 90.000000
_cell_volume 2474.183808
_symmetry_space_group_name_H-M "C 2/C"
_symmetry_group_IT_number 15
_symmetry_cell_setting 'monoclinic'
loop_
_space_group_symop_operation_xyz
x,y,z
-x,y,1/2-z
-x,-y,-z
x,-y,1/2+z
1/2+x,1/2+y,z
1/2-x,1/2+y,1/2-z
1/2-x,1/2-y,-z
1/2+x,1/2-y,1/2+z
loop_
_atom_site_type_symbol
_atom_site_label
_atom_site_fract_x
_atom_site_fract_y
_atom_site_fract_z
Si Si1 0.691386 0.929856 0.172385
Si Si2 0.411877 0.339414 0.197043
Si Si3 0.381594 0.050226 0.154506
Si Si4 0.785280 0.196319 0.212642
Si Si5 0.319838 0.968049 0.993134
Si Si6 0.658325 0.677510 0.504445
Si Si7 0.500000 0.212069 0.750000
O O1 0.826734 0.911026 0.182321
O O2 0.612827 0.847995 0.171355
O O3 0.607059 0.988163 0.266700
O O4 0.727767 0.970542 0.066938
O O5 0.500000 0.372411 0.250000
O O6 0.317470 0.269223 0.266949
O O7 0.505579 0.304377 0.086186
O O8 0.289954 0.127396 0.206017
O O9 0.536612 0.073425 0.080362
O O10 0.318919 0.010294 0.088499
O O11 0.830172 0.158955 0.104024
O O12 0.924985 0.228905 0.207087
O O13 0.208409 0.899971 0.041055
O O14 0.750000 0.750000 0.500000
#
# Coordination Sequence:
#
# PCOD8150131 Si02
#       7
#     8   8   8   8   8   8   4
#     4  11  22  44  69  94 140 182 225 287 351 410
#     4  11  24  42  66 100 136 181 227 288 345 411
#     4  11  23  42  67 101 132 177 237 286 336 420
#     4  11  25  44  70 100 139 182 227 294 341 414
#     4  11  24  40  72  99 131 187 235 285 346 417
#     4  12  24  41  68 100 135 179 235 281 348 409
#     4  10  24  44  68  96 140 184 220 282 360 404
#
# _framework density 21.017032
#
# number of rings (size 3 to 8) (size 9 to 14) (size 15 to 20)
#    0.000    0.923    4.615    1.846    2.154    3.077 
#    4.154    3.077    0.000    0.000    0.000    0.000 
#    0.000    0.000    0.000    0.000    0.000    0.000 
#
# Total GULP energy -322402.923325 kJ/mol
# GULP energy per Si atom -12400.112436 kJ/mol
# Density = 2.096920 g / cm^3
# Si number density = 21.017032 Si / 1000 Ang^3
#
#
#
# Elastic Constant Matrix: (Units=GPa)
#
#
# Indices 1 2 3 4 5 6 
#
# 1 122.4059 40.5402 26.9691 0.0000 11.5742 0.0000
# 2 40.5402 80.3851 15.3192 0.0000 15.1032 0.0000
# 3 26.9691 15.3192 90.8536 0.0000 12.7914 0.0000
# 4 0.0000 0.0000 0.0000 32.2417 0.0000 0.4503
# 5 11.5742 15.1032 12.7914 0.0000 35.1221 0.0000
# 6 0.0000 0.0000 0.0000 0.4503 0.0000 35.6406
#
#
#
# Elastic Compliance Matrix: (Units=1/GPa)
#
#
# Indices 1 2 3 4 5 6 
#
# 1 0.010241 -0.004640 -0.002175 0.000000 -0.000587 0.000000
# 2 -0.004640 0.015844 -0.000580 0.000000 -0.005073 0.000000
# 3 -0.002175 -0.000580 0.012242 0.000000 -0.003492 0.000000
# 4 0.000000 0.000000 0.000000 0.031021 0.000000 -0.000392
# 5 -0.000587 -0.005073 -0.003492 0.000000 0.032119 0.000000
# 6 0.000000 0.000000 0.000000 -0.000392 0.000000 0.028063
#
#
# Mechanical properties :
#
#
# Convention : Reuss Voigt Hill
#
# Bulk Modulus (GPa) = 42.48622 51.03352 46.75987
# Shear Modulus (GPa) = 32.85910 34.65529 33.75720
#
# Velocity S-wave (km/s) = 3.95834 4.06509 4.01207
# Velocity P-wave (km/s) = 6.41485 6.80940 6.61507
#
# Compressibility (1/GPa) = 0.02353704
#
# Stress axis : x y z
#
# Youngs Moduli (GPa) = 97.64686 63.11627 81.68742
#
# Poissons Ratio (x) = 0.29285 0.17766
# Poissons Ratio (y) = 0.45307 0.04737
# Poissons Ratio (z) = 0.21237 0.03660
#
# Static dielectric constant tensor:
#      x y z
#    x 3.945040 0.000000 0.040310 
#    y 0.000000 2.334000 0.000000 
#    z 0.040310 0.000000 3.799750 
# 
# 
# High freq. dielectric constant tensor:
#      x y z
#    x 1.832720 0.000000 0.004280 
#    y 0.000000 1.819000 0.000000 
#    z 0.004280 0.000000 1.826290 
# 
# From -- ./inp_files/145500.got.cif
#   From: 2010.06.25/outbox.cif.g09.slc.cpg/sg15_73_cif.got.tgz:145500.got - 2010.06.28 07:06:18.
