data_PCOD8150817
_publ_section_title
;
Structure prediction by ZEFSAII (Michael W. Deem and Ramdas Pophale) SiO2 
 PCOD8150817
Probable space group: C 2/C
;
_chemical_formula_sum "Si O2"
_cell_formula_units_Z 40
_cell_length_a 30.502355
_cell_length_b 5.012389
_cell_length_c 10.869597
_cell_angle_alpha 90.000000
_cell_angle_beta 68.540791
_cell_angle_gamma 90.000000
_cell_volume 1546.646811
_symmetry_space_group_name_H-M "C 2/C"
_symmetry_group_IT_number 15
_symmetry_cell_setting 'monoclinic'
loop_
_space_group_symop_operation_xyz
x,y,z
-x,y,1/2-z
-x,-y,-z
x,-y,1/2+z
1/2+x,1/2+y,z
1/2-x,1/2+y,1/2-z
1/2-x,1/2-y,-z
1/2+x,1/2-y,1/2+z
loop_
_atom_site_type_symbol
_atom_site_label
_atom_site_fract_x
_atom_site_fract_y
_atom_site_fract_z
Si Si1 0.651609 0.398471 0.662716
Si Si2 0.008232 0.310379 0.105931
Si Si3 0.363552 0.093126 0.478842
Si Si4 0.074657 0.928102 0.931919
Si Si5 0.220743 0.354114 0.260912
O O1 0.657340 0.652090 0.571080
O O2 0.622908 0.498502 0.812434
O O3 0.702135 0.281368 0.653382
O O4 0.625144 0.156916 0.619586
O O5 0.000000 0.439004 0.250000
O O6 0.965595 0.099228 0.130497
O O7 0.000000 0.500000 0.000000
O O8 0.058755 0.162806 0.041704
O O9 0.413561 0.168105 0.494430
O O10 0.323026 0.024124 0.618074
O O11 0.251939 0.614523 0.196488
#
# Coordination Sequence:
#
# PCOD8150817 Si02
#       5
#     8   8   8   8   8
#     4  11  25  43  72 102 142 193 249 310 379 450
#     4  11  26  46  75 110 150 197 252 316 385 457
#     4  11  25  43  71 103 140 194 248 310 380 448
#     4  10  26  45  69 102 146 190 251 311 379 457
#     4  11  24  43  66 103 147 187 248 309 377 456
#
# _framework density 25.862401999999999
#
# number of rings (size 3 to 8) (size 9 to 14) (size 15 to 20)
#    0.000    1.200    0.000    3.600    8.400   11.200 
#    0.000    0.000    0.000    0.000    0.000    0.000 
#    0.000    0.000    0.000    0.000    0.000    0.000 
#
# Total GULP energy -247931.801268 kJ/mol
# GULP energy per Si atom -12396.590063 kJ/mol
# Density = 2.580354 g / cm^3
# Si number density = 25.862402 Si / 1000 Ang^3
#
#
#
# Elastic Constant Matrix: (Units=GPa)
#
#
# Indices 1 2 3 4 5 6 
#
# 1 90.2411 6.7765 28.3298 0.0000 -0.7216 0.0000
# 2 6.7765 91.5135 27.6230 0.0000 -9.3983 0.0000
# 3 28.3298 27.6230 126.4994 0.0000 9.0960 0.0000
# 4 0.0000 0.0000 0.0000 18.5402 0.0000 28.4670
# 5 -0.7216 -9.3983 9.0960 0.0000 34.0208 0.0000
# 6 0.0000 0.0000 0.0000 28.4670 0.0000 19.6194
#
#
#
# Elastic Compliance Matrix: (Units=1/GPa)
#
#
# Indices 1 2 3 4 5 6 
#
# 1 0.011952 0.000051 -0.002760 0.000000 0.001006 0.000000
# 2 0.000051 0.012256 -0.002989 0.000000 0.004186 0.000000
# 3 -0.002760 -0.002989 0.009421 0.000000 -0.003403 0.000000
# 4 0.000000 0.000000 0.000000 -0.043928 0.000000 0.063738
# 5 0.001006 0.004186 -0.003403 0.000000 0.031481 0.000000
# 6 0.000000 0.000000 0.000000 0.063738 0.000000 -0.041512
#
#
# Mechanical properties :
#
#
# Convention : Reuss Voigt Hill
#
# Bulk Modulus (GPa) = 44.97757 48.19029 46.58393
# Shear Modulus (GPa) = -3279.58870 30.80438 -1624.39216
#
# Velocity S-wave (km/s) = -35.64890 3.45496 -25.08892
# Velocity P-wave (km/s) = 40.95156 5.88128 28.65694
#
# Compressibility (1/GPa) = 0.02223331
#
# Stress axis : x y z
#
# Youngs Moduli (GPa) = 83.66696 81.59576 106.14974
#
# Poissons Ratio (x) = -0.00419 0.29300
# Poissons Ratio (y) = -0.00430 0.31725
# Poissons Ratio (z) = 0.23094 0.24386
#
# Static dielectric constant tensor:
#      x y z
#    x 5.596450 0.000000 0.255990 
#    y 0.000000 4.556100 0.000000 
#    z 0.255990 0.000000 4.480770 
# 
# 
# High freq. dielectric constant tensor:
#      x y z
#    x 2.052230 0.000000 0.005300 
#    y 0.000000 2.030110 0.000000 
#    z 0.005300 0.000000 2.022460 
# 
# From -- ./inp_files/124932.got.cif
#   From: 2010.06.25/outbox.cif.g09.slc.cpg/sg15_63_cif.got.tgz:124932.got - 2010.06.28 07:06:18.
