data_PCOD8150740
_publ_section_title
;
Structure prediction by ZEFSAII (Michael W. Deem and Ramdas Pophale) SiO2 
 PCOD8150740
Probable space group: C 2/C
;
_chemical_formula_sum "Si O2"
_cell_formula_units_Z 56
_cell_length_a 11.727568
_cell_length_b 8.290962
_cell_length_c 27.621329
_cell_angle_alpha 90.000000
_cell_angle_beta 118.049017
_cell_angle_gamma 90.000000
_cell_volume 2370.252567
_symmetry_space_group_name_H-M "C 2/C"
_symmetry_group_IT_number 15
_symmetry_cell_setting 'monoclinic'
loop_
_space_group_symop_operation_xyz
x,y,z
-x,y,1/2-z
-x,-y,-z
x,-y,1/2+z
1/2+x,1/2+y,z
1/2-x,1/2+y,1/2-z
1/2-x,1/2-y,-z
1/2+x,1/2-y,1/2+z
loop_
_atom_site_type_symbol
_atom_site_label
_atom_site_fract_x
_atom_site_fract_y
_atom_site_fract_z
Si Si1 0.011407 0.824698 0.398686
Si Si2 0.190491 0.289058 0.377406
Si Si3 0.257539 0.390709 0.937715
Si Si4 0.664962 0.399180 0.962958
Si Si5 0.430135 0.886906 0.287519
Si Si6 0.704869 0.795759 0.700854
Si Si7 0.014387 0.309749 0.504356
O O1 0.137200 0.726666 0.406749
O O2 0.945678 0.740956 0.432919
O O3 0.911463 0.829994 0.333925
O O4 0.039979 0.007685 0.418381
O O5 0.257696 0.466991 0.397037
O O6 0.235655 0.171921 0.429858
O O7 0.220749 0.189315 0.335177
O O8 0.035090 0.321195 0.346729
O O9 0.386595 0.284675 0.961532
O O10 0.247864 0.473092 0.989330
O O11 0.624436 0.246300 0.987968
O O12 0.500000 0.922509 0.250000
O O13 0.310144 0.762960 0.260515
O O14 0.363585 0.045020 0.294891
O O15 0.000000 0.500000 0.500000
#
# Coordination Sequence:
#
# PCOD8150740 Si02
#       7
#     8   8   8   8   8   8   8
#     4  11  23  41  65 100 134 184 228 274 343 409
#     4  11  23  45  70 101 136 178 226 284 342 413
#     4  11  22  42  64  98 144 181 226 277 335 410
#     4  11  23  39  63 100 141 182 225 269 336 409
#     4  10  25  49  71 101 132 176 230 297 348 418
#     4  11  24  47  73  93 138 171 229 284 355 403
#     4  11  23  39  64  98 143 186 227 272 332 407
#
# _framework density 23.626176000000001
#
# number of rings (size 3 to 8) (size 9 to 14) (size 15 to 20)
#    0.000    1.143    1.429    6.429    2.000    3.429 
#    2.571    0.000    0.000    0.000    0.000    0.000 
#    0.000    0.000    0.000    0.000    0.000    0.000 
#
# Total GULP energy -347068.049185 kJ/mol
# GULP energy per Si atom -12395.287471 kJ/mol
# Density = 2.357240 g / cm^3
# Si number density = 23.626176 Si / 1000 Ang^3
#
#
#
# Elastic Constant Matrix: (Units=GPa)
#
#
# Indices 1 2 3 4 5 6 
#
# 1 67.3630 17.2329 23.5841 0.0000 6.7599 0.0000
# 2 17.2329 116.9058 31.1738 0.0000 1.4249 0.0000
# 3 23.5841 31.1738 75.5588 0.0000 24.2530 0.0000
# 4 0.0000 0.0000 0.0000 32.0857 0.0000 3.6097
# 5 6.7599 1.4249 24.2530 0.0000 49.0136 0.0000
# 6 0.0000 0.0000 0.0000 3.6097 0.0000 48.9539
#
#
#
# Elastic Compliance Matrix: (Units=1/GPa)
#
#
# Indices 1 2 3 4 5 6 
#
# 1 0.016818 -0.001206 -0.004777 0.000000 0.000079 0.000000
# 2 -0.001206 0.009866 -0.004345 0.000000 0.002030 0.000000
# 3 -0.004777 -0.004345 0.019338 0.000000 -0.008784 0.000000
# 4 0.000000 0.000000 0.000000 0.031427 0.000000 -0.002317
# 5 0.000079 0.002030 -0.008784 0.000000 0.024679 0.000000
# 6 0.000000 0.000000 0.000000 -0.002317 0.000000 0.020598
#
#
# Mechanical properties :
#
#
# Convention : Reuss Voigt Hill
#
# Bulk Modulus (GPa) = 39.42572 44.86769 42.14670
# Shear Modulus (GPa) = 32.92973 38.53312 35.73143
#
# Velocity S-wave (km/s) = 3.73739 4.04288 3.89313
# Velocity P-wave (km/s) = 5.94539 6.38945 6.17142
#
# Compressibility (1/GPa) = 0.02536415
#
# Stress axis : x y z
#
# Youngs Moduli (GPa) = 59.45981 101.36143 51.71157
#
# Poissons Ratio (x) = 0.12226 0.24704
# Poissons Ratio (y) = 0.07172 0.22471
# Poissons Ratio (z) = 0.28405 0.44045
#
# Static dielectric constant tensor:
#      x y z
#    x 4.518780 0.000000 0.446270 
#    y 0.000000 4.245110 0.000000 
#    z 0.446270 0.000000 4.627950 
# 
# 
# High freq. dielectric constant tensor:
#      x y z
#    x 1.958430 0.000000 0.029380 
#    y 0.000000 1.932280 0.000000 
#    z 0.029380 0.000000 1.933690 
# 
# From -- ./inp_files/291604.got.cif
#   From: 2010.06.25/outbox.cif.g09.slc.cpg/sg15_146_cif.got.tgz:291604.got - 2010.06.28 07:06:18.
