data_PCOD8150698
_publ_section_title
;
Structure prediction by ZEFSAII (Michael W. Deem and Ramdas Pophale) SiO2 
 PCOD8150698
Probable space group: C 2/C
;
_chemical_formula_sum "Si O2"
_cell_formula_units_Z 32
_cell_length_a 26.718184
_cell_length_b 9.260607
_cell_length_c 9.336234
_cell_angle_alpha 90.000000
_cell_angle_beta 147.228762
_cell_angle_gamma 90.000000
_cell_volume 1250.388761
_symmetry_space_group_name_H-M "C 2/C"
_symmetry_group_IT_number 15
_symmetry_cell_setting 'monoclinic'
loop_
_space_group_symop_operation_xyz
x,y,z
-x,y,1/2-z
-x,-y,-z
x,-y,1/2+z
1/2+x,1/2+y,z
1/2-x,1/2+y,1/2-z
1/2-x,1/2-y,-z
1/2+x,1/2-y,1/2+z
loop_
_atom_site_type_symbol
_atom_site_label
_atom_site_fract_x
_atom_site_fract_y
_atom_site_fract_z
Si Si1 0.844655 0.211195 0.377115
Si Si2 0.069132 0.409072 0.525882
Si Si3 0.817175 0.512484 0.438594
Si Si4 0.508280 0.334376 0.485550
O O1 0.795093 0.359044 0.308071
O O2 0.773269 0.077722 0.205167
O O3 0.929747 0.185592 0.681915
O O4 0.889351 0.214887 0.324313
O O5 0.156024 0.380336 0.628826
O O6 0.017375 0.260370 0.437446
O O7 0.099889 0.497289 0.741994
O O8 0.000000 0.500736 0.250000
O O9 0.500000 0.500000 0.500000
#
# Coordination Sequence:
#
# PCOD8150698 Si02
#       4
#     8   8   8   8
#     4  10  26  47  72 111 147 197 249 316 366 451
#     4  11  27  47  77 109 148 201 245 309 375 451
#     4  11  27  46  78 110 154 191 257 308 377 442
#     4  10  25  46  76 104 153 195 256 303 380 442
#
# _framework density 25.592039
#
# number of rings (size 3 to 8) (size 9 to 14) (size 15 to 20)
#    0.000    1.500    0.000    0.750   21.000    3.000 
#    0.000    0.000    0.000    0.000    0.000    0.000 
#    0.000    0.000    0.000    0.000    0.000    0.000 
#
# Total GULP energy -198220.521709 kJ/mol
# GULP energy per Si atom -12388.782607 kJ/mol
# Density = 2.553379 g / cm^3
# Si number density = 25.592039 Si / 1000 Ang^3
#
#
#
# Elastic Constant Matrix: (Units=GPa)
#
#
# Indices 1 2 3 4 5 6 
#
# 1 196.1670 92.1234 56.1390 0.0000 10.2169 0.0000
# 2 92.1234 166.9645 59.6595 0.0000 28.8128 0.0000
# 3 56.1390 59.6595 72.3864 0.0000 8.6491 0.0000
# 4 0.0000 0.0000 0.0000 28.9215 0.0000 6.3645
# 5 10.2169 28.8128 8.6491 0.0000 38.3353 0.0000
# 6 0.0000 0.0000 0.0000 6.3645 0.0000 39.8624
#
#
#
# Elastic Compliance Matrix: (Units=1/GPa)
#
#
# Indices 1 2 3 4 5 6 
#
# 1 0.007460 -0.003107 -0.003357 0.000000 0.001105 0.000000
# 2 -0.003107 0.010801 -0.005777 0.000000 -0.005987 0.000000
# 3 -0.003357 -0.005777 0.021123 0.000000 0.000471 0.000000
# 4 0.000000 0.000000 0.000000 0.035835 0.000000 -0.005722
# 5 0.001105 -0.005987 0.000471 0.000000 0.030185 0.000000
# 6 0.000000 0.000000 0.000000 -0.005722 0.000000 0.026000
#
#
# Mechanical properties :
#
#
# Convention : Reuss Voigt Hill
#
# Bulk Modulus (GPa) = 67.10317 94.59576 80.84946
# Shear Modulus (GPa) = 31.08436 36.59690 33.84063
#
# Velocity S-wave (km/s) = 3.48891 3.78565 3.64030
# Velocity P-wave (km/s) = 6.51976 7.49342 7.02348
#
# Compressibility (1/GPa) = 0.01490243
#
# Stress axis : x y z
#
# Youngs Moduli (GPa) = 134.04816 92.58359 47.34220
#
# Poissons Ratio (x) = 0.28769 0.15891
# Poissons Ratio (y) = 0.41653 0.27349
# Poissons Ratio (z) = 0.44994 0.53484
#
# Static dielectric constant tensor:
#      x y z
#    x 6.312120 0.000000 0.165150 
#    y 0.000000 4.302690 0.000000 
#    z 0.165150 0.000000 4.626360 
# 
# 
# High freq. dielectric constant tensor:
#      x y z
#    x 2.051390 0.000000 -0.001240 
#    y 0.000000 2.009350 0.000000 
#    z -0.001240 0.000000 2.019330 
# 
# From -- ./inp_files/126028.got.cif
#   From: 2010.06.25/outbox.cif.g09.slc.cpg/sg15_64_cif.got.tgz:126028.got - 2010.06.28 07:06:18.
