data_PCOD8150174
_publ_section_title
;
Structure prediction by ZEFSAII (Michael W. Deem and Ramdas Pophale) SiO2 
 PCOD8150174
Probable space group: C 2/C
;
_chemical_formula_sum "Si O2"
_cell_formula_units_Z 36
_cell_length_a 9.527115
_cell_length_b 21.834500
_cell_length_c 9.275601
_cell_angle_alpha 90.000000
_cell_angle_beta 120.372746
_cell_angle_gamma 90.000000
_cell_volume 1664.691794
_symmetry_space_group_name_H-M "C 2/C"
_symmetry_group_IT_number 15
_symmetry_cell_setting 'monoclinic'
loop_
_space_group_symop_operation_xyz
x,y,z
-x,y,1/2-z
-x,-y,-z
x,-y,1/2+z
1/2+x,1/2+y,z
1/2-x,1/2+y,1/2-z
1/2-x,1/2-y,-z
1/2+x,1/2-y,1/2+z
loop_
_atom_site_type_symbol
_atom_site_label
_atom_site_fract_x
_atom_site_fract_y
_atom_site_fract_z
Si Si1 0.223432 0.792548 0.622425
Si Si2 0.707544 0.456416 0.220993
Si Si3 0.843374 0.071142 0.486401
Si Si4 0.500000 0.879963 0.250000
Si Si5 0.094178 0.726055 0.000376
O O1 0.250000 0.750000 0.500000
O O2 0.231376 0.862733 0.580100
O O3 0.367737 0.780964 0.810797
O O4 0.048924 0.775269 0.599780
O O5 0.733203 0.455834 0.406202
O O6 0.538169 0.423193 0.095355
O O7 0.847215 0.421521 0.208778
O O8 0.706267 0.527003 0.170717
O O9 0.540589 0.839239 0.410210
O O10 0.250000 0.750000 0.000000
#
# Coordination Sequence:
#
# PCOD8150174 Si02
#       5
#     8   8   8   4   8
#     4  12  26  44  70 101 139 181 228 282 348 410
#     4  10  24  44  70  95 135 181 229 279 340 405
#     4  10  24  46  69  96 135 183 229 276 345 412
#     4  12  24  44  72 102 140 174 234 292 338 402
#     4  12  25  44  68 105 137 183 227 282 349 408
#
# _framework density 21.625626
#
# number of rings (size 3 to 8) (size 9 to 14) (size 15 to 20)
#    0.000    0.889    2.222    3.333    9.333    0.889 
#    8.000    0.000    0.000    0.000    0.000    0.000 
#    0.000    0.000    0.000    0.000    0.000    0.000 
#
# Total GULP energy -223321.884575 kJ/mol
# GULP energy per Si atom -12406.771365 kJ/mol
# Density = 2.157640 g / cm^3
# Si number density = 21.625626 Si / 1000 Ang^3
#
#
#
# Elastic Constant Matrix: (Units=GPa)
#
#
# Indices 1 2 3 4 5 6 
#
# 1 82.3537 31.7949 28.9079 0.0000 -11.5040 0.0000
# 2 31.7949 130.1126 49.7465 0.0000 -3.6517 0.0000
# 3 28.9079 49.7465 131.8569 0.0000 -4.8390 0.0000
# 4 0.0000 0.0000 0.0000 31.6705 0.0000 -16.2902
# 5 -11.5040 -3.6517 -4.8390 0.0000 29.5393 0.0000
# 6 0.0000 0.0000 0.0000 -16.2902 0.0000 29.4012
#
#
#
# Elastic Compliance Matrix: (Units=1/GPa)
#
#
# Indices 1 2 3 4 5 6 
#
# 1 0.014573 -0.002652 -0.002010 0.000000 0.005018 0.000000
# 2 -0.002652 0.009473 -0.003006 0.000000 -0.000354 0.000000
# 3 -0.002010 -0.003006 0.009171 0.000000 0.000348 0.000000
# 4 0.000000 0.000000 0.000000 0.044160 0.000000 0.024468
# 5 0.005018 -0.000354 0.000348 0.000000 0.035821 0.000000
# 6 0.000000 0.000000 0.000000 0.024468 0.000000 0.047569
#
#
# Mechanical properties :
#
#
# Convention : Reuss Voigt Hill
#
# Bulk Modulus (GPa) = 55.92144 62.80243 59.36193
# Shear Modulus (GPa) = 27.46292 33.71378 30.58835
#
# Velocity S-wave (km/s) = 3.56747 3.95267 3.76500
# Velocity P-wave (km/s) = 6.54860 7.06649 6.81246
#
# Compressibility (1/GPa) = 0.01788223
#
# Stress axis : x y z
#
# Youngs Moduli (GPa) = 68.61909 105.56537 109.03452
#
# Poissons Ratio (x) = 0.27993 0.21920
# Poissons Ratio (y) = 0.18196 0.32770
# Poissons Ratio (z) = 0.13795 0.31728
#
# Static dielectric constant tensor:
#      x y z
#    x 4.097780 0.000000 0.032710 
#    y 0.000000 4.060380 0.000000 
#    z 0.032710 0.000000 4.242290 
# 
# 
# High freq. dielectric constant tensor:
#      x y z
#    x 1.863470 0.000000 -0.004670 
#    y 0.000000 1.849450 0.000000 
#    z -0.004670 0.000000 1.858450 
# 
# From -- ./inp_files/23342.got.cif
#   From: 2010.06.25/outbox.cif.g09.slc.cpg/sg15_12_cif.got.tgz:23342.got - 2010.06.28 07:06:18.
