data_PCOD8150627
_publ_section_title
;
Structure prediction by ZEFSAII (Michael W. Deem and Ramdas Pophale) SiO2 
 PCOD8150627
Probable space group: C 2/C
;
_chemical_formula_sum "Si O2"
_cell_formula_units_Z 64
_cell_length_a 8.767004
_cell_length_b 14.609251
_cell_length_c 27.061998
_cell_angle_alpha 90.000000
_cell_angle_beta 124.081227
_cell_angle_gamma 90.000000
_cell_volume 2870.762754
_symmetry_space_group_name_H-M "C 2/C"
_symmetry_group_IT_number 15
_symmetry_cell_setting 'monoclinic'
loop_
_space_group_symop_operation_xyz
x,y,z
-x,y,1/2-z
-x,-y,-z
x,-y,1/2+z
1/2+x,1/2+y,z
1/2-x,1/2+y,1/2-z
1/2-x,1/2-y,-z
1/2+x,1/2-y,1/2+z
loop_
_atom_site_type_symbol
_atom_site_label
_atom_site_fract_x
_atom_site_fract_y
_atom_site_fract_z
Si Si1 0.300703 0.758705 0.430421
Si Si2 0.301621 0.677423 0.235577
Si Si3 0.799141 0.799703 0.198504
Si Si4 0.399977 0.258421 0.392068
Si Si5 0.830576 0.671540 0.480224
Si Si6 0.757892 0.551306 0.653041
Si Si7 0.322463 0.027158 0.775866
Si Si8 0.996457 0.930446 0.954085
O O1 0.236097 0.770771 0.363127
O O2 0.450047 0.839537 0.468770
O O3 0.406413 0.663082 0.457776
O O4 0.123556 0.763750 0.434367
O O5 0.500000 0.666257 0.250000
O O6 0.332556 0.741949 0.289006
O O7 0.158402 0.721174 0.171613
O O8 0.232372 0.577410 0.236166
O O9 0.776998 0.909556 0.201259
O O10 0.000000 0.766396 0.250000
O O11 0.315764 0.194121 0.419321
O O12 0.319180 0.358685 0.387505
O O13 0.750000 0.750000 0.500000
O O14 0.704704 0.583045 0.470198
O O15 0.763214 0.569102 0.712535
O O16 0.627754 0.467415 0.613638
O O17 0.962935 0.531205 0.672055
O O18 0.000000 0.000000 0.000000
#
# Coordination Sequence:
#
# PCOD8150627 Si02
#       8
#     8   8   8   8   8   8   8   8
#     4  11  24  46  73  99 145 187 241 298 356 431
#     4  12  26  41  68 102 144 183 235 296 352 432
#     4  12  24  45  69 105 142 187 237 287 370 424
#     4  12  24  46  70 104 139 187 239 297 358 425
#     4  10  25  44  71 101 132 192 233 292 357 418
#     4  11  23  42  68 101 141 184 236 293 357 433
#     4  11  25  41  67 102 143 186 234 290 361 431
#     4  11  25  45  70 104 138 189 245 295 361 427
#
# _framework density 22.293725999999999
#
# number of rings (size 3 to 8) (size 9 to 14) (size 15 to 20)
#    0.000    0.750    2.500    4.500   12.250    0.000 
#    0.000    1.250    0.000    0.000    0.000    0.000 
#    0.000    0.000    0.000    0.000    0.000    0.000 
#
# Total GULP energy -396826.979184 kJ/mol
# GULP energy per Si atom -12400.843100 kJ/mol
# Density = 2.224298 g / cm^3
# Si number density = 22.293726 Si / 1000 Ang^3
#
#
#
# Elastic Constant Matrix: (Units=GPa)
#
#
# Indices 1 2 3 4 5 6 
#
# 1 115.2264 29.4978 39.7490 0.0000 15.5345 0.0000
# 2 29.4978 89.4196 26.9566 0.0000 8.8223 0.0000
# 3 39.7490 26.9566 92.0081 0.0000 22.6441 0.0000
# 4 0.0000 0.0000 0.0000 28.3762 0.0000 0.8846
# 5 15.5345 8.8223 22.6441 0.0000 41.5454 0.0000
# 6 0.0000 0.0000 0.0000 0.8846 0.0000 41.0710
#
#
#
# Elastic Compliance Matrix: (Units=1/GPa)
#
#
# Indices 1 2 3 4 5 6 
#
# 1 0.010710 -0.002303 -0.003565 0.000000 -0.001572 0.000000
# 2 -0.002303 0.012782 -0.002649 0.000000 -0.000409 0.000000
# 3 -0.003565 -0.002649 0.014689 0.000000 -0.006110 0.000000
# 4 0.000000 0.000000 0.000000 0.035265 0.000000 -0.000760
# 5 -0.001572 -0.000409 -0.006110 0.000000 0.028075 0.000000
# 6 0.000000 0.000000 0.000000 -0.000760 0.000000 0.024364
#
#
# Mechanical properties :
#
#
# Convention : Reuss Voigt Hill
#
# Bulk Modulus (GPa) = 47.29047 54.34009 50.81528
# Shear Modulus (GPa) = 33.34029 35.56188 34.45108
#
# Velocity S-wave (km/s) = 3.87137 3.99827 3.93533
# Velocity P-wave (km/s) = 6.42198 6.76331 6.59485
#
# Compressibility (1/GPa) = 0.02114591
#
# Stress axis : x y z
#
# Youngs Moduli (GPa) = 93.37071 78.23506 68.07905
#
# Poissons Ratio (x) = 0.18019 0.24271
# Poissons Ratio (y) = 0.21505 0.18035
# Poissons Ratio (z) = 0.33288 0.20726
#
# Static dielectric constant tensor:
#      x y z
#    x 4.319330 0.000000 0.263900 
#    y 0.000000 4.006360 0.000000 
#    z 0.263900 0.000000 4.286170 
# 
# 
# High freq. dielectric constant tensor:
#      x y z
#    x 1.886910 0.000000 0.007520 
#    y 0.000000 1.867490 0.000000 
#    z 0.007520 0.000000 1.893030 
# 
# From -- ./inp_files/308308.got.cif
#   From: 2010.06.25/outbox.cif.g09.slc.cpg/sg15_155_cif.got.tgz:308308.got - 2010.06.28 07:06:18.
