data_PCOD8150692
_publ_section_title
;
Structure prediction by ZEFSAII (Michael W. Deem and Ramdas Pophale) SiO2 
 PCOD8150692
Probable space group: C 2/C
;
_chemical_formula_sum "Si O2"
_cell_formula_units_Z 40
_cell_length_a 21.642428
_cell_length_b 7.738687
_cell_length_c 11.361136
_cell_angle_alpha 90.000000
_cell_angle_beta 116.459267
_cell_angle_gamma 90.000000
_cell_volume 1703.491635
_symmetry_space_group_name_H-M "C 2/C"
_symmetry_group_IT_number 15
_symmetry_cell_setting 'monoclinic'
loop_
_space_group_symop_operation_xyz
x,y,z
-x,y,1/2-z
-x,-y,-z
x,-y,1/2+z
1/2+x,1/2+y,z
1/2-x,1/2+y,1/2-z
1/2-x,1/2-y,-z
1/2+x,1/2-y,1/2+z
loop_
_atom_site_type_symbol
_atom_site_label
_atom_site_fract_x
_atom_site_fract_y
_atom_site_fract_z
Si Si1 0.869887 0.472495 0.622992
Si Si2 0.473350 0.834351 0.544420
Si Si3 0.716999 0.191157 0.094944
Si Si4 0.381312 0.319210 0.304237
Si Si5 0.636678 0.699245 0.223585
O O1 0.943544 0.400055 0.643375
O O2 0.818302 0.504231 0.467073
O O3 0.843427 0.331002 0.694820
O O4 0.881469 0.659163 0.693037
O O5 0.537203 0.707528 0.612895
O O6 0.410527 0.733263 0.429237
O O7 0.500000 0.000000 0.500000
O O8 0.657636 0.313085 0.101653
O O9 0.781452 0.192576 0.240269
O O10 0.750000 0.250000 0.000000
O O11 0.376782 0.505720 0.238826
#
# Coordination Sequence:
#
# PCOD8150692 Si02
#       5
#     8   8   8   8   8
#     4  11  24  48  72 105 144 191 244 313 374 426
#     4  12  24  47  73 101 148 196 239 308 376 440
#     4  10  25  46  72 107 146 196 241 303 371 439
#     4  12  26  45  76 110 144 196 256 297 375 450
#     4  11  27  46  73 106 149 190 248 306 368 454
#
# _framework density 23.481185
#
# number of rings (size 3 to 8) (size 9 to 14) (size 15 to 20)
#    0.000    0.800    4.000    1.200    8.400    4.000 
#    7.200    0.000    0.000    0.000    0.000    0.000 
#    0.000    0.000    0.000    0.000    0.000    0.000 
#
# Total GULP energy -247777.804427 kJ/mol
# GULP energy per Si atom -12388.890221 kJ/mol
# Density = 2.342774 g / cm^3
# Si number density = 23.481185 Si / 1000 Ang^3
#
#
#
# Elastic Constant Matrix: (Units=GPa)
#
#
# Indices 1 2 3 4 5 6 
#
# 1 172.2996 55.7718 51.1172 0.0000 10.3305 0.0000
# 2 55.7718 174.3614 47.7770 0.0000 1.7672 0.0000
# 3 51.1172 47.7770 74.4090 0.0000 22.6840 0.0000
# 4 0.0000 0.0000 0.0000 39.1535 0.0000 6.1648
# 5 10.3305 1.7672 22.6840 0.0000 55.9467 0.0000
# 6 0.0000 0.0000 0.0000 6.1648 0.0000 24.9109
#
#
#
# Elastic Compliance Matrix: (Units=1/GPa)
#
#
# Indices 1 2 3 4 5 6 
#
# 1 0.007502 -0.001153 -0.004566 0.000000 0.000503 0.000000
# 2 -0.001153 0.007303 -0.004440 0.000000 0.001783 0.000000
# 3 -0.004566 -0.004440 0.021825 0.000000 -0.007866 0.000000
# 4 0.000000 0.000000 0.000000 0.026576 0.000000 -0.006577
# 5 0.000503 0.001783 -0.007866 0.000000 0.020914 0.000000
# 6 0.000000 0.000000 0.000000 -0.006577 0.000000 0.041771
#
#
# Mechanical properties :
#
#
# Convention : Reuss Voigt Hill
#
# Bulk Modulus (GPa) = 61.31172 81.15578 71.23375
# Shear Modulus (GPa) = 32.97155 41.76248 37.36701
#
# Velocity S-wave (km/s) = 3.75129 4.22186 3.99351
# Velocity P-wave (km/s) = 6.70303 7.64216 7.18795
#
# Compressibility (1/GPa) = 0.01631010
#
# Stress axis : x y z
#
# Youngs Moduli (GPa) = 133.30266 136.93562 45.81952
#
# Poissons Ratio (x) = 0.15795 0.20922
# Poissons Ratio (y) = 0.15376 0.20344
# Poissons Ratio (z) = 0.60867 0.60799
#
# Static dielectric constant tensor:
#      x y z
#    x 4.966370 0.000000 0.615990 
#    y 0.000000 4.232580 0.000000 
#    z 0.615990 0.000000 4.795700 
# 
# 
# High freq. dielectric constant tensor:
#      x y z
#    x 1.942130 0.000000 0.013820 
#    y 0.000000 1.921390 0.000000 
#    z 0.013820 0.000000 1.927160 
# 
# From -- ./inp_files/109764.got.cif
#   From: 2010.06.25/outbox.cif.g09.slc.cpg/sg15_55_cif.got.tgz:109764.got - 2010.06.28 07:06:18.
