data_PCOD8150632
_publ_section_title
;
Structure prediction by ZEFSAII (Michael W. Deem and Ramdas Pophale) SiO2 
 PCOD8150632
Probable space group: C 2/C
;
_chemical_formula_sum "Si O2"
_cell_formula_units_Z 32
_cell_length_a 22.579521
_cell_length_b 9.274187
_cell_length_c 16.998895
_cell_angle_alpha 90.000000
_cell_angle_beta 23.364649
_cell_angle_gamma 90.000000
_cell_volume 1411.704472
_symmetry_space_group_name_H-M "C 2/C"
_symmetry_group_IT_number 15
_symmetry_cell_setting 'monoclinic'
loop_
_space_group_symop_operation_xyz
x,y,z
-x,y,1/2-z
-x,-y,-z
x,-y,1/2+z
1/2+x,1/2+y,z
1/2-x,1/2+y,1/2-z
1/2-x,1/2-y,-z
1/2+x,1/2-y,1/2+z
loop_
_atom_site_type_symbol
_atom_site_label
_atom_site_fract_x
_atom_site_fract_y
_atom_site_fract_z
Si Si1 0.886541 0.586330 0.818945
Si Si2 0.577630 0.878172 0.854371
Si Si3 0.613945 0.618221 0.257731
Si Si4 0.373088 0.604556 0.085201
O O1 0.914344 0.433001 0.744939
O O2 0.908768 0.709660 0.724842
O O3 0.000000 0.620607 0.750000
O O4 0.719639 0.573889 0.056772
O O5 0.493016 0.728830 0.954111
O O6 0.741986 0.846184 0.688023
O O7 0.500000 0.000000 0.000000
O O8 0.689436 0.575710 0.249932
O O9 0.454443 0.535172 0.447974
#
# Coordination Sequence:
#
# PCOD8150632 Si02
#       4
#     8   8   8   8
#     4  11  25  44  73 103 142 185 239 284 353 417
#     4  12  27  46  74 103 144 186 235 292 354 419
#     4  10  25  44  73 102 141 185 237 293 345 420
#     4  11  27  46  73 105 141 185 237 293 353 415
#
# _framework density 22.667632000000001
#
# number of rings (size 3 to 8) (size 9 to 14) (size 15 to 20)
#    0.000    1.000    2.500    1.500   17.500    1.000 
#    0.000    0.000    0.000    0.000    0.000    0.000 
#    0.000    0.000    0.000    0.000    0.000    0.000 
#
# Total GULP energy -198401.426127 kJ/mol
# GULP energy per Si atom -12400.089133 kJ/mol
# Density = 2.261604 g / cm^3
# Si number density = 22.667632 Si / 1000 Ang^3
#
#
#
# Elastic Constant Matrix: (Units=GPa)
#
#
# Indices 1 2 3 4 5 6 
#
# 1 93.8278 26.7802 43.9000 0.0000 -5.4793 0.0000
# 2 26.7802 82.8349 48.6390 0.0001 13.7342 0.0000
# 3 43.9000 48.6390 95.1436 0.0000 -4.6881 0.0000
# 4 0.0000 0.0001 0.0000 46.5084 0.0000 4.7276
# 5 -5.4793 13.7342 -4.6881 0.0000 38.7450 0.0000
# 6 0.0000 0.0000 0.0000 4.7276 0.0000 38.6636
#
#
#
# Elastic Compliance Matrix: (Units=1/GPa)
#
#
# Indices 1 2 3 4 5 6 
#
# 1 0.013765 -0.001539 -0.005474 0.000000 0.001830 0.000000
# 2 -0.001539 0.019698 -0.009773 0.000000 -0.008383 0.000000
# 3 -0.005474 -0.009773 0.018274 0.000000 0.004901 0.000000
# 4 0.000000 0.000000 0.000000 0.021772 0.000000 -0.002662
# 5 0.001830 -0.008383 0.004901 0.000000 0.029633 0.000000
# 6 0.000000 0.000000 0.000000 -0.002662 0.000000 0.026190
#
#
# Mechanical properties :
#
#
# Convention : Reuss Voigt Hill
#
# Bulk Modulus (GPa) = 55.05263 56.71608 55.88435
# Shear Modulus (GPa) = 29.59280 34.94919 32.27100
#
# Velocity S-wave (km/s) = 3.61710 3.93085 3.77724
# Velocity P-wave (km/s) = 6.46407 6.75849 6.61292
#
# Compressibility (1/GPa) = 0.01816444
#
# Stress axis : x y z
#
# Youngs Moduli (GPa) = 72.64603 50.76629 54.72287
#
# Poissons Ratio (x) = 0.07814 0.29958
# Poissons Ratio (y) = 0.11182 0.53480
# Poissons Ratio (z) = 0.39769 0.49613
#
# Static dielectric constant tensor:
#      x y z
#    x 4.164610 0.000000 0.246120 
#    y 0.000000 4.191870 0.000000 
#    z 0.246120 0.000000 4.196880 
# 
# 
# High freq. dielectric constant tensor:
#      x y z
#    x 1.896660 0.000000 0.011030 
#    y 0.000000 1.893010 0.000000 
#    z 0.011030 0.000000 1.901520 
# 
# From -- ./inp_files/64807.got.cif
#   From: 2010.06.25/outbox.cif.g09.slc.cpg/sg15_33_cif.got.tgz:64807.got - 2010.06.28 07:06:18.
