data_PCOD8150602
_publ_section_title
;
Structure prediction by ZEFSAII (Michael W. Deem and Ramdas Pophale) SiO2 
 PCOD8150602
Probable space group: C 2/C
;
_chemical_formula_sum "Si O2"
_cell_formula_units_Z 36
_cell_length_a 12.121190
_cell_length_b 11.967182
_cell_length_c 20.739780
_cell_angle_alpha 90.000000
_cell_angle_beta 151.262455
_cell_angle_gamma 90.000000
_cell_volume 1446.452278
_symmetry_space_group_name_H-M "C 2/C"
_symmetry_group_IT_number 15
_symmetry_cell_setting 'monoclinic'
loop_
_space_group_symop_operation_xyz
x,y,z
-x,y,1/2-z
-x,-y,-z
x,-y,1/2+z
1/2+x,1/2+y,z
1/2-x,1/2+y,1/2-z
1/2-x,1/2-y,-z
1/2+x,1/2-y,1/2+z
loop_
_atom_site_type_symbol
_atom_site_label
_atom_site_fract_x
_atom_site_fract_y
_atom_site_fract_z
Si Si1 0.378911 0.413182 0.255856
Si Si2 0.240377 0.627010 0.120932
Si Si3 0.401167 0.711034 0.408794
Si Si4 0.000000 0.556297 0.250000
Si Si5 0.227483 0.048376 0.501580
O O1 0.500000 0.385016 0.250000
O O2 0.224427 0.525640 0.164258
O O3 0.237096 0.303918 0.203884
O O4 0.563663 0.439946 0.406309
O O5 0.500000 0.673900 0.250000
O O6 0.165686 0.585207 0.011428
O O7 0.055451 0.724068 0.042501
O O8 0.572308 0.648259 0.449192
O O9 0.227180 0.627400 0.353686
O O10 0.061338 0.479592 0.342784
#
# Coordination Sequence:
#
# PCOD8150602 Si02
#       5
#     8   8   8   4   8
#     4   9  21  46  67  99 128 165 226 272 318 387
#     4   9  22  45  71  98 126 168 227 271 316 389
#     4  12  23  43  71  94 132 181 213 274 329 384
#     4  12  28  44  60 102 140 170 216 266 346 390
#     4  10  25  44  64  98 136 172 213 275 324 396
#
# _framework density 24.888479
#
# number of rings (size 3 to 8) (size 9 to 14) (size 15 to 20)
#    0.000    2.222    1.111    2.000    4.667    4.444 
#    4.000    0.000    0.000    0.000    0.000    0.000 
#    0.000    0.000    0.000    0.000    0.000    0.000 
#
# Total GULP energy -223082.601412 kJ/mol
# GULP energy per Si atom -12393.477856 kJ/mol
# Density = 2.483183 g / cm^3
# Si number density = 24.888479 Si / 1000 Ang^3
#
#
#
# Elastic Constant Matrix: (Units=GPa)
#
#
# Indices 1 2 3 4 5 6 
#
# 1 28.7726 14.7382 34.1633 0.0009 2.1950 0.0006
# 2 14.7382 89.6667 51.5864 0.0012 11.8259 0.0003
# 3 34.1633 51.5864 166.4193 0.0048 -14.3075 0.0017
# 4 0.0009 0.0012 0.0048 51.9975 0.0015 24.6104
# 5 2.1950 11.8259 -14.3075 0.0015 39.6782 0.0010
# 6 0.0006 0.0003 0.0017 24.6104 0.0010 22.7689
#
#
#
# Elastic Compliance Matrix: (Units=1/GPa)
#
#
# Indices 1 2 3 4 5 6 
#
# 1 0.047583 -0.001409 -0.009826 0.000001 -0.005756 -0.000001
# 2 -0.001409 0.015012 -0.004894 0.000000 -0.006161 0.000000
# 3 -0.009826 -0.004894 0.010026 -0.000001 0.005617 0.000000
# 4 0.000001 0.000000 -0.000001 0.039375 -0.000001 -0.042560
# 5 -0.005756 -0.006161 0.005617 -0.000001 0.029383 0.000000
# 6 -0.000001 0.000000 0.000000 -0.042560 0.000000 0.089921
#
#
# Mechanical properties :
#
#
# Convention : Reuss Voigt Hill
#
# Bulk Modulus (GPa) = 24.77489 53.98162 39.37825
# Shear Modulus (GPa) = 18.04967 35.18031 26.61499
#
# Velocity S-wave (km/s) = 2.69592 3.76376 3.27367
# Velocity P-wave (km/s) = 4.43470 6.37372 5.49049
#
# Compressibility (1/GPa) = 0.04036345
#
# Stress axis : x y z
#
# Youngs Moduli (GPa) = 21.01579 66.61316 99.74024
#
# Poissons Ratio (x) = 0.09385 0.98007
# Poissons Ratio (y) = 0.02961 0.48812
# Poissons Ratio (z) = 0.20651 0.32600
#
# Static dielectric constant tensor:
#      x y z
#    x 4.023070 0.000000 0.155430 
#    y 0.000000 4.589440 0.000000 
#    z 0.155430 0.000000 4.812800 
# 
# 
# High freq. dielectric constant tensor:
#      x y z
#    x 1.961790 0.000000 0.020460 
#    y 0.000000 1.988930 0.000000 
#    z 0.020460 0.000000 2.004220 
# 
# From -- ./inp_files/273720.got.cif
#   From: 2010.06.25/outbox.cif.g09.slc.cpg/sg15_137_cif.got.tgz:273720.got - 2010.06.28 07:06:18.
