data_PCOD8150434
_publ_section_title
;
Structure prediction by ZEFSAII (Michael W. Deem and Ramdas Pophale) SiO2 
 PCOD8150434
Probable space group: C 2/C
;
_chemical_formula_sum "Si O2"
_cell_formula_units_Z 44
_cell_length_a 17.964591
_cell_length_b 12.315781
_cell_length_c 29.156915
_cell_angle_alpha 90.000000
_cell_angle_beta 161.566815
_cell_angle_gamma 90.000000
_cell_volume 2039.767894
_symmetry_space_group_name_H-M "C 2/C"
_symmetry_group_IT_number 15
_symmetry_cell_setting 'monoclinic'
loop_
_space_group_symop_operation_xyz
x,y,z
-x,y,1/2-z
-x,-y,-z
x,-y,1/2+z
1/2+x,1/2+y,z
1/2-x,1/2+y,1/2-z
1/2-x,1/2-y,-z
1/2+x,1/2-y,1/2+z
loop_
_atom_site_type_symbol
_atom_site_label
_atom_site_fract_x
_atom_site_fract_y
_atom_site_fract_z
Si Si1 0.573637 0.535599 0.843543
Si Si2 0.758723 0.997932 0.831103
Si Si3 0.037740 0.327792 0.890852
Si Si4 0.273550 0.372401 0.250643
Si Si5 0.756316 0.691530 0.455247
Si Si6 0.500000 0.143143 0.750000
O O1 0.500000 0.573652 0.750000
O O2 0.390565 0.587334 0.772102
O O3 0.563304 0.405064 0.842369
O O4 0.842620 0.576703 0.009575
O O5 0.835297 0.044155 0.826778
O O6 0.573053 0.072558 0.749035
O O7 0.622257 0.882783 0.743435
O O8 0.000000 0.000000 0.000000
O O9 0.865020 0.248414 0.818234
O O10 0.250000 0.250000 0.000000
O O11 0.997143 0.365698 0.082562
O O12 0.750000 0.750000 0.500000
O O13 0.712679 0.780541 0.390502
#
# Coordination Sequence:
#
# PCOD8150434 Si02
#       6
#     8   8   8   8   8   4
#     4  11  25  46  70 101 141 183 235 291 358 432
#     4  12  27  44  72 106 140 191 239 295 364 438
#     4  10  24  47  69 104 144 188 234 300 360 431
#     4  11  26  44  73 100 142 188 232 299 357 424
#     4  12  24  45  69 103 139 181 234 296 350 422
#     4  12  26  44  74 102 138 184 238 290 358 432
#
# _framework density 21.571082000000001
#
# number of rings (size 3 to 8) (size 9 to 14) (size 15 to 20)
#    0.000    0.727    4.545    1.091   10.182    5.091 
#    1.636    0.000    0.000    0.000    0.000    0.000 
#    0.000    0.000    0.000    0.000    0.000    0.000 
#
# Total GULP energy -272701.985990 kJ/mol
# GULP energy per Si atom -12395.544818 kJ/mol
# Density = 2.152199 g / cm^3
# Si number density = 21.571082 Si / 1000 Ang^3
#
#
#
# Elastic Constant Matrix: (Units=GPa)
#
#
# Indices 1 2 3 4 5 6 
#
# 1 134.5542 44.4972 42.3068 0.0011 -4.4687 0.0001
# 2 44.4972 127.2435 46.8088 0.0500 0.3276 -0.0030
# 3 42.3068 46.8088 131.8581 0.0818 -11.1002 0.0006
# 4 0.0011 0.0500 0.0818 46.2796 -0.0012 -2.3021
# 5 -4.4687 0.3276 -11.1002 -0.0012 32.7895 -0.0005
# 6 0.0001 -0.0030 0.0006 -2.3021 -0.0005 32.6896
#
#
#
# Elastic Compliance Matrix: (Units=1/GPa)
#
#
# Indices 1 2 3 4 5 6 
#
# 1 0.008850 -0.002380 -0.001947 0.000006 0.000571 0.000000
# 2 -0.002380 0.009727 -0.002805 -0.000005 -0.001371 0.000001
# 3 -0.001947 -0.002805 0.009453 -0.000014 0.002963 -0.000001
# 4 0.000006 -0.000005 -0.000014 0.021684 -0.000003 0.001527
# 5 0.000571 -0.001371 0.002963 -0.000003 0.031592 0.000000
# 6 0.000000 0.000001 -0.000001 0.001527 0.000000 0.030698
#
#
# Mechanical properties :
#
#
# Convention : Reuss Voigt Hill
#
# Bulk Modulus (GPa) = 72.63518 73.43124 73.03321
# Shear Modulus (GPa) = 38.20985 39.68794 38.94890
#
# Velocity S-wave (km/s) = 4.21330 4.29402 4.25385
# Velocity P-wave (km/s) = 7.57726 7.66161 7.61955
#
# Compressibility (1/GPa) = 0.01376743
#
# Stress axis : x y z
#
# Youngs Moduli (GPa) = 112.99298 102.81106 105.78103
#
# Poissons Ratio (x) = 0.24472 0.20590
# Poissons Ratio (y) = 0.26896 0.29667
# Poissons Ratio (z) = 0.21994 0.28834
#
# Static dielectric constant tensor:
#      x y z
#    x 5.105920 0.001160 1.395930 
#    y 0.001160 4.540840 0.001280 
#    z 1.395930 0.001280 5.872210 
# 
# 
# High freq. dielectric constant tensor:
#      x y z
#    x 1.828950 0.000000 -0.000390 
#    y 0.000000 1.871460 -0.000010 
#    z -0.000390 -0.000010 1.858600 
# 
# From -- ./inp_files/316256.got.cif
#   From: 2010.06.25/outbox.cif.g09.slc.cpg/sg15_159_cif.got.tgz:316256.got - 2010.06.28 07:06:18.
