data_PCOD8150856
_publ_section_title
;
Structure prediction by ZEFSAII (Michael W. Deem and Ramdas Pophale) SiO2 
 PCOD8150856
Probable space group: C 2/C
;
_chemical_formula_sum "Si O2"
_cell_formula_units_Z 40
_cell_length_a 17.506752
_cell_length_b 4.946628
_cell_length_c 18.582426
_cell_angle_alpha 90.000000
_cell_angle_beta 100.484310
_cell_angle_gamma 90.000000
_cell_volume 1582.360346
_symmetry_space_group_name_H-M "C 2/C"
_symmetry_group_IT_number 15
_symmetry_cell_setting 'monoclinic'
loop_
_space_group_symop_operation_xyz
x,y,z
-x,y,1/2-z
-x,-y,-z
x,-y,1/2+z
1/2+x,1/2+y,z
1/2-x,1/2+y,1/2-z
1/2-x,1/2-y,-z
1/2+x,1/2-y,1/2+z
loop_
_atom_site_type_symbol
_atom_site_label
_atom_site_fract_x
_atom_site_fract_y
_atom_site_fract_z
Si Si1 0.247652 0.551072 0.933381
Si Si2 0.036301 0.704850 0.090128
Si Si3 0.376424 0.831712 0.494716
Si Si4 0.714625 0.268431 0.774738
Si Si5 0.450007 0.286624 0.809747
O O1 0.327030 0.377490 0.936809
O O2 0.228557 0.722319 0.860517
O O3 0.250000 0.750000 0.000000
O O4 0.173058 0.365278 0.940399
O O5 0.107451 0.604364 0.050239
O O6 0.011715 0.458091 0.138701
O O7 0.063886 0.961430 0.139806
O O8 0.960655 0.788720 0.030114
O O9 0.726416 0.585765 0.761830
O O10 0.629975 0.176901 0.735954
O O11 0.500000 0.379061 0.750000
#
# Coordination Sequence:
#
# PCOD8150856 Si02
#       5
#     8   8   8   8   8
#     4  11  27  46  79 107 155 197 257 312 378 453
#     4  11  26  47  76 109 149 200 253 318 376 456
#     4  10  26  46  75 111 150 196 257 314 381 447
#     4  12  29  49  77 110 153 200 253 314 386 455
#     4  12  27  47  75 107 155 198 258 308 390 456
#
# _framework density 25.278693000000001
#
# number of rings (size 3 to 8) (size 9 to 14) (size 15 to 20)
#    0.000    0.800    0.000    4.200   19.600    1.600 
#    0.000    0.000    0.000    0.000    0.000    0.000 
#    0.000    0.000    0.000    0.000    0.000    0.000 
#
# Total GULP energy -248057.742772 kJ/mol
# GULP energy per Si atom -12402.887139 kJ/mol
# Density = 2.522116 g / cm^3
# Si number density = 25.278693 Si / 1000 Ang^3
#
#
#
# Elastic Constant Matrix: (Units=GPa)
#
#
# Indices 1 2 3 4 5 6 
#
# 1 118.4310 16.0811 36.2678 0.0000 2.3675 0.0000
# 2 16.0811 80.0408 10.3402 0.0000 2.0292 0.0000
# 3 36.2678 10.3402 132.9448 0.0000 -3.8574 0.0000
# 4 0.0000 0.0000 0.0000 -302.3169 0.0000 70.1892
# 5 2.3675 2.0292 -3.8574 0.0000 39.3093 0.0000
# 6 0.0000 0.0000 0.0000 70.1892 0.0000 15.9257
#
#
#
# Elastic Compliance Matrix: (Units=1/GPa)
#
#
# Indices 1 2 3 4 5 6 
#
# 1 0.009427 -0.001556 -0.002472 0.000000 -0.000730 0.000000
# 2 -0.001556 0.012899 -0.000597 0.000000 -0.000631 0.000000
# 3 -0.002472 -0.000597 0.008271 0.000000 0.000991 0.000000
# 4 0.000000 0.000000 0.000000 -0.001635 0.000000 0.007205
# 5 -0.000730 -0.000631 0.000991 0.000000 0.025613 0.000000
# 6 0.000000 0.000000 0.000000 0.007205 0.000000 0.031035
#
#
# Mechanical properties :
#
#
# Convention : Reuss Voigt Hill
#
# Bulk Modulus (GPa) = 46.84379 50.75496 48.79937
# Shear Modulus (GPa) = 49.03101 -31.50120 8.76490
#
# Velocity S-wave (km/s) = 4.40889 -3.53392 1.86409
# Velocity P-wave (km/s) = 6.67000 1.86286 4.89689
#
# Compressibility (1/GPa) = 0.02134755
#
# Stress axis : x y z
#
# Youngs Moduli (GPa) = 106.08324 77.52309 120.89816
#
# Poissons Ratio (x) = 0.12063 0.29883
# Poissons Ratio (y) = 0.16507 0.07219
# Poissons Ratio (z) = 0.26221 0.04629
#
# Static dielectric constant tensor:
#      x y z
#    x 3.203630 0.000000 1.811210 
#    y 0.000000 5.602360 0.000000 
#    z 1.811210 0.000000 2.410730 
# 
# 
# High freq. dielectric constant tensor:
#      x y z
#    x 2.018660 0.000000 -0.000350 
#    y 0.000000 2.010550 0.000000 
#    z -0.000350 0.000000 2.019190 
# 
# From -- ./inp_files/208122.got.cif
#   From: 2010.06.25/outbox.cif.g09.slc.cpg/sg15_105_cif.got.tgz:208122.got - 2010.06.28 07:06:18.
