data_PCOD8150579
_publ_section_title
;
Structure prediction by ZEFSAII (Michael W. Deem and Ramdas Pophale) SiO2 
 PCOD8150579
Probable space group: C 2/C
;
_chemical_formula_sum "Si O2"
_cell_formula_units_Z 60
_cell_length_a 23.956559
_cell_length_b 13.411975
_cell_length_c 15.227388
_cell_angle_alpha 90.000000
_cell_angle_beta 33.902164
_cell_angle_gamma 90.000000
_cell_volume 2728.995170
_symmetry_space_group_name_H-M "C 2/C"
_symmetry_group_IT_number 15
_symmetry_cell_setting 'monoclinic'
loop_
_space_group_symop_operation_xyz
x,y,z
-x,y,1/2-z
-x,-y,-z
x,-y,1/2+z
1/2+x,1/2+y,z
1/2-x,1/2+y,1/2-z
1/2-x,1/2-y,-z
1/2+x,1/2-y,1/2+z
loop_
_atom_site_type_symbol
_atom_site_label
_atom_site_fract_x
_atom_site_fract_y
_atom_site_fract_z
Si Si1 0.794350 0.321987 0.017566
Si Si2 0.411457 0.800178 0.035120
Si Si3 0.648944 0.712234 0.090052
Si Si4 0.157042 0.040766 0.803717
Si Si5 0.730373 0.069549 0.677858
Si Si6 0.074085 0.458772 0.768817
Si Si7 0.000000 0.630590 0.750000
Si Si8 0.044302 0.138341 0.391656
O O1 0.855076 0.268117 0.017993
O O2 0.699258 0.379670 0.179645
O O3 0.750000 0.250000 0.000000
O O4 0.876407 0.399448 0.875793
O O5 0.332203 0.833338 0.212315
O O6 0.463826 0.704403 0.009205
O O7 0.492053 0.888773 0.921162
O O8 0.597878 0.801150 0.099935
O O9 0.564179 0.695033 0.275004
O O10 0.750000 0.750000 0.000000
O O11 0.675171 0.611855 0.001534
O O12 0.235000 0.015002 0.778643
O O13 0.135536 0.939364 0.780552
O O14 0.059918 0.082040 0.979981
O O15 0.664522 0.986776 0.715372
O O16 0.021362 0.560249 0.805852
#
# Coordination Sequence:
#
# PCOD8150579 Si02
#       8
#     8   8   8   8   8   8   4   8
#     4  11  24  42  67  99 133 176 226 275 339 410
#     4  11  23  42  64 100 133 171 222 277 336 398
#     4  12  23  41  68  98 135 177 224 271 350 407
#     4  10  25  43  66  96 132 174 225 279 334 404
#     4  11  24  41  65 100 129 174 225 275 340 412
#     4  12  23  42  66  97 136 175 228 279 343 400
#     4  12  24  40  68 100 134 178 216 294 330 408
#     4  11  23  46  65  93 136 174 223 280 335 400
#
# _framework density 21.986114000000001
#
# number of rings (size 3 to 8) (size 9 to 14) (size 15 to 20)
#    0.000    0.800    4.000    2.800    1.867    0.000 
#    0.000    0.000    0.000    0.000    0.000    0.000 
#    0.000    0.000    0.000    0.000    0.000    0.000 
#
# Total GULP energy -371991.908669 kJ/mol
# GULP energy per Si atom -12399.730289 kJ/mol
# Density = 2.193607 g / cm^3
# Si number density = 21.986114 Si / 1000 Ang^3
#
#
#
# Elastic Constant Matrix: (Units=GPa)
#
#
# Indices 1 2 3 4 5 6 
#
# 1 98.7151 49.9849 28.4599 0.0000 3.8388 0.0000
# 2 49.9849 87.2916 32.1839 0.0000 -5.9990 0.0000
# 3 28.4599 32.1839 92.7957 0.0000 2.2332 0.0000
# 4 0.0000 0.0000 0.0000 36.6395 0.0000 -10.5537
# 5 3.8388 -5.9990 2.2332 0.0000 33.9352 0.0000
# 6 0.0000 0.0000 0.0000 -10.5537 0.0000 25.9376
#
#
#
# Elastic Compliance Matrix: (Units=1/GPa)
#
#
# Indices 1 2 3 4 5 6 
#
# 1 0.014817 -0.008074 -0.001672 0.000000 -0.002993 0.000000
# 2 -0.008074 0.017773 -0.003791 0.000000 0.004305 0.000000
# 3 -0.001672 -0.003791 0.012636 0.000000 -0.001313 0.000000
# 4 0.000000 0.000000 0.000000 0.030916 0.000000 0.012579
# 5 -0.002993 0.004305 -0.001313 0.000000 0.030654 0.000000
# 6 0.000000 0.000000 0.000000 0.012579 0.000000 0.043672
#
#
# Mechanical properties :
#
#
# Convention : Reuss Voigt Hill
#
# Bulk Modulus (GPa) = 55.09369 55.56223 55.32796
# Shear Modulus (GPa) = 27.23424 30.51404 28.87414
#
# Velocity S-wave (km/s) = 3.52334 3.72947 3.62787
# Velocity P-wave (km/s) = 6.45482 6.62356 6.53973
#
# Compressibility (1/GPa) = 0.01815090
#
# Stress axis : x y z
#
# Youngs Moduli (GPa) = 67.49130 56.26611 79.14053
#
# Poissons Ratio (x) = 0.45427 0.13233
# Poissons Ratio (y) = 0.54490 0.30006
# Poissons Ratio (z) = 0.11285 0.21333
#
# Static dielectric constant tensor:
#      x y z
#    x 4.088850 0.000000 -0.085860 
#    y 0.000000 3.883530 0.000000 
#    z -0.085860 0.000000 4.104310 
# 
# 
# High freq. dielectric constant tensor:
#      x y z
#    x 1.881060 0.000000 -0.008300 
#    y 0.000000 1.854300 0.000000 
#    z -0.008300 0.000000 1.868500 
# 
# From -- ./inp_files/222543.got.cif
#   From: 2010.06.25/outbox.cif.g09.slc.cpg/sg15_112_cif.got.tgz:222543.got - 2010.06.28 07:06:18.
