data_PCOD8150367
_publ_section_title
;
Structure prediction by ZEFSAII (Michael W. Deem and Ramdas Pophale) SiO2 
 PCOD8150367
Probable space group: C 2/C
;
_chemical_formula_sum "Si O2"
_cell_formula_units_Z 52
_cell_length_a 8.254018
_cell_length_b 19.666975
_cell_length_c 14.091341
_cell_angle_alpha 90.000000
_cell_angle_beta 89.141907
_cell_angle_gamma 90.000000
_cell_volume 2287.212915
_symmetry_space_group_name_H-M "C 2/C"
_symmetry_group_IT_number 15
_symmetry_cell_setting 'monoclinic'
loop_
_space_group_symop_operation_xyz
x,y,z
-x,y,1/2-z
-x,-y,-z
x,-y,1/2+z
1/2+x,1/2+y,z
1/2-x,1/2+y,1/2-z
1/2-x,1/2-y,-z
1/2+x,1/2-y,1/2+z
loop_
_atom_site_type_symbol
_atom_site_label
_atom_site_fract_x
_atom_site_fract_y
_atom_site_fract_z
Si Si1 0.388134 0.328809 0.666696
Si Si2 0.232617 0.582233 0.868933
Si Si3 0.500000 0.993744 0.750000
Si Si4 0.865524 0.220352 0.827683
Si Si5 0.414839 0.291310 0.001651
Si Si6 0.197522 0.448298 0.584251
Si Si7 0.929530 0.057952 0.567338
O O1 0.500000 0.356298 0.750000
O O2 0.232657 0.286933 0.705744
O O3 0.497733 0.280758 0.599621
O O4 0.334302 0.393024 0.605249
O O5 0.144328 0.540882 0.787429
O O6 0.227499 0.662752 0.846768
O O7 0.426076 0.568360 0.858773
O O8 0.152814 0.563194 0.973137
O O9 0.551175 0.943971 0.661745
O O10 0.000000 0.198292 0.750000
O O11 0.962136 0.239247 0.922250
O O12 0.379212 0.371081 0.019605
O O13 0.250000 0.250000 0.000000
O O14 0.264137 0.524505 0.606989
O O15 0.000000 0.000000 0.500000
#
# Coordination Sequence:
#
# PCOD8150367 Si02
#       7
#     8   8   4   8   8   8   8
#     4  12  26  44  68 103 142 188 242 302 358 432
#     4  10  24  46  71 100 137 186 233 290 362 429
#     4  12  28  38  74 108 142 180 232 306 344 438
#     4  11  25  46  69 100 144 189 242 299 361 433
#     4  11  23  44  74 105 132 190 236 301 368 428
#     4  11  25  47  68 104 141 189 230 297 364 425
#     4   9  19  43  70  93 135 177 233 275 352 432
#
# _framework density 22.735095000000001
#
# number of rings (size 3 to 8) (size 9 to 14) (size 15 to 20)
#    0.000    1.231    4.615    1.846    8.615    1.231 
#    5.538    0.000    0.000    0.000    0.000    0.000 
#    0.000    0.000    0.000    0.000    0.000    0.000 
#
# Total GULP energy -322216.080811 kJ/mol
# GULP energy per Si atom -12392.926185 kJ/mol
# Density = 2.268335 g / cm^3
# Si number density = 22.735095 Si / 1000 Ang^3
#
#
#
# Elastic Constant Matrix: (Units=GPa)
#
#
# Indices 1 2 3 4 5 6 
#
# 1 71.9068 41.4744 29.4888 0.0000 -2.5964 0.0000
# 2 41.4744 109.1892 13.5673 0.0000 2.2109 0.0000
# 3 29.4888 13.5673 117.2398 0.0000 -4.8570 0.0000
# 4 0.0000 0.0000 0.0000 19.6452 0.0000 -5.3139
# 5 -2.5964 2.2109 -4.8570 0.0000 43.7215 0.0000
# 6 0.0000 0.0000 0.0000 -5.3139 0.0000 36.2649
#
#
#
# Elastic Compliance Matrix: (Units=1/GPa)
#
#
# Indices 1 2 3 4 5 6 
#
# 1 0.019646 -0.006976 -0.004090 0.000000 0.001065 0.000000
# 2 -0.006976 0.011784 0.000351 0.000000 -0.000971 0.000000
# 3 -0.004090 0.000351 0.009551 0.000000 0.000800 0.000000
# 4 0.000000 0.000000 0.000000 0.053004 0.000000 0.007767
# 5 0.001065 -0.000971 0.000800 0.000000 0.023073 0.000000
# 6 0.000000 0.000000 0.000000 0.007767 0.000000 0.028713
#
#
# Mechanical properties :
#
#
# Convention : Reuss Voigt Hill
#
# Bulk Modulus (GPa) = 51.14889 51.93296 51.54092
# Shear Modulus (GPa) = 28.78217 34.18001 31.48109
#
# Velocity S-wave (km/s) = 3.56192 3.88158 3.72518
# Velocity P-wave (km/s) = 6.28196 6.55600 6.42044
#
# Compressibility (1/GPa) = 0.01955077
#
# Stress axis : x y z
#
# Youngs Moduli (GPa) = 50.90048 84.85955 104.70239
#
# Poissons Ratio (x) = 0.59196 0.42825
# Poissons Ratio (y) = 0.35507 -0.03671
# Poissons Ratio (z) = 0.20819 -0.02976
#
# Static dielectric constant tensor:
#      x y z
#    x 5.197610 0.000000 -0.380100 
#    y 0.000000 4.854320 0.000000 
#    z -0.380100 0.000000 4.191180 
# 
# 
# High freq. dielectric constant tensor:
#      x y z
#    x 1.890140 0.000000 -0.005510 
#    y 0.000000 1.896610 0.000000 
#    z -0.005510 0.000000 1.899120 
# 
# From -- ./inp_files/135974.got.cif
#   From: 2010.06.25/outbox.cif.g09.slc.cpg/sg15_68_cif.got.tgz:135974.got - 2010.06.28 07:06:18.
