data_PCOD8150166
_publ_section_title
;
Structure prediction by ZEFSAII (Michael W. Deem and Ramdas Pophale) SiO2 
 PCOD8150166
Probable space group: C 2/C
;
_chemical_formula_sum "Si O2"
_cell_formula_units_Z 28
_cell_length_a 10.929542
_cell_length_b 23.162522
_cell_length_c 4.966587
_cell_angle_alpha 90.000000
_cell_angle_beta 99.772381
_cell_angle_gamma 90.000000
_cell_volume 1239.076166
_symmetry_space_group_name_H-M "C 2/C"
_symmetry_group_IT_number 15
_symmetry_cell_setting 'monoclinic'
loop_
_space_group_symop_operation_xyz
x,y,z
-x,y,1/2-z
-x,-y,-z
x,-y,1/2+z
1/2+x,1/2+y,z
1/2-x,1/2+y,1/2-z
1/2-x,1/2-y,-z
1/2+x,1/2-y,1/2+z
loop_
_atom_site_type_symbol
_atom_site_label
_atom_site_fract_x
_atom_site_fract_y
_atom_site_fract_z
Si Si1 0.145372 0.366583 0.340607
Si Si2 0.235111 0.813034 0.615359
Si Si3 0.180452 0.039193 0.482316
Si Si4 0.500000 0.631742 0.250000
O O1 0.189726 0.318935 0.575610
O O2 0.183512 0.431365 0.447938
O O3 0.000000 0.361927 0.250000
O O4 0.209597 0.357940 0.076455
O O5 0.250000 0.750000 0.500000
O O6 0.089996 0.827374 0.607614
O O7 0.081653 0.091310 0.478911
O O8 0.160186 0.988310 0.683657
#
# Coordination Sequence:
#
# PCOD8150166 Si02
#       4
#     8   8   8   4
#     4  11  25  46  66 101 141 179 232 282 331 420
#     4  11  25  45  71  98 136 185 232 282 346 396
#     4  11  23  41  69 100 136 180 223 283 347 396
#     4  10  24  44  70 104 138 170 238 284 336 418
#
# _framework density 22.597481999999999
#
# number of rings (size 3 to 8) (size 9 to 14) (size 15 to 20)
#    0.000    1.143    0.000    6.000    2.000   10.286 
#   10.286    0.000    0.000    0.000    0.000    0.000 
#    0.000    0.000    0.000    0.000    0.000    0.000 
#
# Total GULP energy -173635.988179 kJ/mol
# GULP energy per Si atom -12402.570584 kJ/mol
# Density = 2.254605 g / cm^3
# Si number density = 22.597482 Si / 1000 Ang^3
#
#
#
# Elastic Constant Matrix: (Units=GPa)
#
#
# Indices 1 2 3 4 5 6 
#
# 1 184.9489 70.7204 60.7485 0.0000 1.5075 0.0000
# 2 70.7204 123.5494 22.6977 0.0000 3.3630 0.0000
# 3 60.7485 22.6977 96.6326 0.0000 1.5190 0.0000
# 4 0.0000 0.0000 0.0000 25.8896 0.0000 -5.5860
# 5 1.5075 3.3630 1.5190 0.0000 39.8047 0.0000
# 6 0.0000 0.0000 0.0000 -5.5860 0.0000 37.4085
#
#
#
# Elastic Compliance Matrix: (Units=1/GPa)
#
#
# Indices 1 2 3 4 5 6 
#
# 1 0.008348 -0.003991 -0.004314 0.000000 0.000186 0.000000
# 2 -0.003991 0.010383 0.000082 0.000000 -0.000729 0.000000
# 3 -0.004314 0.000082 0.013047 0.000000 -0.000341 0.000000
# 4 0.000000 0.000000 0.000000 0.039911 0.000000 0.005960
# 5 0.000186 -0.000729 -0.000341 0.000000 0.025190 0.000000
# 6 0.000000 0.000000 0.000000 0.005960 0.000000 0.027622
#
#
# Mechanical properties :
#
#
# Convention : Reuss Voigt Hill
#
# Bulk Modulus (GPa) = 65.22424 79.27379 72.24901
# Shear Modulus (GPa) = 34.23272 37.35150 35.79211
#
# Velocity S-wave (km/s) = 3.89638 4.07000 3.98414
# Velocity P-wave (km/s) = 7.01203 7.56595 7.29425
#
# Compressibility (1/GPa) = 0.01533172
#
# Stress axis : x y z
#
# Youngs Moduli (GPa) = 119.78275 96.30760 76.64891
#
# Poissons Ratio (x) = 0.38439 0.33064
# Poissons Ratio (y) = 0.47808 -0.00626
# Poissons Ratio (z) = 0.51671 -0.00787
#
# Static dielectric constant tensor:
#      x y z
#    x 4.160420 0.000000 0.053030 
#    y 0.000000 4.004430 0.000000 
#    z 0.053030 0.000000 4.257830 
# 
# 
# High freq. dielectric constant tensor:
#      x y z
#    x 1.890670 0.000000 0.001320 
#    y 0.000000 1.892660 0.000000 
#    z 0.001320 0.000000 1.904290 
# 
# From -- ./inp_files/3570.got.cif
#   From: 2010.06.25/outbox.cif.g09.slc.cpg/sg15_2_cif.got.tgz:3570.got - 2010.06.28 07:06:18.
