data_PCOD8150482
_publ_section_title
;
Structure prediction by ZEFSAII (Michael W. Deem and Ramdas Pophale) SiO2 
 PCOD8150482
Probable space group: C 2/C
;
_chemical_formula_sum "Si O2"
_cell_formula_units_Z 44
_cell_length_a 11.372230
_cell_length_b 20.744730
_cell_length_c 12.615892
_cell_angle_alpha 90.000000
_cell_angle_beta 40.103889
_cell_angle_gamma 90.000000
_cell_volume 1917.236195
_symmetry_space_group_name_H-M "C 2/C"
_symmetry_group_IT_number 15
_symmetry_cell_setting 'monoclinic'
loop_
_space_group_symop_operation_xyz
x,y,z
-x,y,1/2-z
-x,-y,-z
x,-y,1/2+z
1/2+x,1/2+y,z
1/2-x,1/2+y,1/2-z
1/2-x,1/2-y,-z
1/2+x,1/2-y,1/2+z
loop_
_atom_site_type_symbol
_atom_site_label
_atom_site_fract_x
_atom_site_fract_y
_atom_site_fract_z
Si Si1 0.999392 0.710097 0.524149
Si Si2 0.000000 0.651313 0.750000
Si Si3 0.703599 0.054724 0.095652
Si Si4 0.145965 0.925858 0.442097
Si Si5 0.668855 0.341848 0.838264
Si Si6 0.820684 0.880264 0.317129
O O1 0.008515 0.697605 0.642901
O O2 0.966324 0.785723 0.524837
O O3 0.831110 0.674103 0.586692
O O4 0.190435 0.688109 0.342160
O O5 0.824367 0.605851 0.869899
O O6 0.500000 0.027938 0.250000
O O7 0.722462 0.123923 0.140949
O O8 0.844908 0.002686 0.046740
O O9 0.742388 0.062224 0.944236
O O10 0.125934 0.911313 0.331110
O O11 0.965576 0.895259 0.622350
O O12 0.000000 0.850325 0.250000
#
# Coordination Sequence:
#
# PCOD8150482 Si02
#       6
#     8   4   8   8   8   8
#     4  11  26  46  72 105 144 185 239 289 351 420
#     4  10  24  48  72 102 144 190 230 298 346 416
#     4  12  25  47  73 106 144 187 234 292 353 421
#     4  11  25  47  71 105 143 185 240 287 352 420
#     4  12  26  45  72 107 140 186 236 290 353 422
#     4  11  24  44  72 104 144 188 233 289 350 416
#
# _framework density 22.949703
#
# number of rings (size 3 to 8) (size 9 to 14) (size 15 to 20)
#    0.000    0.727    4.545    2.727    0.000    7.273 
#    0.000    0.000    0.000    0.000    0.000    0.000 
#    0.000    0.000    0.000    0.000    0.000    0.000 
#
# Total GULP energy -272884.025150 kJ/mol
# GULP energy per Si atom -12403.819325 kJ/mol
# Density = 2.289747 g / cm^3
# Si number density = 22.949703 Si / 1000 Ang^3
#
#
#
# Elastic Constant Matrix: (Units=GPa)
#
#
# Indices 1 2 3 4 5 6 
#
# 1 136.7862 48.8375 46.9100 0.0006 -6.9618 -0.0005
# 2 48.8375 148.5952 56.1162 0.0005 1.4287 -0.0002
# 3 46.9100 56.1162 122.5535 -0.0002 -28.6033 0.0000
# 4 0.0006 0.0005 -0.0002 25.5820 -0.0003 -19.5871
# 5 -6.9618 1.4287 -28.6033 -0.0003 33.3394 0.0003
# 6 -0.0005 -0.0002 0.0000 -19.5871 0.0003 34.8471
#
#
#
# Elastic Compliance Matrix: (Units=1/GPa)
#
#
# Indices 1 2 3 4 5 6 
#
# 1 0.008872 -0.001943 -0.002569 0.000000 -0.000268 0.000000
# 2 -0.001943 0.009122 -0.004525 0.000000 -0.004679 0.000000
# 3 -0.002569 -0.004525 0.013923 0.000000 0.011603 0.000000
# 4 0.000000 0.000000 0.000000 0.068623 0.000001 0.038572
# 5 -0.000268 -0.004679 0.011603 0.000001 0.040094 0.000000
# 6 0.000000 0.000000 0.000000 0.038572 0.000000 0.050377
#
#
# Mechanical properties :
#
#
# Convention : Reuss Voigt Hill
#
# Bulk Modulus (GPa) = 72.23963 79.07357 75.65660
# Shear Modulus (GPa) = 23.39737 35.82512 29.61125
#
# Velocity S-wave (km/s) = 3.19644 3.95527 3.59593
# Velocity P-wave (km/s) = 6.72076 7.44237 7.09075
#
# Compressibility (1/GPa) = 0.01384282
#
# Stress axis : x y z
#
# Youngs Moduli (GPa) = 112.71772 109.62151 71.82354
#
# Poissons Ratio (x) = 0.21302 0.18449
# Poissons Ratio (y) = 0.21903 0.32502
# Poissons Ratio (z) = 0.28953 0.49607
#
# Static dielectric constant tensor:
#      x y z
#    x 4.255350 0.000000 -0.257120 
#    y 0.000000 4.061760 0.000000 
#    z -0.257120 0.000000 4.234510 
# 
# 
# High freq. dielectric constant tensor:
#      x y z
#    x 1.920500 0.000000 -0.022300 
#    y 0.000000 1.906450 0.000000 
#    z -0.022300 0.000000 1.912050 
# 
# From -- ./inp_files/91142.got.cif
#   From: 2010.06.25/outbox.cif.g09.slc.cpg/sg15_46_cif.got.tgz:91142.got - 2010.06.28 07:06:18.
