data_PCOD8150231
_publ_section_title
;
Structure prediction by ZEFSAII (Michael W. Deem and Ramdas Pophale) SiO2 
 PCOD8150231
Probable space group: C 2/C
;
_chemical_formula_sum "Si O2"
_cell_formula_units_Z 56
_cell_length_a 18.162975
_cell_length_b 24.053410
_cell_length_c 8.646312
_cell_angle_alpha 90.000000
_cell_angle_beta 138.233339
_cell_angle_gamma 90.000000
_cell_volume 2516.129862
_symmetry_space_group_name_H-M "C 2/C"
_symmetry_group_IT_number 15
_symmetry_cell_setting 'monoclinic'
loop_
_space_group_symop_operation_xyz
x,y,z
-x,y,1/2-z
-x,-y,-z
x,-y,1/2+z
1/2+x,1/2+y,z
1/2-x,1/2+y,1/2-z
1/2-x,1/2-y,-z
1/2+x,1/2-y,1/2+z
loop_
_atom_site_type_symbol
_atom_site_label
_atom_site_fract_x
_atom_site_fract_y
_atom_site_fract_z
Si Si1 0.016421 0.732836 0.103473
Si Si2 0.778823 0.723004 0.704584
Si Si3 0.400407 0.459742 0.390598
Si Si4 0.623040 0.339206 0.162846
Si Si5 0.778878 0.327055 0.687892
Si Si6 0.256042 0.003646 0.595580
Si Si7 0.369525 0.072032 0.517160
O O1 0.037953 0.787860 0.034444
O O2 0.110981 0.686908 0.236212
O O3 0.000000 0.754300 0.250000
O O4 0.904087 0.702234 0.876486
O O5 0.750000 0.750000 0.500000
O O6 0.704370 0.671234 0.643524
O O7 0.770486 0.770369 0.822151
O O8 0.500000 0.500000 0.500000
O O9 0.444374 0.396263 0.468855
O O10 0.350905 0.474811 0.479435
O O11 0.297116 0.461192 0.110494
O O12 0.689097 0.348321 0.426146
O O13 0.809047 0.371048 0.869478
O O14 0.315909 0.053327 0.595859
O O15 0.346485 0.973352 0.846057
O O16 0.500000 0.080249 0.750000
#
# Coordination Sequence:
#
# PCOD8150231 Si02
#       7
#     8   8   8   8   8   8   8
#     4  11  21  41  68  94 132 180 226 273 342 424
#     4  11  25  42  64 100 140 173 226 289 335 412
#     4  11  24  44  67  97 134 178 234 282 347 418
#     4  11  23  43  67  96 135 183 225 275 349 415
#     4  11  23  41  66  99 130 174 227 274 345 416
#     4  10  24  45  65  93 133 174 224 293 340 409
#     4  11  24  43  69  97 131 174 228 285 350 413
#
# _framework density 22.256402999999999
#
# number of rings (size 3 to 8) (size 9 to 14) (size 15 to 20)
#    0.000    1.143    4.286    1.714    4.000    5.143 
#    2.571    0.714    0.000    0.000    0.000    0.000 
#    0.000    0.000    0.000    0.000    0.000    0.000 
#
# Total GULP energy -347108.971835 kJ/mol
# GULP energy per Si atom -12396.748994 kJ/mol
# Density = 2.220575 g / cm^3
# Si number density = 22.256403 Si / 1000 Ang^3
#
#
#
# Elastic Constant Matrix: (Units=GPa)
#
#
# Indices 1 2 3 4 5 6 
#
# 1 113.5425 29.7110 20.0990 0.0000 10.7635 0.0000
# 2 29.7110 108.8481 -1.6410 0.0000 6.7809 0.0000
# 3 20.0990 -1.6410 64.7542 0.0000 2.3846 0.0000
# 4 0.0000 0.0000 0.0000 33.3721 0.0000 -1.4603
# 5 10.7635 6.7809 2.3846 0.0000 34.2396 0.0000
# 6 0.0000 0.0000 0.0000 -1.4603 0.0000 26.0102
#
#
#
# Elastic Compliance Matrix: (Units=1/GPa)
#
#
# Indices 1 2 3 4 5 6 
#
# 1 0.010314 -0.002708 -0.003179 0.000000 -0.002485 0.000000
# 2 -0.002708 0.010019 0.001139 0.000000 -0.001212 0.000000
# 3 -0.003179 0.001139 0.016472 0.000000 -0.000374 0.000000
# 4 0.000000 0.000000 0.000000 0.030039 0.000000 0.001687
# 5 -0.002485 -0.001212 -0.000374 0.000000 0.030253 0.000000
# 6 0.000000 0.000000 0.000000 0.001687 0.000000 0.038541
#
#
# Mechanical properties :
#
#
# Convention : Reuss Voigt Hill
#
# Bulk Modulus (GPa) = 36.61674 42.60919 39.61297
# Shear Modulus (GPa) = 32.41749 34.65609 33.53679
#
# Velocity S-wave (km/s) = 3.82061 3.95033 3.88601
# Velocity P-wave (km/s) = 5.99589 6.32400 6.16213
#
# Compressibility (1/GPa) = 0.02730991
#
# Stress axis : x y z
#
# Youngs Moduli (GPa) = 96.95363 99.80927 60.70817
#
# Poissons Ratio (x) = 0.27033 0.19297
# Poissons Ratio (y) = 0.26260 -0.06916
# Poissons Ratio (z) = 0.30817 -0.11371
#
# Static dielectric constant tensor:
#      x y z
#    x 4.409110 0.000000 -0.103500 
#    y 0.000000 4.172160 0.000000 
#    z -0.103500 0.000000 3.911650 
# 
# 
# High freq. dielectric constant tensor:
#      x y z
#    x 1.886020 0.000000 -0.004290 
#    y 0.000000 1.864950 0.000000 
#    z -0.004290 0.000000 1.879230 
# 
# From -- ./inp_files/42757.got.cif
#   From: 2010.06.25/outbox.cif.g09.slc.cpg/sg15_22_cif.got.tgz:42757.got - 2010.06.28 07:06:18.
