data_PCOD8150591
_publ_section_title
;
Structure prediction by ZEFSAII (Michael W. Deem and Ramdas Pophale) SiO2 
 PCOD8150591
Probable space group: C 2/C
;
_chemical_formula_sum "Si O2"
_cell_formula_units_Z 32
_cell_length_a 17.435500
_cell_length_b 13.028677
_cell_length_c 11.019405
_cell_angle_alpha 90.000000
_cell_angle_beta 144.602912
_cell_angle_gamma 90.000000
_cell_volume 1449.943974
_symmetry_space_group_name_H-M "C 2/C"
_symmetry_group_IT_number 15
_symmetry_cell_setting 'monoclinic'
loop_
_space_group_symop_operation_xyz
x,y,z
-x,y,1/2-z
-x,-y,-z
x,-y,1/2+z
1/2+x,1/2+y,z
1/2-x,1/2+y,1/2-z
1/2-x,1/2-y,-z
1/2+x,1/2-y,1/2+z
loop_
_atom_site_type_symbol
_atom_site_label
_atom_site_fract_x
_atom_site_fract_y
_atom_site_fract_z
Si Si1 0.133001 0.963823 0.606503
Si Si2 0.269849 0.665443 0.858873
Si Si3 0.144152 0.245797 0.973456
Si Si4 0.643822 0.130303 0.945692
O O1 0.122918 0.865543 0.507236
O O2 0.158756 0.056704 0.548095
O O3 0.247724 0.945633 0.855498
O O4 0.000000 0.000000 0.500000
O O5 0.188315 0.672090 0.629638
O O6 0.174593 0.667141 0.850324
O O7 0.367712 0.764271 0.990128
O O8 0.250000 0.250000 0.000000
O O9 0.000000 0.284866 0.750000
O O10 0.500000 0.076176 0.750000
#
# Coordination Sequence:
#
# PCOD8150591 Si02
#       4
#     8   8   8   8
#     4  11  26  44  73 103 137 189 239 285 355 430
#     4  10  25  43  69  99 141 180 231 288 350 422
#     4  11  26  45  70 105 145 186 234 298 361 430
#     4  10  25  44  69 102 138 184 234 292 350 418
#
# _framework density 22.069817
#
# number of rings (size 3 to 8) (size 9 to 14) (size 15 to 20)
#    0.000    1.500    0.000    1.500   24.500    2.000 
#    0.000    0.000    0.000    0.000    0.000    0.000 
#    0.000    0.000    0.000    0.000    0.000    0.000 
#
# Total GULP energy -198285.788192 kJ/mol
# GULP energy per Si atom -12392.861762 kJ/mol
# Density = 2.201959 g / cm^3
# Si number density = 22.069817 Si / 1000 Ang^3
#
#
#
# Elastic Constant Matrix: (Units=GPa)
#
#
# Indices 1 2 3 4 5 6 
#
# 1 118.7237 21.8721 54.8934 0.0000 2.4021 0.0000
# 2 21.8721 88.8680 2.4688 0.0000 5.9975 0.0000
# 3 54.8934 2.4688 139.6216 0.0000 14.2315 0.0000
# 4 0.0000 0.0000 0.0000 20.1382 0.0000 -3.5728
# 5 2.4021 5.9975 14.2315 0.0000 41.7766 0.0000
# 6 0.0000 0.0000 0.0000 -3.5728 0.0000 37.8085
#
#
#
# Elastic Compliance Matrix: (Units=1/GPa)
#
#
# Indices 1 2 3 4 5 6 
#
# 1 0.010904 -0.002646 -0.004367 0.000000 0.001240 0.000000
# 2 -0.002646 0.012005 0.001024 0.000000 -0.001920 0.000000
# 3 -0.004367 0.001024 0.009169 0.000000 -0.003019 0.000000
# 4 0.000000 0.000000 0.000000 0.050503 0.000000 0.004772
# 5 0.001240 -0.001920 -0.003019 0.000000 0.025170 0.000000
# 6 0.000000 0.000000 0.000000 0.004772 0.000000 0.026900
#
#
# Mechanical properties :
#
#
# Convention : Reuss Voigt Hill
#
# Bulk Modulus (GPa) = 49.75176 56.18689 52.96933
# Shear Modulus (GPa) = 32.60950 37.80995 35.20973
#
# Velocity S-wave (km/s) = 3.84808 4.14357 3.99855
# Velocity P-wave (km/s) = 6.50657 6.95746 6.73579
#
# Compressibility (1/GPa) = 0.02009979
#
# Stress axis : x y z
#
# Youngs Moduli (GPa) = 91.70650 83.29828 109.06663
#
# Poissons Ratio (x) = 0.22042 0.47627
# Poissons Ratio (y) = 0.24267 -0.11166
# Poissons Ratio (z) = 0.40046 -0.08528
#
# Static dielectric constant tensor:
#      x y z
#    x 3.947680 0.000000 -0.249670 
#    y 0.000000 -8.585500 0.000000 
#    z -0.249670 0.000000 4.164690 
# 
# 
# High freq. dielectric constant tensor:
#      x y z
#    x 1.873220 0.000000 -0.012320 
#    y 0.000000 1.870800 0.000000 
#    z -0.012320 0.000000 1.875880 
# 
# From -- ./inp_files/28043.got.cif
#   From: 2010.06.25/outbox.cif.g09.slc.cpg/sg15_15_cif.got.tgz:28043.got - 2010.06.28 07:06:18.
