data_PCOD8150853
_publ_section_title
;
Structure prediction by ZEFSAII (Michael W. Deem and Ramdas Pophale) SiO2 
 PCOD8150853
Probable space group: C 2/C
;
_chemical_formula_sum "Si O2"
_cell_formula_units_Z 44
_cell_length_a 18.244675
_cell_length_b 10.898167
_cell_length_c 22.261527
_cell_angle_alpha 90.000000
_cell_angle_beta 23.597748
_cell_angle_gamma 90.000000
_cell_volume 1771.920574
_symmetry_space_group_name_H-M "C 2/C"
_symmetry_group_IT_number 15
_symmetry_cell_setting 'monoclinic'
loop_
_space_group_symop_operation_xyz
x,y,z
-x,y,1/2-z
-x,-y,-z
x,-y,1/2+z
1/2+x,1/2+y,z
1/2-x,1/2+y,1/2-z
1/2-x,1/2-y,-z
1/2+x,1/2-y,1/2+z
loop_
_atom_site_type_symbol
_atom_site_label
_atom_site_fract_x
_atom_site_fract_y
_atom_site_fract_z
Si Si1 0.624591 0.998394 0.014578
Si Si2 0.000000 0.084340 0.250000
Si Si3 0.585687 0.366911 0.429587
Si Si4 0.458153 0.211079 0.345620
Si Si5 0.571816 0.817796 0.259519
Si Si6 0.282347 0.845227 0.157474
O O1 0.504033 0.105406 0.134322
O O2 0.536567 0.868361 0.100113
O O3 0.633837 0.029369 0.936046
O O4 0.827085 0.001911 0.891612
O O5 0.038013 0.170965 0.280129
O O6 0.500000 0.500000 0.500000
O O7 0.711391 0.340119 0.393563
O O8 0.427699 0.265460 0.541879
O O9 0.725453 0.368864 0.268248
O O10 0.500000 0.153565 0.250000
O O11 0.250000 0.250000 0.500000
O O12 0.599768 0.319058 0.255522
O O13 0.500000 0.878029 0.250000
#
# Coordination Sequence:
#
# PCOD8150853 Si02
#       6
#     8   4   8   8   8   8
#     4  12  23  45  77 109 154 203 257 328 395 469
#     4  10  26  46  74 112 148 210 266 328 384 464
#     4  12  29  53  81 115 165 208 255 338 397 479
#     4  12  22  42  73 112 156 198 252 320 383 480
#     4  10  27  50  75 107 157 204 275 321 392 471
#     4  12  27  48  78 119 155 204 270 316 412 476
#
# _framework density 24.831813
#
# number of rings (size 3 to 8) (size 9 to 14) (size 15 to 20)
#    0.545    0.000    3.636    3.273    2.545    5.091 
#    0.000    0.000    0.000    0.000    0.000    0.000 
#    0.000    0.000    0.000    0.000    0.000    0.000 
#
# Total GULP energy -272626.673892 kJ/mol
# GULP energy per Si atom -12392.121541 kJ/mol
# Density = 2.477529 g / cm^3
# Si number density = 24.831813 Si / 1000 Ang^3
#
#
#
# Elastic Constant Matrix: (Units=GPa)
#
#
# Indices 1 2 3 4 5 6 
#
# 1 126.9429 40.8662 64.1607 0.0047 -9.3336 0.0003
# 2 40.8662 72.1069 23.3482 -0.0157 17.1321 0.0006
# 3 64.1607 23.3482 121.7751 -0.0350 5.3425 -0.0033
# 4 0.0047 -0.0157 -0.0350 31.5023 -0.0074 -0.0248
# 5 -9.3336 17.1321 5.3425 -0.0074 62.0240 0.0008
# 6 0.0003 0.0006 -0.0033 -0.0248 0.0008 39.7016
#
#
#
# Elastic Compliance Matrix: (Units=1/GPa)
#
#
# Indices 1 2 3 4 5 6 
#
# 1 0.013355 -0.006681 -0.005947 -0.000011 0.004368 -0.000001
# 2 -0.006681 0.019107 0.000133 0.000009 -0.006295 0.000000
# 3 -0.005947 0.000133 0.011404 0.000013 -0.001914 0.000001
# 4 -0.000011 0.000009 0.000013 0.031744 -0.000002 0.000020
# 5 0.004368 -0.006295 -0.001914 -0.000002 0.018684 0.000000
# 6 -0.000001 0.000000 0.000001 0.000020 0.000000 0.025188
#
#
# Mechanical properties :
#
#
# Convention : Reuss Voigt Hill
#
# Bulk Modulus (GPa) = 52.97895 64.17501 58.57698
# Shear Modulus (GPa) = 33.16420 39.47558 36.31989
#
# Velocity S-wave (km/s) = 3.65849 3.99145 3.82859
# Velocity P-wave (km/s) = 6.26318 6.86602 6.57152
#
# Compressibility (1/GPa) = 0.01887542
#
# Stress axis : x y z
#
# Youngs Moduli (GPa) = 74.87569 52.33593 87.68933
#
# Poissons Ratio (x) = 0.34966 0.52152
# Poissons Ratio (y) = 0.50025 -0.01164
# Poissons Ratio (z) = 0.44531 -0.00695
#
# Static dielectric constant tensor:
#      x y z
#    x 4.478400 0.000020 -0.081050 
#    y 0.000020 4.512140 0.000090 
#    z -0.081050 0.000090 4.642380 
# 
# 
# High freq. dielectric constant tensor:
#      x y z
#    x 1.989250 0.000000 -0.010420 
#    y 0.000000 1.980940 0.000010 
#    z -0.010420 0.000010 2.004710 
# 
# From -- ./inp_files/300808.got.cif
#   From: 2010.06.25/outbox.cif.g09.slc.cpg/sg15_151_cif.got.tgz:300808.got - 2010.06.28 07:06:18.
