data_PCOD8150129
_publ_section_title
;
Structure prediction by ZEFSAII (Michael W. Deem and Ramdas Pophale) SiO2 
 PCOD8150129
Probable space group: C 2/C
;
_chemical_formula_sum "Si O2"
_cell_formula_units_Z 52
_cell_length_a 5.139397
_cell_length_b 18.265769
_cell_length_c 25.709255
_cell_angle_alpha 90.000000
_cell_angle_beta 105.865416
_cell_angle_gamma 90.000000
_cell_volume 2321.520258
_symmetry_space_group_name_H-M "C 2/C"
_symmetry_group_IT_number 15
_symmetry_cell_setting 'monoclinic'
loop_
_space_group_symop_operation_xyz
x,y,z
-x,y,1/2-z
-x,-y,-z
x,-y,1/2+z
1/2+x,1/2+y,z
1/2-x,1/2+y,1/2-z
1/2-x,1/2-y,-z
1/2+x,1/2-y,1/2+z
loop_
_atom_site_type_symbol
_atom_site_label
_atom_site_fract_x
_atom_site_fract_y
_atom_site_fract_z
Si Si1 0.490795 0.201969 0.491756
Si Si2 0.192730 0.600897 0.335051
Si Si3 0.720963 0.668596 0.373300
Si Si4 0.152187 0.049320 0.624636
Si Si5 0.791455 0.696475 0.692087
Si Si6 0.445198 0.053165 0.948433
Si Si7 0.000000 0.296721 0.750000
O O1 0.750000 0.250000 0.500000
O O2 0.426480 0.173082 0.431533
O O3 0.562461 0.136480 0.534063
O O4 0.250000 0.250000 0.500000
O O5 0.459584 0.625684 0.381598
O O6 0.220866 0.513454 0.331177
O O7 0.231271 0.645474 0.282223
O O8 0.896690 0.622538 0.340798
O O9 0.605810 0.747454 0.346745
O O10 0.185991 0.123820 0.658758
O O11 0.311841 0.046059 0.579180
O O12 0.837482 0.034959 0.595272
O O13 0.551478 0.742744 0.704767
O O14 0.000000 0.678483 0.750000
O O15 0.500000 0.000000 0.000000
#
# Coordination Sequence:
#
# PCOD8150129 Si02
#       7
#     8   8   8   8   8   8   4
#     4  12  24  41  68 100 132 176 226 281 331 401
#     4  11  23  43  66  93 128 174 229 263 331 401
#     4  11  23  43  67  94 131 176 225 271 330 403
#     4  12  27  43  71 104 140 182 227 289 344 420
#     4  11  24  44  67 100 139 177 225 286 350 397
#     4  12  26  48  69 102 143 182 229 285 355 407
#     4  10  24  44  68  96 132 188 224 284 332 414
#
# _framework density 22.399113
#
# number of rings (size 3 to 8) (size 9 to 14) (size 15 to 20)
#    0.000    0.615    1.538    6.923    3.231    1.231 
#    0.000    0.000    0.000    0.000    0.000    0.000 
#    0.000    0.000    0.000    0.000    0.000    0.000 
#
# Total GULP energy -322167.864039 kJ/mol
# GULP energy per Si atom -12391.071694 kJ/mol
# Density = 2.234813 g / cm^3
# Si number density = 22.399113 Si / 1000 Ang^3
#
#
#
# Elastic Constant Matrix: (Units=GPa)
#
#
# Indices 1 2 3 4 5 6 
#
# 1 106.0181 35.2998 14.5496 0.0000 5.4865 0.0000
# 2 35.2998 170.4853 41.1051 0.0000 0.3363 0.0000
# 3 14.5496 41.1051 86.3353 0.0000 6.0461 0.0000
# 4 0.0000 0.0000 0.0000 59.1014 0.0000 4.3485
# 5 5.4865 0.3363 6.0461 0.0000 36.4363 0.0000
# 6 0.0000 0.0000 0.0000 4.3485 0.0000 33.4159
#
#
#
# Elastic Compliance Matrix: (Units=1/GPa)
#
#
# Indices 1 2 3 4 5 6 
#
# 1 0.010251 -0.001951 -0.000700 0.000000 -0.001409 0.000000
# 2 -0.001951 0.007005 -0.003058 0.000000 0.000737 0.000000
# 3 -0.000700 -0.003058 0.013302 0.000000 -0.002074 0.000000
# 4 0.000000 0.000000 0.000000 0.017084 0.000000 -0.002223
# 5 -0.001409 0.000737 -0.002074 0.000000 0.027995 0.000000
# 6 0.000000 0.000000 0.000000 -0.002223 0.000000 0.030215
#
#
# Mechanical properties :
#
#
# Convention : Reuss Voigt Hill
#
# Bulk Modulus (GPa) = 52.24614 60.52755 56.38685
# Shear Modulus (GPa) = 40.43669 43.91633 42.17651
#
# Velocity S-wave (km/s) = 4.25347 4.43270 4.34401
# Velocity P-wave (km/s) = 6.89191 7.29928 7.09851
#
# Compressibility (1/GPa) = 0.01914017
#
# Stress axis : x y z
#
# Youngs Moduli (GPa) = 97.55200 142.74585 75.17691
#
# Poissons Ratio (x) = 0.27849 0.05262
# Poissons Ratio (y) = 0.19032 0.22990
# Poissons Ratio (z) = 0.06828 0.43654
#
# Static dielectric constant tensor:
#      x y z
#    x 4.094550 0.000000 0.136920 
#    y 0.000000 4.251450 0.000000 
#    z 0.136920 0.000000 4.475150 
# 
# 
# High freq. dielectric constant tensor:
#      x y z
#    x 1.884690 0.000000 0.009520 
#    y 0.000000 1.899140 0.000000 
#    z 0.009520 0.000000 1.887280 
# 
# From -- ./inp_files/285910.got.cif
#   From: 2010.06.25/outbox.cif.g09.slc.cpg/sg15_143_cif.got.tgz:285910.got - 2010.06.28 07:06:18.
