data_PCOD8150975
_publ_section_title
;
Structure prediction by ZEFSAII (Michael W. Deem and Ramdas Pophale) SiO2 
 PCOD8150975
Probable space group: C 2/C
;
_chemical_formula_sum "Si O2"
_cell_formula_units_Z 64
_cell_length_a 8.453337
_cell_length_b 19.152464
_cell_length_c 19.882060
_cell_angle_alpha 90.000000
_cell_angle_beta 97.916793
_cell_angle_gamma 90.000000
_cell_volume 3188.270530
_symmetry_space_group_name_H-M "C 2/C"
_symmetry_group_IT_number 15
_symmetry_cell_setting 'monoclinic'
loop_
_space_group_symop_operation_xyz
x,y,z
-x,y,1/2-z
-x,-y,-z
x,-y,1/2+z
1/2+x,1/2+y,z
1/2-x,1/2+y,1/2-z
1/2-x,1/2-y,-z
1/2+x,1/2-y,1/2+z
loop_
_atom_site_type_symbol
_atom_site_label
_atom_site_fract_x
_atom_site_fract_y
_atom_site_fract_z
Si Si1 0.345841 0.001773 0.535752
Si Si2 0.331389 0.355082 0.987710
Si Si3 0.059561 0.077262 0.182853
Si Si4 0.149902 0.891982 0.942573
Si Si5 0.335453 0.261551 0.108595
Si Si6 0.418952 0.961038 0.678703
Si Si7 0.644419 0.274495 0.721109
Si Si8 0.123869 0.326191 0.650753
O O1 0.241052 0.931651 0.525298
O O2 0.415998 0.013693 0.615218
O O3 0.500000 0.000000 0.500000
O O4 0.236791 0.065515 0.506376
O O5 0.323590 0.332853 0.065605
O O6 0.513266 0.348331 0.972768
O O7 0.226334 0.303734 0.937279
O O8 0.235017 0.051154 0.181928
O O9 0.054514 0.161608 0.178791
O O10 0.000000 0.046366 0.250000
O O11 0.935563 0.055270 0.116424
O O12 0.277024 0.842857 0.911249
O O13 0.236527 0.272920 0.172143
O O14 0.519981 0.243689 0.134325
O O15 0.500000 0.994798 0.750000
O O16 0.510201 0.890262 0.664476
O O17 0.500000 0.231561 0.750000
O O18 0.763910 0.311146 0.779836
#
# Coordination Sequence:
#
# PCOD8150975 Si02
#       8
#     8   8   8   8   8   8   8   8
#     4  12  24  40  63  89 125 165 202 258 316 366
#     4  11  23  38  57  84 123 163 192 244 312 370
#     4  11  19  31  56  92 119 149 197 261 311 346
#     4  12  21  37  59  91 128 157 208 253 306 369
#     4  11  21  37  57  87 122 152 197 249 308 370
#     4  12  20  35  57  90 120 152 206 257 308 357
#     4  11  18  32  58  90 115 149 199 261 309 343
#     4  12  19  33  61  91 118 151 205 257 300 355
#
# _framework density 20.07358
#
# number of rings (size 3 to 8) (size 9 to 14) (size 15 to 20)
#    0.000    0.500   10.000    0.750    0.000    0.500 
#    0.000    1.250    0.000    5.250    0.000    0.000 
#    0.000    0.000    0.000    0.000    0.000    0.000 
#
# Total GULP energy -396642.480522 kJ/mol
# GULP energy per Si atom -12395.077516 kJ/mol
# Density = 2.002789 g / cm^3
# Si number density = 20.073580 Si / 1000 Ang^3
#
#
#
# Elastic Constant Matrix: (Units=GPa)
#
#
# Indices 1 2 3 4 5 6 
#
# 1 117.9523 1.9256 52.0340 0.0000 -18.6101 0.0000
# 2 1.9256 17.7618 26.7977 0.0000 -1.1860 0.0000
# 3 52.0340 26.7977 162.1202 0.0000 -7.2310 0.0000
# 4 0.0000 0.0000 0.0000 26.7857 0.0000 1.0352
# 5 -18.6101 -1.1860 -7.2310 0.0000 48.6584 0.0000
# 6 0.0000 0.0000 0.0000 1.0352 0.0000 9.1805
#
#
#
# Elastic Compliance Matrix: (Units=1/GPa)
#
#
# Indices 1 2 3 4 5 6 
#
# 1 0.010820 0.005415 -0.004205 0.000000 0.003645 0.000000
# 2 0.005415 0.077716 -0.014503 0.000000 0.001810 0.000000
# 3 -0.004205 -0.014503 0.009893 0.000000 -0.000492 0.000000
# 4 0.000000 0.000000 0.000000 0.037497 0.000000 -0.004228
# 5 0.003645 0.001810 -0.000492 0.000000 0.021917 0.000000
# 6 0.000000 0.000000 0.000000 -0.004228 0.000000 0.109403
#
#
# Mechanical properties :
#
#
# Convention : Reuss Voigt Hill
#
# Bulk Modulus (GPa) = 13.91946 51.03876 32.47911
# Shear Modulus (GPa) = 15.73415 31.39672 23.56543
#
# Velocity S-wave (km/s) = 2.80272 3.95914 3.43002
# Velocity P-wave (km/s) = 4.17408 6.81034 5.64817
#
# Compressibility (1/GPa) = 0.07184189
#
# Stress axis : x y z
#
# Youngs Moduli (GPa) = 92.42277 12.86738 101.07792
#
# Poissons Ratio (x) = -0.06968 0.42505
# Poissons Ratio (y) = -0.50046 1.46596
# Poissons Ratio (z) = 0.38866 0.18662
#
# Static dielectric constant tensor:
#      x y z
#    x 3.892470 0.000000 -0.347930 
#    y 0.000000 3.013540 0.000000 
#    z -0.347930 0.000000 3.431360 
# 
# 
# High freq. dielectric constant tensor:
#      x y z
#    x 1.815060 0.000000 -0.003850 
#    y 0.000000 1.702320 0.000000 
#    z -0.003850 0.000000 1.806360 
# 
# From -- ./inp_files/233525.got.cif
#   From: 2010.06.25/outbox.cif.g09.slc.cpg/sg15_117_cif.got.tgz:233525.got - 2010.06.28 07:06:18.
