data_PCOD8150574
_publ_section_title
;
Structure prediction by ZEFSAII (Michael W. Deem and Ramdas Pophale) SiO2 
 PCOD8150574
Probable space group: C 2/C
;
_chemical_formula_sum "Si O2"
_cell_formula_units_Z 44
_cell_length_a 17.342779
_cell_length_b 17.664024
_cell_length_c 7.840086
_cell_angle_alpha 90.000000
_cell_angle_beta 128.790861
_cell_angle_gamma 90.000000
_cell_volume 1872.020857
_symmetry_space_group_name_H-M "C 2/C"
_symmetry_group_IT_number 15
_symmetry_cell_setting 'monoclinic'
loop_
_space_group_symop_operation_xyz
x,y,z
-x,y,1/2-z
-x,-y,-z
x,-y,1/2+z
1/2+x,1/2+y,z
1/2-x,1/2+y,1/2-z
1/2-x,1/2-y,-z
1/2+x,1/2-y,1/2+z
loop_
_atom_site_type_symbol
_atom_site_label
_atom_site_fract_x
_atom_site_fract_y
_atom_site_fract_z
Si Si1 0.368410 0.224062 0.995697
Si Si2 0.072056 0.884540 0.505642
Si Si3 0.291126 0.077672 0.247036
Si Si4 0.000000 0.843079 0.750000
Si Si5 0.106487 0.563728 0.454185
Si Si6 0.147285 0.261976 0.645078
O O1 0.410305 0.294675 0.950600
O O2 0.250619 0.220534 0.820508
O O3 0.409972 0.144738 0.973189
O O4 0.406822 0.234933 0.245186
O O5 0.174157 0.929727 0.617985
O O6 0.026842 0.900946 0.631052
O O7 0.000000 0.906638 0.250000
O O8 0.314042 0.087066 0.079692
O O9 0.334978 0.152211 0.402635
O O10 0.345424 0.000211 0.365509
O O11 0.910409 0.788016 0.571981
O O12 0.000000 0.531700 0.250000
#
# Coordination Sequence:
#
# PCOD8150574 Si02
#       6
#     8   8   8   4   8   8
#     4   9  19  40  68  91 138 173 215 279 349 385
#     4  11  23  45  70 102 138 176 225 287 336 400
#     4  10  25  43  64  98 141 177 221 281 339 400
#     4  12  24  34  74 106 128 176 236 276 336 406
#     4  11  23  40  69  99 129 184 219 276 343 413
#     4   9  20  38  63 101 130 175 221 278 333 399
#
# _framework density 23.504011999999999
#
# number of rings (size 3 to 8) (size 9 to 14) (size 15 to 20)
#    0.000    1.818    1.818    2.182    3.818    5.818 
#    0.000    0.909    2.000    0.000    0.000    0.000 
#    0.000    0.000    0.000    0.000    0.000    0.000 
#
# Total GULP energy -272681.532851 kJ/mol
# GULP energy per Si atom -12394.615130 kJ/mol
# Density = 2.345052 g / cm^3
# Si number density = 23.504012 Si / 1000 Ang^3
#
#
#
# Elastic Constant Matrix: (Units=GPa)
#
#
# Indices 1 2 3 4 5 6 
#
# 1 85.3928 -7.3662 18.9209 0.0000 -4.3972 0.0000
# 2 -7.3662 69.0918 15.9827 0.0000 7.2218 0.0000
# 3 18.9209 15.9827 98.8670 0.0000 2.6098 0.0000
# 4 0.0000 0.0000 0.0000 17.1969 0.0000 4.9490
# 5 -4.3972 7.2218 2.6098 0.0000 35.3346 0.0000
# 6 0.0000 0.0000 0.0000 4.9490 0.0000 23.5187
#
#
#
# Elastic Compliance Matrix: (Units=1/GPa)
#
#
# Indices 1 2 3 4 5 6 
#
# 1 0.012545 0.001824 -0.002732 0.000000 0.001390 0.000000
# 2 0.001824 0.015603 -0.002799 0.000000 -0.002755 0.000000
# 3 -0.002732 -0.002799 0.011106 0.000000 -0.000588 0.000000
# 4 0.000000 0.000000 0.000000 0.061899 0.000000 -0.013025
# 5 0.001390 -0.002755 -0.000588 0.000000 0.029080 0.000000
# 6 0.000000 0.000000 0.000000 -0.013025 0.000000 0.045260
#
#
# Mechanical properties :
#
#
# Convention : Reuss Voigt Hill
#
# Bulk Modulus (GPa) = 31.40709 34.26959 32.83834
# Shear Modulus (GPa) = 25.83707 30.26432 28.05069
#
# Velocity S-wave (km/s) = 3.31911 3.59224 3.45837
# Velocity P-wave (km/s) = 5.29907 5.64070 5.47255
#
# Compressibility (1/GPa) = 0.03183995
#
# Stress axis : x y z
#
# Youngs Moduli (GPa) = 79.71323 64.08844 90.04545
#
# Poissons Ratio (x) = -0.11691 0.24604
# Poissons Ratio (y) = -0.14542 0.25202
# Poissons Ratio (z) = 0.21781 0.17937
#
# Static dielectric constant tensor:
#      x y z
#    x 4.317830 0.000000 0.182230 
#    y 0.000000 4.324230 0.000000 
#    z 0.182230 0.000000 4.059000 
# 
# 
# High freq. dielectric constant tensor:
#      x y z
#    x 1.931550 0.000000 0.021440 
#    y 0.000000 1.924400 0.000000 
#    z 0.021440 0.000000 1.915240 
# 
# From -- ./inp_files/49268.got.cif
#   From: 2010.06.25/outbox.cif.g09.slc.cpg/sg15_25_cif.got.tgz:49268.got - 2010.06.28 07:06:18.
