data_PCOD8150867
_publ_section_title
;
Structure prediction by ZEFSAII (Michael W. Deem and Ramdas Pophale) SiO2 
 PCOD8150867
Probable space group: C 2/C
;
_chemical_formula_sum "Si O2"
_cell_formula_units_Z 28
_cell_length_a 12.482476
_cell_length_b 18.007026
_cell_length_c 6.374192
_cell_angle_alpha 90.000000
_cell_angle_beta 44.975212
_cell_angle_gamma 90.000000
_cell_volume 1012.662909
_symmetry_space_group_name_H-M "C 2/C"
_symmetry_group_IT_number 15
_symmetry_cell_setting 'monoclinic'
loop_
_space_group_symop_operation_xyz
x,y,z
-x,y,1/2-z
-x,-y,-z
x,-y,1/2+z
1/2+x,1/2+y,z
1/2-x,1/2+y,1/2-z
1/2-x,1/2-y,-z
1/2+x,1/2-y,1/2+z
loop_
_atom_site_type_symbol
_atom_site_label
_atom_site_fract_x
_atom_site_fract_y
_atom_site_fract_z
Si Si1 0.166276 0.066517 0.095437
Si Si2 0.500000 0.717189 0.750000
Si Si3 0.950441 0.351975 0.077627
Si Si4 0.268959 0.399042 0.532940
O O1 0.196637 0.107899 0.267795
O O2 0.000000 0.087202 0.250000
O O3 0.296907 0.097258 0.751495
O O4 0.179156 0.978812 0.127389
O O5 0.577983 0.768047 0.459977
O O6 0.625842 0.667704 0.698491
O O7 0.000000 0.356045 0.250000
O O8 0.090367 0.384419 0.742052
#
# Coordination Sequence:
#
# PCOD8150867 Si02
#       4
#     8   4   8   8
#     4  11  24  44  72 104 139 183 234 289 344 414
#     4  12  26  44  74 104 144 182 230 290 354 412
#     4  10  26  47  71 104 141 185 234 287 348 415
#     4  11  25  45  71 106 139 183 236 285 350 413
#
# _framework density 27.649871999999998
#
# number of rings (size 3 to 8) (size 9 to 14) (size 15 to 20)
#    0.000    1.143    1.429    2.571    4.000    8.000 
#    0.000    0.000    0.000    0.000    0.000    0.000 
#    0.000    0.000    0.000    0.000    0.000    0.000 
#
# Total GULP energy -173704.033019 kJ/mol
# GULP energy per Si atom -12407.430930 kJ/mol
# Density = 2.758694 g / cm^3
# Si number density = 27.649872 Si / 1000 Ang^3
#
#
#
# Elastic Constant Matrix: (Units=GPa)
#
#
# Indices 1 2 3 4 5 6 
#
# 1 137.0828 56.0083 67.0745 0.0000 -66.1880 0.0000
# 2 56.0083 167.1829 66.3468 0.0000 -29.2868 0.0000
# 3 67.0745 66.3468 133.3010 0.0000 -42.3699 0.0000
# 4 0.0000 0.0000 0.0000 54.1553 0.0000 -7.3426
# 5 -66.1880 -29.2868 -42.3699 0.0000 52.0264 0.0000
# 6 0.0000 0.0000 0.0000 -7.3426 0.0000 35.3865
#
#
#
# Elastic Compliance Matrix: (Units=1/GPa)
#
#
# Indices 1 2 3 4 5 6 
#
# 1 0.020068 -0.001983 -0.001823 0.000000 0.022931 0.000000
# 2 -0.001983 0.007748 -0.003068 0.000000 -0.000660 0.000000
# 3 -0.001823 -0.003068 0.011685 0.000000 0.005470 0.000000
# 4 0.000000 0.000000 0.000000 0.019000 0.000000 0.003942
# 5 0.022931 -0.000660 0.005470 0.000000 0.052476 0.000000
# 6 0.000000 0.000000 0.000000 0.003942 0.000000 0.029077
#
#
# Mechanical properties :
#
#
# Convention : Reuss Voigt Hill
#
# Bulk Modulus (GPa) = 38.82995 90.71399 64.77197
# Shear Modulus (GPa) = 30.79067 44.85609 37.82338
#
# Velocity S-wave (km/s) = 3.34067 4.03213 3.70258
# Velocity P-wave (km/s) = 5.38090 7.38626 6.46184
#
# Compressibility (1/GPa) = 0.02575332
#
# Stress axis : x y z
#
# Youngs Moduli (GPa) = 49.82954 129.06886 85.58181
#
# Poissons Ratio (x) = 0.25594 0.15598
# Poissons Ratio (y) = 0.09881 0.26259
# Poissons Ratio (z) = 0.09082 0.39602
#
# Static dielectric constant tensor:
#      x y z
#    x 5.479020 0.000000 -0.000290 
#    y 0.000000 4.718740 0.000000 
#    z -0.000290 0.000000 5.581140 
# 
# 
# High freq. dielectric constant tensor:
#      x y z
#    x 2.171600 0.000000 0.010890 
#    y 0.000000 2.103440 0.000000 
#    z 0.010890 0.000000 2.134900 
# 
# From -- ./inp_files/22468.got.cif
#   From: 2010.06.25/outbox.cif.g09.slc.cpg/sg15_12_cif.got.tgz:22468.got - 2010.06.28 07:06:18.
