data_PCOD8150255
_publ_section_title
;
Structure prediction by ZEFSAII (Michael W. Deem and Ramdas Pophale) SiO2 
 PCOD8150255
Probable space group: C 2/C
;
_chemical_formula_sum "Si O2"
_cell_formula_units_Z 48
_cell_length_a 27.923137
_cell_length_b 6.744233
_cell_length_c 13.290161
_cell_angle_alpha 90.000000
_cell_angle_beta 117.274496
_cell_angle_gamma 90.000000
_cell_volume 2224.546407
_symmetry_space_group_name_H-M "C 2/C"
_symmetry_group_IT_number 15
_symmetry_cell_setting 'monoclinic'
loop_
_space_group_symop_operation_xyz
x,y,z
-x,y,1/2-z
-x,-y,-z
x,-y,1/2+z
1/2+x,1/2+y,z
1/2-x,1/2+y,1/2-z
1/2-x,1/2-y,-z
1/2+x,1/2-y,1/2+z
loop_
_atom_site_type_symbol
_atom_site_label
_atom_site_fract_x
_atom_site_fract_y
_atom_site_fract_z
Si Si1 0.028562 0.204923 0.053443
Si Si2 0.665780 0.022361 0.184157
Si Si3 0.567053 0.963312 0.458244
Si Si4 0.760103 0.751564 0.853111
Si Si5 0.287560 0.561874 0.041694
Si Si6 0.611670 0.201409 0.799766
O O1 0.073889 0.183233 0.183573
O O2 0.984475 0.343460 0.059559
O O3 0.054582 0.306088 0.977550
O O4 0.000000 0.000000 0.000000
O O5 0.687946 0.819539 0.157686
O O6 0.645427 0.971380 0.276680
O O7 0.713420 0.181715 0.231926
O O8 0.618563 0.112965 0.070564
O O9 0.578302 0.922311 0.351598
O O10 0.733910 0.574981 0.890276
O O11 0.782667 0.938364 0.935268
O O12 0.349331 0.631335 0.115893
O O13 0.250000 0.750000 0.000000
#
# Coordination Sequence:
#
# PCOD8150255 Si02
#       6
#     8   8   8   8   8   8
#     4  10  24  48  72 100 131 177 233 283 352 416
#     4  11  24  41  68  96 141 183 227 279 344 401
#     4  10  24  45  68  98 139 169 224 294 343 407
#     4  11  25  41  64  99 141 189 229 278 338 415
#     4  11  23  43  65  97 140 180 236 281 337 409
#     4  11  23  43  70 101 135 180 229 291 345 406
#
# _framework density 21.577431000000001
#
# number of rings (size 3 to 8) (size 9 to 14) (size 15 to 20)
#    0.000    1.333    1.667    2.500    7.000    2.667 
#    0.000    6.667    0.000    0.000    0.000    0.000 
#    0.000    0.000    0.000    0.000    0.000    0.000 
#
# Total GULP energy -297567.038016 kJ/mol
# GULP energy per Si atom -12398.626584 kJ/mol
# Density = 2.152832 g / cm^3
# Si number density = 21.577431 Si / 1000 Ang^3
#
#
#
# Elastic Constant Matrix: (Units=GPa)
#
#
# Indices 1 2 3 4 5 6 
#
# 1 106.3828 31.0789 41.4633 0.0000 -4.9833 0.0000
# 2 31.0789 105.8202 48.5444 0.0000 0.1801 0.0000
# 3 41.4633 48.5444 97.3777 0.0000 11.8862 0.0000
# 4 0.0000 0.0000 0.0000 38.4525 0.0000 10.9393
# 5 -4.9833 0.1801 11.8862 0.0000 52.6151 0.0000
# 6 0.0000 0.0000 0.0000 10.9393 0.0000 6.3432
#
#
#
# Elastic Compliance Matrix: (Units=1/GPa)
#
#
# Indices 1 2 3 4 5 6 
#
# 1 0.011670 -0.001338 -0.004563 0.000000 0.002141 0.000000
# 2 -0.001338 0.012503 -0.005803 0.000000 0.001141 0.000000
# 3 -0.004563 -0.005803 0.015585 0.000000 -0.003933 0.000000
# 4 0.000000 0.000000 0.000000 0.051055 0.000000 -0.088049
# 5 0.002141 0.001141 -0.003933 0.000000 0.020093 0.000000
# 6 0.000000 0.000000 0.000000 -0.088049 0.000000 0.309498
#
#
# Mechanical properties :
#
#
# Convention : Reuss Voigt Hill
#
# Bulk Modulus (GPa) = 61.16049 61.30598 61.23323
# Shear Modulus (GPa) = 11.12938 32.04843 21.58891
#
# Velocity S-wave (km/s) = 2.27356 3.85811 3.16655
# Velocity P-wave (km/s) = 5.94124 6.95129 6.46602
#
# Compressibility (1/GPa) = 0.01635042
#
# Stress axis : x y z
#
# Youngs Moduli (GPa) = 85.69223 79.98196 64.16330
#
# Poissons Ratio (x) = 0.10698 0.29281
# Poissons Ratio (y) = 0.11461 0.37232
# Poissons Ratio (z) = 0.39105 0.46411
#
# Static dielectric constant tensor:
#      x y z
#    x 4.711060 0.000000 -0.026660 
#    y 0.000000 4.261000 0.000000 
#    z -0.026660 0.000000 4.106090 
# 
# 
# High freq. dielectric constant tensor:
#      x y z
#    x 1.862890 0.000000 0.007100 
#    y 0.000000 1.837160 0.000000 
#    z 0.007100 0.000000 1.857640 
# 
# From -- ./inp_files/180223.got.cif
#   From: 2010.06.25/outbox.cif.g09.slc.cpg/sg15_91_cif.got.tgz:180223.got - 2010.06.28 07:06:18.
