data_PCOD8150450
_publ_section_title
;
Structure prediction by ZEFSAII (Michael W. Deem and Ramdas Pophale) SiO2 
 PCOD8150450
Probable space group: C 2/C
;
_chemical_formula_sum "Si O2"
_cell_formula_units_Z 40
_cell_length_a 14.594755
_cell_length_b 5.477874
_cell_length_c 20.346976
_cell_angle_alpha 90.000000
_cell_angle_beta 76.247494
_cell_angle_gamma 90.000000
_cell_volume 1580.069794
_symmetry_space_group_name_H-M "C 2/C"
_symmetry_group_IT_number 15
_symmetry_cell_setting 'monoclinic'
loop_
_space_group_symop_operation_xyz
x,y,z
-x,y,1/2-z
-x,-y,-z
x,-y,1/2+z
1/2+x,1/2+y,z
1/2-x,1/2+y,1/2-z
1/2-x,1/2-y,-z
1/2+x,1/2-y,1/2+z
loop_
_atom_site_type_symbol
_atom_site_label
_atom_site_fract_x
_atom_site_fract_y
_atom_site_fract_z
Si Si1 0.862558 0.260943 0.404609
Si Si2 0.048729 0.896806 0.927065
Si Si3 0.698515 0.942367 0.463546
Si Si4 0.863052 0.083571 0.707101
Si Si5 0.353745 0.078631 0.767269
O O1 0.849417 0.364414 0.479995
O O2 0.857657 0.450944 0.345739
O O3 0.967811 0.156635 0.387676
O O4 0.780045 0.062016 0.404484
O O5 0.115781 0.667846 0.932661
O O6 0.114304 0.087579 0.875596
O O7 0.000000 0.000000 0.000000
O O8 0.750000 0.750000 0.500000
O O9 0.752494 0.084272 0.740151
O O10 0.905570 0.335428 0.730055
O O11 0.903173 0.832374 0.734215
#
# Coordination Sequence:
#
# PCOD8150450 Si02
#       5
#     8   8   8   8   8
#     4  11  26  44  74 111 148 204 251 322 386 461
#     4  12  26  46  74 115 150 198 254 322 389 467
#     4  11  24  45  74 107 153 198 253 309 386 469
#     4  10  25  46  77 106 143 200 250 308 375 456
#     4  10  24  47  78 103 145 202 250 306 377 451
#
# _framework density 25.315339999999999
#
# number of rings (size 3 to 8) (size 9 to 14) (size 15 to 20)
#    0.000    1.200    2.000    1.800   14.000    2.400 
#    0.000    2.000    0.000    0.000    0.000    0.000 
#    0.000    0.000    0.000    0.000    0.000    0.000 
#
# Total GULP energy -247901.932663 kJ/mol
# GULP energy per Si atom -12395.096633 kJ/mol
# Density = 2.525772 g / cm^3
# Si number density = 25.315340 Si / 1000 Ang^3
#
#
#
# Elastic Constant Matrix: (Units=GPa)
#
#
# Indices 1 2 3 4 5 6 
#
# 1 109.7596 43.3646 30.5509 0.0001 -1.1771 0.0002
# 2 43.3646 177.0019 69.9090 0.0004 -1.5045 0.0011
# 3 30.5509 69.9090 143.1805 0.0002 0.3964 0.0002
# 4 0.0001 0.0004 0.0002 43.8110 0.0002 13.4189
# 5 -1.1771 -1.5045 0.3964 0.0002 31.2621 0.0004
# 6 0.0002 0.0011 0.0002 13.4189 0.0004 24.2990
#
#
#
# Elastic Compliance Matrix: (Units=1/GPa)
#
#
# Indices 1 2 3 4 5 6 
#
# 1 0.010251 -0.002038 -0.001193 0.000000 0.000303 0.000000
# 2 -0.002038 0.007409 -0.003184 0.000000 0.000320 0.000000
# 3 -0.001193 -0.003184 0.008794 0.000000 -0.000310 0.000000
# 4 0.000000 0.000000 0.000000 0.027472 0.000000 -0.015171
# 5 0.000303 0.000320 -0.000310 0.000000 0.032018 0.000000
# 6 0.000000 0.000000 0.000000 -0.015171 0.000000 0.049532
#
#
# Mechanical properties :
#
#
# Convention : Reuss Voigt Hill
#
# Bulk Modulus (GPa) = 73.39303 79.73233 76.56268
# Shear Modulus (GPa) = 32.71231 38.94892 35.83061
#
# Velocity S-wave (km/s) = 3.59861 3.92669 3.76622
# Velocity P-wave (km/s) = 6.80596 7.21960 7.01583
#
# Compressibility (1/GPa) = 0.01362527
#
# Stress axis : x y z
#
# Youngs Moduli (GPa) = 97.54901 134.97108 113.71269
#
# Poissons Ratio (x) = 0.27502 0.13569
# Poissons Ratio (y) = 0.19877 0.36202
# Poissons Ratio (z) = 0.11641 0.42970
#
# Static dielectric constant tensor:
#      x y z
#    x 4.308790 0.000010 0.004510 
#    y 0.000010 4.582330 -0.000010 
#    z 0.004510 -0.000010 4.354200 
# 
# 
# High freq. dielectric constant tensor:
#      x y z
#    x 2.008270 0.000000 -0.006300 
#    y 0.000000 2.003150 0.000000 
#    z -0.006300 0.000000 2.019400 
# 
# From -- ./inp_files/271835.got.cif
#   From: 2010.06.25/outbox.cif.g09.slc.cpg/sg15_136_cif.got.tgz:271835.got - 2010.06.28 07:06:18.
