data_PCOD8150792
_publ_section_title
;
Structure prediction by ZEFSAII (Michael W. Deem and Ramdas Pophale) SiO2 
 PCOD8150792
Probable space group: C 2/C
;
_chemical_formula_sum "Si O2"
_cell_formula_units_Z 44
_cell_length_a 20.764306
_cell_length_b 10.614722
_cell_length_c 9.265044
_cell_angle_alpha 90.000000
_cell_angle_beta 102.826392
_cell_angle_gamma 90.000000
_cell_volume 1991.127957
_symmetry_space_group_name_H-M "C 2/C"
_symmetry_group_IT_number 15
_symmetry_cell_setting 'monoclinic'
loop_
_space_group_symop_operation_xyz
x,y,z
-x,y,1/2-z
-x,-y,-z
x,-y,1/2+z
1/2+x,1/2+y,z
1/2-x,1/2+y,1/2-z
1/2-x,1/2-y,-z
1/2+x,1/2-y,1/2+z
loop_
_atom_site_type_symbol
_atom_site_label
_atom_site_fract_x
_atom_site_fract_y
_atom_site_fract_z
Si Si1 0.773716 0.687724 0.864861
Si Si2 0.000167 0.842712 0.095467
Si Si3 0.894082 0.962505 0.512790
Si Si4 0.925944 0.365631 0.445255
Si Si5 0.805886 0.929938 0.734995
Si Si6 0.500000 0.989289 0.750000
O O1 0.847974 0.640913 0.920767
O O2 0.764951 0.798767 0.738328
O O3 0.734286 0.560336 0.804167
O O4 0.750000 0.750000 0.000000
O O5 0.000000 0.769606 0.250000
O O6 0.076577 0.857110 0.082363
O O7 0.959002 0.771931 0.951276
O O8 0.960384 0.972048 0.107822
O O9 0.852700 0.902603 0.621943
O O10 0.847775 0.057983 0.402278
O O11 0.943714 0.433470 0.305693
O O12 0.958086 0.420006 0.606544
#
# Coordination Sequence:
#
# PCOD8150792 Si02
#       6
#     8   8   8   8   8   4
#     4  12  28  48  74 101 149 190 240 294 351 422
#     4  11  21  39  72 103 137 175 220 304 359 410
#     4  11  24  41  70 104 136 176 238 288 359 415
#     4  11  24  45  69  99 141 180 235 282 359 419
#     4  12  25  49  70 105 141 194 237 292 352 423
#     4  10  26  44  68 102 136 188 224 288 354 432
#
# _framework density 22.098027999999999
#
# number of rings (size 3 to 8) (size 9 to 14) (size 15 to 20)
#    0.000    0.727    6.364    0.000    5.091    0.727 
#    3.273    0.000    0.000    0.000    0.000    0.000 
#    0.000    0.000    0.000    0.000    0.000    0.000 
#
# Total GULP energy -272555.643153 kJ/mol
# GULP energy per Si atom -12388.892871 kJ/mol
# Density = 2.204773 g / cm^3
# Si number density = 22.098028 Si / 1000 Ang^3
#
#
#
# Elastic Constant Matrix: (Units=GPa)
#
#
# Indices 1 2 3 4 5 6 
#
# 1 148.5603 63.8053 48.5727 0.0000 -25.1936 0.0000
# 2 63.8053 105.2795 35.5634 0.0000 -14.4367 0.0000
# 3 48.5727 35.5634 104.8685 0.0000 -26.5805 0.0000
# 4 0.0000 0.0000 0.0000 -87.8697 0.0000 -1.8733
# 5 -25.1936 -14.4367 -26.5805 0.0000 45.1494 0.0000
# 6 0.0000 0.0000 0.0000 -1.8733 0.0000 30.7936
#
#
#
# Elastic Compliance Matrix: (Units=1/GPa)
#
#
# Indices 1 2 3 4 5 6 
#
# 1 0.010067 -0.004956 -0.002304 0.000000 0.002676 0.000000
# 2 -0.004956 0.013256 -0.002147 0.000000 0.000209 0.000000
# 3 -0.002304 -0.002147 0.012731 0.000000 0.005523 0.000000
# 4 0.000000 0.000000 0.000000 -0.011366 0.000000 -0.000691
# 5 0.002676 0.000209 0.005523 0.000000 0.026961 0.000000
# 6 0.000000 0.000000 0.000000 -0.000691 0.000000 0.032432
#
#
# Mechanical properties :
#
#
# Convention : Reuss Voigt Hill
#
# Bulk Modulus (GPa) = 58.00272 72.73236 65.36754
# Shear Modulus (GPa) = 46.02335 11.66578 28.84457
#
# Velocity S-wave (km/s) = 4.56860 2.30012 3.61681
# Velocity P-wave (km/s) = 7.35761 6.32764 6.86198
#
# Compressibility (1/GPa) = 0.01724057
#
# Stress axis : x y z
#
# Youngs Moduli (GPa) = 99.33568 75.43755 78.55022
#
# Poissons Ratio (x) = 0.37386 0.18096
# Poissons Ratio (y) = 0.49230 0.16864
# Poissons Ratio (z) = 0.22884 0.16196
#
# Static dielectric constant tensor:
#      x y z
#    x 3.989480 0.000000 -0.135460 
#    y 0.000000 4.177540 0.000000 
#    z -0.135460 0.000000 4.091980 
# 
# 
# High freq. dielectric constant tensor:
#      x y z
#    x 1.874250 0.000000 -0.011300 
#    y 0.000000 1.869140 0.000000 
#    z -0.011300 0.000000 1.875930 
# 
# From -- ./inp_files/54484.got.cif
#   From: 2010.06.25/outbox.cif.g09.slc.cpg/sg15_28_cif.got.tgz:54484.got - 2010.06.28 07:06:18.
