data_PCOD8150315
_publ_section_title
;
Structure prediction by ZEFSAII (Michael W. Deem and Ramdas Pophale) SiO2 
 PCOD8150315
Probable space group: C 2/C
;
_chemical_formula_sum "Si O2"
_cell_formula_units_Z 36
_cell_length_a 23.073260
_cell_length_b 11.919606
_cell_length_c 9.025567
_cell_angle_alpha 90.000000
_cell_angle_beta 38.524663
_cell_angle_gamma 90.000000
_cell_volume 1546.072433
_symmetry_space_group_name_H-M "C 2/C"
_symmetry_group_IT_number 15
_symmetry_cell_setting 'monoclinic'
loop_
_space_group_symop_operation_xyz
x,y,z
-x,y,1/2-z
-x,-y,-z
x,-y,1/2+z
1/2+x,1/2+y,z
1/2-x,1/2+y,1/2-z
1/2-x,1/2-y,-z
1/2+x,1/2-y,1/2+z
loop_
_atom_site_type_symbol
_atom_site_label
_atom_site_fract_x
_atom_site_fract_y
_atom_site_fract_z
Si Si1 0.209756 0.500000 0.330488
Si Si2 0.975995 0.846183 0.548011
Si Si3 0.583839 0.910070 0.332322
Si Si4 0.804116 0.863955 0.391768
Si Si5 0.000000 1.000000 0.750000
O O1 0.143829 0.423536 0.360229
O O2 0.143830 0.576464 0.564454
O O3 0.276344 0.426339 0.297880
O O4 0.276344 0.573661 0.096744
O O5 0.086872 0.846215 0.326255
O O6 0.939220 0.916368 0.477939
O O7 0.947178 0.718245 0.605643
O O8 0.939221 0.916368 0.765179
O O9 0.500000 0.000000 0.500000
O O10 0.750000 0.750000 0.500000
#
# Coordination Sequence:
#
# PCOD8150315 Si02
#       5
#     8   8   8   8   4
#     4  10  24  46  64 106 134 170 222 280 350 390
#     4  11  24  44  68  98 134 176 232 272 328 409
#     4  11  24  40  75 101 132 174 230 282 335 398
#     4  11  24  42  69  93 138 173 213 275 344 396
#     4  10  26  42  66  92 132 178 226 272 330 394
#
# _framework density 23.284808000000002
#
# number of rings (size 3 to 8) (size 9 to 14) (size 15 to 20)
#    0.000    1.333    0.000    4.667   12.444    0.000 
#    0.000    2.222    0.000    0.000    0.000    0.000 
#    0.000    0.000    0.000    0.000    0.000    0.000 
#
# Total GULP energy -223116.910522 kJ/mol
# GULP energy per Si atom -12395.383918 kJ/mol
# Density = 2.323181 g / cm^3
# Si number density = 23.284808 Si / 1000 Ang^3
#
#
#
# Elastic Constant Matrix: (Units=GPa)
#
#
# Indices 1 2 3 4 5 6 
#
# 1 129.6196 73.1030 87.1213 0.0000 20.3510 0.0000
# 2 73.1030 222.0425 72.8978 0.0000 18.3517 0.0000
# 3 87.1213 72.8978 129.1682 0.0000 19.9642 0.0000
# 4 0.0000 0.0000 0.0000 24.7316 0.0000 -13.8096
# 5 20.3510 18.3517 19.9642 0.0000 55.8289 0.0000
# 6 0.0000 0.0000 0.0000 -13.8096 0.0000 24.5781
#
#
#
# Elastic Compliance Matrix: (Units=1/GPa)
#
#
# Indices 1 2 3 4 5 6 
#
# 1 0.014922 -0.001908 -0.008726 0.000000 -0.001692 0.000000
# 2 -0.001908 0.005801 -0.001905 0.000000 -0.000530 0.000000
# 3 -0.008726 -0.001905 0.014940 0.000000 -0.001535 0.000000
# 4 0.000000 0.000000 0.000000 0.058919 0.000000 0.033105
# 5 -0.001692 -0.000530 -0.001535 0.000000 0.019252 0.000000
# 6 0.000000 0.000000 0.000000 0.033105 0.000000 0.059287
#
#
# Mechanical properties :
#
#
# Convention : Reuss Voigt Hill
#
# Bulk Modulus (GPa) = 94.47966 105.23049 99.85507
# Shear Modulus (GPa) = 24.78604 37.54161 31.16383
#
# Velocity S-wave (km/s) = 3.26617 4.01968 3.66235
# Velocity P-wave (km/s) = 7.40861 8.17524 7.80135
#
# Compressibility (1/GPa) = 0.01058429
#
# Stress axis : x y z
#
# Youngs Moduli (GPa) = 67.01694 172.38196 66.93521
#
# Poissons Ratio (x) = 0.32891 0.58408
# Poissons Ratio (y) = 0.12787 0.12752
# Poissons Ratio (z) = 0.58479 0.32840
#
# Static dielectric constant tensor:
#      x y z
#    x 4.471230 0.000000 0.297070 
#    y 0.000000 4.418500 0.000000 
#    z 0.297070 0.000000 4.467910 
# 
# 
# High freq. dielectric constant tensor:
#      x y z
#    x 1.935690 0.000000 0.018100 
#    y 0.000000 1.933740 0.000000 
#    z 0.018100 0.000000 1.935490 
# 
# From -- ./inp_files/64989.got.cif
#   From: 2010.06.25/outbox.cif.g09.slc.cpg/sg15_33_cif.got.tgz:64989.got - 2010.06.28 07:06:18.
