data_PCOD8150010
_publ_section_title
;
Structure prediction by ZEFSAII (Michael W. Deem and Ramdas Pophale) SiO2 
 PCOD8150010
Probable space group: C 2/C
;
_chemical_formula_sum "Si O2"
_cell_formula_units_Z 32
_cell_length_a 16.361200
_cell_length_b 7.541085
_cell_length_c 11.196549
_cell_angle_alpha 90.000000
_cell_angle_beta 71.225769
_cell_angle_gamma 90.000000
_cell_volume 1307.942704
_symmetry_space_group_name_H-M "C 2/C"
_symmetry_group_IT_number 15
_symmetry_cell_setting 'monoclinic'
loop_
_space_group_symop_operation_xyz
x,y,z
-x,y,1/2-z
-x,-y,-z
x,-y,1/2+z
1/2+x,1/2+y,z
1/2-x,1/2+y,1/2-z
1/2-x,1/2-y,-z
1/2+x,1/2-y,1/2+z
loop_
_atom_site_type_symbol
_atom_site_label
_atom_site_fract_x
_atom_site_fract_y
_atom_site_fract_z
Si Si1 0.116686 0.859754 0.005152
Si Si2 0.971190 0.767433 0.899406
Si Si3 0.718644 0.730361 0.668509
Si Si4 0.305991 0.141558 0.066634
O O1 0.136536 0.749741 0.117982
O O2 0.077575 0.046668 0.060781
O O3 0.209064 0.881639 0.892743
O O4 0.053091 0.752207 0.947917
O O5 0.000000 0.742219 0.750000
O O6 0.902212 0.615563 0.967171
O O7 0.684062 0.741423 0.818062
O O8 0.764308 0.543835 0.619106
O O9 0.250000 0.250000 0.000000
#
# Coordination Sequence:
#
# PCOD8150010 Si02
#       4
#     8   8   8   8
#     4  10  24  43  69  98 132 176 227 276 334 408
#     4  11  24  43  68 101 135 179 222 275 343 404
#     4  11  25  45  70 101 132 179 231 278 342 394
#     4  12  25  43  72  99 138 177 228 284 333 405
#
# _framework density 24.465903000000001
#
# number of rings (size 3 to 8) (size 9 to 14) (size 15 to 20)
#    0.000    1.000    2.500    3.000   10.500    1.000 
#    0.000    1.250    0.000    0.000    0.000    0.000 
#    0.000    0.000    0.000    0.000    0.000    0.000 
#
# Total GULP energy -198351.900570 kJ/mol
# GULP energy per Si atom -12396.993786 kJ/mol
# Density = 2.441022 g / cm^3
# Si number density = 24.465903 Si / 1000 Ang^3
#
#
#
# Elastic Constant Matrix: (Units=GPa)
#
#
# Indices 1 2 3 4 5 6 
#
# 1 189.9248 21.8962 86.0370 0.0000 31.4230 0.0000
# 2 21.8962 63.7327 45.4743 0.0000 -0.5299 0.0000
# 3 86.0370 45.4743 224.1437 0.0000 19.2612 0.0000
# 4 0.0000 0.0000 0.0000 30.8795 0.0000 -6.9477
# 5 31.4230 -0.5299 19.2612 0.0000 47.6430 0.0000
# 6 0.0000 0.0000 0.0000 -6.9477 0.0000 28.6702
#
#
#
# Elastic Compliance Matrix: (Units=1/GPa)
#
#
# Indices 1 2 3 4 5 6 
#
# 1 0.006969 -0.000871 -0.002178 0.000000 -0.003725 0.000000
# 2 -0.000871 0.018600 -0.003633 0.000000 0.002250 0.000000
# 3 -0.002178 -0.003633 0.006127 0.000000 -0.001081 0.000000
# 4 0.000000 0.000000 0.000000 0.034252 0.000000 0.008300
# 5 -0.003725 0.002250 -0.001081 0.000000 0.023909 0.000000
# 6 0.000000 0.000000 0.000000 0.008300 0.000000 0.036891
#
#
# Mechanical properties :
#
#
# Convention : Reuss Voigt Hill
#
# Bulk Modulus (GPa) = 54.54668 87.17959 70.86314
# Shear Modulus (GPa) = 34.19457 43.06478 38.62968
#
# Velocity S-wave (km/s) = 3.74256 4.20002 3.97787
# Velocity P-wave (km/s) = 6.40461 7.69615 7.07989
#
# Compressibility (1/GPa) = 0.01833292
#
# Stress axis : x y z
#
# Youngs Moduli (GPa) = 143.49872 53.76213 163.20249
#
# Poissons Ratio (x) = 0.04683 0.35547
# Poissons Ratio (y) = 0.12500 0.59286
# Poissons Ratio (z) = 0.31255 0.19530
#
# Static dielectric constant tensor:
#      x y z
#    x 4.969910 0.000000 0.055860 
#    y 0.000000 4.368730 0.000000 
#    z 0.055860 0.000000 4.789440 
# 
# 
# High freq. dielectric constant tensor:
#      x y z
#    x 1.987800 0.000000 0.014010 
#    y 0.000000 1.960320 0.000000 
#    z 0.014010 0.000000 1.983040 
# 
# From -- ./inp_files/93441.got.cif
#   From: 2010.06.25/outbox.cif.g09.slc.cpg/sg15_47_cif.got.tgz:93441.got - 2010.06.28 07:06:18.
