data_PCOD8150733
_publ_section_title
;
Structure prediction by ZEFSAII (Michael W. Deem and Ramdas Pophale) SiO2 
 PCOD8150733
Probable space group: C 2/C
;
_chemical_formula_sum "Si O2"
_cell_formula_units_Z 40
_cell_length_a 11.676193
_cell_length_b 15.612716
_cell_length_c 8.779834
_cell_angle_alpha 90.000000
_cell_angle_beta 82.293170
_cell_angle_gamma 90.000000
_cell_volume 1586.080840
_symmetry_space_group_name_H-M "C 2/C"
_symmetry_group_IT_number 15
_symmetry_cell_setting 'monoclinic'
loop_
_space_group_symop_operation_xyz
x,y,z
-x,y,1/2-z
-x,-y,-z
x,-y,1/2+z
1/2+x,1/2+y,z
1/2-x,1/2+y,1/2-z
1/2-x,1/2-y,-z
1/2+x,1/2-y,1/2+z
loop_
_atom_site_type_symbol
_atom_site_label
_atom_site_fract_x
_atom_site_fract_y
_atom_site_fract_z
Si Si1 0.188240 0.091524 0.019337
Si Si2 0.500000 0.978689 0.250000
Si Si3 0.886349 0.761923 0.492210
Si Si4 0.925810 0.618448 0.052684
Si Si5 0.377659 0.430198 0.306975
Si Si6 0.000000 0.824347 0.750000
O O1 0.068386 0.124033 0.109086
O O2 0.200984 0.992349 0.074314
O O3 0.293003 0.152117 0.066027
O O4 0.189071 0.093327 0.836161
O O5 0.585630 0.041696 0.324900
O O6 0.562864 0.918748 0.118859
O O7 0.750000 0.750000 0.500000
O O8 0.915607 0.845636 0.391426
O O9 0.972410 0.685206 0.419117
O O10 0.910096 0.768326 0.668595
O O11 0.500000 0.477383 0.250000
#
# Coordination Sequence:
#
# PCOD8150733 Si02
#       6
#     8   4   8   8   8   4
#     4  12  26  47  83 109 153 206 270 315 393 474
#     4  10  25  48  77 110 146 196 270 308 391 472
#     4  12  31  48  75 113 165 199 262 330 401 466
#     4  11  27  48  77 114 150 203 254 330 390 470
#     4  12  25  49  76 117 153 209 262 330 393 475
#     4  12  27  50  75 112 154 208 254 326 389 476
#
# _framework density 25.219394999999999
#
# number of rings (size 3 to 8) (size 9 to 14) (size 15 to 20)
#    0.000    0.400    3.000    3.600   15.400    0.800 
#    0.000    0.000    0.000    0.000    0.000    0.000 
#    0.000    0.000    0.000    0.000    0.000    0.000 
#
# Total GULP energy -247771.547219 kJ/mol
# GULP energy per Si atom -12388.577361 kJ/mol
# Density = 2.516199 g / cm^3
# Si number density = 25.219395 Si / 1000 Ang^3
#
#
#
# Elastic Constant Matrix: (Units=GPa)
#
#
# Indices 1 2 3 4 5 6 
#
# 1 175.5887 43.1880 33.9792 0.0000 36.1167 0.0000
# 2 43.1880 91.5230 30.1291 0.0000 -0.1092 0.0000
# 3 33.9792 30.1291 130.8759 0.0000 16.4344 0.0000
# 4 0.0000 0.0000 0.0000 67.4369 0.0000 12.6425
# 5 36.1167 -0.1092 16.4344 0.0000 25.3219 0.0000
# 6 0.0000 0.0000 0.0000 12.6425 0.0000 35.0072
#
#
#
# Elastic Compliance Matrix: (Units=1/GPa)
#
#
# Indices 1 2 3 4 5 6 
#
# 1 0.009669 -0.004688 0.000330 0.000000 -0.014026 0.000000
# 2 -0.004688 0.014187 -0.003153 0.000000 0.008794 0.000000
# 3 0.000330 -0.003153 0.009082 0.000000 -0.006379 0.000000
# 4 0.000000 0.000000 0.000000 0.015906 0.000000 -0.005744
# 5 -0.014026 0.008794 -0.006379 0.000000 0.063674 0.000000
# 6 0.000000 0.000000 0.000000 -0.005744 0.000000 0.030640
#
#
# Mechanical properties :
#
#
# Convention : Reuss Voigt Hill
#
# Bulk Modulus (GPa) = 55.81647 68.06446 61.94047
# Shear Modulus (GPa) = 30.45947 44.93265 37.69606
#
# Velocity S-wave (km/s) = 3.47908 4.22556 3.87036
# Velocity P-wave (km/s) = 6.19024 7.13125 6.67734
#
# Compressibility (1/GPa) = 0.01791586
#
# Stress axis : x y z
#
# Youngs Moduli (GPa) = 103.41996 70.48723 110.10771
#
# Poissons Ratio (x) = 0.33046 -0.03635
# Poissons Ratio (y) = 0.48485 0.34719
# Poissons Ratio (z) = -0.03414 0.22226
#
# Static dielectric constant tensor:
#      x y z
#    x 4.626940 0.000000 0.009450 
#    y 0.000000 4.479750 0.000000 
#    z 0.009450 0.000000 4.865820 
# 
# 
# High freq. dielectric constant tensor:
#      x y z
#    x 2.015300 0.000000 0.013350 
#    y 0.000000 1.987550 0.000000 
#    z 0.013350 0.000000 2.025090 
# 
# From -- ./inp_files/29288.got.cif
#   From: 2010.06.25/outbox.cif.g09.slc.cpg/sg15_15_cif.got.tgz:29288.got - 2010.06.28 07:06:18.
