data_PCOD8150671
_publ_section_title
;
Structure prediction by ZEFSAII (Michael W. Deem and Ramdas Pophale) SiO2 
 PCOD8150671
Probable space group: C 2/C
;
_chemical_formula_sum "Si O2"
_cell_formula_units_Z 40
_cell_length_a 18.088957
_cell_length_b 8.879366
_cell_length_c 10.216380
_cell_angle_alpha 90.000000
_cell_angle_beta 103.864696
_cell_angle_gamma 90.000000
_cell_volume 1593.129437
_symmetry_space_group_name_H-M "C 2/C"
_symmetry_group_IT_number 15
_symmetry_cell_setting 'monoclinic'
loop_
_space_group_symop_operation_xyz
x,y,z
-x,y,1/2-z
-x,-y,-z
x,-y,1/2+z
1/2+x,1/2+y,z
1/2-x,1/2+y,1/2-z
1/2-x,1/2-y,-z
1/2+x,1/2-y,1/2+z
loop_
_atom_site_type_symbol
_atom_site_label
_atom_site_fract_x
_atom_site_fract_y
_atom_site_fract_z
Si Si1 0.116272 0.282837 0.812219
Si Si2 0.725614 0.854280 0.194426
Si Si3 0.822745 0.434388 0.051620
Si Si4 0.910165 0.141806 0.440167
Si Si5 0.076628 0.193493 0.530107
O O1 0.204151 0.249157 0.814283
O O2 0.112620 0.446901 0.877167
O O3 0.065488 0.288522 0.659917
O O4 0.086801 0.158918 0.901181
O O5 0.733693 0.907050 0.348946
O O6 0.649714 0.752420 0.152140
O O7 0.721357 0.998183 0.093951
O O8 0.863034 0.276247 0.036995
O O9 0.995486 0.177167 0.422824
O O10 0.889648 0.967350 0.407039
#
# Coordination Sequence:
#
# PCOD8150671 Si02
#       5
#     8   8   8   8   8
#     4  11  25  45  70 101 142 183 240 299 342 427
#     4  11  26  45  72 105 145 180 246 289 355 419
#     4  11  24  47  68 107 135 193 231 292 357 416
#     4  10  25  46  67 104 138 184 235 297 351 426
#     4  11  25  44  72  98 141 189 233 289 364 418
#
# _framework density 25.107816
#
# number of rings (size 3 to 8) (size 9 to 14) (size 15 to 20)
#    0.000    1.200    2.000    3.000    8.400    4.800 
#    7.200    0.000    0.000    0.000    0.000    0.000 
#    0.000    0.000    0.000    0.000    0.000    0.000 
#
# Total GULP energy -248012.507064 kJ/mol
# GULP energy per Si atom -12400.625353 kJ/mol
# Density = 2.505067 g / cm^3
# Si number density = 25.107816 Si / 1000 Ang^3
#
#
#
# Elastic Constant Matrix: (Units=GPa)
#
#
# Indices 1 2 3 4 5 6 
#
# 1 53.3436 23.7510 14.1367 0.0000 7.1760 0.0000
# 2 23.7510 108.8645 18.5569 0.0000 1.8168 0.0000
# 3 14.1367 18.5569 108.7119 0.0000 -21.5836 0.0000
# 4 0.0000 0.0000 0.0000 28.9472 0.0000 -9.2609
# 5 7.1760 1.8168 -21.5836 0.0000 34.1833 0.0000
# 6 0.0000 0.0000 0.0000 -9.2609 0.0000 31.9407
#
#
#
# Elastic Compliance Matrix: (Units=1/GPa)
#
#
# Indices 1 2 3 4 5 6 
#
# 1 0.022452 -0.004182 -0.003541 0.000000 -0.006727 0.000000
# 2 -0.004182 0.010332 -0.001320 0.000000 -0.000504 0.000000
# 3 -0.003541 -0.001320 0.011486 0.000000 0.008066 0.000000
# 4 0.000000 0.000000 0.000000 0.038078 0.000000 0.011040
# 5 -0.006727 -0.000504 0.008066 0.000000 0.035786 0.000000
# 6 0.000000 0.000000 0.000000 0.011040 0.000000 0.034509
#
#
# Mechanical properties :
#
#
# Convention : Reuss Voigt Hill
#
# Bulk Modulus (GPa) = 38.19377 42.64546 40.41962
# Shear Modulus (GPa) = 27.86189 33.31260 30.58724
#
# Velocity S-wave (km/s) = 3.33481 3.64645 3.49411
# Velocity P-wave (km/s) = 5.48388 5.89497 5.69313
#
# Compressibility (1/GPa) = 0.02618228
#
# Stress axis : x y z
#
# Youngs Moduli (GPa) = 44.53943 96.79026 87.06408
#
# Poissons Ratio (x) = 0.40482 0.30832
# Poissons Ratio (y) = 0.18628 0.11491
# Poissons Ratio (z) = 0.15773 0.12775
#
# Static dielectric constant tensor:
#      x y z
#    x 4.265220 0.000000 -0.099080 
#    y 0.000000 4.601340 0.000000 
#    z -0.099080 0.000000 4.660660 
# 
# 
# High freq. dielectric constant tensor:
#      x y z
#    x 1.993160 0.000000 -0.005410 
#    y 0.000000 2.005610 0.000000 
#    z -0.005410 0.000000 2.000370 
# 
# From -- ./inp_files/102719.got.cif
#   From: 2010.06.25/outbox.cif.g09.slc.cpg/sg15_52_cif.got.tgz:102719.got - 2010.06.28 07:06:18.
