data_PCOD8150469
_publ_section_title
;
Structure prediction by ZEFSAII (Michael W. Deem and Ramdas Pophale) SiO2 
 PCOD8150469
Probable space group: C 2/C
;
_chemical_formula_sum "Si O2"
_cell_formula_units_Z 52
_cell_length_a 19.705360
_cell_length_b 12.531306
_cell_length_c 9.976730
_cell_angle_alpha 90.000000
_cell_angle_beta 100.667038
_cell_angle_gamma 90.000000
_cell_volume 2421.020562
_symmetry_space_group_name_H-M "C 2/C"
_symmetry_group_IT_number 15
_symmetry_cell_setting 'monoclinic'
loop_
_space_group_symop_operation_xyz
x,y,z
-x,y,1/2-z
-x,-y,-z
x,-y,1/2+z
1/2+x,1/2+y,z
1/2-x,1/2+y,1/2-z
1/2-x,1/2-y,-z
1/2+x,1/2-y,1/2+z
loop_
_atom_site_type_symbol
_atom_site_label
_atom_site_fract_x
_atom_site_fract_y
_atom_site_fract_z
Si Si1 0.375213 0.378517 0.817322
Si Si2 0.423194 0.095465 0.197618
Si Si3 0.145110 0.468489 0.553535
Si Si4 0.726617 0.440430 0.283384
Si Si5 0.500000 0.497305 0.250000
Si Si6 0.309925 0.795763 0.111119
Si Si7 0.105380 0.170779 0.884876
O O1 0.318116 0.471622 0.812839
O O2 0.450869 0.427902 0.820956
O O3 0.354544 0.299117 0.690736
O O4 0.377335 0.309752 0.953453
O O5 0.500000 0.054096 0.250000
O O6 0.378649 0.047370 0.302386
O O7 0.422061 0.223431 0.196821
O O8 0.398006 0.057365 0.042334
O O9 0.225666 0.502153 0.587787
O O10 0.137752 0.359371 0.466688
O O11 0.777732 0.375257 0.207328
O O12 0.675825 0.358761 0.336596
O O13 0.451334 0.423161 0.140633
O O14 0.250000 0.750000 0.000000
#
# Coordination Sequence:
#
# PCOD8150469 Si02
#       7
#     8   8   8   8   4   8   8
#     4  11  25  42  71 102 140 182 229 288 345 418
#     4  12  27  48  71 100 139 188 232 281 343 414
#     4  12  25  46  71 100 144 180 231 290 339 412
#     4  11  24  43  69 105 137 181 226 291 347 407
#     4  10  24  48  68 102 136 180 230 292 346 410
#     4  12  24  42  67 104 138 177 230 282 352 404
#     4  11  24  44  73 100 138 178 235 282 353 416
#
# _framework density 21.478545
#
# number of rings (size 3 to 8) (size 9 to 14) (size 15 to 20)
#    0.000    0.615    3.846    3.692    2.154    2.462 
#    1.385    0.000    0.000    0.000    0.000    0.000 
#    0.000    0.000    0.000    0.000    0.000    0.000 
#
# Total GULP energy -322500.307238 kJ/mol
# GULP energy per Si atom -12403.857971 kJ/mol
# Density = 2.142966 g / cm^3
# Si number density = 21.478545 Si / 1000 Ang^3
#
#
#
# Elastic Constant Matrix: (Units=GPa)
#
#
# Indices 1 2 3 4 5 6 
#
# 1 105.6536 36.0820 31.2974 0.0000 10.6707 0.0000
# 2 36.0820 92.8039 30.2993 0.0000 -9.2713 0.0000
# 3 31.2974 30.2993 109.2899 0.0000 0.8931 0.0000
# 4 0.0000 0.0000 0.0000 40.4077 0.0000 6.2661
# 5 10.6707 -9.2713 0.8931 0.0000 23.4834 0.0000
# 6 0.0000 0.0000 0.0000 6.2661 0.0000 25.5187
#
#
#
# Elastic Compliance Matrix: (Units=1/GPa)
#
#
# Indices 1 2 3 4 5 6 
#
# 1 0.012555 -0.004930 -0.002167 0.000000 -0.007569 0.000000
# 2 -0.004930 0.014351 -0.002632 0.000000 0.008006 0.000000
# 3 -0.002167 -0.002632 0.010504 0.000000 -0.000454 0.000000
# 4 0.000000 0.000000 0.000000 0.025727 0.000000 -0.006317
# 5 -0.007569 0.008006 -0.000454 0.000000 0.049201 0.000000
# 6 0.000000 0.000000 0.000000 -0.006317 0.000000 0.040738
#
#
# Mechanical properties :
#
#
# Convention : Reuss Voigt Hill
#
# Bulk Modulus (GPa) = 55.70394 55.90053 55.80224
# Shear Modulus (GPa) = 28.00832 31.88656 29.94744
#
# Velocity S-wave (km/s) = 3.61503 3.85720 3.73808
# Velocity P-wave (km/s) = 6.58905 6.77643 6.68340
#
# Compressibility (1/GPa) = 0.01795205
#
# Stress axis : x y z
#
# Youngs Moduli (GPa) = 79.65083 69.67930 95.20224
#
# Poissons Ratio (x) = 0.34352 0.20627
# Poissons Ratio (y) = 0.39268 0.25061
# Poissons Ratio (z) = 0.17258 0.18342
#
# Static dielectric constant tensor:
#      x y z
#    x 3.842780 0.000000 0.079980 
#    y 0.000000 4.015150 0.000000 
#    z 0.079980 0.000000 3.785920 
# 
# 
# High freq. dielectric constant tensor:
#      x y z
#    x 1.845810 0.000000 0.008600 
#    y 0.000000 1.852110 0.000000 
#    z 0.008600 0.000000 1.849960 
# 
# From -- ./inp_files/55365.got.cif
#   From: 2010.06.25/outbox.cif.g09.slc.cpg/sg15_28_cif.got.tgz:55365.got - 2010.06.28 07:06:18.
