data_PCOD8150796
_publ_section_title
;
Structure prediction by ZEFSAII (Michael W. Deem and Ramdas Pophale) SiO2 
 PCOD8150796
Probable space group: C 2/C
;
_chemical_formula_sum "Si O2"
_cell_formula_units_Z 64
_cell_length_a 15.770971
_cell_length_b 9.621887
_cell_length_c 29.864058
_cell_angle_alpha 90.000000
_cell_angle_beta 45.690707
_cell_angle_gamma 90.000000
_cell_volume 3242.838820
_symmetry_space_group_name_H-M "C 2/C"
_symmetry_group_IT_number 15
_symmetry_cell_setting 'monoclinic'
loop_
_space_group_symop_operation_xyz
x,y,z
-x,y,1/2-z
-x,-y,-z
x,-y,1/2+z
1/2+x,1/2+y,z
1/2-x,1/2+y,1/2-z
1/2-x,1/2-y,-z
1/2+x,1/2-y,1/2+z
loop_
_atom_site_type_symbol
_atom_site_label
_atom_site_fract_x
_atom_site_fract_y
_atom_site_fract_z
Si Si1 0.941951 0.277724 0.227225
Si Si2 0.382519 0.639155 0.497485
Si Si3 0.252011 0.507539 0.692170
Si Si4 0.462733 0.873405 0.631939
Si Si5 0.105100 0.650600 0.587276
Si Si6 0.032484 0.870061 0.436758
Si Si7 0.703650 0.473705 0.728009
Si Si8 0.901762 0.261203 0.751122
O O1 0.830063 0.372670 0.255664
O O2 0.000000 0.344111 0.250000
O O3 0.036152 0.274991 0.152843
O O4 0.895206 0.124628 0.257900
O O5 0.240710 0.636267 0.552674
O O6 0.417054 0.753500 0.447834
O O7 0.429668 0.484699 0.468450
O O8 0.447663 0.682852 0.519771
O O9 0.341207 0.564281 0.622767
O O10 0.319068 0.446858 0.710699
O O11 0.172960 0.386699 0.699309
O O12 0.503981 0.757801 0.581224
O O13 0.458510 0.805999 0.682849
O O14 0.557524 0.996536 0.595224
O O15 0.334577 0.929546 0.664448
O O16 0.685785 0.632308 0.721555
O O17 0.000000 0.216676 0.750000
#
# Coordination Sequence:
#
# PCOD8150796 Si02
#       8
#     8   8   8   8   8   8   8   8
#     4  12  22  36  65  95 128 163 199 260 322 377
#     4  10  26  44  69  88 120 176 220 256 299 369
#     4  11  20  37  66  92 126 161 201 259 315 383
#     4  11  24  39  66  90 129 164 203 265 311 376
#     4  11  24  44  62  95 128 164 216 261 310 368
#     4  11  22  45  67  93 121 167 222 256 306 374
#     4  11  21  38  56  99 127 163 195 248 332 380
#     4  11  23  37  56 100 133 161 197 246 333 383
#
# _framework density 19.735795
#
# number of rings (size 3 to 8) (size 9 to 14) (size 15 to 20)
#    0.000    1.000    5.000    3.000    3.500    1.000 
#    0.000    0.000    0.000    0.000    0.000    0.000 
#    0.000    0.000    0.000    0.000    0.000    0.000 
#
# Total GULP energy -396843.648698 kJ/mol
# GULP energy per Si atom -12401.364022 kJ/mol
# Density = 1.969088 g / cm^3
# Si number density = 19.735795 Si / 1000 Ang^3
#
#
#
# Elastic Constant Matrix: (Units=GPa)
#
#
# Indices 1 2 3 4 5 6 
#
# 1 86.2768 31.2937 27.2141 -0.0002 2.1780 0.0003
# 2 31.2937 110.5320 31.5201 -0.0003 -1.3395 0.0004
# 3 27.2141 31.5201 87.4355 0.0000 -5.7056 0.0001
# 4 -0.0002 -0.0003 0.0000 29.3958 -0.0001 -2.1062
# 5 2.1780 -1.3395 -5.7056 -0.0001 27.0404 0.0000
# 6 0.0003 0.0004 0.0001 -2.1062 0.0000 29.0158
#
#
#
# Elastic Compliance Matrix: (Units=1/GPa)
#
#
# Indices 1 2 3 4 5 6 
#
# 1 0.013772 -0.002969 -0.003344 0.000000 -0.001962 0.000000
# 2 -0.002969 0.010726 -0.002933 0.000000 0.000152 0.000000
# 3 -0.003344 -0.002933 0.013732 0.000000 0.003022 0.000000
# 4 0.000000 0.000000 0.000000 0.034196 0.000000 0.002482
# 5 -0.001962 0.000152 0.003022 0.000000 0.037785 0.000000
# 6 0.000000 0.000000 0.000000 0.002482 0.000000 0.034644
#
#
# Mechanical properties :
#
#
# Convention : Reuss Voigt Hill
#
# Bulk Modulus (GPa) = 50.66318 51.58889 51.12604
# Shear Modulus (GPa) = 29.42447 30.03816 29.73131
#
# Velocity S-wave (km/s) = 3.86543 3.90553 3.88553
# Velocity P-wave (km/s) = 6.75637 6.82159 6.78906
#
# Compressibility (1/GPa) = 0.01973820
#
# Stress axis : x y z
#
# Youngs Moduli (GPa) = 72.61146 93.23214 72.82154
#
# Poissons Ratio (x) = 0.27683 0.24352
# Poissons Ratio (y) = 0.21560 0.21355
# Poissons Ratio (z) = 0.24282 0.27341
#
# Static dielectric constant tensor:
#      x y z
#    x 3.544090 0.000000 -0.026790 
#    y 0.000000 3.667080 0.000000 
#    z -0.026790 0.000000 3.512170 
# 
# 
# High freq. dielectric constant tensor:
#      x y z
#    x 1.774980 0.000000 -0.001790 
#    y 0.000000 1.780500 0.000000 
#    z -0.001790 0.000000 1.758610 
# 
# From -- ./inp_files/313150.got.cif
#   From: 2010.06.25/outbox.cif.g09.slc.cpg/sg15_157_cif.got.tgz:313150.got - 2010.06.28 07:06:18.
