data_PCOD8150809
_publ_section_title
;
Structure prediction by ZEFSAII (Michael W. Deem and Ramdas Pophale) SiO2 
 PCOD8150809
Probable space group: C 2/C
;
_chemical_formula_sum "Si O2"
_cell_formula_units_Z 44
_cell_length_a 24.847598
_cell_length_b 11.053186
_cell_length_c 11.253474
_cell_angle_alpha 90.000000
_cell_angle_beta 40.103443
_cell_angle_gamma 90.000000
_cell_volume 1990.942529
_symmetry_space_group_name_H-M "C 2/C"
_symmetry_group_IT_number 15
_symmetry_cell_setting 'monoclinic'
loop_
_space_group_symop_operation_xyz
x,y,z
-x,y,1/2-z
-x,-y,-z
x,-y,1/2+z
1/2+x,1/2+y,z
1/2-x,1/2+y,1/2-z
1/2-x,1/2-y,-z
1/2+x,1/2-y,1/2+z
loop_
_atom_site_type_symbol
_atom_site_label
_atom_site_fract_x
_atom_site_fract_y
_atom_site_fract_z
Si Si1 0.500000 0.057837 0.750000
Si Si2 0.405776 0.471045 0.698263
Si Si3 0.869827 0.620566 0.551177
Si Si4 0.814461 0.189307 0.979856
Si Si5 0.128666 0.707228 0.682778
Si Si6 0.245093 0.924562 0.696079
O O1 0.552103 0.136816 0.753641
O O2 0.555247 0.974095 0.571582
O O3 0.500000 0.500000 0.500000
O O4 0.394873 0.348630 0.795080
O O5 0.350823 0.452213 0.673335
O O6 0.369171 0.583137 0.832321
O O7 0.882116 0.721675 0.427802
O O8 0.860219 0.679238 0.696558
O O9 0.787496 0.553304 0.643424
O O10 0.750162 0.144029 0.188091
O O11 0.750000 0.250000 0.000000
O O12 0.213471 0.662302 0.474853
#
# Coordination Sequence:
#
# PCOD8150809 Si02
#       6
#     4   8   8   8   8   8
#     4  10  26  44  74 106 144 188 246 310 362 442
#     4  12  28  45  73 109 152 194 238 306 373 435
#     4  11  24  45  76 104 142 193 252 303 359 441
#     4  12  27  45  75 111 148 192 248 304 369 441
#     4  11  25  50  73 107 143 195 245 301 369 439
#     4  11  25  47  76 105 143 197 247 303 364 438
#
# _framework density 22.100086999999998
#
# number of rings (size 3 to 8) (size 9 to 14) (size 15 to 20)
#    0.000    0.727    3.636    2.182    7.636    5.091 
#    0.000    0.000    0.000    0.000    0.000    0.000 
#    0.000    0.000    0.000    0.000    0.000    0.000 
#
# Total GULP energy -272743.941503 kJ/mol
# GULP energy per Si atom -12397.451887 kJ/mol
# Density = 2.204979 g / cm^3
# Si number density = 22.100087 Si / 1000 Ang^3
#
#
#
# Elastic Constant Matrix: (Units=GPa)
#
#
# Indices 1 2 3 4 5 6 
#
# 1 126.1983 71.1275 90.7893 0.0000 9.9063 0.0000
# 2 71.1275 174.6380 76.3221 0.0000 3.7896 0.0000
# 3 90.7893 76.3221 127.2283 0.0000 -8.5615 0.0000
# 4 0.0000 0.0000 0.0000 39.5605 0.0000 12.7798
# 5 9.9063 3.7896 -8.5615 0.0000 43.3976 0.0000
# 6 0.0000 0.0000 0.0000 12.7798 0.0000 20.0049
#
#
#
# Elastic Compliance Matrix: (Units=1/GPa)
#
#
# Indices 1 2 3 4 5 6 
#
# 1 0.018511 -0.001942 -0.012482 0.000000 -0.006518 0.000000
# 2 -0.001942 0.008078 -0.003524 0.000000 -0.000957 0.000000
# 3 -0.012482 -0.003524 0.019351 0.000000 0.006975 0.000000
# 4 0.000000 0.000000 0.000000 0.031851 0.000000 -0.020347
# 5 -0.006518 -0.000957 0.006975 0.000000 0.025990 0.000000
# 6 0.000000 0.000000 0.000000 -0.020347 0.000000 0.062986
#
#
# Mechanical properties :
#
#
# Convention : Reuss Voigt Hill
#
# Bulk Modulus (GPa) = 99.58915 100.50473 100.04694
# Shear Modulus (GPa) = 24.27037 33.24763 28.75900
#
# Velocity S-wave (km/s) = 3.31751 3.88288 3.61128
# Velocity P-wave (km/s) = 7.73531 8.10421 7.92191
#
# Compressibility (1/GPa) = 0.01004125
#
# Stress axis : x y z
#
# Youngs Moduli (GPa) = 54.02317 123.78890 51.67749
#
# Poissons Ratio (x) = 0.24045 0.64506
# Poissons Ratio (y) = 0.10494 0.18213
# Poissons Ratio (z) = 0.67434 0.43627
#
# Static dielectric constant tensor:
#      x y z
#    x 4.060770 0.000000 -0.047400 
#    y 0.000000 4.490360 0.000000 
#    z -0.047400 0.000000 4.033950 
# 
# 
# High freq. dielectric constant tensor:
#      x y z
#    x 1.883820 0.000000 -0.000950 
#    y 0.000000 1.898920 0.000000 
#    z -0.000950 0.000000 1.860700 
# 
# From -- ./inp_files/117889.got.cif
#   From: 2010.06.25/outbox.cif.g09.slc.cpg/sg15_59_cif.got.tgz:117889.got - 2010.06.28 07:06:18.
