data_PCOD8150370
_publ_section_title
;
Structure prediction by ZEFSAII (Michael W. Deem and Ramdas Pophale) SiO2 
 PCOD8150370
Probable space group: C 2/C
;
_chemical_formula_sum "Si O2"
_cell_formula_units_Z 44
_cell_length_a 25.124722
_cell_length_b 11.652331
_cell_length_c 19.042470
_cell_angle_alpha 90.000000
_cell_angle_beta 20.796296
_cell_angle_gamma 90.000000
_cell_volume 1979.350149
_symmetry_space_group_name_H-M "C 2/C"
_symmetry_group_IT_number 15
_symmetry_cell_setting 'monoclinic'
loop_
_space_group_symop_operation_xyz
x,y,z
-x,y,1/2-z
-x,-y,-z
x,-y,1/2+z
1/2+x,1/2+y,z
1/2-x,1/2+y,1/2-z
1/2-x,1/2-y,-z
1/2+x,1/2-y,1/2+z
loop_
_atom_site_type_symbol
_atom_site_label
_atom_site_fract_x
_atom_site_fract_y
_atom_site_fract_z
Si Si1 0.733572 0.488260 0.225107
Si Si2 0.500000 0.769555 0.250000
Si Si3 0.415288 0.209733 0.288809
Si Si4 0.668240 0.416969 0.452004
Si Si5 0.010483 0.899100 0.397356
Si Si6 0.561984 0.042936 0.780098
O O1 0.724511 0.396844 0.301685
O O2 0.676723 0.428536 0.223192
O O3 0.615121 0.591916 0.386622
O O4 0.894988 0.547426 0.018654
O O5 0.392510 0.694563 0.432559
O O6 0.406602 0.851734 0.312252
O O7 0.500000 0.262342 0.250000
O O8 0.250000 0.250000 0.500000
O O9 0.487910 0.267618 0.130080
O O10 0.426494 0.074122 0.276373
O O11 0.535094 0.513337 0.610682
O O12 0.813922 0.461647 0.312832
#
# Coordination Sequence:
#
# PCOD8150370 Si02
#       6
#     8   4   8   8   8   8
#     4   9  22  46  70 103 142 177 240 284 347 423
#     4  12  28  44  70 100 154 178 236 296 354 420
#     4  12  25  42  71 102 141 176 230 293 345 413
#     4  10  24  46  71 101 136 191 228 283 356 425
#     4   9  22  44  73 100 138 187 226 285 357 415
#     4  12  25  45  69 106 136 183 237 291 345 416
#
# _framework density 22.229519
#
# number of rings (size 3 to 8) (size 9 to 14) (size 15 to 20)
#    1.091    0.364    0.909    3.273    3.818    2.909 
#    6.545    0.000    0.000    0.000    0.000    0.000 
#    0.000    0.000    0.000    0.000    0.000    0.000 
#
# Total GULP energy -272568.594870 kJ/mol
# GULP energy per Si atom -12389.481585 kJ/mol
# Density = 2.217892 g / cm^3
# Si number density = 22.229519 Si / 1000 Ang^3
#
#
#
# Elastic Constant Matrix: (Units=GPa)
#
#
# Indices 1 2 3 4 5 6 
#
# 1 159.4559 46.6924 54.5388 -0.0005 -31.0092 0.0002
# 2 46.6924 113.4604 44.4541 -0.0005 5.7555 0.0003
# 3 54.5388 44.4541 95.2366 -0.0007 -7.8662 0.0002
# 4 -0.0005 -0.0005 -0.0007 27.9935 0.0003 8.2753
# 5 -31.0092 5.7555 -7.8662 0.0003 35.9399 -0.0001
# 6 0.0002 0.0003 0.0002 8.2753 -0.0001 25.5844
#
#
#
# Elastic Compliance Matrix: (Units=1/GPa)
#
#
# Indices 1 2 3 4 5 6 
#
# 1 0.010058 -0.003158 -0.003592 0.000000 0.008397 0.000000
# 2 -0.003158 0.012079 -0.004292 0.000000 -0.005598 0.000000
# 3 -0.003592 -0.004292 0.014626 0.000000 0.000789 0.000000
# 4 0.000000 0.000000 0.000000 0.039499 0.000000 -0.012776
# 5 0.008397 -0.005598 0.000789 0.000000 0.036139 0.000000
# 6 0.000000 0.000000 0.000000 -0.012776 0.000000 0.043219
#
#
# Mechanical properties :
#
#
# Convention : Reuss Voigt Hill
#
# Bulk Modulus (GPa) = 68.12741 73.28039 70.70390
# Shear Modulus (GPa) = 27.38288 32.73472 30.05880
#
# Velocity S-wave (km/s) = 3.51354 3.84158 3.68122
# Velocity P-wave (km/s) = 6.86832 7.26044 7.06710
#
# Compressibility (1/GPa) = 0.01467838
#
# Stress axis : x y z
#
# Youngs Moduli (GPa) = 99.42781 82.78996 68.37141
#
# Poissons Ratio (x) = 0.26141 0.24560
# Poissons Ratio (y) = 0.31395 0.29347
# Poissons Ratio (z) = 0.35716 0.35535
#
# Static dielectric constant tensor:
#      x y z
#    x 4.007530 -0.000010 -0.077290 
#    y -0.000010 3.384160 0.000010 
#    z -0.077290 0.000010 3.864850 
# 
# 
# High freq. dielectric constant tensor:
#      x y z
#    x 1.891200 0.000000 -0.011890 
#    y 0.000000 1.855110 0.000000 
#    z -0.011890 0.000000 1.873350 
# 
# From -- ./inp_files/257472.got.cif
#   From: 2010.06.25/outbox.cif.g09.slc.cpg/sg15_129_cif.got.tgz:257472.got - 2010.06.28 07:06:18.
