data_PCOD8150983
_publ_section_title
;
Structure prediction by ZEFSAII (Michael W. Deem and Ramdas Pophale) SiO2 
 PCOD8150983
Probable space group: C 2/C
;
_chemical_formula_sum "Si O2"
_cell_formula_units_Z 40
_cell_length_a 12.892396
_cell_length_b 30.633249
_cell_length_c 5.231703
_cell_angle_alpha 90.000000
_cell_angle_beta 88.439403
_cell_angle_gamma 90.000000
_cell_volume 2065.421346
_symmetry_space_group_name_H-M "C 2/C"
_symmetry_group_IT_number 15
_symmetry_cell_setting 'monoclinic'
loop_
_space_group_symop_operation_xyz
x,y,z
-x,y,1/2-z
-x,-y,-z
x,-y,1/2+z
1/2+x,1/2+y,z
1/2-x,1/2+y,1/2-z
1/2-x,1/2-y,-z
1/2+x,1/2-y,1/2+z
loop_
_atom_site_type_symbol
_atom_site_label
_atom_site_fract_x
_atom_site_fract_y
_atom_site_fract_z
Si Si1 0.500000 0.823225 0.750000
Si Si2 0.765267 0.846923 0.297182
Si Si3 0.000000 0.529454 0.250000
Si Si4 0.114556 0.274445 0.127619
Si Si5 0.585282 0.901030 0.441843
Si Si6 0.621483 0.324179 0.695466
O O1 0.403554 0.793413 0.657874
O O2 0.545139 0.853418 0.524844
O O3 0.694369 0.804205 0.274450
O O4 0.697175 0.891807 0.307534
O O5 0.825231 0.843108 0.557941
O O6 0.844296 0.852229 0.054165
O O7 0.905965 0.564157 0.321106
O O8 0.000000 0.500000 0.500000
O O9 0.157987 0.225246 0.127838
O O10 0.000000 0.275040 0.250000
O O11 0.500000 0.920733 0.250000
O O12 0.500000 0.327525 0.750000
#
# Coordination Sequence:
#
# PCOD8150983 Si02
#       6
#     4   8   4   8   8   8
#     4  11  18  34  54  82 122 150 204 248 294 344
#     4  12  22  40  57  82 108 160 208 249 303 360
#     4  11  24  40  64  96 136 156 166 210 292 376
#     4  11  22  33  54  79 114 151 209 265 310 346
#     4  11  22  37  63  91 124 156 190 230 287 369
#     4  11  27  38  53  74 116 159 216 274 304 318
#
# _framework density 19.366506999999999
#
# number of rings (size 3 to 8) (size 9 to 14) (size 15 to 20)
#    0.000    0.800    5.000    3.000    8.400    0.000 
#    0.000    0.000    0.000    0.000    0.000    0.000 
#    0.000   16.000    0.000    0.000    0.000    0.000 
#
# Total GULP energy -247782.108945 kJ/mol
# GULP energy per Si atom -12389.105447 kJ/mol
# Density = 1.932243 g / cm^3
# Si number density = 19.366507 Si / 1000 Ang^3
#
#
#
# Elastic Constant Matrix: (Units=GPa)
#
#
# Indices 1 2 3 4 5 6 
#
# 1 70.8954 44.6142 41.0752 0.0000 -11.1881 0.0000
# 2 44.6142 86.4996 51.2561 0.0000 -8.8187 0.0000
# 3 41.0752 51.2561 138.5463 0.0000 -7.0167 0.0000
# 4 0.0000 0.0000 0.0000 34.9091 0.0000 -10.8137
# 5 -11.1881 -8.8187 -7.0167 0.0000 39.8696 0.0000
# 6 0.0000 0.0000 0.0000 -10.8137 0.0000 9.2667
#
#
#
# Elastic Compliance Matrix: (Units=1/GPa)
#
#
# Indices 1 2 3 4 5 6 
#
# 1 0.022295 -0.009374 -0.002956 0.000000 0.003663 0.000000
# 2 -0.009374 0.018966 -0.004196 0.000000 0.000826 0.000000
# 3 -0.002956 -0.004196 0.009643 0.000000 -0.000060 0.000000
# 4 0.000000 0.000000 0.000000 0.044863 0.000000 0.052352
# 5 0.003663 0.000826 -0.000060 0.000000 0.026282 0.000000
# 6 0.000000 0.000000 0.000000 0.052352 0.000000 0.169006
#
#
# Mechanical properties :
#
#
# Convention : Reuss Voigt Hill
#
# Bulk Modulus (GPa) = 56.01452 63.31470 59.66461
# Shear Modulus (GPa) = 15.14885 27.40879 21.27882
#
# Velocity S-wave (km/s) = 2.79985 3.76609 3.31833
# Velocity P-wave (km/s) = 6.28000 7.18854 6.74957
#
# Compressibility (1/GPa) = 0.01785251
#
# Stress axis : x y z
#
# Youngs Moduli (GPa) = 44.85266 52.72596 103.69739
#
# Poissons Ratio (x) = 0.49425 0.30658
# Poissons Ratio (y) = 0.42045 0.43507
# Poissons Ratio (z) = 0.13260 0.22122
#
# Static dielectric constant tensor:
#      x y z
#    x 3.840080 0.000000 -0.045550 
#    y 0.000000 3.575950 0.000000 
#    z -0.045550 0.000000 3.935100 
# 
# 
# High freq. dielectric constant tensor:
#      x y z
#    x 1.739250 0.000000 -0.017500 
#    y 0.000000 1.716510 0.000000 
#    z -0.017500 0.000000 1.776200 
# 
# From -- ./inp_files/5605.got.cif
#   From: 2010.06.25/outbox.cif.g09.slc.cpg/sg15_3_cif.got.tgz:5605.got - 2010.06.28 07:06:18.
