data_PCOD8150725
_publ_section_title
;
Structure prediction by ZEFSAII (Michael W. Deem and Ramdas Pophale) SiO2 
 PCOD8150725
Probable space group: C 2/C
;
_chemical_formula_sum "Si O2"
_cell_formula_units_Z 52
_cell_length_a 30.778222
_cell_length_b 8.930014
_cell_length_c 13.579344
_cell_angle_alpha 90.000000
_cell_angle_beta 141.085971
_cell_angle_gamma 90.000000
_cell_volume 2344.446391
_symmetry_space_group_name_H-M "C 2/C"
_symmetry_group_IT_number 15
_symmetry_cell_setting 'monoclinic'
loop_
_space_group_symop_operation_xyz
x,y,z
-x,y,1/2-z
-x,-y,-z
x,-y,1/2+z
1/2+x,1/2+y,z
1/2-x,1/2+y,1/2-z
1/2-x,1/2-y,-z
1/2+x,1/2-y,1/2+z
loop_
_atom_site_type_symbol
_atom_site_label
_atom_site_fract_x
_atom_site_fract_y
_atom_site_fract_z
Si Si1 0.092155 0.829124 0.155095
Si Si2 0.617037 0.129475 0.820660
Si Si3 0.540859 0.808506 0.987352
Si Si4 0.500000 0.035225 0.750000
Si Si5 0.297012 0.887099 0.616027
Si Si6 0.831962 0.952036 0.562120
Si Si7 0.069327 0.022898 0.934673
O O1 0.142698 0.691812 0.213698
O O2 0.032824 0.766064 0.120219
O O3 0.131805 0.959080 0.284753
O O4 0.058661 0.893461 0.996947
O O5 0.576133 0.123752 0.645572
O O6 0.562362 0.134146 0.814510
O O7 0.664218 0.276081 0.909947
O O8 0.666465 0.981722 0.908805
O O9 0.587048 0.679396 0.019054
O O10 0.531757 0.940041 0.893961
O O11 0.250000 0.750000 0.500000
O O12 0.248912 0.002581 0.591413
O O13 0.865206 0.988816 0.516512
O O14 0.000000 0.033283 0.750000
#
# Coordination Sequence:
#
# PCOD8150725 Si02
#       7
#     8   8   8   4   8   8   8
#     4  11  22  45  70 103 138 183 228 289 348 416
#     4  12  26  44  71 108 141 175 237 291 349 411
#     4  12  23  43  71 103 144 177 222 298 359 399
#     4  12  26  40  70 106 144 174 222 290 358 414
#     4  10  25  48  70  93 141 193 230 284 348 411
#     4  11  24  45  71 101 139 187 233 282 344 422
#     4  12  23  40  74 106 139 181 236 286 353 413
#
# _framework density 22.180077000000001
#
# number of rings (size 3 to 8) (size 9 to 14) (size 15 to 20)
#    0.000    0.615    5.385    2.308    5.385    0.000 
#    2.769    0.000    0.000    0.000    0.000    0.000 
#    0.000    0.000    0.000    0.000    0.000    0.000 
#
# Total GULP energy -322390.567571 kJ/mol
# GULP energy per Si atom -12399.637214 kJ/mol
# Density = 2.212959 g / cm^3
# Si number density = 22.180077 Si / 1000 Ang^3
#
#
#
# Elastic Constant Matrix: (Units=GPa)
#
#
# Indices 1 2 3 4 5 6 
#
# 1 105.6154 47.6447 28.8307 0.0000 -6.4494 0.0000
# 2 47.6447 135.6759 40.7028 0.0000 10.1305 0.0000
# 3 28.8307 40.7028 43.6544 0.0000 -8.9767 0.0000
# 4 0.0000 0.0000 0.0000 40.5367 0.0000 6.2822
# 5 -6.4494 10.1305 -8.9767 0.0000 31.4056 0.0000
# 6 0.0000 0.0000 0.0000 6.2822 0.0000 39.9321
#
#
#
# Elastic Compliance Matrix: (Units=1/GPa)
#
#
# Indices 1 2 3 4 5 6 
#
# 1 0.012285 -0.003007 -0.004878 0.000000 0.002099 0.000000
# 2 -0.003007 0.012344 -0.011123 0.000000 -0.007779 0.000000
# 3 -0.004878 -0.011123 0.039344 0.000000 0.013832 0.000000
# 4 0.000000 0.000000 0.000000 0.025285 0.000000 -0.003978
# 5 0.002099 -0.007779 0.013832 0.000000 0.038735 0.000000
# 6 0.000000 0.000000 0.000000 -0.003978 0.000000 0.025668
#
#
# Mechanical properties :
#
#
# Convention : Reuss Voigt Hill
#
# Bulk Modulus (GPa) = 38.52572 57.70025 48.11298
# Shear Modulus (GPa) = 24.95881 33.55939 29.25910
#
# Velocity S-wave (km/s) = 3.35816 3.89400 3.63597
# Velocity P-wave (km/s) = 5.69592 6.80357 6.27424
#
# Compressibility (1/GPa) = 0.02595669
#
# Stress axis : x y z
#
# Youngs Moduli (GPa) = 81.40270 81.00883 25.41696
#
# Poissons Ratio (x) = 0.24362 0.12397
# Poissons Ratio (y) = 0.24481 0.28272
# Poissons Ratio (z) = 0.39705 0.90107
#
# Static dielectric constant tensor:
#      x y z
#    x 4.238250 0.000000 0.260510 
#    y 0.000000 4.358940 0.000000 
#    z 0.260510 0.000000 3.953660 
# 
# 
# High freq. dielectric constant tensor:
#      x y z
#    x 1.874370 0.000000 0.010990 
#    y 0.000000 1.897690 0.000000 
#    z 0.010990 0.000000 1.852920 
# 
# From -- ./inp_files/181239.got.cif
#   From: 2010.06.25/outbox.cif.g09.slc.cpg/sg15_91_cif.got.tgz:181239.got - 2010.06.28 07:06:18.
