data_PCOD8150576
_publ_section_title
;
Structure prediction by ZEFSAII (Michael W. Deem and Ramdas Pophale) SiO2 
 PCOD8150576
Probable space group: C 2/C
;
_chemical_formula_sum "Si O2"
_cell_formula_units_Z 52
_cell_length_a 17.126459
_cell_length_b 20.701479
_cell_length_c 14.443232
_cell_angle_alpha 90.000000
_cell_angle_beta 29.051119
_cell_angle_gamma 90.000000
_cell_volume 2486.582423
_symmetry_space_group_name_H-M "C 2/C"
_symmetry_group_IT_number 15
_symmetry_cell_setting 'monoclinic'
loop_
_space_group_symop_operation_xyz
x,y,z
-x,y,1/2-z
-x,-y,-z
x,-y,1/2+z
1/2+x,1/2+y,z
1/2-x,1/2+y,1/2-z
1/2-x,1/2-y,-z
1/2+x,1/2-y,1/2+z
loop_
_atom_site_type_symbol
_atom_site_label
_atom_site_fract_x
_atom_site_fract_y
_atom_site_fract_z
Si Si1 0.086180 0.171766 0.851734
Si Si2 0.022956 0.666796 0.617661
Si Si3 0.737423 0.012395 0.063229
Si Si4 0.000000 0.117629 0.750000
Si Si5 0.839903 0.037326 0.639128
Si Si6 0.092158 0.479360 0.028600
Si Si7 0.800979 0.759798 0.736972
O O1 0.159315 0.108221 0.821268
O O2 0.207706 0.230643 0.744827
O O3 0.061859 0.163557 0.767698
O O4 0.920017 0.186620 0.074551
O O5 0.024696 0.592527 0.583556
O O6 0.188406 0.702163 0.423858
O O7 0.000000 0.671472 0.750000
O O8 0.879479 0.701392 0.712184
O O9 0.824752 0.962622 0.043286
O O10 0.557301 0.026720 0.289716
O O11 0.848033 0.075978 0.942967
O O12 0.722582 0.980071 0.977404
O O13 0.680584 0.001969 0.844095
O O14 0.000000 0.000000 0.500000
#
# Coordination Sequence:
#
# PCOD8150576 Si02
#       7
#     8   8   8   4   8   8   8
#     4  11  24  45  65  93 126 168 220 266 316 382
#     4  11  21  42  65  94 131 166 213 261 317 385
#     4  11  22  40  60 100 133 162 211 255 340 389
#     4  12  24  44  68  90 132 166 218 272 318 398
#     4  12  22  40  69  96 130 169 205 270 333 385
#     4  11  23  40  64 100 131 168 208 267 331 390
#     4  10  25  43  65  90 125 176 219 260 311 374
#
# _framework density 20.912236
#
# number of rings (size 3 to 8) (size 9 to 14) (size 15 to 20)
#    0.000    0.923    4.615    2.769    0.000    0.615 
#    2.769    0.000    0.000    0.000    0.000    0.000 
#    0.000    0.000    0.000    0.000    0.000    0.000 
#
# Total GULP energy -322435.027041 kJ/mol
# GULP energy per Si atom -12401.347194 kJ/mol
# Density = 2.086464 g / cm^3
# Si number density = 20.912236 Si / 1000 Ang^3
#
#
#
# Elastic Constant Matrix: (Units=GPa)
#
#
# Indices 1 2 3 4 5 6 
#
# 1 106.9821 40.7690 27.4010 0.0318 12.3474 -0.0414
# 2 40.7690 74.5213 53.8232 0.0186 11.6846 -0.0258
# 3 27.4010 53.8232 122.6979 0.0033 -7.5742 -0.0243
# 4 0.0318 0.0186 0.0033 22.1054 -0.0146 18.8900
# 5 12.3474 11.6846 -7.5742 -0.0146 33.0448 0.0279
# 6 -0.0414 -0.0258 -0.0243 18.8900 0.0279 13.3563
#
#
#
# Elastic Compliance Matrix: (Units=1/GPa)
#
#
# Indices 1 2 3 4 5 6 
#
# 1 0.011972 -0.006063 -0.000160 0.000188 -0.002366 -0.000236
# 2 -0.006063 0.025799 -0.010535 0.000213 -0.009271 -0.000269
# 3 -0.000160 -0.010535 0.013228 -0.000101 0.006817 0.000132
# 4 0.000188 0.000213 -0.000101 -0.216866 -0.000524 0.306718
# 5 -0.002366 -0.009271 0.006817 -0.000524 0.035986 0.000653
# 6 -0.000236 -0.000269 0.000132 0.306718 0.000653 -0.358926
#
#
# Mechanical properties :
#
#
# Convention : Reuss Voigt Hill
#
# Bulk Modulus (GPa) = 57.20253 60.90976 59.05615
# Shear Modulus (GPa) = -11.12437 25.84852 7.36207
#
# Velocity S-wave (km/s) = -2.30892 3.51956 1.87832
# Velocity P-wave (km/s) = 4.50609 6.76062 5.74504
#
# Compressibility (1/GPa) = 0.01748174
#
# Stress axis : x y z
#
# Youngs Moduli (GPa) = 83.52971 38.76159 75.59646
#
# Poissons Ratio (x) = 0.23502 0.01209
# Poissons Ratio (y) = 0.50646 0.79643
# Poissons Ratio (z) = 0.01336 0.40837
#
# Static dielectric constant tensor:
#      x y z
#    x 4.104880 -0.000070 -0.104020 
#    y -0.000070 3.704910 0.000150 
#    z -0.104020 0.000150 3.930720 
# 
# 
# High freq. dielectric constant tensor:
#      x y z
#    x 1.842020 0.000000 -0.007690 
#    y 0.000000 1.801760 0.000010 
#    z -0.007690 0.000010 1.827070 
# 
# From -- ./inp_files/163599.got.cif
#   From: 2010.06.25/outbox.cif.g09.slc.cpg/sg15_82_cif.got.tgz:163599.got - 2010.06.28 07:06:18.
