data_PCOD8150508
_publ_section_title
;
Structure prediction by ZEFSAII (Michael W. Deem and Ramdas Pophale) SiO2 
 PCOD8150508
Probable space group: C 2/C
;
_chemical_formula_sum "Si O2"
_cell_formula_units_Z 44
_cell_length_a 9.057006
_cell_length_b 22.815827
_cell_length_c 10.062700
_cell_angle_alpha 90.000000
_cell_angle_beta 58.754315
_cell_angle_gamma 90.000000
_cell_volume 1777.774157
_symmetry_space_group_name_H-M "C 2/C"
_symmetry_group_IT_number 15
_symmetry_cell_setting 'monoclinic'
loop_
_space_group_symop_operation_xyz
x,y,z
-x,y,1/2-z
-x,-y,-z
x,-y,1/2+z
1/2+x,1/2+y,z
1/2-x,1/2+y,1/2-z
1/2-x,1/2-y,-z
1/2+x,1/2-y,1/2+z
loop_
_atom_site_type_symbol
_atom_site_label
_atom_site_fract_x
_atom_site_fract_y
_atom_site_fract_z
Si Si1 0.002561 0.365212 0.889328
Si Si2 0.387769 0.777674 0.168817
Si Si3 0.817975 0.905731 0.902282
Si Si4 0.500000 0.412466 0.250000
Si Si5 0.440531 0.322800 0.058685
Si Si6 0.676768 0.023594 0.977295
O O1 0.000000 0.329558 0.750000
O O2 0.191475 0.387294 0.842340
O O3 0.924555 0.330072 0.049670
O O4 0.878943 0.420992 0.908539
O O5 0.500000 0.782940 0.250000
O O6 0.185384 0.779605 0.299990
O O7 0.415765 0.715625 0.083269
O O8 0.000000 0.916950 0.750000
O O9 0.759446 0.965658 0.006835
O O10 0.818850 0.853923 0.007793
O O11 0.532253 0.371176 0.106791
O O12 0.671977 0.451945 0.192522
O O13 0.500000 0.000000 0.000000
#
# Coordination Sequence:
#
# PCOD8150508 Si02
#       6
#     8   8   8   4   8   8
#     4  11  26  47  76 113 154 200 266 329 405 476
#     4  12  26  51  74 111 152 215 265 328 397 479
#     4  11  25  45  76 110 154 209 262 323 404 487
#     4  12  26  48  72 120 150 206 264 330 402 474
#     4  12  29  45  78 108 160 208 272 328 397 484
#     4  10  24  49  74 111 158 203 256 332 402 479
#
# _framework density 24.750049000000001
#
# number of rings (size 3 to 8) (size 9 to 14) (size 15 to 20)
#    0.000    0.727    4.545    1.091    6.364    4.364 
#    0.000    0.000    0.000    0.000    0.000    0.000 
#    0.000    0.000    0.000    0.000    0.000    0.000 
#
# Total GULP energy -272585.528425 kJ/mol
# GULP energy per Si atom -12390.251292 kJ/mol
# Density = 2.469372 g / cm^3
# Si number density = 24.750049 Si / 1000 Ang^3
#
#
#
# Elastic Constant Matrix: (Units=GPa)
#
#
# Indices 1 2 3 4 5 6 
#
# 1 101.7803 46.1723 57.3595 0.0000 -8.3552 0.0000
# 2 46.1723 138.3011 51.4755 0.0000 -4.6744 0.0000
# 3 57.3595 51.4755 116.3081 0.0000 -1.3937 0.0000
# 4 0.0000 0.0000 0.0000 1.8253 0.0000 -5.2381
# 5 -8.3552 -4.6744 -1.3937 0.0000 45.4859 0.0000
# 6 0.0000 0.0000 0.0000 -5.2381 0.0000 28.5391
#
#
#
# Elastic Compliance Matrix: (Units=1/GPa)
#
#
# Indices 1 2 3 4 5 6 
#
# 1 0.014558 -0.002541 -0.006028 0.000000 0.002228 0.000000
# 2 -0.002541 0.009127 -0.002782 0.000000 0.000386 0.000000
# 3 -0.006028 -0.002782 0.012790 0.000000 -0.001001 0.000000
# 4 0.000000 0.000000 0.000000 1.157593 0.000000 0.212464
# 5 0.002228 0.000386 -0.001001 0.000000 0.022403 0.000000
# 6 0.000000 0.000000 0.000000 0.212464 0.000000 0.074035
#
#
# Mechanical properties :
#
#
# Convention : Reuss Voigt Hill
#
# Bulk Modulus (GPa) = 72.60538 74.04490 73.32514
# Shear Modulus (GPa) = 3.79420 28.59554 16.19487
#
# Velocity S-wave (km/s) = 1.23949 3.40277 2.56078
# Velocity P-wave (km/s) = 5.60781 6.73947 6.19952
#
# Compressibility (1/GPa) = 0.01377308
#
# Stress axis : x y z
#
# Youngs Moduli (GPa) = 68.69027 109.56021 78.18686
#
# Poissons Ratio (x) = 0.27842 0.47132
# Poissons Ratio (y) = 0.17456 0.21749
# Poissons Ratio (z) = 0.41408 0.30476
#
# Static dielectric constant tensor:
#      x y z
#    x 5.105610 0.000000 -0.181510 
#    y 0.000000 4.921070 0.000000 
#    z -0.181510 0.000000 4.502420 
# 
# 
# High freq. dielectric constant tensor:
#      x y z
#    x 1.981920 0.000000 -0.024190 
#    y 0.000000 2.001590 0.000000 
#    z -0.024190 0.000000 1.980910 
# 
# From -- ./inp_files/79697.got.cif
#   From: 2010.06.25/outbox.cif.g09.slc.cpg/sg15_40_cif.got.tgz:79697.got - 2010.06.28 07:06:18.
