data_PCOD8150465
_publ_section_title
;
Structure prediction by ZEFSAII (Michael W. Deem and Ramdas Pophale) SiO2 
 PCOD8150465
Probable space group: C 2/C
;
_chemical_formula_sum "Si O2"
_cell_formula_units_Z 60
_cell_length_a 10.192617
_cell_length_b 21.079132
_cell_length_c 17.870760
_cell_angle_alpha 90.000000
_cell_angle_beta 49.039152
_cell_angle_gamma 90.000000
_cell_volume 2899.473286
_symmetry_space_group_name_H-M "C 2/C"
_symmetry_group_IT_number 15
_symmetry_cell_setting 'monoclinic'
loop_
_space_group_symop_operation_xyz
x,y,z
-x,y,1/2-z
-x,-y,-z
x,-y,1/2+z
1/2+x,1/2+y,z
1/2-x,1/2+y,1/2-z
1/2-x,1/2-y,-z
1/2+x,1/2-y,1/2+z
loop_
_atom_site_type_symbol
_atom_site_label
_atom_site_fract_x
_atom_site_fract_y
_atom_site_fract_z
Si Si1 0.324177 0.881485 0.266115
Si Si2 0.877891 0.447650 0.944660
Si Si3 0.497679 0.081729 0.938606
Si Si4 0.141094 0.176124 0.377901
Si Si5 0.820433 0.240800 0.281940
Si Si6 0.500000 0.113231 0.250000
Si Si7 0.110857 0.282574 0.999265
Si Si8 0.007149 0.929331 0.025197
O O1 0.500000 0.888034 0.250000
O O2 0.342118 0.917641 0.179673
O O3 0.260973 0.809249 0.272250
O O4 0.166466 0.916897 0.364835
O O5 0.874206 0.523399 0.960905
O O6 0.998178 0.430675 0.826313
O O7 0.951379 0.417292 0.993252
O O8 0.682478 0.421501 0.008523
O O9 0.403260 0.148387 0.958926
O O10 0.139382 0.183762 0.289590
O O11 0.339786 0.160745 0.322805
O O12 0.070453 0.243313 0.436739
O O13 0.016928 0.119146 0.451343
O O14 0.677282 0.212564 0.390316
O O15 0.000000 0.260157 0.250000
O O16 0.250000 0.250000 0.000000
O O17 0.000000 0.000000 0.000000
#
# Coordination Sequence:
#
# PCOD8150465 Si02
#       8
#     8   8   8   8   8   4   8   8
#     4  11  22  38  67  99 130 173 219 273 342 390
#     4  10  25  46  67  94 134 181 224 269 333 397
#     4  11  24  43  68  98 135 173 216 284 334 387
#     4  11  23  42  63  98 128 171 221 268 331 392
#     4  11  21  37  62  96 131 168 211 272 335 394
#     4  10  24  48  66  92 132 184 226 254 330 416
#     4  12  22  40  67  99 136 165 219 281 334 393
#     4  11  25  42  68  95 128 177 233 272 322 411
#
# _framework density 20.693413
#
# number of rings (size 3 to 8) (size 9 to 14) (size 15 to 20)
#    0.000    1.067    4.000    2.400    6.533    0.533 
#    2.400    2.000    0.000    0.000    0.000    0.000 
#    0.000    0.000    0.000    0.000    0.000    0.000 
#
# Total GULP energy -371720.127961 kJ/mol
# GULP energy per Si atom -12390.670932 kJ/mol
# Density = 2.064631 g / cm^3
# Si number density = 20.693413 Si / 1000 Ang^3
#
#
#
# Elastic Constant Matrix: (Units=GPa)
#
#
# Indices 1 2 3 4 5 6 
#
# 1 74.0149 40.8599 52.8169 -0.0011 8.3865 -0.0005
# 2 40.8599 139.0320 59.5674 -0.0001 0.9323 0.0000
# 3 52.8169 59.5674 187.1672 -0.0006 13.1906 -0.0003
# 4 -0.0011 -0.0001 -0.0006 -522.8605 0.0006 -261.3984
# 5 8.3865 0.9323 13.1906 0.0006 42.2939 0.0003
# 6 -0.0005 0.0000 -0.0003 -261.3984 0.0003 -101.9282
#
#
#
# Elastic Compliance Matrix: (Units=1/GPa)
#
#
# Indices 1 2 3 4 5 6 
#
# 1 0.018654 -0.003802 -0.003885 0.000000 -0.002404 0.000000
# 2 -0.003802 0.009121 -0.001911 0.000000 0.001149 0.000000
# 3 -0.003885 -0.001911 0.007147 0.000000 -0.001417 0.000000
# 4 0.000000 0.000000 0.000000 0.006779 0.000000 -0.017386
# 5 -0.002404 0.001149 -0.001417 0.000000 0.024537 0.000000
# 6 0.000000 0.000000 0.000000 -0.017386 0.000000 0.034776
#
#
# Mechanical properties :
#
#
# Convention : Reuss Voigt Hill
#
# Bulk Modulus (GPa) = 63.58389 78.52252 71.05320
# Shear Modulus (GPa) = 39.85586 -100.03430 -30.08922
#
# Velocity S-wave (km/s) = 4.39340 -6.96032 -3.81734
# Velocity P-wave (km/s) = 7.51860 5.15429 3.87057
#
# Compressibility (1/GPa) = 0.01572725
#
# Stress axis : x y z
#
# Youngs Moduli (GPa) = 53.60793 109.63829 139.91796
#
# Poissons Ratio (x) = 0.41681 0.54353
# Poissons Ratio (y) = 0.20380 0.26738
# Poissons Ratio (z) = 0.20825 0.20951
#
# Static dielectric constant tensor:
#      x y z
#    x 3.983650 0.000000 -0.177020 
#    y 0.000000 4.119440 0.000000 
#    z -0.177020 0.000000 4.390010 
# 
# 
# High freq. dielectric constant tensor:
#      x y z
#    x 1.779450 0.000000 0.008420 
#    y 0.000000 1.820900 0.000000 
#    z 0.008420 0.000000 1.833530 
# 
# From -- ./inp_files/239959.got.cif
#   From: 2010.06.25/outbox.cif.g09.slc.cpg/sg15_120_cif.got.tgz:239959.got - 2010.06.28 07:06:18.
