data_PCOD8150314
_publ_section_title
;
Structure prediction by ZEFSAII (Michael W. Deem and Ramdas Pophale) SiO2 
 PCOD8150314
Probable space group: C 2/C
;
_chemical_formula_sum "Si O2"
_cell_formula_units_Z 64
_cell_length_a 17.937778
_cell_length_b 15.327207
_cell_length_c 17.787100
_cell_angle_alpha 90.000000
_cell_angle_beta 37.140333
_cell_angle_gamma 90.000000
_cell_volume 2952.621891
_symmetry_space_group_name_H-M "C 2/C"
_symmetry_group_IT_number 15
_symmetry_cell_setting 'monoclinic'
loop_
_space_group_symop_operation_xyz
x,y,z
-x,y,1/2-z
-x,-y,-z
x,-y,1/2+z
1/2+x,1/2+y,z
1/2-x,1/2+y,1/2-z
1/2-x,1/2-y,-z
1/2+x,1/2-y,1/2+z
loop_
_atom_site_type_symbol
_atom_site_label
_atom_site_fract_x
_atom_site_fract_y
_atom_site_fract_z
Si Si1 0.512221 0.062764 0.651700
Si Si2 0.627346 0.506494 0.114729
Si Si3 0.799918 0.239051 0.676429
Si Si4 0.895987 0.956667 0.532887
Si Si5 0.584694 0.740860 0.473313
Si Si6 0.282021 0.058427 0.741319
Si Si7 0.255536 0.822927 0.558139
Si Si8 0.159117 0.414014 0.475959
O O1 0.500000 0.067133 0.750000
O O2 0.393262 0.093184 0.702671
O O3 0.614191 0.130456 0.544843
O O4 0.540731 0.963711 0.604050
O O5 0.500000 0.471910 0.250000
O O6 0.652055 0.603584 0.126490
O O7 0.727028 0.435332 0.061131
O O8 0.621723 0.511178 0.029253
O O9 0.691939 0.260862 0.823778
O O10 0.819282 0.134458 0.664201
O O11 0.736860 0.276271 0.652446
O O12 0.943181 0.272733 0.568162
O O13 0.920474 0.856817 0.490122
O O14 0.771246 0.967366 0.683314
O O15 0.000000 0.000000 0.500000
O O16 0.632321 0.810602 0.497004
O O17 0.317064 0.047016 0.626433
O O18 0.250000 0.750000 0.500000
#
# Coordination Sequence:
#
# PCOD8150314 Si02
#       8
#     8   8   8   8   8   8   8   8
#     4  11  23  41  67 101 142 192 237 295 361 430
#     4  11  26  43  68  98 138 188 232 296 370 421
#     4  11  24  44  66 108 140 186 236 294 358 421
#     4  12  25  44  73 100 138 184 237 293 362 428
#     4  11  27  44  74 103 141 186 249 295 352 425
#     4  11  22  41  70  97 142 180 239 296 351 433
#     4  11  24  40  65 100 147 182 231 289 364 439
#     4  10  24  46  64 100 140 183 246 295 356 424
#
# _framework density 21.675651999999999
#
# number of rings (size 3 to 8) (size 9 to 14) (size 15 to 20)
#    0.000    1.000    1.250    5.625    8.750    2.000 
#    0.000    0.625    0.000    0.000    0.000    0.000 
#    0.000    0.000    0.000    0.000    0.000    0.000 
#
# Total GULP energy -396574.898035 kJ/mol
# GULP energy per Si atom -12392.965564 kJ/mol
# Density = 2.162632 g / cm^3
# Si number density = 21.675652 Si / 1000 Ang^3
#
#
#
# Elastic Constant Matrix: (Units=GPa)
#
#
# Indices 1 2 3 4 5 6 
#
# 1 110.8676 1.8064 14.5528 0.0000 -5.4685 0.0000
# 2 1.8064 72.3926 -23.0463 0.0000 -18.5724 0.0000
# 3 14.5528 -23.0463 75.0698 0.0000 -18.9707 -0.0001
# 4 0.0000 0.0000 0.0000 27.6545 0.0000 3.2952
# 5 -5.4685 -18.5724 -18.9707 0.0000 31.6485 0.0001
# 6 0.0000 0.0000 -0.0001 3.2952 0.0001 24.5877
#
#
#
# Elastic Compliance Matrix: (Units=1/GPa)
#
#
# Indices 1 2 3 4 5 6 
#
# 1 0.009309 -0.001002 -0.002186 0.000000 -0.000290 0.000000
# 2 -0.001002 0.023281 0.012669 0.000000 0.021083 0.000000
# 3 -0.002186 0.012669 0.022884 0.000000 0.020774 0.000000
# 4 0.000000 0.000000 0.000000 0.036747 0.000000 -0.004925
# 5 -0.000290 0.021083 0.020774 0.000000 0.056372 0.000000
# 6 0.000000 0.000000 0.000000 -0.004925 0.000000 0.041331
#
#
# Mechanical properties :
#
#
# Convention : Reuss Voigt Hill
#
# Bulk Modulus (GPa) = 13.43437 27.21730 20.32584
# Shear Modulus (GPa) = 25.53987 34.44594 29.99291
#
# Velocity S-wave (km/s) = 3.43632 3.99074 3.72387
# Velocity P-wave (km/s) = 4.68570 5.81538 5.28083
#
# Compressibility (1/GPa) = 0.07443596
#
# Stress axis : x y z
#
# Youngs Moduli (GPa) = 107.42655 42.95397 43.69890
#
# Poissons Ratio (x) = 0.04306 0.09551
# Poissons Ratio (y) = 0.10769 -0.55363
# Poissons Ratio (z) = 0.23479 -0.54420
#
# Static dielectric constant tensor:
#      x y z
#    x 3.934950 0.000000 -0.184400 
#    y 0.000000 4.001140 0.000000 
#    z -0.184400 0.000000 4.021780 
# 
# 
# High freq. dielectric constant tensor:
#      x y z
#    x 1.855080 0.000000 -0.008750 
#    y 0.000000 1.854880 0.000000 
#    z -0.008750 0.000000 1.859970 
# 
# From -- ./inp_files/211357.got.cif
#   From: 2010.06.25/outbox.cif.g09.slc.cpg/sg15_106_cif.got.tgz:211357.got - 2010.06.28 07:06:18.
