data_PCOD8150398
_publ_section_title
;
Structure prediction by ZEFSAII (Michael W. Deem and Ramdas Pophale) SiO2 
 PCOD8150398
Probable space group: C 2/C
;
_chemical_formula_sum "Si O2"
_cell_formula_units_Z 48
_cell_length_a 29.562025
_cell_length_b 4.900488
_cell_length_c 18.460318
_cell_angle_alpha 90.000000
_cell_angle_beta 140.270026
_cell_angle_gamma 90.000000
_cell_volume 1709.343057
_symmetry_space_group_name_H-M "C 2/C"
_symmetry_group_IT_number 15
_symmetry_cell_setting 'monoclinic'
loop_
_space_group_symop_operation_xyz
x,y,z
-x,y,1/2-z
-x,-y,-z
x,-y,1/2+z
1/2+x,1/2+y,z
1/2-x,1/2+y,1/2-z
1/2-x,1/2-y,-z
1/2+x,1/2-y,1/2+z
loop_
_atom_site_type_symbol
_atom_site_label
_atom_site_fract_x
_atom_site_fract_y
_atom_site_fract_z
Si Si1 0.432979 0.087813 0.961420
Si Si2 0.087743 0.949419 0.691180
Si Si3 0.664636 0.045469 0.342343
Si Si4 0.538192 0.590955 0.873331
Si Si5 0.209688 0.390952 0.678678
Si Si6 0.185055 0.785056 0.517580
O O1 0.411180 0.369519 0.892485
O O2 0.367031 0.880288 0.877833
O O3 0.454167 0.127337 0.071648
O O4 0.500000 0.000000 0.000000
O O5 0.141688 0.765015 0.803207
O O6 0.114876 0.260432 0.731227
O O7 0.009519 0.902693 0.632065
O O8 0.747057 0.046060 0.423290
O O9 0.651178 0.124685 0.408429
O O10 0.500000 0.641389 0.750000
O O11 0.621653 0.506364 0.966349
O O12 0.238893 0.081139 0.705957
O O13 0.209420 0.553525 0.603537
#
# Coordination Sequence:
#
# PCOD8150398 Si02
#       6
#     8   8   8   8   8   8
#     4  11  26  47  78 111 150 202 248 306 376 449
#     4  12  25  48  76 107 148 193 248 299 374 439
#     4  11  25  47  76 108 146 191 245 307 370 442
#     4  11  24  49  70 110 151 197 246 310 368 441
#     4  11  25  47  75 109 148 191 250 305 370 439
#     4  10  24  46  74 108 146 193 245 304 370 436
#
# _framework density 28.080964000000002
#
# number of rings (size 3 to 8) (size 9 to 14) (size 15 to 20)
#    0.000    1.000    1.667    3.500    0.000    8.000 
#    9.000    0.000    0.000    0.000    0.000    0.000 
#    0.000    0.000    0.000    0.000    0.000    0.000 
#
# Total GULP energy -297453.611685 kJ/mol
# GULP energy per Si atom -12393.900487 kJ/mol
# Density = 2.801705 g / cm^3
# Si number density = 28.080964 Si / 1000 Ang^3
#
#
#
# Elastic Constant Matrix: (Units=GPa)
#
#
# Indices 1 2 3 4 5 6 
#
# 1 105.0469 -12.7276 -9.4706 -0.0046 25.3406 -0.0187
# 2 -12.7276 57.2681 -21.5337 -0.0154 20.0240 -0.0336
# 3 -9.4706 -21.5337 45.9125 0.0008 13.7037 -0.0101
# 4 -0.0046 -0.0154 0.0008 19.4754 0.0021 8.9465
# 5 25.3406 20.0240 13.7037 0.0021 73.0501 0.0015
# 6 -0.0187 -0.0336 -0.0101 8.9465 0.0015 37.7140
#
#
#
# Elastic Compliance Matrix: (Units=1/GPa)
#
#
# Indices 1 2 3 4 5 6 
#
# 1 0.014194 0.010725 0.010916 0.000004 -0.009912 0.000019
# 2 0.010725 0.035114 0.024009 0.000012 -0.017850 0.000041
# 3 0.010916 0.024009 0.040665 0.000005 -0.017996 0.000037
# 4 0.000004 0.000012 0.000005 0.057627 -0.000007 -0.013670
# 5 -0.009912 -0.017850 -0.017996 -0.000007 0.025396 -0.000025
# 6 0.000019 0.000041 0.000037 -0.013670 -0.000025 0.029758
#
#
# Mechanical properties :
#
#
# Convention : Reuss Voigt Hill
#
# Bulk Modulus (GPa) = 5.51649 13.41818 9.46734
# Shear Modulus (GPa) = 29.09045 42.84520 35.96783
#
# Velocity S-wave (km/s) = 3.22211 3.91035 3.58280
# Velocity P-wave (km/s) = 3.97636 5.01763 4.52703
#
# Compressibility (1/GPa) = 0.18127452
#
# Stress axis : x y z
#
# Youngs Moduli (GPa) = 70.45130 28.47835 24.59145
#
# Poissons Ratio (x) = -0.30543 -0.26845
# Poissons Ratio (y) = -0.75559 -0.59042
# Poissons Ratio (z) = -0.76908 -0.68374
#
# Static dielectric constant tensor:
#      x y z
#    x 5.768920 -0.000010 -0.111130 
#    y -0.000010 4.721590 -0.000010 
#    z -0.111130 -0.000010 5.823020 
# 
# 
# High freq. dielectric constant tensor:
#      x y z
#    x 2.162070 0.000000 0.002330 
#    y 0.000000 2.100630 0.000000 
#    z 0.002330 0.000000 2.162840 
# 
# From -- ./inp_files/258568.got.cif
#   From: 2010.06.25/outbox.cif.g09.slc.cpg/sg15_130_cif.got.tgz:258568.got - 2010.06.28 07:06:18.
