data_PCOD8150837
_publ_section_title
;
Structure prediction by ZEFSAII (Michael W. Deem and Ramdas Pophale) SiO2 
 PCOD8150837
Probable space group: C 2/C
;
_chemical_formula_sum "Si O2"
_cell_formula_units_Z 52
_cell_length_a 10.539160
_cell_length_b 27.339818
_cell_length_c 8.747601
_cell_angle_alpha 90.000000
_cell_angle_beta 118.459528
_cell_angle_gamma 90.000000
_cell_volume 2215.927316
_symmetry_space_group_name_H-M "C 2/C"
_symmetry_group_IT_number 15
_symmetry_cell_setting 'monoclinic'
loop_
_space_group_symop_operation_xyz
x,y,z
-x,y,1/2-z
-x,-y,-z
x,-y,1/2+z
1/2+x,1/2+y,z
1/2-x,1/2+y,1/2-z
1/2-x,1/2-y,-z
1/2+x,1/2-y,1/2+z
loop_
_atom_site_type_symbol
_atom_site_label
_atom_site_fract_x
_atom_site_fract_y
_atom_site_fract_z
Si Si1 0.000000 0.937816 0.250000
Si Si2 0.914825 0.385355 0.474233
Si Si3 0.728757 0.969091 0.926448
Si Si4 0.203265 0.436287 0.572571
Si Si5 0.096687 0.775967 0.944625
Si Si6 0.099505 0.723253 0.442742
Si Si7 0.167178 0.121084 0.601666
O O1 0.121692 0.971854 0.393544
O O2 0.048632 0.903091 0.140639
O O3 0.870449 0.425859 0.571285
O O4 0.884161 0.334983 0.544966
O O5 0.824233 0.386447 0.266624
O O6 0.079656 0.395892 0.527440
O O7 0.753991 0.961897 0.759942
O O8 0.653160 0.020888 0.924897
O O9 0.330832 0.405180 0.563846
O O10 0.000000 0.795968 0.750000
O O11 0.250000 0.750000 0.000000
O O12 0.130455 0.821846 0.071430
O O13 0.984119 0.737926 0.952312
O O14 0.250000 0.750000 0.500000
O O15 0.000000 0.741150 0.250000
#
# Coordination Sequence:
#
# PCOD8150837 Si02
#       7
#     4   8   8   8   8   8   8
#     4  10  26  46  68 100 144 184 252 300 360 442
#     4  11  24  46  70 106 145 184 241 301 365 437
#     4  11  25  43  72 103 143 190 239 298 368 435
#     4  12  25  44  72 104 143 189 241 304 371 441
#     4  12  27  47  72 110 152 197 249 310 376 444
#     4  12  26  45  76 106 144 195 247 302 366 441
#     4  11  26  44  72 100 143 190 238 305 367 433
#
# _framework density 23.466474999999999
#
# number of rings (size 3 to 8) (size 9 to 14) (size 15 to 20)
#    0.000    0.615    0.000    7.846    7.538    3.692 
#    0.000    0.000    0.000    0.000    0.000    0.000 
#    0.000    0.000    0.000    0.000    0.000    0.000 
#
# Total GULP energy -322396.836086 kJ/mol
# GULP energy per Si atom -12399.878311 kJ/mol
# Density = 2.341306 g / cm^3
# Si number density = 23.466475 Si / 1000 Ang^3
#
#
#
# Elastic Constant Matrix: (Units=GPa)
#
#
# Indices 1 2 3 4 5 6 
#
# 1 148.7636 48.5173 33.3885 0.0000 -4.8690 0.0000
# 2 48.5173 135.3064 10.4400 0.0000 -1.1162 0.0000
# 3 33.3885 10.4400 84.4514 0.0000 -5.3306 0.0000
# 4 0.0000 0.0000 0.0000 37.6812 0.0000 -9.2664
# 5 -4.8690 -1.1162 -5.3306 0.0000 36.9069 0.0000
# 6 0.0000 0.0000 0.0000 -9.2664 0.0000 40.8713
#
#
#
# Elastic Compliance Matrix: (Units=1/GPa)
#
#
# Indices 1 2 3 4 5 6 
#
# 1 0.008287 -0.002743 -0.002900 0.000000 0.000591 0.000000
# 2 -0.002743 0.008370 0.000043 0.000000 -0.000102 0.000000
# 3 -0.002900 0.000043 0.013077 0.000000 0.001508 0.000000
# 4 0.000000 0.000000 0.000000 0.028105 0.000000 0.006372
# 5 0.000591 -0.000102 0.001508 0.000000 0.027388 0.000000
# 6 0.000000 0.000000 0.000000 0.006372 0.000000 0.025912
#
#
# Mechanical properties :
#
#
# Convention : Reuss Voigt Hill
#
# Bulk Modulus (GPa) = 53.95109 61.46810 57.70960
# Shear Modulus (GPa) = 38.90551 41.50359 40.20455
#
# Velocity S-wave (km/s) = 4.07617 4.21007 4.14366
# Velocity P-wave (km/s) = 6.72266 7.06285 6.89485
#
# Compressibility (1/GPa) = 0.01853531
#
# Stress axis : x y z
#
# Youngs Moduli (GPa) = 120.67378 119.47503 76.46770
#
# Poissons Ratio (x) = 0.32770 0.22174
# Poissons Ratio (y) = 0.33098 -0.00330
# Poissons Ratio (z) = 0.34994 -0.00516
#
# Static dielectric constant tensor:
#      x y z
#    x 4.301510 0.000000 -0.077850 
#    y 0.000000 4.191800 0.000000 
#    z -0.077850 0.000000 4.345230 
# 
# 
# High freq. dielectric constant tensor:
#      x y z
#    x 1.934140 0.000000 -0.008850 
#    y 0.000000 1.940100 0.000000 
#    z -0.008850 0.000000 1.938320 
# 
# From -- ./inp_files/34438.got.cif
#   From: 2010.06.25/outbox.cif.g09.slc.cpg/sg15_18_cif.got.tgz:34438.got - 2010.06.28 07:06:18.
