data_PCOD8150556
_publ_section_title
;
Structure prediction by ZEFSAII (Michael W. Deem and Ramdas Pophale) SiO2 
 PCOD8150556
Probable space group: C 2/C
;
_chemical_formula_sum "Si O2"
_cell_formula_units_Z 64
_cell_length_a 11.561254
_cell_length_b 14.810244
_cell_length_c 27.591020
_cell_angle_alpha 90.000000
_cell_angle_beta 138.448743
_cell_angle_gamma 90.000000
_cell_volume 3133.561567
_symmetry_space_group_name_H-M "C 2/C"
_symmetry_group_IT_number 15
_symmetry_cell_setting 'monoclinic'
loop_
_space_group_symop_operation_xyz
x,y,z
-x,y,1/2-z
-x,-y,-z
x,-y,1/2+z
1/2+x,1/2+y,z
1/2-x,1/2+y,1/2-z
1/2-x,1/2-y,-z
1/2+x,1/2-y,1/2+z
loop_
_atom_site_type_symbol
_atom_site_label
_atom_site_fract_x
_atom_site_fract_y
_atom_site_fract_z
Si Si1 0.259086 0.061232 0.099536
Si Si2 0.040774 0.418758 0.173948
Si Si3 0.433712 0.499891 0.056084
Si Si4 0.870743 0.145289 0.831241
Si Si5 0.907830 0.250597 0.671741
Si Si6 0.357599 0.240006 0.665378
Si Si7 0.640172 0.087998 0.595419
Si Si8 0.717119 0.089683 0.065618
O O1 0.304506 0.166406 0.116056
O O2 0.431444 0.001438 0.162518
O O3 0.184162 0.038442 0.023589
O O4 0.116231 0.040527 0.095547
O O5 0.936249 0.325755 0.149265
O O6 0.222620 0.415169 0.259451
O O7 0.069739 0.434578 0.126522
O O8 0.468861 0.418748 0.104428
O O9 0.327125 0.576973 0.050807
O O10 0.804218 0.191302 0.859666
O O11 0.939212 0.222065 0.816768
O O12 0.776646 0.168941 0.640950
O O13 0.000000 0.281750 0.750000
O O14 0.500000 0.266363 0.750000
O O15 0.296721 0.329405 0.620457
O O16 0.481329 0.114115 0.510160
O O17 0.731691 0.998493 0.603772
#
# Coordination Sequence:
#
# PCOD8150556 Si02
#       8
#     8   8   8   8   8   8   8   8
#     4  11  27  43  69 100 134 174 226 270 335 393
#     4  11  23  46  66  94 139 172 215 277 326 391
#     4  11  24  45  66 100 129 178 222 271 330 393
#     4  11  24  44  67  92 137 172 217 274 329 386
#     4  12  27  43  65 102 134 178 221 274 333 395
#     4  10  25  42  67  98 125 172 222 266 326 395
#     4  11  25  44  63  99 136 171 218 271 333 390
#     4  11  25  43  70  96 131 178 219 269 335 393
#
# _framework density 20.424045
#
# number of rings (size 3 to 8) (size 9 to 14) (size 15 to 20)
#    0.000    1.000    5.000    0.000    7.000    2.500 
#    0.000    0.000    0.000    0.000    0.000    0.000 
#    0.000    0.000    0.000    0.000    0.000    0.000 
#
# Total GULP energy -397016.233482 kJ/mol
# GULP energy per Si atom -12406.757296 kJ/mol
# Density = 2.037756 g / cm^3
# Si number density = 20.424045 Si / 1000 Ang^3
#
#
#
# Elastic Constant Matrix: (Units=GPa)
#
#
# Indices 1 2 3 4 5 6 
#
# 1 96.1301 17.9518 30.4426 0.0000 -3.9002 0.0000
# 2 17.9518 84.5666 40.0369 0.0000 3.4888 0.0000
# 3 30.4426 40.0369 64.8857 0.0000 -4.6779 0.0000
# 4 0.0000 0.0000 0.0000 38.5989 0.0000 -8.7344
# 5 -3.9002 3.4888 -4.6779 0.0000 27.9513 0.0000
# 6 0.0000 0.0000 0.0000 -8.7344 0.0000 12.2670
#
#
#
# Elastic Compliance Matrix: (Units=1/GPa)
#
#
# Indices 1 2 3 4 5 6 
#
# 1 0.012234 0.000092 -0.005744 0.000000 0.000734 0.000000
# 2 0.000092 0.017127 -0.010896 0.000000 -0.003948 0.000000
# 3 -0.005744 -0.010896 0.025174 0.000000 0.004772 0.000000
# 4 0.000000 0.000000 0.000000 0.030884 0.000000 0.021990
# 5 0.000734 -0.003948 0.004772 0.000000 0.037170 0.000000
# 6 0.000000 0.000000 0.000000 0.021990 0.000000 0.097177
#
#
# Mechanical properties :
#
#
# Convention : Reuss Voigt Hill
#
# Bulk Modulus (GPa) = 46.64270 46.93834 46.79052
# Shear Modulus (GPa) = 19.23028 26.24016 22.73522
#
# Velocity S-wave (km/s) = 3.07180 3.58825 3.34002
# Velocity P-wave (km/s) = 5.95550 6.34029 6.15090
#
# Compressibility (1/GPa) = 0.02143958
#
# Stress axis : x y z
#
# Youngs Moduli (GPa) = 81.73866 58.38811 39.72429
#
# Poissons Ratio (x) = -0.00537 0.22816
# Poissons Ratio (y) = -0.00751 0.43282
# Poissons Ratio (z) = 0.46948 0.63618
#
# Static dielectric constant tensor:
#      x y z
#    x 3.952670 0.000000 0.022230 
#    y 0.000000 3.550120 0.000000 
#    z 0.022230 0.000000 3.721420 
# 
# 
# High freq. dielectric constant tensor:
#      x y z
#    x 1.817260 0.000000 0.000830 
#    y 0.000000 1.792690 0.000000 
#    z 0.000830 0.000000 1.806470 
# 
# From -- ./inp_files/198345.got.cif
#   From: 2010.06.25/outbox.cif.g09.slc.cpg/sg15_100_cif.got.tgz:198345.got - 2010.06.28 07:06:18.
