data_PCOD8150998
_publ_section_title
;
Structure prediction by ZEFSAII (Michael W. Deem and Ramdas Pophale) SiO2 
 PCOD8150998
Probable space group: C 2/C
;
_chemical_formula_sum "Si O2"
_cell_formula_units_Z 60
_cell_length_a 31.817137
_cell_length_b 20.215369
_cell_length_c 14.851794
_cell_angle_alpha 90.000000
_cell_angle_beta 18.238770
_cell_angle_gamma 90.000000
_cell_volume 2989.751040
_symmetry_space_group_name_H-M "C 2/C"
_symmetry_group_IT_number 15
_symmetry_cell_setting 'monoclinic'
loop_
_space_group_symop_operation_xyz
x,y,z
-x,y,1/2-z
-x,-y,-z
x,-y,1/2+z
1/2+x,1/2+y,z
1/2-x,1/2+y,1/2-z
1/2-x,1/2-y,-z
1/2+x,1/2-y,1/2+z
loop_
_atom_site_type_symbol
_atom_site_label
_atom_site_fract_x
_atom_site_fract_y
_atom_site_fract_z
Si Si1 0.349051 0.902615 0.534552
Si Si2 0.486809 0.703075 0.413091
Si Si3 0.500000 0.722828 0.750000
Si Si4 0.974612 0.051689 0.404325
Si Si5 0.999837 0.147289 0.565041
Si Si6 0.210017 0.963142 0.984013
Si Si7 0.267874 0.456955 0.899055
Si Si8 0.710434 0.244670 0.327282
O O1 0.344373 0.929179 0.441476
O O2 0.270399 0.833714 0.700253
O O3 0.292386 0.953688 0.724371
O O4 0.500000 0.885071 0.250000
O O5 0.459400 0.625657 0.467622
O O6 0.496868 0.710896 0.501348
O O7 0.360794 0.740394 0.623774
O O8 0.624748 0.723207 0.082621
O O9 0.512684 0.675581 0.638319
O O10 0.634050 0.769571 0.485989
O O11 0.000000 0.051947 0.250000
O O12 0.839642 0.012232 0.693875
O O13 0.093662 0.016485 0.213105
O O14 0.860760 0.105080 0.840199
O O15 0.130294 0.101859 0.279449
O O16 0.297299 0.001393 0.884182
#
# Coordination Sequence:
#
# PCOD8150998 Si02
#       8
#     8   8   4   8   8   8   8   8
#     4  12  24  42  61  88 135 176 211 250 325 398
#     4  11  22  40  69  93 125 167 219 268 314 372
#     4  12  24  42  60  90 130 176 218 258 320 374
#     4  11  18  35  68  96 119 154 207 269 329 367
#     4  11  20  38  69  97 120 158 214 277 319 372
#     4  11  21  37  67 101 122 153 210 279 325 373
#     4  11  21  37  67 101 122 153 210 279 325 373
#     4  11  24  41  63  90 128 179 215 261 312 384
#
# _framework density 20.068560999999999
#
# number of rings (size 3 to 8) (size 9 to 14) (size 15 to 20)
#    0.000    0.800    9.333    0.800    1.867    1.600 
#    0.000    0.000    5.867    0.000    0.000    0.000 
#    0.000    0.000    0.000    0.000    0.000    0.000 
#
# Total GULP energy -371659.172935 kJ/mol
# GULP energy per Si atom -12388.639098 kJ/mol
# Density = 2.002288 g / cm^3
# Si number density = 20.068561 Si / 1000 Ang^3
#
#
#
# Elastic Constant Matrix: (Units=GPa)
#
#
# Indices 1 2 3 4 5 6 
#
# 1 149.1845 38.9812 32.2864 -0.0001 10.5911 0.0006
# 2 38.9812 69.3422 9.9792 -0.0001 -2.5476 0.0003
# 3 32.2864 9.9792 80.2186 -0.0003 -17.9623 -0.0002
# 4 -0.0001 -0.0001 -0.0003 15.0389 -0.0003 4.9621
# 5 10.5911 -2.5476 -17.9623 -0.0003 25.7370 -0.0001
# 6 0.0006 0.0003 -0.0002 4.9621 -0.0001 44.9989
#
#
#
# Elastic Compliance Matrix: (Units=1/GPa)
#
#
# Indices 1 2 3 4 5 6 
#
# 1 0.009676 -0.005005 -0.005066 0.000000 -0.008013 0.000000
# 2 -0.005005 0.017274 0.000841 0.000000 0.004356 0.000000
# 3 -0.005066 0.000841 0.017643 0.000001 0.014481 0.000000
# 4 0.000000 0.000000 0.000001 0.069005 0.000001 -0.007609
# 5 -0.008013 0.004356 0.014481 0.000001 0.052690 0.000000
# 6 0.000000 0.000000 0.000000 -0.007609 0.000000 0.023062
#
#
# Mechanical properties :
#
#
# Convention : Reuss Voigt Hill
#
# Bulk Modulus (GPa) = 38.26598 51.24875 44.75736
# Shear Modulus (GPa) = 23.09249 31.65484 27.37367
#
# Velocity S-wave (km/s) = 3.39585 3.97588 3.69725
# Velocity P-wave (km/s) = 5.87237 6.83148 6.37000
#
# Compressibility (1/GPa) = 0.02613288
#
# Stress axis : x y z
#
# Youngs Moduli (GPa) = 103.34739 57.89132 56.67988
#
# Poissons Ratio (x) = 0.28973 0.28714
# Poissons Ratio (y) = 0.51723 -0.04766
# Poissons Ratio (z) = 0.52357 -0.04868
#
# Static dielectric constant tensor:
#      x y z
#    x 4.422200 0.000000 0.103470 
#    y 0.000000 3.593860 0.000000 
#    z 0.103470 0.000000 3.475910 
# 
# 
# High freq. dielectric constant tensor:
#      x y z
#    x 1.808020 0.000000 0.005330 
#    y 0.000000 1.765430 0.000000 
#    z 0.005330 0.000000 1.754130 
# 
# From -- ./inp_files/183063.got.cif
#   From: 2010.06.25/outbox.cif.g09.slc.cpg/sg15_92_cif.got.tgz:183063.got - 2010.06.28 07:06:18.
