data_PCOD8150373
_publ_section_title
;
Structure prediction by ZEFSAII (Michael W. Deem and Ramdas Pophale) SiO2 
 PCOD8150373
Probable space group: C 2/C
;
_chemical_formula_sum "Si O2"
_cell_formula_units_Z 40
_cell_length_a 16.077125
_cell_length_b 27.827571
_cell_length_c 9.934266
_cell_angle_alpha 90.000000
_cell_angle_beta 25.165870
_cell_angle_gamma 90.000000
_cell_volume 1889.965231
_symmetry_space_group_name_H-M "C 2/C"
_symmetry_group_IT_number 15
_symmetry_cell_setting 'monoclinic'
loop_
_space_group_symop_operation_xyz
x,y,z
-x,y,1/2-z
-x,-y,-z
x,-y,1/2+z
1/2+x,1/2+y,z
1/2-x,1/2+y,1/2-z
1/2-x,1/2-y,-z
1/2+x,1/2-y,1/2+z
loop_
_atom_site_type_symbol
_atom_site_label
_atom_site_fract_x
_atom_site_fract_y
_atom_site_fract_z
Si Si1 0.865873 0.591095 0.331839
Si Si2 0.175191 0.813521 0.230084
Si Si3 0.367563 0.500651 0.324341
Si Si4 0.626347 0.909411 0.191687
Si Si5 0.000000 0.235154 0.750000
Si Si6 0.000000 0.854649 0.750000
O O1 0.786321 0.640594 0.508013
O O2 0.694656 0.553707 0.549394
O O3 0.000000 0.566688 0.250000
O O4 0.992067 0.600974 0.015725
O O5 0.097474 0.822052 0.493498
O O6 0.006520 0.799333 0.371490
O O7 0.311475 0.767576 0.043871
O O8 0.500000 0.521207 0.250000
O O9 0.176143 0.534451 0.592082
O O10 0.500000 0.500000 0.000000
O O11 0.500000 0.889717 0.250000
O O12 0.836308 0.884646 0.908161
#
# Coordination Sequence:
#
# PCOD8150373 Si02
#       6
#     8   8   8   8   4   4
#     4  12  23  43  66  96 136 178 226 279 335 399
#     4  11  24  45  71  99 133 173 220 282 342 411
#     4  12  24  41  64  98 135 182 231 276 326 390
#     4  12  25  43  66 100 140 183 228 276 330 392
#     4  10  24  46  71  98 130 172 217 278 354 410
#     4  12  24  46  69 104 138 176 225 280 330 406
#
# _framework density 21.164411000000001
#
# number of rings (size 3 to 8) (size 9 to 14) (size 15 to 20)
#    0.000    0.400    4.000    4.800    4.200    0.800 
#    0.000    0.000    0.000    0.000    0.000    0.000 
#    0.000    0.000    0.000    0.000    0.000    0.000 
#
# Total GULP energy -248011.656717 kJ/mol
# GULP energy per Si atom -12400.582836 kJ/mol
# Density = 2.111624 g / cm^3
# Si number density = 21.164411 Si / 1000 Ang^3
#
#
#
# Elastic Constant Matrix: (Units=GPa)
#
#
# Indices 1 2 3 4 5 6 
#
# 1 168.9774 33.5339 53.2715 -0.0185 5.4802 0.0139
# 2 33.5339 80.0566 34.9161 0.0049 3.5028 -0.0027
# 3 53.2715 34.9161 122.6197 -0.0330 27.2194 0.0273
# 4 -0.0185 0.0049 -0.0330 53.4000 0.0232 -16.9775
# 5 5.4802 3.5028 27.2194 0.0232 47.4625 -0.0209
# 6 0.0139 -0.0027 0.0273 -16.9775 -0.0209 41.7585
#
#
#
# Elastic Compliance Matrix: (Units=1/GPa)
#
#
# Indices 1 2 3 4 5 6 
#
# 1 0.007125 -0.001811 -0.002781 0.000001 0.000906 0.000000
# 2 -0.001811 0.014812 -0.003706 -0.000004 0.001242 0.000003
# 3 -0.002781 -0.003706 0.011787 0.000007 -0.006165 -0.000007
# 4 0.000001 -0.000004 0.000007 0.021506 -0.000010 0.008744
# 5 0.000906 0.001242 -0.006165 -0.000010 0.024409 0.000012
# 6 0.000000 0.000003 -0.000007 0.008744 0.000012 0.027502
#
#
# Mechanical properties :
#
#
# Convention : Reuss Voigt Hill
#
# Bulk Modulus (GPa) = 58.38578 68.34407 63.36492
# Shear Modulus (GPa) = 38.62578 45.18635 41.90607
#
# Velocity S-wave (km/s) = 4.27668 4.62564 4.45457
# Velocity P-wave (km/s) = 7.21341 7.80325 7.51412
#
# Compressibility (1/GPa) = 0.01712746
#
# Stress axis : x y z
#
# Youngs Moduli (GPa) = 140.35847 67.51240 84.83696
#
# Poissons Ratio (x) = 0.12228 0.23589
# Poissons Ratio (y) = 0.25423 0.31445
# Poissons Ratio (z) = 0.39027 0.25023
#
# Static dielectric constant tensor:
#      x y z
#    x 4.235600 -0.000030 -0.011790 
#    y -0.000030 3.889050 0.000140 
#    z -0.011790 0.000140 3.478520 
# 
# 
# High freq. dielectric constant tensor:
#      x y z
#    x 1.851430 0.000000 -0.000690 
#    y 0.000000 1.825790 0.000000 
#    z -0.000690 0.000000 1.834150 
# 
# From -- ./inp_files/23523.got.cif
#   From: 2010.06.25/outbox.cif.g09.slc.cpg/sg15_12_cif.got.tgz:23523.got - 2010.06.28 07:06:18.
