data_PCOD8150934
_publ_section_title
;
Structure prediction by ZEFSAII (Michael W. Deem and Ramdas Pophale) SiO2 
 PCOD8150934
Probable space group: C 2/C
;
_chemical_formula_sum "Si O2"
_cell_formula_units_Z 52
_cell_length_a 10.969699
_cell_length_b 8.797505
_cell_length_c 24.279841
_cell_angle_alpha 90.000000
_cell_angle_beta 91.062481
_cell_angle_gamma 90.000000
_cell_volume 2342.747033
_symmetry_space_group_name_H-M "C 2/C"
_symmetry_group_IT_number 15
_symmetry_cell_setting 'monoclinic'
loop_
_space_group_symop_operation_xyz
x,y,z
-x,y,1/2-z
-x,-y,-z
x,-y,1/2+z
1/2+x,1/2+y,z
1/2-x,1/2+y,1/2-z
1/2-x,1/2-y,-z
1/2+x,1/2-y,1/2+z
loop_
_atom_site_type_symbol
_atom_site_label
_atom_site_fract_x
_atom_site_fract_y
_atom_site_fract_z
Si Si1 0.032963 0.843218 0.928559
Si Si2 0.609279 0.107902 0.839276
Si Si3 0.019079 0.326730 0.623568
Si Si4 0.782603 0.390278 0.961637
Si Si5 0.500000 0.315862 0.750000
Si Si6 0.111550 0.978506 0.159112
Si Si7 0.621606 0.819553 0.985278
O O1 0.084152 0.704654 0.893309
O O2 0.148407 0.955015 0.942794
O O3 0.926438 0.935179 0.897363
O O4 0.984000 0.773228 0.984828
O O5 0.591875 0.210719 0.785195
O O6 0.512106 0.968859 0.837264
O O7 0.745091 0.044620 0.841257
O O8 0.147690 0.344053 0.593415
O O9 0.907164 0.312770 0.579601
O O10 0.034106 0.177668 0.661716
O O11 0.870726 0.506420 0.994022
O O12 0.750000 0.250000 0.000000
O O13 0.418316 0.420338 0.788375
O O14 0.750000 0.750000 0.000000
#
# Coordination Sequence:
#
# PCOD8150934 Si02
#       7
#     8   8   8   8   4   8   8
#     4  11  23  43  66  99 143 184 228 272 327 397
#     4  11  24  48  71  98 132 175 223 286 349 404
#     4  12  24  40  68 102 135 185 227 269 333 404
#     4  12  23  39  64  95 147 190 227 270 319 388
#     4  10  28  50  72 100 128 164 222 296 356 418
#     4  11  26  46  73 101 131 172 228 283 349 407
#     4  12  25  38  62 100 145 189 229 265 323 398
#
# _framework density 22.196164
#
# number of rings (size 3 to 8) (size 9 to 14) (size 15 to 20)
#    0.000    0.615    4.615    3.231    2.154    4.308 
#    0.000    0.000    0.000    0.000    0.000    0.000 
#    0.000    0.000    0.000    0.000    0.000    0.000 
#
# Total GULP energy -322486.912793 kJ/mol
# GULP energy per Si atom -12403.342800 kJ/mol
# Density = 2.214564 g / cm^3
# Si number density = 22.196164 Si / 1000 Ang^3
#
#
#
# Elastic Constant Matrix: (Units=GPa)
#
#
# Indices 1 2 3 4 5 6 
#
# 1 150.0827 50.2865 31.8784 0.0000 7.3485 0.0000
# 2 50.2865 115.0134 42.4666 0.0000 -6.4250 0.0000
# 3 31.8784 42.4666 87.5334 0.0000 3.9429 0.0000
# 4 0.0000 0.0000 0.0000 33.6439 0.0000 6.1003
# 5 7.3485 -6.4250 3.9429 0.0000 18.5974 0.0000
# 6 0.0000 0.0000 0.0000 6.1003 0.0000 41.2838
#
#
#
# Elastic Compliance Matrix: (Units=1/GPa)
#
#
# Indices 1 2 3 4 5 6 
#
# 1 0.008260 -0.003417 -0.001161 0.000000 -0.004198 0.000000
# 2 -0.003417 0.012447 -0.005097 0.000000 0.006731 0.000000
# 3 -0.001161 -0.005097 0.014517 0.000000 -0.004380 0.000000
# 4 0.000000 0.000000 0.000000 0.030541 0.000000 -0.004513
# 5 -0.004198 0.006731 -0.004380 0.000000 0.058684 0.000000
# 6 0.000000 0.000000 0.000000 -0.004513 0.000000 0.024889
#
#
# Mechanical properties :
#
#
# Convention : Reuss Voigt Hill
#
# Bulk Modulus (GPa) = 63.00074 66.87694 64.93884
# Shear Modulus (GPa) = 28.73867 33.90488 31.32177
#
# Velocity S-wave (km/s) = 3.60218 3.91258 3.76058
# Velocity P-wave (km/s) = 6.76359 7.11382 6.94091
#
# Compressibility (1/GPa) = 0.01587283
#
# Stress axis : x y z
#
# Youngs Moduli (GPa) = 121.06232 80.34161 68.88319
#
# Poissons Ratio (x) = 0.27455 0.07999
# Poissons Ratio (y) = 0.41371 0.35111
# Poissons Ratio (z) = 0.14058 0.40952
#
# Static dielectric constant tensor:
#      x y z
#    x 4.440370 0.000000 0.055880 
#    y 0.000000 4.361800 0.000000 
#    z 0.055880 0.000000 3.965140 
# 
# 
# High freq. dielectric constant tensor:
#      x y z
#    x 1.890790 0.000000 0.006530 
#    y 0.000000 1.887290 0.000000 
#    z 0.006530 0.000000 1.856740 
# 
# From -- ./inp_files/291191.got.cif
#   From: 2010.06.25/outbox.cif.g09.slc.cpg/sg15_146_cif.got.tgz:291191.got - 2010.06.28 07:06:18.
