data_PCOD8150901
_publ_section_title
;
Structure prediction by ZEFSAII (Michael W. Deem and Ramdas Pophale) SiO2 
 PCOD8150901
Probable space group: C 2/C
;
_chemical_formula_sum "Si O2"
_cell_formula_units_Z 52
_cell_length_a 8.185797
_cell_length_b 14.646263
_cell_length_c 28.540509
_cell_angle_alpha 90.000000
_cell_angle_beta 134.540270
_cell_angle_gamma 90.000000
_cell_volume 2438.885412
_symmetry_space_group_name_H-M "C 2/C"
_symmetry_group_IT_number 15
_symmetry_cell_setting 'monoclinic'
loop_
_space_group_symop_operation_xyz
x,y,z
-x,y,1/2-z
-x,-y,-z
x,-y,1/2+z
1/2+x,1/2+y,z
1/2-x,1/2+y,1/2-z
1/2-x,1/2-y,-z
1/2+x,1/2-y,1/2+z
loop_
_atom_site_type_symbol
_atom_site_label
_atom_site_fract_x
_atom_site_fract_y
_atom_site_fract_z
Si Si1 0.000000 0.389739 0.750000
Si Si2 0.424902 0.209719 0.400317
Si Si3 0.942976 0.548850 0.136656
Si Si4 0.748762 0.872777 0.041802
Si Si5 0.507249 0.882406 0.088704
Si Si6 0.570054 0.439083 0.955708
Si Si7 0.464646 0.697867 0.355762
O O1 0.966206 0.453536 0.697619
O O2 0.779214 0.326685 0.716235
O O3 0.440818 0.138883 0.360945
O O4 0.546788 0.175658 0.472259
O O5 0.536459 0.305361 0.407042
O O6 0.154668 0.224567 0.355498
O O7 0.060638 0.458440 0.139051
O O8 0.675201 0.552885 0.068355
O O9 0.651921 0.906808 0.071834
O O10 0.826341 0.960926 0.029294
O O11 0.582659 0.782962 0.120016
O O12 0.235756 0.880892 0.022844
O O13 0.551238 0.389305 0.902139
#
# Coordination Sequence:
#
# PCOD8150901 Si02
#       7
#     4   8   8   8   8   8   8
#     4  10  26  50  62  86 120 180 228 272 300 376
#     4  11  23  38  63  99 132 175 198 264 318 392
#     4  11  24  42  67  92 131 171 219 261 320 376
#     4  11  22  36  62 104 145 156 203 250 339 398
#     4  12  22  39  66 101 128 169 204 270 328 386
#     4  11  21  38  63 100 137 164 203 263 325 392
#     4  11  24  42  67  91 132 171 217 259 318 376
#
# _framework density 21.321214000000001
#
# number of rings (size 3 to 8) (size 9 to 14) (size 15 to 20)
#    0.000    0.923    3.077    5.077    4.308    0.615 
#    0.000    9.231    0.000    0.000    0.000    0.000 
#    0.000    0.000    0.000    0.000    0.000    0.000 
#
# Total GULP energy -322553.234658 kJ/mol
# GULP energy per Si atom -12405.893641 kJ/mol
# Density = 2.127269 g / cm^3
# Si number density = 21.321214 Si / 1000 Ang^3
#
#
#
# Elastic Constant Matrix: (Units=GPa)
#
#
# Indices 1 2 3 4 5 6 
#
# 1 117.0446 22.2868 39.3140 0.0000 -2.1506 0.0000
# 2 22.2868 85.3801 26.6554 0.0000 2.9571 0.0000
# 3 39.3140 26.6554 84.8117 0.0000 6.3041 0.0000
# 4 0.0000 0.0000 0.0000 17.1690 0.0000 -7.2440
# 5 -2.1506 2.9571 6.3041 0.0000 35.5322 0.0000
# 6 0.0000 0.0000 0.0000 -7.2440 0.0000 41.5126
#
#
#
# Elastic Compliance Matrix: (Units=1/GPa)
#
#
# Indices 1 2 3 4 5 6 
#
# 1 0.010334 -0.001352 -0.004479 0.000000 0.001533 0.000000
# 2 -0.001352 0.013168 -0.003470 0.000000 -0.000562 0.000000
# 3 -0.004479 -0.003470 0.015156 0.000000 -0.002671 0.000000
# 4 0.000000 0.000000 0.000000 0.062874 0.000000 0.010972
# 5 0.001533 -0.000562 -0.002671 0.000000 0.028757 0.000000
# 6 0.000000 0.000000 0.000000 0.010972 0.000000 0.026004
#
#
# Mechanical properties :
#
#
# Convention : Reuss Voigt Hill
#
# Bulk Modulus (GPa) = 49.86152 51.52763 50.69457
# Shear Modulus (GPa) = 27.53604 32.10813 29.82208
#
# Velocity S-wave (km/s) = 3.59762 3.88483 3.74398
# Velocity P-wave (km/s) = 6.37917 6.65900 6.52059
#
# Compressibility (1/GPa) = 0.02005555
#
# Stress axis : x y z
#
# Youngs Moduli (GPa) = 96.76904 75.94122 65.97931
#
# Poissons Ratio (x) = 0.10268 0.29553
# Poissons Ratio (y) = 0.13085 0.22895
# Poissons Ratio (z) = 0.43344 0.26352
#
# Static dielectric constant tensor:
#      x y z
#    x 3.920500 0.000000 0.142220 
#    y 0.000000 3.793290 0.000000 
#    z 0.142220 0.000000 3.633360 
# 
# 
# High freq. dielectric constant tensor:
#      x y z
#    x 1.853910 0.000000 0.001800 
#    y 0.000000 1.839260 0.000000 
#    z 0.001800 0.000000 1.806410 
# 
# From -- ./inp_files/231230.got.cif
#   From: 2010.06.25/outbox.cif.g09.slc.cpg/sg15_116_cif.got.tgz:231230.got - 2010.06.28 07:06:18.
