data_PCOD8150681
_publ_section_title
;
Structure prediction by ZEFSAII (Michael W. Deem and Ramdas Pophale) SiO2 
 PCOD8150681
Probable space group: C 2/C
;
_chemical_formula_sum "Si O2"
_cell_formula_units_Z 56
_cell_length_a 9.588710
_cell_length_b 12.441724
_cell_length_c 24.330585
_cell_angle_alpha 90.000000
_cell_angle_beta 60.870553
_cell_angle_gamma 90.000000
_cell_volume 2535.521068
_symmetry_space_group_name_H-M "C 2/C"
_symmetry_group_IT_number 15
_symmetry_cell_setting 'monoclinic'
loop_
_space_group_symop_operation_xyz
x,y,z
-x,y,1/2-z
-x,-y,-z
x,-y,1/2+z
1/2+x,1/2+y,z
1/2-x,1/2+y,1/2-z
1/2-x,1/2-y,-z
1/2+x,1/2-y,1/2+z
loop_
_atom_site_type_symbol
_atom_site_label
_atom_site_fract_x
_atom_site_fract_y
_atom_site_fract_z
Si Si1 0.360641 0.107280 0.123423
Si Si2 0.509286 0.465199 0.666638
Si Si3 0.153335 0.219303 0.966375
Si Si4 0.879612 0.471447 0.380961
Si Si5 0.248342 0.789318 0.746837
Si Si6 0.500000 0.872266 0.250000
Si Si7 0.000000 0.844816 0.250000
Si Si8 0.568283 0.573128 0.439667
O O1 0.391585 0.185669 0.066461
O O2 0.380337 0.164968 0.178838
O O3 0.177974 0.070993 0.157892
O O4 0.487723 0.007457 0.098803
O O5 0.370180 0.381053 0.708399
O O6 0.481997 0.582201 0.698573
O O7 0.517519 0.468937 0.599411
O O8 0.264565 0.128732 0.916881
O O9 0.250000 0.250000 0.000000
O O10 0.985311 0.188692 0.027566
O O11 0.759298 0.571893 0.396533
O O12 0.970854 0.449218 0.307177
O O13 0.343009 0.732172 0.779110
O O14 0.152504 0.700230 0.731545
O O15 0.500000 0.500000 0.500000
#
# Coordination Sequence:
#
# PCOD8150681 Si02
#       8
#     8   8   8   8   8   4   4   8
#     4  12  24  44  70 101 138 180 239 290 350 437
#     4  12  23  48  67 101 147 184 232 299 360 426
#     4  11  23  48  69  95 138 186 234 288 345 422
#     4  11  26  42  70 106 131 185 233 286 364 411
#     4  12  25  44  69 107 144 184 236 291 367 431
#     4  12  21  45  72  96 144 180 223 297 364 426
#     4  12  27  41  70 106 144 188 235 301 356 432
#     4  10  25  46  69  95 143 188 230 289 348 420
#
# _framework density 22.086189000000001
#
# number of rings (size 3 to 8) (size 9 to 14) (size 15 to 20)
#    0.000    0.571    5.714    1.714    6.000    1.143 
#    0.000    0.000    0.000    0.000    0.000    0.000 
#    0.000    0.000    0.000    0.000    0.000    0.000 
#
# Total GULP energy -346922.017906 kJ/mol
# GULP energy per Si atom -12390.072068 kJ/mol
# Density = 2.203592 g / cm^3
# Si number density = 22.086189 Si / 1000 Ang^3
#
#
#
# Elastic Constant Matrix: (Units=GPa)
#
#
# Indices 1 2 3 4 5 6 
#
# 1 112.0664 50.4498 22.2233 0.0000 6.1003 0.0000
# 2 50.4498 64.6141 20.2732 0.0000 5.9723 -0.0001
# 3 22.2233 20.2732 90.5572 0.0000 25.5002 0.0000
# 4 0.0000 0.0000 0.0000 27.2065 0.0000 1.6253
# 5 6.1003 5.9723 25.5002 0.0000 35.9104 0.0000
# 6 0.0000 -0.0001 0.0000 1.6253 0.0000 164.4578
#
#
#
# Elastic Compliance Matrix: (Units=1/GPa)
#
#
# Indices 1 2 3 4 5 6 
#
# 1 0.013853 -0.010487 -0.001100 0.000000 0.000172 0.000000
# 2 -0.010487 0.024585 -0.002851 0.000000 -0.000283 0.000000
# 3 -0.001100 -0.002851 0.014705 0.000000 -0.009781 0.000000
# 4 0.000000 0.000000 0.000000 0.036778 0.000000 -0.000363
# 5 0.000172 -0.000283 -0.009781 0.000000 0.034811 0.000000
# 6 0.000000 0.000000 0.000000 -0.000363 0.000000 0.006084
#
#
# Mechanical properties :
#
#
# Convention : Reuss Voigt Hill
#
# Bulk Modulus (GPa) = 41.20732 50.34782 45.77757
# Shear Modulus (GPa) = 29.80068 57.13437 43.46753
#
# Velocity S-wave (km/s) = 3.67725 5.09166 4.44112
# Velocity P-wave (km/s) = 6.06033 7.57708 6.86075
#
# Compressibility (1/GPa) = 0.02426753
#
# Stress axis : x y z
#
# Youngs Moduli (GPa) = 72.18588 40.67495 68.00263
#
# Poissons Ratio (x) = 0.42656 0.07483
# Poissons Ratio (y) = 0.75701 0.19385
# Poissons Ratio (z) = 0.07943 0.11595
#
# Static dielectric constant tensor:
#      x y z
#    x 4.327720 0.000000 -0.087550 
#    y 0.000000 4.368480 0.000000 
#    z -0.087550 0.000000 3.942690 
# 
# 
# High freq. dielectric constant tensor:
#      x y z
#    x 1.878900 0.000000 0.001900 
#    y 0.000000 1.866490 0.000000 
#    z 0.001900 0.000000 1.872710 
# 
# From -- ./inp_files/264646.got.cif
#   From: 2010.06.25/outbox.cif.g09.slc.cpg/sg15_133_cif.got.tgz:264646.got - 2010.06.28 07:06:18.
