data_PCOD8150187
_publ_section_title
;
Structure prediction by ZEFSAII (Michael W. Deem and Ramdas Pophale) SiO2 
 PCOD8150187
Probable space group: C 2/C
;
_chemical_formula_sum "Si O2"
_cell_formula_units_Z 36
_cell_length_a 19.211173
_cell_length_b 13.218672
_cell_length_c 11.875940
_cell_angle_alpha 90.000000
_cell_angle_beta 149.526528
_cell_angle_gamma 90.000000
_cell_volume 1529.456163
_symmetry_space_group_name_H-M "C 2/C"
_symmetry_group_IT_number 15
_symmetry_cell_setting 'monoclinic'
loop_
_space_group_symop_operation_xyz
x,y,z
-x,y,1/2-z
-x,-y,-z
x,-y,1/2+z
1/2+x,1/2+y,z
1/2-x,1/2+y,1/2-z
1/2-x,1/2-y,-z
1/2+x,1/2-y,1/2+z
loop_
_atom_site_type_symbol
_atom_site_label
_atom_site_fract_x
_atom_site_fract_y
_atom_site_fract_z
Si Si1 0.731085 0.862011 0.079442
Si Si2 0.609273 0.912631 0.130920
Si Si3 0.136245 0.961961 0.869133
Si Si4 0.481308 0.312402 0.978163
Si Si5 0.500000 0.287730 0.250000
O O1 0.631323 0.776927 0.886048
O O2 0.635508 0.922225 0.034105
O O3 0.857834 0.817839 0.328553
O O4 0.797038 0.932081 0.075695
O O5 0.750609 0.914573 0.394341
O O6 0.554672 0.803497 0.091118
O O7 0.500000 0.000000 0.000000
O O8 0.105800 0.888667 0.720942
O O9 0.000000 0.985391 0.750000
O O10 0.453810 0.347005 0.071670
#
# Coordination Sequence:
#
# PCOD8150187 Si02
#       5
#     8   8   8   8   4
#     4  11  24  45  68 105 139 190 239 294 355 423
#     4  11  26  48  72 102 146 191 239 294 364 432
#     4  12  25  45  72 109 148 184 239 294 365 430
#     4  11  24  44  70 104 139 188 238 300 352 419
#     4  10  24  44  72 102 138 192 252 288 360 420
#
# _framework density 23.537777999999999
#
# number of rings (size 3 to 8) (size 9 to 14) (size 15 to 20)
#    0.000    0.889    2.222    4.667    1.556    3.556 
#    4.000    0.000    0.000    0.000    0.000    0.000 
#    0.000    0.000    0.000    0.000    0.000    0.000 
#
# Total GULP energy -223090.712272 kJ/mol
# GULP energy per Si atom -12393.928460 kJ/mol
# Density = 2.348420 g / cm^3
# Si number density = 23.537778 Si / 1000 Ang^3
#
#
#
# Elastic Constant Matrix: (Units=GPa)
#
#
# Indices 1 2 3 4 5 6 
#
# 1 111.9342 21.5191 7.6002 0.0000 1.7559 0.0000
# 2 21.5191 84.9476 0.2869 0.0000 -2.2471 0.0000
# 3 7.6002 0.2869 88.9614 0.0000 -2.5323 0.0000
# 4 0.0000 0.0000 0.0000 48.2427 0.0000 2.9125
# 5 1.7559 -2.2471 -2.5323 0.0000 46.8630 0.0000
# 6 0.0000 0.0000 0.0000 2.9125 0.0000 31.7695
#
#
#
# Elastic Compliance Matrix: (Units=1/GPa)
#
#
# Indices 1 2 3 4 5 6 
#
# 1 0.009460 -0.002407 -0.000815 0.000000 -0.000514 0.000000
# 2 -0.002407 0.012400 0.000185 0.000000 0.000695 0.000000
# 3 -0.000815 0.000185 0.011328 0.000000 0.000652 0.000000
# 4 0.000000 0.000000 0.000000 0.020844 0.000000 -0.001911
# 5 -0.000514 0.000695 0.000652 0.000000 0.021427 0.000000
# 6 0.000000 0.000000 0.000000 -0.001911 0.000000 0.031652
#
#
# Mechanical properties :
#
#
# Convention : Reuss Voigt Hill
#
# Bulk Modulus (GPa) = 36.88105 38.29507 37.58806
# Shear Modulus (GPa) = 40.90912 42.47084 41.68998
#
# Velocity S-wave (km/s) = 4.17348 4.25240 4.21312
# Velocity P-wave (km/s) = 6.23913 6.35731 6.29850
#
# Compressibility (1/GPa) = 0.02711419
#
# Stress axis : x y z
#
# Youngs Moduli (GPa) = 105.70810 80.64826 88.27363
#
# Poissons Ratio (x) = 0.19414 0.07195
# Poissons Ratio (y) = 0.25447 -0.01637
# Poissons Ratio (z) = 0.08616 -0.01496
#
# Static dielectric constant tensor:
#      x y z
#    x 4.355720 0.000000 0.188080 
#    y 0.000000 4.239910 0.000000 
#    z 0.188080 0.000000 4.770840 
# 
# 
# High freq. dielectric constant tensor:
#      x y z
#    x 1.942240 0.000000 0.007810 
#    y 0.000000 1.931990 0.000000 
#    z 0.007810 0.000000 1.956840 
# 
# From -- ./inp_files/173761.got.cif
#   From: 2010.06.25/outbox.cif.g09.slc.cpg/sg15_87_cif.got.tgz:173761.got - 2010.06.28 07:06:18.
