data_PCOD8150944
_publ_section_title
;
Structure prediction by ZEFSAII (Michael W. Deem and Ramdas Pophale) SiO2 
 PCOD8150944
Probable space group: C 2/C
;
_chemical_formula_sum "Si O2"
_cell_formula_units_Z 64
_cell_length_a 8.212568
_cell_length_b 20.541736
_cell_length_c 20.256007
_cell_angle_alpha 90.000000
_cell_angle_beta 87.061507
_cell_angle_gamma 90.000000
_cell_volume 3412.703431
_symmetry_space_group_name_H-M "C 2/C"
_symmetry_group_IT_number 15
_symmetry_cell_setting 'monoclinic'
loop_
_space_group_symop_operation_xyz
x,y,z
-x,y,1/2-z
-x,-y,-z
x,-y,1/2+z
1/2+x,1/2+y,z
1/2-x,1/2+y,1/2-z
1/2-x,1/2-y,-z
1/2+x,1/2-y,1/2+z
loop_
_atom_site_type_symbol
_atom_site_label
_atom_site_fract_x
_atom_site_fract_y
_atom_site_fract_z
Si Si1 0.846058 0.266919 0.599102
Si Si2 0.174891 0.802419 0.729389
Si Si3 0.102681 0.948124 0.687003
Si Si4 0.896381 0.078944 0.067743
Si Si5 0.865865 0.477260 0.451626
Si Si6 0.635141 0.158911 0.147956
Si Si7 0.318213 0.352789 0.007309
Si Si8 0.463980 0.975531 0.678081
O O1 0.757905 0.258903 0.671357
O O2 0.745234 0.317664 0.556968
O O3 0.853395 0.196903 0.565334
O O4 0.030250 0.291371 0.606287
O O5 0.144615 0.874257 0.702796
O O6 0.293978 0.804382 0.789771
O O7 0.000000 0.770251 0.750000
O O8 0.271730 0.984997 0.669695
O O9 0.000000 0.979163 0.750000
O O10 0.996643 0.955259 0.623903
O O11 0.783630 0.135353 0.099960
O O12 0.013647 0.110467 0.011181
O O13 0.790870 0.023237 0.034789
O O14 0.819901 0.402945 0.466426
O O15 0.000000 0.500000 0.500000
O O16 0.935419 0.481881 0.376140
O O17 0.518469 0.099786 0.172478
O O18 0.500000 0.002783 0.750000
#
# Coordination Sequence:
#
# PCOD8150944 Si02
#       8
#     8   8   8   8   8   8   8   8
#     4  11  22  36  59  80 121 152 187 242 279 350
#     4  11  18  32  57  89 115 140 188 241 287 336
#     4  11  17  30  56  92 116 137 182 242 300 335
#     4  11  20  35  60  84 117 145 192 249 285 346
#     4  11  24  39  61  85 114 155 198 245 298 353
#     4  11  18  31  58  91 110 143 188 241 293 329
#     4  11  23  40  54  82 117 159 195 228 292 345
#     4  11  19  33  57  87 118 144 190 245 293 342
#
# _framework density 18.753458999999999
#
# number of rings (size 3 to 8) (size 9 to 14) (size 15 to 20)
#    0.000    1.000    6.250    3.750    0.000    0.500 
#    0.000    1.875    0.000    6.000    0.000    0.000 
#    0.000    0.000    0.000    0.000    0.000    0.000 
#
# Total GULP energy -396920.451433 kJ/mol
# GULP energy per Si atom -12403.764107 kJ/mol
# Density = 1.871078 g / cm^3
# Si number density = 18.753459 Si / 1000 Ang^3
#
#
#
# Elastic Constant Matrix: (Units=GPa)
#
#
# Indices 1 2 3 4 5 6 
#
# 1 125.5171 33.3174 32.6768 0.0000 -0.3523 0.0000
# 2 33.3174 65.8917 39.7292 0.0000 -2.6253 0.0000
# 3 32.6768 39.7292 79.9168 0.0000 -1.1530 0.0000
# 4 0.0000 0.0000 0.0000 17.0544 0.0000 7.6500
# 5 -0.3523 -2.6253 -1.1530 0.0000 43.8273 0.0000
# 6 0.0000 0.0000 0.0000 7.6500 0.0000 17.0828
#
#
#
# Elastic Compliance Matrix: (Units=1/GPa)
#
#
# Indices 1 2 3 4 5 6 
#
# 1 0.009450 -0.003505 -0.002124 0.000000 -0.000190 0.000000
# 2 -0.003505 0.023018 -0.009994 0.000000 0.001088 0.000000
# 3 -0.002124 -0.009994 0.018348 0.000000 -0.000133 0.000000
# 4 0.000000 0.000000 0.000000 0.073375 0.000000 -0.032859
# 5 -0.000190 0.001088 -0.000133 0.000000 0.022877 0.000000
# 6 0.000000 0.000000 0.000000 -0.032859 0.000000 0.073253
#
#
# Mechanical properties :
#
#
# Convention : Reuss Voigt Hill
#
# Bulk Modulus (GPa) = 51.10070 53.64140 52.37105
# Shear Modulus (GPa) = 19.37301 26.63304 23.00303
#
# Velocity S-wave (km/s) = 3.21758 3.77260 3.50609
# Velocity P-wave (km/s) = 6.41183 6.90234 6.66160
#
# Compressibility (1/GPa) = 0.01956920
#
# Stress axis : x y z
#
# Youngs Moduli (GPa) = 105.82132 43.44433 54.50162
#
# Poissons Ratio (x) = 0.15227 0.11577
# Poissons Ratio (y) = 0.37090 0.54470
# Poissons Ratio (z) = 0.22479 0.43419
#
# Static dielectric constant tensor:
#      x y z
#    x 3.890710 0.000000 -0.032960 
#    y 0.000000 3.013620 0.000000 
#    z -0.032960 0.000000 3.627280 
# 
# 
# High freq. dielectric constant tensor:
#      x y z
#    x 1.753210 0.000000 -0.001420 
#    y 0.000000 1.672600 0.000000 
#    z -0.001420 0.000000 1.740210 
# 
# From -- ./inp_files/232683.got.cif
#   From: 2010.06.25/outbox.cif.g09.slc.cpg/sg15_117_cif.got.tgz:232683.got - 2010.06.28 07:06:18.
