data_PCOD8150600
_publ_section_title
;
Structure prediction by ZEFSAII (Michael W. Deem and Ramdas Pophale) SiO2 
 PCOD8150600
Probable space group: C 2/C
;
_chemical_formula_sum "Si O2"
_cell_formula_units_Z 32
_cell_length_a 13.878380
_cell_length_b 7.532201
_cell_length_c 17.073556
_cell_angle_alpha 90.000000
_cell_angle_beta 136.459906
_cell_angle_gamma 90.000000
_cell_volume 1229.467037
_symmetry_space_group_name_H-M "C 2/C"
_symmetry_group_IT_number 15
_symmetry_cell_setting 'monoclinic'
loop_
_space_group_symop_operation_xyz
x,y,z
-x,y,1/2-z
-x,-y,-z
x,-y,1/2+z
1/2+x,1/2+y,z
1/2-x,1/2+y,1/2-z
1/2-x,1/2-y,-z
1/2+x,1/2-y,1/2+z
loop_
_atom_site_type_symbol
_atom_site_label
_atom_site_fract_x
_atom_site_fract_y
_atom_site_fract_z
Si Si1 0.282936 0.243114 0.712162
Si Si2 0.233044 0.576415 0.391443
Si Si3 0.818455 0.959825 0.109193
Si Si4 0.037325 0.980774 0.112491
O O1 0.263472 0.382315 0.630350
O O2 0.133320 0.194004 0.661264
O O3 0.374162 0.332498 0.835517
O O4 0.350805 0.062720 0.713315
O O5 0.193672 0.777529 0.348491
O O6 0.210750 0.544955 0.471292
O O7 0.401071 0.527577 0.472765
O O8 0.976009 0.979475 0.166235
#
# Coordination Sequence:
#
# PCOD8150600 Si02
#       4
#     8   8   8   8
#     4  12  23  45  68 100 141 176 227 286 344 405
#     4   9  22  48  70  97 138 183 227 285 343 407
#     4   9  22  48  68  97 135 182 232 280 344 410
#     4  10  25  44  63 108 134 174 240 272 338 426
#
# _framework density 26.027539000000001
#
# number of rings (size 3 to 8) (size 9 to 14) (size 15 to 20)
#    1.500    0.500    0.000    2.250    3.500    1.000 
#   13.500    0.000    0.000    0.000    0.000    0.000 
#    0.000    0.000    0.000    0.000    0.000    0.000 
#
# Total GULP energy -198302.584150 kJ/mol
# GULP energy per Si atom -12393.911509 kJ/mol
# Density = 2.596830 g / cm^3
# Si number density = 26.027539 Si / 1000 Ang^3
#
#
#
# Elastic Constant Matrix: (Units=GPa)
#
#
# Indices 1 2 3 4 5 6 
#
# 1 111.0199 63.1625 51.2743 0.0000 -8.0328 0.0000
# 2 63.1625 200.7540 54.2079 0.0000 5.1652 0.0000
# 3 51.2743 54.2079 94.5428 0.0000 -2.6999 0.0000
# 4 0.0000 0.0000 0.0000 41.4554 0.0000 -6.5471
# 5 -8.0328 5.1652 -2.6999 0.0000 30.1215 0.0000
# 6 0.0000 0.0000 0.0000 -6.5471 0.0000 70.6147
#
#
#
# Elastic Compliance Matrix: (Units=1/GPa)
#
#
# Indices 1 2 3 4 5 6 
#
# 1 0.013442 -0.002816 -0.005574 0.000000 0.003568 0.000000
# 2 -0.002816 0.006536 -0.002280 0.000000 -0.002076 0.000000
# 3 -0.005574 -0.002280 0.014914 0.000000 0.000241 0.000000
# 4 0.000000 0.000000 0.000000 0.024481 0.000000 0.002270
# 5 0.003568 -0.002076 0.000241 0.000000 0.034528 0.000000
# 6 0.000000 0.000000 0.000000 0.002270 0.000000 0.014372
#
#
# Mechanical properties :
#
#
# Convention : Reuss Voigt Hill
#
# Bulk Modulus (GPa) = 73.78168 82.62291 78.20229
# Shear Modulus (GPa) = 37.27759 44.28310 40.78035
#
# Velocity S-wave (km/s) = 3.78860 4.12927 3.96260
# Velocity P-wave (km/s) = 6.89544 7.38565 7.14475
#
# Compressibility (1/GPa) = 0.01355350
#
# Stress axis : x y z
#
# Youngs Moduli (GPa) = 74.39506 152.99440 67.05112
#
# Poissons Ratio (x) = 0.43083 0.37371
# Poissons Ratio (y) = 0.20949 0.15286
# Poissons Ratio (z) = 0.41464 0.34879
#
# Static dielectric constant tensor:
#      x y z
#    x 5.096500 0.000000 -0.389300 
#    y 0.000000 4.479210 0.000000 
#    z -0.389300 0.000000 4.510420 
# 
# 
# High freq. dielectric constant tensor:
#      x y z
#    x 2.086840 0.000000 -0.047470 
#    y 0.000000 2.033120 0.000000 
#    z -0.047470 0.000000 2.038580 
# 
# From -- ./inp_files/275770.got.cif
#   From: 2010.06.25/outbox.cif.g09.slc.cpg/sg15_138_cif.got.tgz:275770.got - 2010.06.28 07:06:18.
