data_PCOD8150133
_publ_section_title
;
Structure prediction by ZEFSAII (Michael W. Deem and Ramdas Pophale) SiO2 
 PCOD8150133
Probable space group: C 2/C
;
_chemical_formula_sum "Si O2"
_cell_formula_units_Z 48
_cell_length_a 17.409572
_cell_length_b 4.984699
_cell_length_c 28.209465
_cell_angle_alpha 90.000000
_cell_angle_beta 127.829120
_cell_angle_gamma 90.000000
_cell_volume 1933.583271
_symmetry_space_group_name_H-M "C 2/C"
_symmetry_group_IT_number 15
_symmetry_cell_setting 'monoclinic'
loop_
_space_group_symop_operation_xyz
x,y,z
-x,y,1/2-z
-x,-y,-z
x,-y,1/2+z
1/2+x,1/2+y,z
1/2-x,1/2+y,1/2-z
1/2-x,1/2-y,-z
1/2+x,1/2-y,1/2+z
loop_
_atom_site_type_symbol
_atom_site_label
_atom_site_fract_x
_atom_site_fract_y
_atom_site_fract_z
Si Si1 0.210897 0.711141 0.056459
Si Si2 0.012347 0.150682 0.455419
Si Si3 0.794784 0.672128 0.244356
Si Si4 0.409440 0.523995 0.110528
Si Si5 0.799432 0.228124 0.386673
Si Si6 0.009009 0.460848 0.809664
O O1 0.301173 0.637801 0.055941
O O2 0.234235 0.521619 0.110113
O O3 0.206751 0.020269 0.071635
O O4 0.103623 0.639048 0.994288
O O5 0.037075 0.965885 0.419237
O O6 0.907804 0.282000 0.406469
O O7 0.000000 0.000000 0.500000
O O8 0.731552 0.477459 0.253452
O O9 0.770770 0.615770 0.180395
O O10 0.908421 0.627053 0.295944
O O11 0.408691 0.248501 0.140653
O O12 0.464726 0.743175 0.163246
O O13 0.000000 0.455230 0.750000
#
# Coordination Sequence:
#
# PCOD8150133 Si02
#       6
#     8   8   8   8   8   8
#     4  11  23  42  66  93 127 171 216 265 323 388
#     4  10  24  44  68  98 132 172 219 272 326 386
#     4  12  24  41  65  95 128 169 216 268 324 386
#     4  12  25  44  68  98 134 174 217 268 326 390
#     4  11  23  42  64  93 128 169 216 269 324 384
#     4  12  26  45  68  99 134 173 218 270 326 388
#
# _framework density 24.824377999999999
#
# number of rings (size 3 to 8) (size 9 to 14) (size 15 to 20)
#    0.000    0.667    0.000    8.500    0.000    6.667 
#    0.000    5.833    0.000    0.000    0.000    0.000 
#    0.000    0.000    0.000    0.000    0.000    0.000 
#
# Total GULP energy -297562.360102 kJ/mol
# GULP energy per Si atom -12398.431671 kJ/mol
# Density = 2.476788 g / cm^3
# Si number density = 24.824378 Si / 1000 Ang^3
#
#
#
# Elastic Constant Matrix: (Units=GPa)
#
#
# Indices 1 2 3 4 5 6 
#
# 1 96.9076 8.5903 -4.2288 -0.0047 3.6291 0.0027
# 2 8.5903 87.8960 14.6312 -0.0156 -10.7906 0.0107
# 3 -4.2288 14.6312 52.3843 -0.0032 -7.4109 0.0019
# 4 -0.0047 -0.0156 -0.0032 31.7035 0.0046 -1.8454
# 5 3.6291 -10.7906 -7.4109 0.0046 56.5849 -0.0048
# 6 0.0027 0.0107 0.0019 -1.8454 -0.0048 33.2051
#
#
#
# Elastic Compliance Matrix: (Units=1/GPa)
#
#
# Indices 1 2 3 4 5 6 
#
# 1 0.010512 -0.001307 0.001103 0.000001 -0.000779 -0.000001
# 2 -0.001307 0.012292 -0.003256 0.000005 0.002002 -0.000003
# 3 0.001103 -0.003256 0.020368 0.000000 0.001976 0.000000
# 4 0.000001 0.000005 0.000000 0.031645 -0.000001 0.001759
# 5 -0.000779 0.002002 0.001976 -0.000001 0.018363 0.000002
# 6 -0.000001 -0.000003 0.000000 0.001759 0.000002 0.030214
#
#
# Mechanical properties :
#
#
# Convention : Reuss Voigt Hill
#
# Bulk Modulus (GPa) = 27.58286 30.57482 29.07884
# Shear Modulus (GPa) = 35.11327 38.84504 36.97916
#
# Velocity S-wave (km/s) = 3.76502 3.96004 3.86376
# Velocity P-wave (km/s) = 5.48050 5.76649 5.62531
#
# Compressibility (1/GPa) = 0.03625440
#
# Stress axis : x y z
#
# Youngs Moduli (GPa) = 95.12708 81.35069 49.09756
#
# Poissons Ratio (x) = 0.10630 -0.05417
# Poissons Ratio (y) = 0.12430 0.15985
# Poissons Ratio (z) = -0.10496 0.26485
#
# Static dielectric constant tensor:
#      x y z
#    x 5.005690 -0.000010 0.398420 
#    y -0.000010 4.051520 0.000010 
#    z 0.398420 0.000010 4.504320 
# 
# 
# High freq. dielectric constant tensor:
#      x y z
#    x 2.013680 0.000000 0.010530 
#    y 0.000000 1.967110 0.000000 
#    z 0.010530 0.000000 1.992540 
# 
# From -- ./inp_files/297545.got.cif
#   From: 2010.06.25/outbox.cif.g09.slc.cpg/sg15_149_cif.got.tgz:297545.got - 2010.06.28 07:06:18.
