data_PCOD8150442
_publ_section_title
;
Structure prediction by ZEFSAII (Michael W. Deem and Ramdas Pophale) SiO2 
 PCOD8150442
Probable space group: C 2/C
;
_chemical_formula_sum "Si O2"
_cell_formula_units_Z 44
_cell_length_a 5.394018
_cell_length_b 24.756977
_cell_length_c 14.187007
_cell_angle_alpha 90.000000
_cell_angle_beta 79.936461
_cell_angle_gamma 90.000000
_cell_volume 1865.378853
_symmetry_space_group_name_H-M "C 2/C"
_symmetry_group_IT_number 15
_symmetry_cell_setting 'monoclinic'
loop_
_space_group_symop_operation_xyz
x,y,z
-x,y,1/2-z
-x,-y,-z
x,-y,1/2+z
1/2+x,1/2+y,z
1/2-x,1/2+y,1/2-z
1/2-x,1/2-y,-z
1/2+x,1/2-y,1/2+z
loop_
_atom_site_type_symbol
_atom_site_label
_atom_site_fract_x
_atom_site_fract_y
_atom_site_fract_z
Si Si1 0.852643 0.397046 0.170840
Si Si2 0.824118 0.273873 0.595493
Si Si3 0.649463 0.578161 0.359423
Si Si4 0.000000 0.197565 0.750000
Si Si5 0.500000 0.482909 0.250000
Si Si6 0.000000 0.166231 0.250000
Si Si7 0.419221 0.889528 0.541419
O O1 0.737212 0.338917 0.206047
O O2 0.647198 0.443854 0.166874
O O3 0.000000 0.419555 0.250000
O O4 0.046584 0.392163 0.072613
O O5 0.750000 0.250000 0.500000
O O6 0.959188 0.232862 0.658084
O O7 0.570454 0.293972 0.661322
O O8 0.985250 0.328188 0.568467
O O9 0.668181 0.520864 0.306036
O O10 0.714305 0.625489 0.278240
O O11 0.364497 0.590787 0.416631
O O12 0.862100 0.574532 0.425303
#
# Coordination Sequence:
#
# PCOD8150442 Si02
#       7
#     8   8   8   4   4   4   8
#     4  11  27  46  66 101 146 184 235 301 363 434
#     4  11  24  42  73 106 143 201 242 294 365 438
#     4  10  24  47  73 104 136 188 234 308 355 422
#     4  11  26  43  68 100 148 193 242 299 356 434
#     4  10  26  46  76  98 140 184 236 292 384 422
#     4   9  22  41  68 102 146 175 246 299 350 420
#     4  11  26  45  73 104 146 179 249 292 356 432
#
# _framework density 23.587700000000002
#
# number of rings (size 3 to 8) (size 9 to 14) (size 15 to 20)
#    0.000    1.455    0.000    2.182   16.545    7.273 
#    0.000    0.000    0.000    0.000    0.000    0.000 
#    0.000    0.000    0.000    0.000    0.000    0.000 
#
# Total GULP energy -272578.401288 kJ/mol
# GULP energy per Si atom -12389.927331 kJ/mol
# Density = 2.353401 g / cm^3
# Si number density = 23.587700 Si / 1000 Ang^3
#
#
#
# Elastic Constant Matrix: (Units=GPa)
#
#
# Indices 1 2 3 4 5 6 
#
# 1 94.1073 26.1948 38.2683 0.0000 7.5179 0.0000
# 2 26.1948 137.7116 52.9556 0.0000 -2.4424 0.0000
# 3 38.2683 52.9556 166.3051 0.0000 5.8937 0.0000
# 4 0.0000 0.0000 0.0000 13.1148 0.0000 6.9960
# 5 7.5179 -2.4424 5.8937 0.0000 43.1478 0.0000
# 6 0.0000 0.0000 0.0000 6.9960 0.0000 17.8958
#
#
#
# Elastic Compliance Matrix: (Units=1/GPa)
#
#
# Indices 1 2 3 4 5 6 
#
# 1 0.012101 -0.001470 -0.002250 0.000000 -0.001884 0.000000
# 2 -0.001470 0.008483 -0.002401 0.000000 0.001064 0.000000
# 3 -0.002250 -0.002401 0.007322 0.000000 -0.000744 0.000000
# 4 0.000000 0.000000 0.000000 0.096341 0.000000 -0.037663
# 5 -0.001884 0.001064 -0.000744 0.000000 0.023666 0.000000
# 6 0.000000 0.000000 0.000000 -0.037663 0.000000 0.070603
#
#
# Mechanical properties :
#
#
# Convention : Reuss Voigt Hill
#
# Bulk Modulus (GPa) = 63.83799 70.32904 67.08352
# Shear Modulus (GPa) = 21.18842 33.54536 27.36689
#
# Velocity S-wave (km/s) = 3.00039 3.77524 3.40989
# Velocity P-wave (km/s) = 6.25507 6.99170 6.63362
#
# Compressibility (1/GPa) = 0.01566465
#
# Stress axis : x y z
#
# Youngs Moduli (GPa) = 82.64000 117.87972 136.58391
#
# Poissons Ratio (x) = 0.17329 0.30726
# Poissons Ratio (y) = 0.12149 0.32790
# Poissons Ratio (z) = 0.18591 0.28299
#
# Static dielectric constant tensor:
#      x y z
#    x 5.080830 0.000000 0.109800 
#    y 0.000000 4.480790 0.000000 
#    z 0.109800 0.000000 4.464370 
# 
# 
# High freq. dielectric constant tensor:
#      x y z
#    x 1.913910 0.000000 0.000030 
#    y 0.000000 1.950290 0.000000 
#    z 0.000030 0.000000 1.947100 
# 
# From -- ./inp_files/129408.got.cif
#   From: 2010.06.25/outbox.cif.g09.slc.cpg/sg15_65_cif.got.tgz:129408.got - 2010.06.28 07:06:18.
