data_PCOD8150876
_publ_section_title
;
Structure prediction by ZEFSAII (Michael W. Deem and Ramdas Pophale) SiO2 
 PCOD8150876
Probable space group: C 2/C
;
_chemical_formula_sum "Si O2"
_cell_formula_units_Z 52
_cell_length_a 29.283506
_cell_length_b 5.065364
_cell_length_c 16.423395
_cell_angle_alpha 90.000000
_cell_angle_beta 115.553789
_cell_angle_gamma 90.000000
_cell_volume 2197.810348
_symmetry_space_group_name_H-M "C 2/C"
_symmetry_group_IT_number 15
_symmetry_cell_setting 'monoclinic'
loop_
_space_group_symop_operation_xyz
x,y,z
-x,y,1/2-z
-x,-y,-z
x,-y,1/2+z
1/2+x,1/2+y,z
1/2-x,1/2+y,1/2-z
1/2-x,1/2-y,-z
1/2+x,1/2-y,1/2+z
loop_
_atom_site_type_symbol
_atom_site_label
_atom_site_fract_x
_atom_site_fract_y
_atom_site_fract_z
Si Si1 0.100666 0.571036 0.606236
Si Si2 0.564191 0.451769 0.167515
Si Si3 0.754572 0.000778 0.558195
Si Si4 0.863542 0.925767 0.635872
Si Si5 0.597552 0.070095 0.413849
Si Si6 0.718937 0.096713 0.698644
Si Si7 0.500000 0.782553 0.750000
O O1 0.084314 0.315859 0.643740
O O2 0.089370 0.518402 0.502846
O O3 0.159623 0.630439 0.676164
O O4 0.062785 0.815707 0.599076
O O5 0.600117 0.579284 0.261104
O O6 0.513058 0.394272 0.179582
O O7 0.750000 0.750000 0.500000
O O8 0.810616 0.988806 0.638285
O O9 0.715303 0.007303 0.601827
O O10 0.750000 0.250000 0.500000
O O11 0.862909 0.644868 0.589622
O O12 0.878374 0.142181 0.579395
O O13 0.546721 0.040520 0.318719
O O14 0.749435 0.870799 0.771791
#
# Coordination Sequence:
#
# PCOD8150876 Si02
#       7
#     8   8   8   8   8   8   4
#     4  12  24  43  65 101 131 173 211 276 328 378
#     4  11  25  43  70  92 131 164 219 266 333 398
#     4  12  24  39  64  95 131 174 225 266 309 382
#     4  11  22  43  64  94 130 180 212 266 323 382
#     4  11  25  43  70  94 135 165 221 271 330 391
#     4  12  25  41  64  95 137 177 220 263 317 387
#     4  10  26  48  70 100 122 176 216 274 336 406
#
# _framework density 23.659913
#
# number of rings (size 3 to 8) (size 9 to 14) (size 15 to 20)
#    0.000    0.615    0.000    9.231    0.000    6.769 
#    0.000    0.000    0.000    0.000    0.000    0.000 
#    0.000    0.000    0.000    0.000    0.000    0.000 
#
# Total GULP energy -322278.167929 kJ/mol
# GULP energy per Si atom -12395.314151 kJ/mol
# Density = 2.360606 g / cm^3
# Si number density = 23.659913 Si / 1000 Ang^3
#
#
#
# Elastic Constant Matrix: (Units=GPa)
#
#
# Indices 1 2 3 4 5 6 
#
# 1 88.9672 27.4916 11.0665 0.0000 -19.3373 0.0000
# 2 27.4916 127.8006 18.4085 0.0003 -6.6438 0.0000
# 3 11.0665 18.4085 73.8586 -0.0001 -19.9762 0.0001
# 4 0.0000 0.0003 -0.0001 38.1977 0.0000 -7.8936
# 5 -19.3373 -6.6438 -19.9762 0.0000 37.2700 0.0000
# 6 0.0000 0.0000 0.0001 -7.8936 0.0000 35.3506
#
#
#
# Elastic Compliance Matrix: (Units=1/GPa)
#
#
# Indices 1 2 3 4 5 6 
#
# 1 0.013460 -0.002610 0.000464 0.000000 0.006767 0.000000
# 2 -0.002610 0.008628 -0.002000 0.000000 -0.000888 0.000000
# 3 0.000464 -0.002000 0.016300 0.000000 0.008621 0.000000
# 4 0.000000 0.000000 0.000000 0.027446 0.000000 0.006129
# 5 0.006767 -0.000888 0.008621 0.000000 0.034805 0.000000
# 6 0.000000 0.000000 0.000000 0.006129 0.000000 0.029657
#
#
# Mechanical properties :
#
#
# Convention : Reuss Voigt Hill
#
# Bulk Modulus (GPa) = 33.22698 44.95107 39.08902
# Shear Modulus (GPa) = 33.64314 37.74097 35.69205
#
# Velocity S-wave (km/s) = 3.77496 3.99826 3.88821
# Velocity P-wave (km/s) = 5.75104 6.35255 6.05926
#
# Compressibility (1/GPa) = 0.03009603
#
# Stress axis : x y z
#
# Youngs Moduli (GPa) = 74.29507 115.90065 61.35034
#
# Poissons Ratio (x) = 0.30255 -0.02847
# Poissons Ratio (y) = 0.19394 0.12267
# Poissons Ratio (z) = -0.03448 0.23174
#
# Static dielectric constant tensor:
#      x y z
#    x 5.622870 0.000000 -0.694150 
#    y 0.000000 4.327090 0.000000 
#    z -0.694150 0.000000 4.623300 
# 
# 
# High freq. dielectric constant tensor:
#      x y z
#    x 1.946030 0.000000 -0.010200 
#    y 0.000000 1.946100 0.000000 
#    z -0.010200 0.000000 1.943320 
# 
# From -- ./inp_files/180156.got.cif
#   From: 2010.06.25/outbox.cif.g09.slc.cpg/sg15_91_cif.got.tgz:180156.got - 2010.06.28 07:06:18.
