data_PCOD8150171
_publ_section_title
;
Structure prediction by ZEFSAII (Michael W. Deem and Ramdas Pophale) SiO2 
 PCOD8150171
Probable space group: C 2/C
;
_chemical_formula_sum "Si O2"
_cell_formula_units_Z 48
_cell_length_a 27.643938
_cell_length_b 8.184488
_cell_length_c 16.269565
_cell_angle_alpha 90.000000
_cell_angle_beta 144.829386
_cell_angle_gamma 90.000000
_cell_volume 2120.311942
_symmetry_space_group_name_H-M "C 2/C"
_symmetry_group_IT_number 15
_symmetry_cell_setting 'monoclinic'
loop_
_space_group_symop_operation_xyz
x,y,z
-x,y,1/2-z
-x,-y,-z
x,-y,1/2+z
1/2+x,1/2+y,z
1/2-x,1/2+y,1/2-z
1/2-x,1/2-y,-z
1/2+x,1/2-y,1/2+z
loop_
_atom_site_type_symbol
_atom_site_label
_atom_site_fract_x
_atom_site_fract_y
_atom_site_fract_z
Si Si1 0.880302 0.584723 0.325743
Si Si2 0.695266 0.670325 0.665671
Si Si3 0.918284 0.038464 0.587771
Si Si4 0.238419 0.934088 0.511179
Si Si5 0.544355 0.237587 0.506435
Si Si6 0.803105 0.112150 0.211639
O O1 0.813141 0.670078 0.290885
O O2 0.926308 0.448922 0.443445
O O3 0.944609 0.729332 0.385550
O O4 0.826563 0.510283 0.175366
O O5 0.606022 0.614289 0.503927
O O6 0.759581 0.716586 0.680705
O O7 0.730286 0.526460 0.772301
O O8 0.839998 0.072178 0.537106
O O9 0.938488 0.200824 0.562416
O O10 0.000000 0.983374 0.750000
O O11 0.250000 0.750000 0.500000
O O12 0.221050 0.062639 0.413972
O O13 0.595912 0.356118 0.640976
#
# Coordination Sequence:
#
# PCOD8150171 Si02
#       6
#     8   8   8   8   8   8
#     4  11  23  44  69 102 134 178 225 275 345 409
#     4  11  24  42  70  94 134 177 224 273 344 408
#     4  11  26  44  67  99 136 176 224 278 338 404
#     4  12  25  41  70 101 133 174 229 283 338 402
#     4  10  24  44  70  94 137 180 224 278 341 409
#     4  11  24  43  73  96 135 180 228 284 339 411
#
# _framework density 22.638176999999999
#
# number of rings (size 3 to 8) (size 9 to 14) (size 15 to 20)
#    0.000    1.000    1.667    5.000    4.667    4.000 
#    3.000    0.000    0.000    0.000    0.000    0.000 
#    0.000    0.000    0.000    0.000    0.000    0.000 
#
# Total GULP energy -297524.344516 kJ/mol
# GULP energy per Si atom -12396.847688 kJ/mol
# Density = 2.258665 g / cm^3
# Si number density = 22.638177 Si / 1000 Ang^3
#
#
#
# Elastic Constant Matrix: (Units=GPa)
#
#
# Indices 1 2 3 4 5 6 
#
# 1 110.3058 18.3222 50.2247 0.0000 -4.9257 0.0000
# 2 18.3222 45.1950 14.8962 0.0000 -17.6510 0.0000
# 3 50.2247 14.8962 158.2231 0.0000 -6.2956 0.0000
# 4 0.0000 0.0000 0.0000 35.3304 0.0000 -7.0794
# 5 -4.9257 -17.6510 -6.2956 0.0000 31.0096 0.0000
# 6 0.0000 0.0000 0.0000 -7.0794 0.0000 37.3830
#
#
#
# Elastic Compliance Matrix: (Units=1/GPa)
#
#
# Indices 1 2 3 4 5 6 
#
# 1 0.011122 -0.003878 -0.003209 0.000000 -0.001092 0.000000
# 2 -0.003878 0.030479 -0.000981 0.000000 0.016534 0.000000
# 3 -0.003209 -0.000981 0.007449 0.000000 0.000444 0.000000
# 4 0.000000 0.000000 0.000000 0.029421 0.000000 0.005572
# 5 -0.001092 0.016534 0.000444 0.000000 0.041576 0.000000
# 6 0.000000 0.000000 0.000000 0.005572 0.000000 0.027805
#
#
# Mechanical properties :
#
#
# Convention : Reuss Voigt Hill
#
# Bulk Modulus (GPa) = 30.38113 53.40112 41.89112
# Shear Modulus (GPa) = 28.57822 36.09665 32.33744
#
# Velocity S-wave (km/s) = 3.55687 3.99746 3.78358
# Velocity P-wave (km/s) = 5.50617 6.70421 6.13450
#
# Compressibility (1/GPa) = 0.03291517
#
# Stress axis : x y z
#
# Youngs Moduli (GPa) = 89.91088 32.80947 134.25008
#
# Poissons Ratio (x) = 0.12723 0.43079
# Poissons Ratio (y) = 0.34866 0.13166
# Poissons Ratio (z) = 0.28851 0.03218
#
# Static dielectric constant tensor:
#      x y z
#    x 4.161320 0.000000 0.026210 
#    y 0.000000 4.057510 0.000000 
#    z 0.026210 0.000000 4.407370 
# 
# 
# High freq. dielectric constant tensor:
#      x y z
#    x 1.891660 0.000000 0.003230 
#    y 0.000000 1.899550 0.000000 
#    z 0.003230 0.000000 1.897250 
# 
# From -- ./inp_files/176990.got.cif
#   From: 2010.06.25/outbox.cif.g09.slc.cpg/sg15_89_cif.got.tgz:176990.got - 2010.06.28 07:06:18.
