data_PCOD8150938
_publ_section_title
;
Structure prediction by ZEFSAII (Michael W. Deem and Ramdas Pophale) SiO2 
 PCOD8150938
Probable space group: C 2/C
;
_chemical_formula_sum "Si O2"
_cell_formula_units_Z 44
_cell_length_a 16.276542
_cell_length_b 13.970247
_cell_length_c 21.242393
_cell_angle_alpha 90.000000
_cell_angle_beta 22.734695
_cell_angle_gamma 90.000000
_cell_volume 1866.720918
_symmetry_space_group_name_H-M "C 2/C"
_symmetry_group_IT_number 15
_symmetry_cell_setting 'monoclinic'
loop_
_space_group_symop_operation_xyz
x,y,z
-x,y,1/2-z
-x,-y,-z
x,-y,1/2+z
1/2+x,1/2+y,z
1/2-x,1/2+y,1/2-z
1/2-x,1/2-y,-z
1/2+x,1/2-y,1/2+z
loop_
_atom_site_type_symbol
_atom_site_label
_atom_site_fract_x
_atom_site_fract_y
_atom_site_fract_z
Si Si1 0.860198 0.706006 0.097568
Si Si2 0.146776 0.083109 0.927391
Si Si3 0.881819 0.153769 0.416755
Si Si4 0.500000 0.224401 0.250000
Si Si5 0.420897 0.847076 0.940640
Si Si6 0.428703 0.062162 0.947861
O O1 0.945703 0.811864 0.022355
O O2 0.620176 0.690436 0.245968
O O3 0.888505 0.696061 0.152404
O O4 0.992361 0.627076 0.963497
O O5 0.386023 0.073317 0.734188
O O6 0.155012 0.083347 0.997303
O O7 0.000000 0.000000 0.000000
O O8 0.750000 0.250000 0.500000
O O9 0.804326 0.090000 0.413400
O O10 0.511604 0.156472 0.180307
O O11 0.294651 0.290851 0.392820
O O12 0.398300 0.951981 0.985633
#
# Coordination Sequence:
#
# PCOD8150938 Si02
#       6
#     8   8   8   4   8   8
#     4  12  26  49  76 111 157 197 251 325 390 470
#     4  12  27  44  74 112 147 204 256 316 381 462
#     4  12  25  47  74 112 156 200 254 322 392 457
#     4  10  28  52  74  98 150 206 254 328 384 472
#     4  11  28  50  75 106 148 200 259 317 393 460
#     4  12  27  45  77 114 151 196 258 312 395 468
#
# _framework density 23.570741999999999
#
# number of rings (size 3 to 8) (size 9 to 14) (size 15 to 20)
#    0.000    0.364    3.636    2.727   12.727    1.455 
#    0.000    0.000    0.000    0.000    0.000    0.000 
#    0.000    0.000    0.000    0.000    0.000    0.000 
#
# Total GULP energy -272623.610673 kJ/mol
# GULP energy per Si atom -12391.982303 kJ/mol
# Density = 2.351709 g / cm^3
# Si number density = 23.570742 Si / 1000 Ang^3
#
#
#
# Elastic Constant Matrix: (Units=GPa)
#
#
# Indices 1 2 3 4 5 6 
#
# 1 154.7473 56.9836 33.1671 -0.0060 1.3910 -0.0084
# 2 56.9836 152.3818 31.7878 0.0452 -0.3261 -0.0257
# 3 33.1671 31.7878 94.6124 0.1592 -0.7701 -0.0012
# 4 -0.0060 0.0452 0.1592 2.4705 0.0338 -9.8309
# 5 1.3910 -0.3261 -0.7701 0.0338 27.4132 -0.0179
# 6 -0.0084 -0.0257 -0.0012 -9.8309 -0.0179 50.1339
#
#
#
# Elastic Compliance Matrix: (Units=1/GPa)
#
#
# Indices 1 2 3 4 5 6 
#
# 1 0.007801 -0.002524 -0.001892 0.000878 -0.000480 0.000172
# 2 -0.002524 0.007874 -0.001759 -0.000113 0.000172 -0.000019
# 3 -0.001892 -0.001759 0.011833 -0.003386 0.000411 -0.000665
# 4 0.000878 -0.000113 -0.003386 1.843628 -0.002176 0.361521
# 5 -0.000480 0.000172 0.000411 -0.002176 0.036519 -0.000414
# 6 0.000172 -0.000019 -0.000665 0.361521 -0.000414 0.090838
#
#
# Mechanical properties :
#
#
# Convention : Reuss Voigt Hill
#
# Bulk Modulus (GPa) = 65.97372 71.73542 68.85457
# Shear Modulus (GPa) = 2.48029 34.65705 18.56867
#
# Velocity S-wave (km/s) = 1.02692 3.83866 2.80980
# Velocity P-wave (km/s) = 5.42738 7.08147 6.30887
#
# Compressibility (1/GPa) = 0.01515755
#
# Stress axis : x y z
#
# Youngs Moduli (GPa) = 128.18095 127.00634 84.51068
#
# Poissons Ratio (x) = 0.32055 0.15992
# Poissons Ratio (y) = 0.32352 0.14866
# Poissons Ratio (z) = 0.24255 0.22341
#
# Static dielectric constant tensor:
#      x y z
#    x 4.953770 0.000270 -0.923810 
#    y 0.000270 4.632300 -0.000850 
#    z -0.923810 -0.000850 7.256010 
# 
# 
# High freq. dielectric constant tensor:
#      x y z
#    x 1.948160 0.000000 -0.000150 
#    y 0.000000 1.940890 0.000020 
#    z -0.000150 0.000020 1.934510 
# 
# From -- ./inp_files/277614.got.cif
#   From: 2010.06.25/outbox.cif.g09.slc.cpg/sg15_139_cif.got.tgz:277614.got - 2010.06.28 07:06:18.
