data_PCOD8150067
_publ_section_title
;
Structure prediction by ZEFSAII (Michael W. Deem and Ramdas Pophale) SiO2 
 PCOD8150067
Probable space group: C 2/C
;
_chemical_formula_sum "Si O2"
_cell_formula_units_Z 60
_cell_length_a 18.951818
_cell_length_b 11.245019
_cell_length_c 22.028568
_cell_angle_alpha 90.000000
_cell_angle_beta 145.740745
_cell_angle_gamma 90.000000
_cell_volume 2642.763145
_symmetry_space_group_name_H-M "C 2/C"
_symmetry_group_IT_number 15
_symmetry_cell_setting 'monoclinic'
loop_
_space_group_symop_operation_xyz
x,y,z
-x,y,1/2-z
-x,-y,-z
x,-y,1/2+z
1/2+x,1/2+y,z
1/2-x,1/2+y,1/2-z
1/2-x,1/2-y,-z
1/2+x,1/2-y,1/2+z
loop_
_atom_site_type_symbol
_atom_site_label
_atom_site_fract_x
_atom_site_fract_y
_atom_site_fract_z
Si Si1 0.109420 0.232740 0.426833
Si Si2 0.529883 0.507413 0.921403
Si Si3 0.403716 0.652153 0.632740
Si Si4 0.571274 0.940002 0.635098
Si Si5 0.662105 0.415189 0.631643
Si Si6 0.500000 0.110189 0.750000
Si Si7 0.861436 0.580839 0.085803
Si Si8 0.994023 0.681861 0.963532
O O1 0.250000 0.250000 0.500000
O O2 0.072658 0.094343 0.403880
O O3 0.003357 0.302727 0.311049
O O4 0.098922 0.282307 0.488174
O O5 0.531592 0.633123 0.887119
O O6 0.390305 0.486242 0.847089
O O7 0.626776 0.512704 0.046081
O O8 0.500000 0.599577 0.750000
O O9 0.276616 0.574064 0.541420
O O10 0.377993 0.790122 0.628145
O O11 0.689354 0.908178 0.760355
O O12 0.452834 0.941144 0.594922
O O13 0.563794 0.843678 0.576276
O O14 0.585915 0.069172 0.615344
O O15 0.604375 0.284559 0.592168
O O16 0.617886 0.019140 0.846266
#
# Coordination Sequence:
#
# PCOD8150067 Si02
#       8
#     8   8   8   8   8   4   8   8
#     4  11  25  42  72  99 143 188 238 307 362 447
#     4  10  24  44  66 103 129 183 242 291 364 434
#     4  11  25  43  70 100 146 185 242 299 358 441
#     4  11  24  42  73  98 144 185 238 308 356 434
#     4  10  24  45  70  95 141 183 237 300 357 436
#     4  12  24  46  66 104 148 186 240 302 364 424
#     4  11  25  43  69 107 137 195 241 295 372 432
#     4  10  24  44  64 110 133 184 247 289 366 436
#
# _framework density 22.703509
#
# number of rings (size 3 to 8) (size 9 to 14) (size 15 to 20)
#    0.000    1.333    2.000    1.600    4.667    9.600 
#    0.000    0.000    0.000    0.000    0.000    0.000 
#    0.000    0.000    0.000    0.000    0.000    0.000 
#
# Total GULP energy -371822.526909 kJ/mol
# GULP energy per Si atom -12394.084230 kJ/mol
# Density = 2.265183 g / cm^3
# Si number density = 22.703509 Si / 1000 Ang^3
#
#
#
# Elastic Constant Matrix: (Units=GPa)
#
#
# Indices 1 2 3 4 5 6 
#
# 1 95.9399 38.4092 48.9013 0.0000 -8.4884 0.0000
# 2 38.4092 92.8661 51.5941 0.0001 1.3714 0.0000
# 3 48.9013 51.5941 145.6208 0.0000 5.8268 0.0000
# 4 0.0000 0.0001 0.0000 37.3633 0.0000 -13.2267
# 5 -8.4884 1.3714 5.8268 0.0000 24.6547 0.0000
# 6 0.0000 0.0000 0.0000 -13.2267 0.0000 36.1628
#
#
#
# Elastic Compliance Matrix: (Units=1/GPa)
#
#
# Indices 1 2 3 4 5 6 
#
# 1 0.014439 -0.004025 -0.003665 0.000000 0.006061 0.000000
# 2 -0.004025 0.014533 -0.003745 0.000000 -0.001309 0.000000
# 3 -0.003665 -0.003745 0.009557 0.000000 -0.003312 0.000000
# 4 0.000000 0.000000 0.000000 0.030745 0.000000 0.011245
# 5 0.006061 -0.001309 -0.003312 0.000000 0.043503 0.000000
# 6 0.000000 0.000000 0.000000 0.011245 0.000000 0.031766
#
#
# Mechanical properties :
#
#
# Convention : Reuss Voigt Hill
#
# Bulk Modulus (GPa) = 63.86250 68.02622 65.94436
# Shear Modulus (GPa) = 28.96309 32.67097 30.81703
#
# Velocity S-wave (km/s) = 3.57558 3.79757 3.68825
# Velocity P-wave (km/s) = 6.72580 7.01830 6.87361
#
# Compressibility (1/GPa) = 0.01565864
#
# Stress axis : x y z
#
# Youngs Moduli (GPa) = 69.25617 68.80905 104.63100
#
# Poissons Ratio (x) = 0.27697 0.38350
# Poissons Ratio (y) = 0.27877 0.39184
# Poissons Ratio (z) = 0.25384 0.25769
#
# Static dielectric constant tensor:
#      x y z
#    x 4.059820 0.000000 -0.151790 
#    y 0.000000 4.388930 0.000000 
#    z -0.151790 0.000000 4.072140 
# 
# 
# High freq. dielectric constant tensor:
#      x y z
#    x 1.892380 0.000000 -0.010920 
#    y 0.000000 1.912480 0.000000 
#    z -0.010920 0.000000 1.885400 
# 
# From -- ./inp_files/248792.got.cif
#   From: 2010.06.25/outbox.cif.g09.slc.cpg/sg15_125_cif.got.tgz:248792.got - 2010.06.28 07:06:18.
