data_PCOD8150705
_publ_section_title
;
Structure prediction by ZEFSAII (Michael W. Deem and Ramdas Pophale) SiO2 
 PCOD8150705
Probable space group: C 2/C
;
_chemical_formula_sum "Si O2"
_cell_formula_units_Z 36
_cell_length_a 17.271323
_cell_length_b 7.464618
_cell_length_c 13.842825
_cell_angle_alpha 90.000000
_cell_angle_beta 55.048419
_cell_angle_gamma 90.000000
_cell_volume 1462.780607
_symmetry_space_group_name_H-M "C 2/C"
_symmetry_group_IT_number 15
_symmetry_cell_setting 'monoclinic'
loop_
_space_group_symop_operation_xyz
x,y,z
-x,y,1/2-z
-x,-y,-z
x,-y,1/2+z
1/2+x,1/2+y,z
1/2-x,1/2+y,1/2-z
1/2-x,1/2-y,-z
1/2+x,1/2-y,1/2+z
loop_
_atom_site_type_symbol
_atom_site_label
_atom_site_fract_x
_atom_site_fract_y
_atom_site_fract_z
Si Si1 0.118184 0.301096 0.996154
Si Si2 0.419990 0.578246 0.986892
Si Si3 0.083277 0.266250 0.801550
Si Si4 0.000000 0.559632 0.750000
Si Si5 0.730482 0.147938 0.914953
O O1 0.036511 0.326535 0.133984
O O2 0.147468 0.091403 0.992108
O O3 0.079471 0.331586 0.915637
O O4 0.203433 0.440506 0.951440
O O5 0.483032 0.660857 0.854005
O O6 0.500000 0.500000 0.000000
O O7 0.353719 0.737802 0.076631
O O8 0.175953 0.145133 0.718163
O O9 0.085931 0.436949 0.729091
O O10 0.750000 0.250000 0.000000
#
# Coordination Sequence:
#
# PCOD8150705 Si02
#       5
#     8   8   8   4   8
#     4  11  26  45  73 105 144 197 246 303 375 442
#     4  10  25  47  70 108 142 193 251 303 377 441
#     4  11  24  46  74 105 151 193 244 312 372 442
#     4  12  22  46  72 104 146 200 238 306 378 436
#     4  12  25  47  72 107 153 191 251 308 372 446
#
# _framework density 24.610664
#
# number of rings (size 3 to 8) (size 9 to 14) (size 15 to 20)
#    0.000    0.889    4.444    0.667    9.333    3.556 
#    4.000    0.000    0.000    0.000    0.000    0.000 
#    0.000    0.000    0.000    0.000    0.000    0.000 
#
# Total GULP energy -222986.319622 kJ/mol
# GULP energy per Si atom -12388.128868 kJ/mol
# Density = 2.455465 g / cm^3
# Si number density = 24.610664 Si / 1000 Ang^3
#
#
#
# Elastic Constant Matrix: (Units=GPa)
#
#
# Indices 1 2 3 4 5 6 
#
# 1 50.9631 14.5487 23.8252 0.0000 -9.1718 0.0000
# 2 14.5487 136.0989 47.9547 0.0000 -22.3590 -0.0001
# 3 23.8252 47.9547 143.2390 0.0000 -14.0892 0.0000
# 4 0.0000 0.0000 0.0000 36.0177 0.0000 -11.4035
# 5 -9.1718 -22.3590 -14.0892 0.0000 53.8345 0.0000
# 6 0.0000 -0.0001 0.0000 -11.4035 0.0000 34.2377
#
#
#
# Elastic Compliance Matrix: (Units=1/GPa)
#
#
# Indices 1 2 3 4 5 6 
#
# 1 0.021762 -0.000815 -0.003095 0.000000 0.002559 0.000000
# 2 -0.000815 0.008794 -0.002528 0.000000 0.002852 0.000000
# 3 -0.003095 -0.002528 0.008404 0.000000 0.000622 0.000000
# 4 0.000000 0.000000 0.000000 0.031037 0.000000 0.010337
# 5 0.002559 0.002852 0.000622 0.000000 0.020359 0.000000
# 6 0.000000 0.000000 0.000000 0.010337 0.000000 0.032651
#
#
# Mechanical properties :
#
#
# Convention : Reuss Voigt Hill
#
# Bulk Modulus (GPa) = 38.33903 55.88424 47.11164
# Shear Modulus (GPa) = 34.58349 41.08281 37.83315
#
# Velocity S-wave (km/s) = 3.75270 4.09015 3.92505
# Velocity P-wave (km/s) = 5.86422 6.71285 6.30283
#
# Compressibility (1/GPa) = 0.02608308
#
# Stress axis : x y z
#
# Youngs Moduli (GPa) = 45.95106 113.71361 118.99555
#
# Poissons Ratio (x) = 0.09272 0.36830
# Poissons Ratio (y) = 0.03747 0.30082
# Poissons Ratio (z) = 0.14222 0.28747
#
# Static dielectric constant tensor:
#      x y z
#    x 4.444630 0.000000 -0.282140 
#    y 0.000000 5.533230 0.000000 
#    z -0.282140 0.000000 4.931620 
# 
# 
# High freq. dielectric constant tensor:
#      x y z
#    x 1.964060 0.000000 0.000270 
#    y 0.000000 1.989270 0.000000 
#    z 0.000270 0.000000 1.981790 
# 
# From -- ./inp_files/159068.got.cif
#   From: 2010.06.25/outbox.cif.g09.slc.cpg/sg15_80_cif.got.tgz:159068.got - 2010.06.28 07:06:18.
