data_PCOD8150778
_publ_section_title
;
Structure prediction by ZEFSAII (Michael W. Deem and Ramdas Pophale) SiO2 
 PCOD8150778
Probable space group: C 2/C
;
_chemical_formula_sum "Si O2"
_cell_formula_units_Z 44
_cell_length_a 8.043307
_cell_length_b 26.978608
_cell_length_c 12.844192
_cell_angle_alpha 90.000000
_cell_angle_beta 46.851476
_cell_angle_gamma 90.000000
_cell_volume 2033.461177
_symmetry_space_group_name_H-M "C 2/C"
_symmetry_group_IT_number 15
_symmetry_cell_setting 'monoclinic'
loop_
_space_group_symop_operation_xyz
x,y,z
-x,y,1/2-z
-x,-y,-z
x,-y,1/2+z
1/2+x,1/2+y,z
1/2-x,1/2+y,1/2-z
1/2-x,1/2-y,-z
1/2+x,1/2-y,1/2+z
loop_
_atom_site_type_symbol
_atom_site_label
_atom_site_fract_x
_atom_site_fract_y
_atom_site_fract_z
Si Si1 0.003768 0.850417 0.934107
Si Si2 0.487433 0.753360 0.139697
Si Si3 0.780112 0.939698 0.769759
Si Si4 0.000000 0.513409 0.750000
Si Si5 0.581985 0.091766 0.556094
Si Si6 0.324438 0.342181 0.237699
O O1 0.114563 0.801576 0.833638
O O2 0.169918 0.895680 0.833824
O O3 0.757788 0.862692 0.990594
O O4 0.970610 0.837659 0.069568
O O5 0.500000 0.772546 0.250000
O O6 0.318478 0.793832 0.161253
O O7 0.750000 0.750000 0.000000
O O8 0.000000 0.952948 0.750000
O O9 0.688287 0.983514 0.736132
O O10 0.578961 0.924917 0.936374
O O11 0.854039 0.546214 0.894750
O O12 0.338390 0.110333 0.700113
O O13 0.500000 0.355361 0.250000
#
# Coordination Sequence:
#
# PCOD8150778 Si02
#       6
#     8   8   8   4   8   8
#     4  11  23  46  69  97 136 181 228 284 337 417
#     4  12  22  43  74  96 133 183 230 269 345 423
#     4  10  26  43  69 104 136 180 237 287 348 411
#     4  12  24  44  74 100 140 186 232 292 350 416
#     4  11  22  47  69  95 137 181 232 277 348 418
#     4  12  26  42  67 104 138 180 223 290 350 406
#
# _framework density 21.637982000000001
#
# number of rings (size 3 to 8) (size 9 to 14) (size 15 to 20)
#    0.000    0.727    5.455    2.182    2.545    4.364 
#    1.636    0.000    0.000    0.000    0.000    0.000 
#    0.000    0.000    0.000    0.000    0.000    0.000 
#
# Total GULP energy -272624.325392 kJ/mol
# GULP energy per Si atom -12392.014791 kJ/mol
# Density = 2.158873 g / cm^3
# Si number density = 21.637982 Si / 1000 Ang^3
#
#
#
# Elastic Constant Matrix: (Units=GPa)
#
#
# Indices 1 2 3 4 5 6 
#
# 1 69.6333 46.0830 10.7322 0.0000 17.3834 0.0000
# 2 46.0830 124.0652 36.3957 0.0000 6.8472 0.0000
# 3 10.7322 36.3957 105.1943 0.0000 11.2434 0.0000
# 4 0.0000 0.0000 0.0000 35.4445 0.0000 -1.8557
# 5 17.3834 6.8472 11.2434 0.0000 22.9443 0.0000
# 6 0.0000 0.0000 0.0000 -1.8557 0.0000 27.0053
#
#
#
# Elastic Compliance Matrix: (Units=1/GPa)
#
#
# Indices 1 2 3 4 5 6 
#
# 1 0.023871 -0.008631 0.002331 0.000000 -0.016652 0.000000
# 2 -0.008631 0.012124 -0.003827 0.000000 0.004796 0.000000
# 3 0.002331 -0.003827 0.011248 0.000000 -0.006136 0.000000
# 4 0.000000 0.000000 0.000000 0.028315 0.000000 0.001946
# 5 -0.016652 0.004796 -0.006136 0.000000 0.057775 0.000000
# 6 0.000000 0.000000 0.000000 0.001946 0.000000 0.037163
#
#
# Mechanical properties :
#
#
# Convention : Reuss Voigt Hill
#
# Bulk Modulus (GPa) = 37.05299 53.92384 45.48842
# Shear Modulus (GPa) = 25.03153 30.79095 27.91124
#
# Velocity S-wave (km/s) = 3.40491 3.77637 3.59544
# Velocity P-wave (km/s) = 5.71132 6.63247 6.18905
#
# Compressibility (1/GPa) = 0.02698837
#
# Stress axis : x y z
#
# Youngs Moduli (GPa) = 41.89207 82.47930 88.90243
#
# Poissons Ratio (x) = 0.71191 -0.20721
# Poissons Ratio (y) = 0.36159 0.34022
# Poissons Ratio (z) = -0.09764 0.31564
#
# Static dielectric constant tensor:
#      x y z
#    x 3.608650 0.000000 0.108990 
#    y 0.000000 4.177740 0.000000 
#    z 0.108990 0.000000 4.152110 
# 
# 
# High freq. dielectric constant tensor:
#      x y z
#    x 1.821630 0.000000 0.009530 
#    y 0.000000 1.860330 0.000000 
#    z 0.009530 0.000000 1.865060 
# 
# From -- ./inp_files/81065.got.cif
#   From: 2010.06.25/outbox.cif.g09.slc.cpg/sg15_41_cif.got.tgz:81065.got - 2010.06.28 07:06:18.
