data_PCOD8150045
_publ_section_title
;
Structure prediction by ZEFSAII (Michael W. Deem and Ramdas Pophale) SiO2 
 PCOD8150045
Probable space group: C 2/C
;
_chemical_formula_sum "Si O2"
_cell_formula_units_Z 52
_cell_length_a 5.900803
_cell_length_b 13.297924
_cell_length_c 30.007987
_cell_angle_alpha 90.000000
_cell_angle_beta 77.277487
_cell_angle_gamma 90.000000
_cell_volume 2296.867729
_symmetry_space_group_name_H-M "C 2/C"
_symmetry_group_IT_number 15
_symmetry_cell_setting 'monoclinic'
loop_
_space_group_symop_operation_xyz
x,y,z
-x,y,1/2-z
-x,-y,-z
x,-y,1/2+z
1/2+x,1/2+y,z
1/2-x,1/2+y,1/2-z
1/2-x,1/2-y,-z
1/2+x,1/2-y,1/2+z
loop_
_atom_site_type_symbol
_atom_site_label
_atom_site_fract_x
_atom_site_fract_y
_atom_site_fract_z
Si Si1 0.753463 0.553897 0.001052
Si Si2 0.625869 0.741781 0.619357
Si Si3 0.731256 0.887447 0.826855
Si Si4 0.499165 0.391519 0.905801
Si Si5 0.218913 0.893856 0.408739
Si Si6 0.000000 0.749310 0.750000
Si Si7 0.366426 0.114738 0.675955
O O1 0.813850 0.621024 0.955011
O O2 0.500000 0.500000 0.000000
O O3 0.711065 0.612012 0.049381
O O4 0.000000 0.500000 0.000000
O O5 0.502192 0.839264 0.644726
O O6 0.492052 0.685126 0.585698
O O7 0.654220 0.657054 0.656104
O O8 0.864284 0.787910 0.590338
O O9 0.916577 0.890868 0.858481
O O10 0.817411 0.821377 0.781970
O O11 0.675301 0.998454 0.811224
O O12 0.652581 0.490394 0.905490
O O13 0.402113 0.864870 0.362792
O O14 0.870049 0.676663 0.721274
#
# Coordination Sequence:
#
# PCOD8150045 Si02
#       7
#     8   8   8   8   8   4   8
#     4  10  24  43  75 117 157 205 262 308 377 465
#     4  12  24  44  76 106 144 194 246 312 374 466
#     4  12  26  47  73 104 147 190 246 310 388 447
#     4  11  23  45  76 107 151 199 246 309 382 449
#     4  11  23  45  76 107 151 199 246 309 382 449
#     4  12  28  46  68 112 134 188 256 310 376 476
#     4  12  26  47  73 104 147 190 246 310 388 447
#
# _framework density 22.639526
#
# number of rings (size 3 to 8) (size 9 to 14) (size 15 to 20)
#    0.000    0.615    6.154    0.923    4.308    4.923 
#    0.000    3.077    0.000    0.000    0.000    0.000 
#    0.000    0.000    0.000    0.000    0.000    0.000 
#
# Total GULP energy -322204.876268 kJ/mol
# GULP energy per Si atom -12392.495241 kJ/mol
# Density = 2.258800 g / cm^3
# Si number density = 22.639526 Si / 1000 Ang^3
#
#
#
# Elastic Constant Matrix: (Units=GPa)
#
#
# Indices 1 2 3 4 5 6 
#
# 1 102.7731 37.2997 36.1011 0.0000 5.1510 0.0000
# 2 37.2997 142.9154 42.5444 0.0000 11.4567 0.0000
# 3 36.1011 42.5444 142.8061 0.0000 12.8894 0.0000
# 4 0.0000 0.0000 0.0000 9.9833 0.0000 -6.6921
# 5 5.1510 11.4567 12.8894 0.0000 9.7926 0.0000
# 6 0.0000 0.0000 0.0000 -6.6921 0.0000 48.2137
#
#
#
# Elastic Compliance Matrix: (Units=1/GPa)
#
#
# Indices 1 2 3 4 5 6 
#
# 1 0.011335 -0.002283 -0.002143 0.000000 -0.000471 0.000000
# 2 -0.002283 0.008556 -0.001335 0.000000 -0.007051 0.000000
# 3 -0.002143 -0.001335 0.008737 0.000000 -0.008811 0.000000
# 4 0.000000 0.000000 0.000000 0.110443 0.000000 0.015329
# 5 -0.000471 -0.007051 -0.008811 0.000000 0.122212 0.000000
# 6 0.000000 0.000000 0.000000 0.015329 0.000000 0.022869
#
#
# Mechanical properties :
#
#
# Convention : Reuss Voigt Hill
#
# Bulk Modulus (GPa) = 58.45877 68.93168 63.69523
# Shear Modulus (GPa) = 16.59061 31.76789 24.17925
#
# Velocity S-wave (km/s) = 2.70999 3.75000 3.27159
# Velocity P-wave (km/s) = 5.97241 7.01880 6.51664
#
# Compressibility (1/GPa) = 0.01710607
#
# Stress axis : x y z
#
# Youngs Moduli (GPa) = 88.22264 116.88133 114.45156
#
# Poissons Ratio (x) = 0.26680 0.24526
# Poissons Ratio (y) = 0.20138 0.15284
# Poissons Ratio (z) = 0.18905 0.15609
#
# Static dielectric constant tensor:
#      x y z
#    x 4.220790 0.000000 0.032780 
#    y 0.000000 4.188110 0.000000 
#    z 0.032780 0.000000 4.438260 
# 
# 
# High freq. dielectric constant tensor:
#      x y z
#    x 1.896640 0.000000 0.002800 
#    y 0.000000 1.901150 0.000000 
#    z 0.002800 0.000000 1.898610 
# 
# From -- ./inp_files/305328.got.cif
#   From: 2010.06.25/outbox.cif.g09.slc.cpg/sg15_153_cif.got.tgz:305328.got - 2010.06.28 07:06:18.
