data_PCOD8150270
_publ_section_title
;
Structure prediction by ZEFSAII (Michael W. Deem and Ramdas Pophale) SiO2 
 PCOD8150270
Probable space group: C 2/C
;
_chemical_formula_sum "Si O2"
_cell_formula_units_Z 44
_cell_length_a 12.214257
_cell_length_b 21.857647
_cell_length_c 7.852547
_cell_angle_alpha 90.000000
_cell_angle_beta 107.895900
_cell_angle_gamma 90.000000
_cell_volume 1995.000101
_symmetry_space_group_name_H-M "C 2/C"
_symmetry_group_IT_number 15
_symmetry_cell_setting 'monoclinic'
loop_
_space_group_symop_operation_xyz
x,y,z
-x,y,1/2-z
-x,-y,-z
x,-y,1/2+z
1/2+x,1/2+y,z
1/2-x,1/2+y,1/2-z
1/2-x,1/2-y,-z
1/2+x,1/2-y,1/2+z
loop_
_atom_site_type_symbol
_atom_site_label
_atom_site_fract_x
_atom_site_fract_y
_atom_site_fract_z
Si Si1 0.128830 0.175572 0.002844
Si Si2 0.500000 0.647137 0.250000
Si Si3 0.310798 0.250129 0.269327
Si Si4 0.375546 0.824043 0.112170
Si Si5 0.206510 0.073993 0.498172
Si Si6 0.629395 0.450555 0.333011
O O1 0.104382 0.211088 0.813557
O O2 0.128855 0.102750 0.973111
O O3 0.030540 0.189363 0.099838
O O4 0.252965 0.196001 0.131911
O O5 0.612357 0.607836 0.339211
O O6 0.386135 0.220388 0.454507
O O7 0.212070 0.294703 0.294526
O O8 0.500000 0.834089 0.250000
O O9 0.327257 0.890734 0.032931
O O10 0.173211 0.077131 0.678952
O O11 0.214208 0.004059 0.438406
O O12 0.500000 0.476974 0.250000
#
# Coordination Sequence:
#
# PCOD8150270 Si02
#       6
#     8   4   8   8   8   8
#     4  11  23  40  70 107 137 179 225 287 356 411
#     4  12  22  40  72 102 144 176 224 286 360 404
#     4  10  24  45  69  99 139 182 232 284 344 417
#     4  11  25  46  71  98 138 187 235 284 341 417
#     4  12  24  42  66 102 139 181 227 293 348 411
#     4  12  23  39  68 104 139 172 229 294 360 411
#
# _framework density 22.055137999999999
#
# number of rings (size 3 to 8) (size 9 to 14) (size 15 to 20)
#    0.000    0.727    6.364    1.636    1.273    1.455 
#    0.000    3.636    0.000    0.000    0.000    0.000 
#    0.000    0.000    0.000    0.000    0.000    0.000 
#
# Total GULP energy -272840.910884 kJ/mol
# GULP energy per Si atom -12401.859586 kJ/mol
# Density = 2.200494 g / cm^3
# Si number density = 22.055138 Si / 1000 Ang^3
#
#
#
# Elastic Constant Matrix: (Units=GPa)
#
#
# Indices 1 2 3 4 5 6 
#
# 1 96.7857 62.2284 70.6320 0.0000 -1.6419 0.0000
# 2 62.2284 133.9236 58.6900 0.0000 8.9924 0.0000
# 3 70.6320 58.6900 129.5278 0.0000 -12.1446 0.0000
# 4 0.0000 0.0000 0.0000 27.9291 0.0000 -2.7685
# 5 -1.6419 8.9924 -12.1446 0.0000 57.1244 0.0000
# 6 0.0000 0.0000 0.0000 -2.7685 0.0000 22.8631
#
#
#
# Elastic Compliance Matrix: (Units=1/GPa)
#
#
# Indices 1 2 3 4 5 6 
#
# 1 0.020103 -0.005616 -0.008449 0.000000 -0.000334 0.000000
# 2 -0.005616 0.011223 -0.002249 0.000000 -0.002406 0.000000
# 3 -0.008449 -0.002249 0.013629 0.000000 0.003009 0.000000
# 4 0.000000 0.000000 0.000000 0.036240 0.000000 0.004388
# 5 -0.000334 -0.002406 0.003009 0.000000 0.018514 0.000000
# 6 0.000000 0.000000 0.000000 0.004388 0.000000 0.044270
#
#
# Mechanical properties :
#
#
# Convention : Reuss Voigt Hill
#
# Bulk Modulus (GPa) = 81.11662 82.59311 81.85487
# Shear Modulus (GPa) = 27.66773 32.82911 30.24842
#
# Velocity S-wave (km/s) = 3.54571 3.86230 3.70738
# Velocity P-wave (km/s) = 7.32268 7.57757 7.45121
#
# Compressibility (1/GPa) = 0.01232793
#
# Stress axis : x y z
#
# Youngs Moduli (GPa) = 49.74354 89.09941 73.37510
#
# Poissons Ratio (x) = 0.50037 0.61995
# Poissons Ratio (y) = 0.27936 0.16499
# Poissons Ratio (z) = 0.42029 0.20035
#
# Static dielectric constant tensor:
#      x y z
#    x 3.757780 0.000000 -0.232070 
#    y 0.000000 4.068270 0.000000 
#    z -0.232070 0.000000 4.284010 
# 
# 
# High freq. dielectric constant tensor:
#      x y z
#    x 1.834350 0.000000 -0.014540 
#    y 0.000000 1.868410 0.000000 
#    z -0.014540 0.000000 1.892670 
# 
# From -- ./inp_files/31059.got.cif
#   From: 2010.06.25/outbox.cif.g09.slc.cpg/sg15_16_cif.got.tgz:31059.got - 2010.06.28 07:06:18.
