data_PCOD8150962
_publ_section_title
;
Structure prediction by ZEFSAII (Michael W. Deem and Ramdas Pophale) SiO2 
 PCOD8150962
Probable space group: C 2/C
;
_chemical_formula_sum "Si O2"
_cell_formula_units_Z 48
_cell_length_a 9.404486
_cell_length_b 18.868347
_cell_length_c 21.940831
_cell_angle_alpha 90.000000
_cell_angle_beta 43.892220
_cell_angle_gamma 90.000000
_cell_volume 2699.266003
_symmetry_space_group_name_H-M "C 2/C"
_symmetry_group_IT_number 15
_symmetry_cell_setting 'monoclinic'
loop_
_space_group_symop_operation_xyz
x,y,z
-x,y,1/2-z
-x,-y,-z
x,-y,1/2+z
1/2+x,1/2+y,z
1/2-x,1/2+y,1/2-z
1/2-x,1/2-y,-z
1/2+x,1/2-y,1/2+z
loop_
_atom_site_type_symbol
_atom_site_label
_atom_site_fract_x
_atom_site_fract_y
_atom_site_fract_z
Si Si1 0.946414 0.899893 0.697682
Si Si2 0.514654 0.059593 0.915873
Si Si3 0.420243 0.579193 0.009186
Si Si4 0.687832 0.330874 0.515372
Si Si5 0.328687 0.466376 0.412831
Si Si6 0.519505 0.048756 0.312607
O O1 0.701757 0.893478 0.763779
O O2 0.000000 0.878462 0.750000
O O3 0.070548 0.848922 0.614150
O O4 0.000127 0.981507 0.666662
O O5 0.721947 0.075016 0.890127
O O6 0.572429 0.021011 0.835339
O O7 0.410104 0.134602 0.937922
O O8 0.350606 0.010871 0.000432
O O9 0.551850 0.641757 0.999820
O O10 0.188186 0.588163 0.103629
O O11 0.500000 0.500000 0.000000
O O12 0.427052 0.586497 0.933100
O O13 0.750000 0.250000 0.500000
O O14 0.500000 0.021744 0.250000
#
# Coordination Sequence:
#
# PCOD8150962 Si02
#       6
#     8   8   8   8   8   8
#     4  11  20  33  59  87 115 143 194 258 312 340
#     4   9  18  32  53  81 110 146 190 241 295 348
#     4  11  18  34  58  87 111 148 199 246 288 352
#     4  11  23  39  56  79 124 169 197 232 307 390
#     4   9  17  31  54  84 110 137 188 251 292 342
#     4  11  18  29  56  92 113 135 189 269 301 328
#
# _framework density 17.782612
#
# number of rings (size 3 to 8) (size 9 to 14) (size 15 to 20)
#    0.000    1.667    8.333    0.000    2.333    0.000 
#    0.000    1.667    0.000    2.000    0.000    0.000 
#    0.000    0.000    0.000    0.000    0.000    0.000 
#
# Total GULP energy -297420.621332 kJ/mol
# GULP energy per Si atom -12392.525889 kJ/mol
# Density = 1.774214 g / cm^3
# Si number density = 17.782612 Si / 1000 Ang^3
#
#
#
# Elastic Constant Matrix: (Units=GPa)
#
#
# Indices 1 2 3 4 5 6 
#
# 1 150.8846 54.2090 42.0820 0.0136 16.1477 -0.0118
# 2 54.2090 92.0445 26.9861 0.0169 1.6283 -0.0167
# 3 42.0820 26.9861 66.5201 0.0158 5.3913 -0.0155
# 4 0.0136 0.0169 0.0158 10.4876 -0.0174 1.0482
# 5 16.1477 1.6283 5.3913 -0.0174 41.2080 0.0160
# 6 -0.0118 -0.0167 -0.0155 1.0482 0.0160 21.3869
#
#
#
# Elastic Compliance Matrix: (Units=1/GPa)
#
#
# Indices 1 2 3 4 5 6 
#
# 1 0.009698 -0.004462 -0.004074 -0.000005 -0.003091 0.000001
# 2 -0.004462 0.014385 -0.003142 -0.000011 0.001591 0.000006
# 3 -0.004074 -0.003142 0.018947 -0.000021 -0.000758 0.000011
# 4 -0.000005 -0.000011 -0.000021 0.095821 0.000047 -0.004697
# 5 -0.003091 0.001591 -0.000758 0.000047 0.025515 -0.000022
# 6 0.000001 0.000006 0.000011 -0.004697 -0.000022 0.046988
#
#
# Mechanical properties :
#
#
# Convention : Reuss Voigt Hill
#
# Bulk Modulus (GPa) = 50.83153 61.77814 56.30484
# Shear Modulus (GPa) = 20.72389 27.02799 23.87594
#
# Velocity S-wave (km/s) = 3.41750 3.90283 3.66820
# Velocity P-wave (km/s) = 6.64977 7.42466 7.04788
#
# Compressibility (1/GPa) = 0.01967283
#
# Stress axis : x y z
#
# Youngs Moduli (GPa) = 103.11536 69.51501 52.77987
#
# Poissons Ratio (x) = 0.31020 0.21504
# Poissons Ratio (y) = 0.46013 0.16583
# Poissons Ratio (z) = 0.42012 0.21841
#
# Static dielectric constant tensor:
#      x y z
#    x 4.023210 0.000000 0.079620 
#    y 0.000000 2.740890 0.000010 
#    z 0.079620 0.000010 3.500720 
# 
# 
# High freq. dielectric constant tensor:
#      x y z
#    x 1.716240 0.000000 0.003370 
#    y 0.000000 1.614460 0.000000 
#    z 0.003370 0.000000 1.694680 
# 
# From -- ./inp_files/233194.got.cif
#   From: 2010.06.25/outbox.cif.g09.slc.cpg/sg15_117_cif.got.tgz:233194.got - 2010.06.28 07:06:18.
