data_PCOD8150649
_publ_section_title
;
Structure prediction by ZEFSAII (Michael W. Deem and Ramdas Pophale) SiO2 
 PCOD8150649
Probable space group: C 2/C
;
_chemical_formula_sum "Si O2"
_cell_formula_units_Z 64
_cell_length_a 16.943783
_cell_length_b 7.722227
_cell_length_c 27.802569
_cell_angle_alpha 90.000000
_cell_angle_beta 49.382606
_cell_angle_gamma 90.000000
_cell_volume 2761.352318
_symmetry_space_group_name_H-M "C 2/C"
_symmetry_group_IT_number 15
_symmetry_cell_setting 'monoclinic'
loop_
_space_group_symop_operation_xyz
x,y,z
-x,y,1/2-z
-x,-y,-z
x,-y,1/2+z
1/2+x,1/2+y,z
1/2-x,1/2+y,1/2-z
1/2-x,1/2-y,-z
1/2+x,1/2-y,1/2+z
loop_
_atom_site_type_symbol
_atom_site_label
_atom_site_fract_x
_atom_site_fract_y
_atom_site_fract_z
Si Si1 0.881377 0.270929 0.252784
Si Si2 0.330937 0.198183 0.211679
Si Si3 0.283678 0.481583 0.398189
Si Si4 0.714041 0.875784 0.120361
Si Si5 0.015599 0.082305 0.794666
Si Si6 0.049219 0.385306 0.369679
Si Si7 0.682151 0.923373 0.028157
Si Si8 0.213859 0.820632 0.854156
O O1 0.764642 0.292103 0.276708
O O2 0.884107 0.367537 0.303347
O O3 0.907180 0.071430 0.252684
O O4 0.965170 0.344223 0.181603
O O5 0.429345 0.321435 0.182976
O O6 0.373553 0.049983 0.159000
O O7 0.295197 0.136270 0.278971
O O8 0.244031 0.678050 0.401125
O O9 0.406683 0.484096 0.358963
O O10 0.230773 0.438947 0.471273
O O11 0.252343 0.341457 0.371028
O O12 0.681866 0.976896 0.084403
O O13 0.800246 0.004356 0.109245
O O14 0.000000 0.187761 0.750000
O O15 0.102613 0.224985 0.375736
O O16 0.938486 0.405787 0.438969
O O17 0.750000 0.750000 0.000000
#
# Coordination Sequence:
#
# PCOD8150649 Si02
#       8
#     8   8   8   8   8   8   8   8
#     4  11  21  40  65  98 142 171 223 294 356 420
#     4  11  23  40  64 106 137 172 224 292 363 424
#     4  11  24  47  67  97 147 176 240 296 340 420
#     4  11  22  43  69  96 134 186 222 290 351 412
#     4  12  23  39  71 101 136 187 226 293 369 416
#     4  11  24  41  67 101 137 181 230 291 357 425
#     4  10  25  45  68  95 138 191 241 289 343 424
#     4  11  24  43  70 103 140 176 231 292 359 431
#
# _framework density 23.177050999999999
#
# number of rings (size 3 to 8) (size 9 to 14) (size 15 to 20)
#    0.000    1.000    3.750    3.750    3.500    1.000 
#    0.000    2.500    0.000    0.000    0.000    0.000 
#    0.000    0.000    0.000    0.000    0.000    0.000 
#
# Total GULP energy -396510.868725 kJ/mol
# GULP energy per Si atom -12390.964648 kJ/mol
# Density = 2.312430 g / cm^3
# Si number density = 23.177051 Si / 1000 Ang^3
#
#
#
# Elastic Constant Matrix: (Units=GPa)
#
#
# Indices 1 2 3 4 5 6 
#
# 1 91.5467 25.0332 56.7113 -0.0004 -2.1718 0.0005
# 2 25.0332 74.9624 25.2602 -0.0020 1.1702 -0.0033
# 3 56.7113 25.2602 123.8092 -0.0009 -7.1541 0.0000
# 4 -0.0004 -0.0020 -0.0009 18.0439 0.0001 5.3168
# 5 -2.1718 1.1702 -7.1541 0.0001 32.9832 0.0003
# 6 0.0005 -0.0033 0.0000 5.3168 0.0003 35.4995
#
#
#
# Elastic Compliance Matrix: (Units=1/GPa)
#
#
# Indices 1 2 3 4 5 6 
#
# 1 0.015882 -0.003052 -0.006669 0.000000 -0.000293 0.000000
# 2 -0.003052 0.014955 -0.001717 0.000001 -0.001104 0.000001
# 3 -0.006669 -0.001717 0.011606 0.000000 0.002139 0.000000
# 4 0.000000 0.000001 0.000000 0.057979 0.000000 -0.008684
# 5 -0.000293 -0.001104 0.002139 0.000000 0.030802 0.000000
# 6 0.000000 0.000001 0.000000 -0.008684 0.000000 0.029470
#
#
# Mechanical properties :
#
#
# Convention : Reuss Voigt Hill
#
# Bulk Modulus (GPa) = 51.10708 56.03644 53.57176
# Shear Modulus (GPa) = 26.30285 29.52622 27.91453
#
# Velocity S-wave (km/s) = 3.37243 3.57310 3.47422
# Velocity P-wave (km/s) = 6.10434 6.42283 6.26561
#
# Compressibility (1/GPa) = 0.01956676
#
# Stress axis : x y z
#
# Youngs Moduli (GPa) = 62.96255 66.86718 86.16418
#
# Poissons Ratio (x) = 0.20407 0.57465
# Poissons Ratio (y) = 0.19216 0.14795
# Poissons Ratio (z) = 0.41991 0.11481
#
# Static dielectric constant tensor:
#      x y z
#    x 4.336610 0.000000 0.394470 
#    y 0.000000 4.016090 0.000000 
#    z 0.394470 0.000000 4.433880 
# 
# 
# High freq. dielectric constant tensor:
#      x y z
#    x 1.920700 0.000000 0.014660 
#    y 0.000000 1.900750 0.000000 
#    z 0.014660 0.000000 1.902560 
# 
# From -- ./inp_files/315689.got.cif
#   From: 2010.06.25/outbox.cif.g09.slc.cpg/sg15_158_cif.got.tgz:315689.got - 2010.06.28 07:06:18.
