data_PCOD8150474
_publ_section_title
;
Structure prediction by ZEFSAII (Michael W. Deem and Ramdas Pophale) SiO2 
 PCOD8150474
Probable space group: C 2/C
;
_chemical_formula_sum "Si O2"
_cell_formula_units_Z 52
_cell_length_a 7.038518
_cell_length_b 17.272154
_cell_length_c 23.739932
_cell_angle_alpha 90.000000
_cell_angle_beta 59.814147
_cell_angle_gamma 90.000000
_cell_volume 2494.717894
_symmetry_space_group_name_H-M "C 2/C"
_symmetry_group_IT_number 15
_symmetry_cell_setting 'monoclinic'
loop_
_space_group_symop_operation_xyz
x,y,z
-x,y,1/2-z
-x,-y,-z
x,-y,1/2+z
1/2+x,1/2+y,z
1/2-x,1/2+y,1/2-z
1/2-x,1/2-y,-z
1/2+x,1/2-y,1/2+z
loop_
_atom_site_type_symbol
_atom_site_label
_atom_site_fract_x
_atom_site_fract_y
_atom_site_fract_z
Si Si1 0.566264 0.619447 0.910399
Si Si2 0.521649 0.981493 0.137281
Si Si3 0.849529 0.139096 0.823758
Si Si4 0.000000 0.428288 0.750000
Si Si5 0.800389 0.188463 0.145209
Si Si6 0.220723 0.726737 0.440230
Si Si7 0.153127 0.622939 0.049655
O O1 0.730989 0.547364 0.888977
O O2 0.488294 0.627852 0.858768
O O3 0.693884 0.697361 0.906798
O O4 0.366663 0.601948 0.982038
O O5 0.368349 0.912421 0.139726
O O6 0.426157 0.018708 0.208757
O O7 0.529691 0.045044 0.086662
O O8 0.778828 0.227201 0.824664
O O9 0.000000 0.111354 0.750000
O O10 0.794634 0.374775 0.797799
O O11 0.722550 0.173710 0.093054
O O12 0.062761 0.181278 0.112124
O O13 0.250000 0.750000 0.500000
O O14 0.009165 0.672135 0.465592
#
# Coordination Sequence:
#
# PCOD8150474 Si02
#       7
#     8   8   8   4   8   8   8
#     4  12  24  43  70 100 138 175 224 280 337 408
#     4  11  26  45  66  99 138 178 221 279 345 402
#     4  12  25  43  69  98 134 180 224 276 337 403
#     4  10  24  48  68  96 136 178 232 280 332 408
#     4  11  22  44  72  98 134 177 227 283 334 401
#     4  12  23  41  72 105 134 175 230 279 338 402
#     4  11  25  43  69 103 134 175 226 279 340 400
#
# _framework density 20.84404
#
# number of rings (size 3 to 8) (size 9 to 14) (size 15 to 20)
#    0.000    0.615    5.385    2.769    0.000    4.308 
#    0.000    5.385    0.000    0.000    0.000    0.000 
#    0.000    0.000    0.000    0.000    0.000    0.000 
#
# Total GULP energy -322597.090760 kJ/mol
# GULP energy per Si atom -12407.580414 kJ/mol
# Density = 2.079660 g / cm^3
# Si number density = 20.844040 Si / 1000 Ang^3
#
#
#
# Elastic Constant Matrix: (Units=GPa)
#
#
# Indices 1 2 3 4 5 6 
#
# 1 126.8135 47.0018 61.8109 0.0000 3.7047 -0.0001
# 2 47.0018 105.6284 41.4048 0.0000 11.2044 0.0000
# 3 61.8109 41.4048 136.3192 0.0000 1.0545 0.0000
# 4 0.0000 0.0000 0.0000 22.0141 0.0000 -8.0515
# 5 3.7047 11.2044 1.0545 0.0000 31.2541 0.0000
# 6 -0.0001 0.0000 0.0000 -8.0515 0.0000 19.0992
#
#
#
# Elastic Compliance Matrix: (Units=1/GPa)
#
#
# Indices 1 2 3 4 5 6 
#
# 1 0.011084 -0.003365 -0.004004 0.000000 0.000028 0.000000
# 2 -0.003365 0.012225 -0.002157 0.000000 -0.003911 0.000000
# 3 -0.004004 -0.002157 0.009799 0.000000 0.000917 0.000000
# 4 0.000000 0.000000 0.000000 0.053706 0.000000 0.022640
# 5 0.000028 -0.003911 0.000917 0.000000 0.033364 0.000000
# 6 0.000000 0.000000 0.000000 0.022640 0.000000 0.061902
#
#
# Mechanical properties :
#
#
# Convention : Reuss Voigt Hill
#
# Bulk Modulus (GPa) = 71.14544 74.35512 72.75028
# Shear Modulus (GPa) = 24.29342 29.04306 26.66824
#
# Velocity S-wave (km/s) = 3.41762 3.73681 3.58078
# Velocity P-wave (km/s) = 7.05549 7.37346 7.21623
#
# Compressibility (1/GPa) = 0.01405572
#
# Stress axis : x y z
#
# Youngs Moduli (GPa) = 90.22356 81.79948 102.05027
#
# Poissons Ratio (x) = 0.27530 0.40857
# Poissons Ratio (y) = 0.30365 0.22011
# Poissons Ratio (z) = 0.36122 0.17643
#
# Static dielectric constant tensor:
#      x y z
#    x 6.623610 0.000000 -0.252620 
#    y 0.000000 3.937660 0.000000 
#    z -0.252620 0.000000 3.932900 
# 
# 
# High freq. dielectric constant tensor:
#      x y z
#    x 1.819760 0.000000 -0.004520 
#    y 0.000000 1.827000 0.000000 
#    z -0.004520 0.000000 1.827770 
# 
# From -- ./inp_files/285812.got.cif
#   From: 2010.06.25/outbox.cif.g09.slc.cpg/sg15_143_cif.got.tgz:285812.got - 2010.06.28 07:06:18.
