data_PCOD8150832
_publ_section_title
;
Structure prediction by ZEFSAII (Michael W. Deem and Ramdas Pophale) SiO2 
 PCOD8150832
Probable space group: C 2/C
;
_chemical_formula_sum "Si O2"
_cell_formula_units_Z 60
_cell_length_a 27.010303
_cell_length_b 13.985539
_cell_length_c 21.228002
_cell_angle_alpha 90.000000
_cell_angle_beta 19.865585
_cell_angle_gamma 90.000000
_cell_volume 2724.958840
_symmetry_space_group_name_H-M "C 2/C"
_symmetry_group_IT_number 15
_symmetry_cell_setting 'monoclinic'
loop_
_space_group_symop_operation_xyz
x,y,z
-x,y,1/2-z
-x,-y,-z
x,-y,1/2+z
1/2+x,1/2+y,z
1/2-x,1/2+y,1/2-z
1/2-x,1/2-y,-z
1/2+x,1/2-y,1/2+z
loop_
_atom_site_type_symbol
_atom_site_label
_atom_site_fract_x
_atom_site_fract_y
_atom_site_fract_z
Si Si1 0.819529 0.143110 0.085030
Si Si2 0.605077 0.043335 0.425251
Si Si3 0.000000 0.580150 0.750000
Si Si4 0.392739 0.544619 0.435920
Si Si5 0.107502 0.338650 0.246683
Si Si6 0.271439 0.019499 0.604803
Si Si7 0.453279 0.358008 0.631847
Si Si8 0.910727 0.198172 0.662686
O O1 0.758002 0.074019 0.212776
O O2 0.687842 0.206973 0.215048
O O3 0.946131 0.209209 0.964400
O O4 0.879335 0.070620 0.959959
O O5 0.531035 0.135757 0.544674
O O6 0.500000 0.000000 0.500000
O O7 0.632741 0.964247 0.446639
O O8 0.063104 0.650840 0.727144
O O9 0.127665 0.509377 0.574359
O O10 0.500000 0.566026 0.250000
O O11 0.238089 0.590222 0.605203
O O12 0.445200 0.594120 0.437204
O O13 0.139042 0.228565 0.225848
O O14 0.183016 0.113751 0.693365
O O15 0.163513 0.933628 0.752178
O O16 0.549974 0.324745 0.456714
#
# Coordination Sequence:
#
# PCOD8150832 Si02
#       8
#     8   8   4   8   8   8   8   8
#     4  12  26  48  71 106 142 186 244 302 354 421
#     4  11  22  41  69 101 141 182 233 296 359 414
#     4  10  26  46  66 104 148 186 230 270 358 432
#     4  12  28  47  70 102 144 191 236 287 353 430
#     4  11  26  41  72 103 142 186 225 288 348 442
#     4  11  24  45  68 100 145 185 232 290 356 426
#     4  12  25  43  71 107 141 180 232 294 359 421
#     4  12  27  44  76 106 137 188 243 303 362 409
#
# _framework density 22.01868
#
# number of rings (size 3 to 8) (size 9 to 14) (size 15 to 20)
#    0.000    0.533    5.333    2.000    8.400    1.067 
#    1.200    0.667    0.000    0.000    0.000    0.000 
#    0.000    0.000    0.000    0.000    0.000    0.000 
#
# Total GULP energy -372062.457628 kJ/mol
# GULP energy per Si atom -12402.081921 kJ/mol
# Density = 2.196856 g / cm^3
# Si number density = 22.018680 Si / 1000 Ang^3
#
#
#
# Elastic Constant Matrix: (Units=GPa)
#
#
# Indices 1 2 3 4 5 6 
#
# 1 101.2578 29.9402 6.0865 -0.0039 -19.7997 0.0016
# 2 29.9402 94.3565 17.7581 -0.0059 -4.9885 0.0039
# 3 6.0865 17.7581 53.2992 -0.0108 -7.7954 0.0056
# 4 -0.0039 -0.0059 -0.0108 40.9522 0.0049 -11.5299
# 5 -19.7997 -4.9885 -7.7954 0.0049 37.0040 -0.0030
# 6 0.0016 0.0039 0.0056 -11.5299 -0.0030 29.9985
#
#
#
# Elastic Compliance Matrix: (Units=1/GPa)
#
#
# Indices 1 2 3 4 5 6 
#
# 1 0.012114 -0.003657 0.000734 0.000000 0.006144 0.000000
# 2 -0.003657 0.012432 -0.003885 0.000000 -0.001099 -0.000001
# 3 0.000734 -0.003885 0.020588 0.000004 0.004206 -0.000001
# 4 0.000000 0.000000 0.000004 0.027382 -0.000002 0.010524
# 5 0.006144 -0.001099 0.004206 -0.000002 0.031049 0.000001
# 6 0.000000 -0.000001 -0.000001 0.010524 0.000001 0.037380
#
#
# Mechanical properties :
#
#
# Convention : Reuss Voigt Hill
#
# Bulk Modulus (GPa) = 31.72954 39.60923 35.66939
# Shear Modulus (GPa) = 30.29063 34.59951 32.44507
#
# Velocity S-wave (km/s) = 3.71304 3.96835 3.84282
# Velocity P-wave (km/s) = 5.72920 6.24700 5.99370
#
# Compressibility (1/GPa) = 0.03151637
#
# Stress axis : x y z
#
# Youngs Moduli (GPa) = 82.54654 80.43980 48.57247
#
# Poissons Ratio (x) = 0.29419 -0.03564
# Poissons Ratio (y) = 0.30190 0.18871
# Poissons Ratio (z) = -0.06056 0.31252
#
# Static dielectric constant tensor:
#      x y z
#    x 3.861670 0.000020 -0.247820 
#    y 0.000020 3.971420 0.000030 
#    z -0.247820 0.000030 4.001110 
# 
# 
# High freq. dielectric constant tensor:
#      x y z
#    x 1.871600 0.000000 -0.009620 
#    y 0.000000 1.857230 0.000000 
#    z -0.009620 0.000000 1.875100 
# 
# From -- ./inp_files/257868.got.cif
#   From: 2010.06.25/outbox.cif.g09.slc.cpg/sg15_129_cif.got.tgz:257868.got - 2010.06.28 07:06:18.
