data_PCOD8150716
_publ_section_title
;
Structure prediction by ZEFSAII (Michael W. Deem and Ramdas Pophale) SiO2 
 PCOD8150716
Probable space group: C 2/C
;
_chemical_formula_sum "Si O2"
_cell_formula_units_Z 48
_cell_length_a 24.580456
_cell_length_b 14.106584
_cell_length_c 11.269431
_cell_angle_alpha 90.000000
_cell_angle_beta 146.004902
_cell_angle_gamma 90.000000
_cell_volume 2184.843545
_symmetry_space_group_name_H-M "C 2/C"
_symmetry_group_IT_number 15
_symmetry_cell_setting 'monoclinic'
loop_
_space_group_symop_operation_xyz
x,y,z
-x,y,1/2-z
-x,-y,-z
x,-y,1/2+z
1/2+x,1/2+y,z
1/2-x,1/2+y,1/2-z
1/2-x,1/2-y,-z
1/2+x,1/2-y,1/2+z
loop_
_atom_site_type_symbol
_atom_site_label
_atom_site_fract_x
_atom_site_fract_y
_atom_site_fract_z
Si Si1 0.579181 0.210142 0.201129
Si Si2 0.979356 0.122609 0.078888
Si Si3 0.457893 0.953989 0.545476
Si Si4 0.783341 0.541863 0.130553
Si Si5 0.147834 0.952344 0.729011
Si Si6 0.111906 0.862000 0.440940
O O1 0.481522 0.156970 0.070468
O O2 0.660400 0.137212 0.303194
O O3 0.620387 0.260342 0.393978
O O4 0.553961 0.284635 0.054011
O O5 0.079128 0.080264 0.210794
O O6 0.000000 0.155035 0.250000
O O7 0.895175 0.043837 0.917904
O O8 0.500000 0.989683 0.750000
O O9 0.500000 0.000000 0.500000
O O10 0.343569 0.980355 0.336395
O O11 0.758012 0.476064 0.971231
O O12 0.674690 0.564126 0.978398
O O13 0.156649 0.863396 0.653943
O O14 0.000000 0.898033 0.250000
#
# Coordination Sequence:
#
# PCOD8150716 Si02
#       6
#     8   8   8   8   8   8
#     4  11  24  46  70 102 143 189 234 289 358 428
#     4  11  23  42  66  99 142 186 233 293 351 414
#     4  10  25  47  74 103 144 190 236 290 360 428
#     4  11  25  44  73 105 138 187 236 287 358 429
#     4  11  22  41  67 103 136 184 235 289 351 419
#     4  12  22  42  72 100 138 182 237 289 343 427
#
# _framework density 21.969536999999999
#
# number of rings (size 3 to 8) (size 9 to 14) (size 15 to 20)
#    0.000    1.000    3.333    3.500    4.667    2.667 
#    0.000    2.500    0.000    0.000    0.000    0.000 
#    0.000    0.000    0.000    0.000    0.000    0.000 
#
# Total GULP energy -297352.019083 kJ/mol
# GULP energy per Si atom -12389.667462 kJ/mol
# Density = 2.191953 g / cm^3
# Si number density = 21.969537 Si / 1000 Ang^3
#
#
#
# Elastic Constant Matrix: (Units=GPa)
#
#
# Indices 1 2 3 4 5 6 
#
# 1 101.7239 49.2712 60.0956 0.0000 -15.7499 0.0000
# 2 49.2712 103.3627 77.2473 0.0000 -15.5918 0.0000
# 3 60.0956 77.2473 161.2540 0.0000 -21.8578 0.0000
# 4 0.0000 0.0000 0.0000 41.5078 0.0000 0.8372
# 5 -15.7499 -15.5918 -21.8578 0.0000 43.9884 0.0000
# 6 0.0000 0.0000 0.0000 0.8372 0.0000 16.6252
#
#
#
# Elastic Compliance Matrix: (Units=1/GPa)
#
#
# Indices 1 2 3 4 5 6 
#
# 1 0.013867 -0.004122 -0.002915 0.000000 0.002056 0.000000
# 2 -0.004122 0.016441 -0.006165 0.000000 0.001288 0.000000
# 3 -0.002915 -0.006165 0.010511 0.000000 0.001994 0.000000
# 4 0.000000 0.000000 0.000000 0.024116 0.000000 -0.001214
# 5 0.002056 0.001288 0.001994 0.000000 0.024917 0.000000
# 6 0.000000 0.000000 0.000000 -0.001214 0.000000 0.060211
#
#
# Mechanical properties :
#
#
# Convention : Reuss Voigt Hill
#
# Bulk Modulus (GPa) = 69.36678 82.17431 75.77054
# Shear Modulus (GPa) = 27.58256 32.40603 29.99429
#
# Velocity S-wave (km/s) = 3.54714 3.84480 3.69896
# Velocity P-wave (km/s) = 6.95836 7.56273 7.26683
#
# Compressibility (1/GPa) = 0.01441612
#
# Stress axis : x y z
#
# Youngs Moduli (GPa) = 72.11217 60.82174 95.13398
#
# Poissons Ratio (x) = 0.25070 0.27730
# Poissons Ratio (y) = 0.29723 0.58654
# Poissons Ratio (z) = 0.21020 0.37499
#
# Static dielectric constant tensor:
#      x y z
#    x 4.157450 0.000000 -0.114060 
#    y 0.000000 4.061750 0.000000 
#    z -0.114060 0.000000 4.347520 
# 
# 
# High freq. dielectric constant tensor:
#      x y z
#    x 1.873140 0.000000 -0.011630 
#    y 0.000000 1.853440 0.000000 
#    z -0.011630 0.000000 1.863990 
# 
# From -- ./inp_files/123586.got.cif
#   From: 2010.06.25/outbox.cif.g09.slc.cpg/sg15_62_cif.got.tgz:123586.got - 2010.06.28 07:06:18.
