data_PCOD8150226
_publ_section_title
;
Structure prediction by ZEFSAII (Michael W. Deem and Ramdas Pophale) SiO2 
 PCOD8150226
Probable space group: C 2/C
;
_chemical_formula_sum "Si O2"
_cell_formula_units_Z 48
_cell_length_a 13.644560
_cell_length_b 20.470827
_cell_length_c 12.697972
_cell_angle_alpha 90.000000
_cell_angle_beta 140.499090
_cell_angle_gamma 90.000000
_cell_volume 2256.047199
_symmetry_space_group_name_H-M "C 2/C"
_symmetry_group_IT_number 15
_symmetry_cell_setting 'monoclinic'
loop_
_space_group_symop_operation_xyz
x,y,z
-x,y,1/2-z
-x,-y,-z
x,-y,1/2+z
1/2+x,1/2+y,z
1/2-x,1/2+y,1/2-z
1/2-x,1/2-y,-z
1/2+x,1/2-y,1/2+z
loop_
_atom_site_type_symbol
_atom_site_label
_atom_site_fract_x
_atom_site_fract_y
_atom_site_fract_z
Si Si1 0.180095 0.430007 0.897787
Si Si2 0.334603 0.074961 0.560668
Si Si3 0.922310 0.740091 0.393723
Si Si4 0.260748 0.614287 0.241670
Si Si5 0.064575 0.837617 0.914017
Si Si6 0.742163 0.194161 0.578463
O O1 0.223106 0.500620 0.978401
O O2 0.235909 0.430027 0.823263
O O3 0.000000 0.414589 0.750000
O O4 0.261101 0.376088 0.038853
O O5 0.500000 0.083996 0.750000
O O6 0.341659 0.089991 0.441887
O O7 0.222477 0.123197 0.530604
O O8 0.783639 0.688610 0.267628
O O9 0.912516 0.772226 0.500059
O O10 0.886750 0.796586 0.277729
O O11 0.080902 0.701370 0.506904
O O12 0.441726 0.612865 0.364463
O O13 0.000000 0.812031 0.750000
O O14 0.750000 0.250000 0.500000
#
# Coordination Sequence:
#
# PCOD8150226 Si02
#       6
#     8   8   8   8   8   8
#     4  11  22  42  67  96 133 168 217 271 317 392
#     4  10  26  42  66  94 126 176 222 265 319 385
#     4  12  23  39  68  97 130 172 210 270 329 382
#     4  11  23  43  65  92 134 171 211 272 328 378
#     4  10  24  45  63  96 134 170 218 264 322 389
#     4  12  22  40  65  99 129 165 212 267 330 383
#
# _framework density 21.276152
#
# number of rings (size 3 to 8) (size 9 to 14) (size 15 to 20)
#    0.000    1.000    5.000    0.500    2.333    8.000 
#    0.000    8.333    0.000    0.000    0.000    0.000 
#    0.000    0.000    0.000    0.000    0.000    0.000 
#
# Total GULP energy -297701.350816 kJ/mol
# GULP energy per Si atom -12404.222951 kJ/mol
# Density = 2.122773 g / cm^3
# Si number density = 21.276152 Si / 1000 Ang^3
#
#
#
# Elastic Constant Matrix: (Units=GPa)
#
#
# Indices 1 2 3 4 5 6 
#
# 1 106.2407 25.2472 26.8014 0.0000 -17.1904 0.0000
# 2 25.2472 91.7203 24.5707 0.0000 -12.4015 0.0000
# 3 26.8014 24.5707 83.9750 0.0000 -14.1209 0.0000
# 4 0.0000 0.0000 0.0000 35.3463 0.0000 -6.7437
# 5 -17.1904 -12.4015 -14.1209 0.0000 34.7628 0.0000
# 6 0.0000 0.0000 0.0000 -6.7437 0.0000 22.5545
#
#
#
# Elastic Compliance Matrix: (Units=1/GPa)
#
#
# Indices 1 2 3 4 5 6 
#
# 1 0.011076 -0.001904 -0.002330 0.000000 0.003851 0.000000
# 2 -0.001904 0.012460 -0.002629 0.000000 0.002436 0.000000
# 3 -0.002330 -0.002629 0.014028 0.000000 0.003608 0.000000
# 4 0.000000 0.000000 0.000000 0.030003 0.000000 0.008971
# 5 0.003851 0.002436 0.003608 0.000000 0.033006 0.000000
# 6 0.000000 0.000000 0.000000 0.008971 0.000000 0.047019
#
#
# Mechanical properties :
#
#
# Convention : Reuss Voigt Hill
#
# Bulk Modulus (GPa) = 41.94847 48.35274 45.15061
# Shear Modulus (GPa) = 29.53964 32.22048 30.88006
#
# Velocity S-wave (km/s) = 3.73016 3.89574 3.81385
# Velocity P-wave (km/s) = 6.18959 6.55830 6.37661
#
# Compressibility (1/GPa) = 0.02383877
#
# Stress axis : x y z
#
# Youngs Moduli (GPa) = 90.28472 80.25496 71.28649
#
# Poissons Ratio (x) = 0.15279 0.16612
# Poissons Ratio (y) = 0.17189 0.18738
# Poissons Ratio (z) = 0.21040 0.21096
#
# Static dielectric constant tensor:
#      x y z
#    x 4.229050 0.000000 -0.149590 
#    y 0.000000 3.816190 0.000000 
#    z -0.149590 0.000000 4.137180 
# 
# 
# High freq. dielectric constant tensor:
#      x y z
#    x 1.848620 0.000000 -0.007600 
#    y 0.000000 1.823710 0.000000 
#    z -0.007600 0.000000 1.837430 
# 
# From -- ./inp_files/100075.got.cif
#   From: 2010.06.25/outbox.cif.g09.slc.cpg/sg15_51_cif.got.tgz:100075.got - 2010.06.28 07:06:18.
