data_PCOD8150250
_publ_section_title
;
Structure prediction by ZEFSAII (Michael W. Deem and Ramdas Pophale) SiO2 
 PCOD8150250
Probable space group: C 2/C
;
_chemical_formula_sum "Si O2"
_cell_formula_units_Z 64
_cell_length_a 18.644001
_cell_length_b 27.178567
_cell_length_c 8.746949
_cell_angle_alpha 90.000000
_cell_angle_beta 41.655544
_cell_angle_gamma 90.000000
_cell_volume 2945.885219
_symmetry_space_group_name_H-M "C 2/C"
_symmetry_group_IT_number 15
_symmetry_cell_setting 'monoclinic'
loop_
_space_group_symop_operation_xyz
x,y,z
-x,y,1/2-z
-x,-y,-z
x,-y,1/2+z
1/2+x,1/2+y,z
1/2-x,1/2+y,1/2-z
1/2-x,1/2-y,-z
1/2+x,1/2-y,1/2+z
loop_
_atom_site_type_symbol
_atom_site_label
_atom_site_fract_x
_atom_site_fract_y
_atom_site_fract_z
Si Si1 0.233673 0.706009 0.409788
Si Si2 0.312404 0.553868 0.288184
Si Si3 0.453286 0.180754 0.026200
Si Si4 0.660728 0.879074 0.197247
Si Si5 0.487069 0.382820 0.089884
Si Si6 0.797057 0.949382 0.449477
Si Si7 0.881744 0.388828 0.894499
Si Si8 0.959556 0.776700 0.475705
O O1 0.250000 0.750000 0.500000
O O2 0.124372 0.698994 0.485818
O O3 0.247515 0.658806 0.493268
O O4 0.335917 0.708566 0.135907
O O5 0.200989 0.570875 0.550669
O O6 0.337045 0.501043 0.320535
O O7 0.416325 0.588795 0.152339
O O8 0.297222 0.549849 0.131543
O O9 0.385431 0.160104 0.279888
O O10 0.526107 0.229042 0.940595
O O11 0.537632 0.137024 0.846564
O O12 0.678106 0.877380 0.351337
O O13 0.500000 0.384462 0.250000
O O14 0.372862 0.409174 0.244176
O O15 0.481375 0.325200 0.048302
O O16 0.675753 0.934394 0.596919
O O17 0.000000 0.407905 0.750000
O O18 0.000000 0.758669 0.250000
#
# Coordination Sequence:
#
# PCOD8150250 Si02
#       8
#     8   8   8   8   8   8   8   8
#     4  12  25  41  66  97 138 177 228 274 330 395
#     4  11  22  42  71 100 133 170 221 276 341 401
#     4  11  25  44  68  95 137 183 217 274 338 388
#     4  11  22  43  65  95 135 171 221 282 328 395
#     4   9  21  39  64  97 136 173 218 267 331 397
#     4  11  23  43  69  98 130 177 216 278 337 401
#     4  10  24  45  68  95 130 174 230 272 334 400
#     4  11  23  42  65 100 138 177 228 271 324 404
#
# _framework density 21.725218999999999
#
# number of rings (size 3 to 8) (size 9 to 14) (size 15 to 20)
#    0.000    1.250    2.500    3.375    3.500    2.500 
#    0.000    8.750    0.000    0.000    0.000    0.000 
#    0.000    0.000    0.000    0.000    0.000    0.000 
#
# Total GULP energy -396440.890527 kJ/mol
# GULP energy per Si atom -12388.777829 kJ/mol
# Density = 2.167577 g / cm^3
# Si number density = 21.725219 Si / 1000 Ang^3
#
#
#
# Elastic Constant Matrix: (Units=GPa)
#
#
# Indices 1 2 3 4 5 6 
#
# 1 85.7381 22.1217 41.2580 0.0000 7.8006 0.0000
# 2 22.1217 89.4598 19.5592 0.0000 -7.2581 0.0000
# 3 41.2580 19.5592 104.9958 0.0000 1.6226 0.0000
# 4 0.0000 0.0000 0.0000 44.2830 0.0000 1.5148
# 5 7.8006 -7.2581 1.6226 0.0000 24.5106 0.0000
# 6 0.0000 0.0000 0.0000 1.5148 0.0000 33.8648
#
#
#
# Elastic Compliance Matrix: (Units=1/GPa)
#
#
# Indices 1 2 3 4 5 6 
#
# 1 0.015598 -0.003111 -0.005464 0.000000 -0.005523 0.000000
# 2 -0.003111 0.012599 -0.001199 0.000000 0.004800 0.000000
# 3 -0.005464 -0.001199 0.011886 0.000000 0.000597 0.000000
# 4 0.000000 0.000000 0.000000 0.022617 0.000000 -0.001012
# 5 -0.005523 0.004800 0.000597 0.000000 0.043938 0.000000
# 6 0.000000 0.000000 0.000000 -0.001012 0.000000 0.029574
#
#
# Mechanical properties :
#
#
# Convention : Reuss Voigt Hill
#
# Bulk Modulus (GPa) = 48.69774 49.56350 49.13062
# Shear Modulus (GPa) = 30.74940 33.68199 32.21570
#
# Velocity S-wave (km/s) = 3.76623 3.94174 3.85498
# Velocity P-wave (km/s) = 6.43247 6.60149 6.51753
#
# Compressibility (1/GPa) = 0.02053484
#
# Stress axis : x y z
#
# Youngs Moduli (GPa) = 64.11048 79.37164 84.13583
#
# Poissons Ratio (x) = 0.24689 0.45976
# Poissons Ratio (y) = 0.19942 0.10087
# Poissons Ratio (z) = 0.35033 0.09516
#
# Static dielectric constant tensor:
#      x y z
#    x 3.791740 0.000000 -0.185420 
#    y 0.000000 3.941670 0.000000 
#    z -0.185420 0.000000 4.565720 
# 
# 
# High freq. dielectric constant tensor:
#      x y z
#    x 1.832520 0.000000 0.003390 
#    y 0.000000 1.852090 0.000000 
#    z 0.003390 0.000000 1.876380 
# 
# From -- ./inp_files/52794.got.cif
#   From: 2010.06.25/outbox.cif.g09.slc.cpg/sg15_27_cif.got.tgz:52794.got - 2010.06.28 07:06:18.
