data_PCOD8150786
_publ_section_title
;
Structure prediction by ZEFSAII (Michael W. Deem and Ramdas Pophale) SiO2 
 PCOD8150786
Probable space group: C 2/C
;
_chemical_formula_sum "Si O2"
_cell_formula_units_Z 60
_cell_length_a 25.120997
_cell_length_b 6.360962
_cell_length_c 21.307016
_cell_angle_alpha 90.000000
_cell_angle_beta 123.357956
_cell_angle_gamma 90.000000
_cell_volume 2843.803688
_symmetry_space_group_name_H-M "C 2/C"
_symmetry_group_IT_number 15
_symmetry_cell_setting 'monoclinic'
loop_
_space_group_symop_operation_xyz
x,y,z
-x,y,1/2-z
-x,-y,-z
x,-y,1/2+z
1/2+x,1/2+y,z
1/2-x,1/2+y,1/2-z
1/2-x,1/2-y,-z
1/2+x,1/2-y,1/2+z
loop_
_atom_site_type_symbol
_atom_site_label
_atom_site_fract_x
_atom_site_fract_y
_atom_site_fract_z
Si Si1 0.662999 0.292979 0.573807
Si Si2 0.526810 0.622391 0.665848
Si Si3 0.561900 0.239405 0.879990
Si Si4 0.000000 0.549171 0.250000
Si Si5 0.775073 0.595436 0.333370
Si Si6 0.345285 0.549718 0.813374
Si Si7 0.034226 0.421004 0.961567
Si Si8 0.701577 0.672191 0.522054
O O1 0.634092 0.453762 0.605945
O O2 0.608809 0.134198 0.514492
O O3 0.696911 0.422213 0.538080
O O4 0.712053 0.148040 0.643472
O O5 0.475981 0.453732 0.658182
O O6 0.533854 0.807291 0.720489
O O7 0.596741 0.535003 0.697743
O O8 0.500910 0.711249 0.583469
O O9 0.557328 0.096169 0.814440
O O10 0.523813 0.114690 0.908389
O O11 0.633354 0.270326 0.949317
O O12 0.707275 0.594465 0.254820
O O13 0.823220 0.710931 0.315596
O O14 0.775656 0.714419 0.400073
O O15 0.000000 0.500000 0.000000
O O16 0.750000 0.750000 0.500000
#
# Coordination Sequence:
#
# PCOD8150786 Si02
#       8
#     8   8   8   4   8   8   8   8
#     4  11  22  42  66  95 138 171 222 280 326 405
#     4  11  24  42  67  97 129 176 215 274 339 387
#     4  11  23  45  64  95 132 166 227 273 322 405
#     4  10  26  44  64  92 132 176 218 276 322 402
#     4  11  23  44  63  97 136 172 223 274 328 411
#     4  11  24  41  68  98 136 176 216 273 342 393
#     4  11  22  38  67  99 130 167 212 273 340 394
#     4  11  26  43  67  96 131 182 225 274 338 397
#
# _framework density 21.098500999999999
#
# number of rings (size 3 to 8) (size 9 to 14) (size 15 to 20)
#    0.000    1.067    4.000    2.000    1.867    5.867 
#    0.000    0.000    0.000    0.000    0.000    0.000 
#    0.000    0.000    0.000    0.000    0.000    0.000 
#
# Total GULP energy -371778.460263 kJ/mol
# GULP energy per Si atom -12392.615342 kJ/mol
# Density = 2.105048 g / cm^3
# Si number density = 21.098501 Si / 1000 Ang^3
#
#
#
# Elastic Constant Matrix: (Units=GPa)
#
#
# Indices 1 2 3 4 5 6 
#
# 1 100.2355 37.4207 31.8461 -0.0001 -5.5487 -0.0005
# 2 37.4207 112.2976 43.2754 -0.0011 -4.4782 -0.0050
# 3 31.8461 43.2754 108.8513 -0.0002 -2.5210 -0.0002
# 4 -0.0001 -0.0011 -0.0002 48.4811 -0.0001 1.7205
# 5 -5.5487 -4.4782 -2.5210 -0.0001 28.8937 0.0000
# 6 -0.0005 -0.0050 -0.0002 1.7205 0.0000 29.1443
#
#
#
# Elastic Compliance Matrix: (Units=1/GPa)
#
#
# Indices 1 2 3 4 5 6 
#
# 1 0.011913 -0.003043 -0.002238 0.000000 0.001621 0.000000
# 2 -0.003043 0.011340 -0.003598 0.000000 0.000859 0.000002
# 3 -0.002238 -0.003598 0.011272 0.000000 -0.000004 -0.000001
# 4 0.000000 0.000000 0.000000 0.020670 0.000000 -0.001220
# 5 0.001621 0.000859 -0.000004 0.000000 0.035054 0.000000
# 6 0.000000 0.000002 -0.000001 -0.001220 0.000000 0.034384
#
#
# Mechanical properties :
#
#
# Convention : Reuss Voigt Hill
#
# Bulk Modulus (GPa) = 59.64123 60.71875 60.17999
# Shear Modulus (GPa) = 33.78840 35.22664 34.50752
#
# Velocity S-wave (km/s) = 4.00617 4.09054 4.04857
# Velocity P-wave (km/s) = 7.05184 7.15201 7.10210
#
# Compressibility (1/GPa) = 0.01676692
#
# Stress axis : x y z
#
# Youngs Moduli (GPa) = 83.94012 88.18589 88.71481
#
# Poissons Ratio (x) = 0.26832 0.19856
# Poissons Ratio (y) = 0.25540 0.31921
# Poissons Ratio (z) = 0.18787 0.31731
#
# Static dielectric constant tensor:
#      x y z
#    x 3.498700 0.000000 -0.038910 
#    y 0.000000 4.198430 0.000000 
#    z -0.038910 0.000000 4.164000 
# 
# 
# High freq. dielectric constant tensor:
#      x y z
#    x 1.797480 0.000000 0.000250 
#    y 0.000000 1.841890 0.000000 
#    z 0.000250 0.000000 1.849050 
# 
# From -- ./inp_files/256795.got.cif
#   From: 2010.06.25/outbox.cif.g09.slc.cpg/sg15_129_cif.got.tgz:256795.got - 2010.06.28 07:06:18.
