data_PCOD8150217
_publ_section_title
;
Structure prediction by ZEFSAII (Michael W. Deem and Ramdas Pophale) SiO2 
 PCOD8150217
Probable space group: C 2/C
;
_chemical_formula_sum "Si O2"
_cell_formula_units_Z 36
_cell_length_a 5.021187
_cell_length_b 24.968548
_cell_length_c 13.752626
_cell_angle_alpha 90.000000
_cell_angle_beta 73.358652
_cell_angle_gamma 90.000000
_cell_volume 1651.975032
_symmetry_space_group_name_H-M "C 2/C"
_symmetry_group_IT_number 15
_symmetry_cell_setting 'monoclinic'
loop_
_space_group_symop_operation_xyz
x,y,z
-x,y,1/2-z
-x,-y,-z
x,-y,1/2+z
1/2+x,1/2+y,z
1/2-x,1/2+y,1/2-z
1/2-x,1/2-y,-z
1/2+x,1/2-y,1/2+z
loop_
_atom_site_type_symbol
_atom_site_label
_atom_site_fract_x
_atom_site_fract_y
_atom_site_fract_z
Si Si1 0.896558 0.853074 0.496388
Si Si2 0.288067 0.280529 0.187975
Si Si3 0.500000 0.085549 0.250000
Si Si4 0.227375 0.533853 0.032948
Si Si5 0.701111 0.165429 0.376453
O O1 0.792607 0.911003 0.469001
O O2 0.618156 0.823154 0.559436
O O3 0.051436 0.820507 0.398193
O O4 0.112866 0.862591 0.561131
O O5 0.500000 0.265417 0.250000
O O6 0.181611 0.224966 0.151980
O O7 0.000000 0.309564 0.250000
O O8 0.642707 0.048007 0.153539
O O9 0.717262 0.125815 0.281285
O O10 0.500000 0.500000 0.000000
O O11 0.000000 0.500000 0.000000
#
# Coordination Sequence:
#
# PCOD8150217 Si02
#       5
#     8   8   4   8   8
#     4  11  24  43  67  96 142 179 230 290 356 403
#     4  12  24  40  64 104 146 182 229 274 353 430
#     4  10  24  44  76  96 134 178 234 292 352 412
#     4  11  25  46  69 101 131 176 240 294 348 407
#     4  11  22  41  70 100 134 181 232 283 338 428
#
# _framework density 21.792096999999998
#
# number of rings (size 3 to 8) (size 9 to 14) (size 15 to 20)
#    0.000    0.889    1.111    6.667    3.111    4.444 
#    6.000    0.000    0.000    0.000    0.000    0.000 
#    0.000    0.000    0.000    0.000    0.000    0.000 
#
# Total GULP energy -223125.886305 kJ/mol
# GULP energy per Si atom -12395.882573 kJ/mol
# Density = 2.174250 g / cm^3
# Si number density = 21.792097 Si / 1000 Ang^3
#
#
#
# Elastic Constant Matrix: (Units=GPa)
#
#
# Indices 1 2 3 4 5 6 
#
# 1 146.8942 45.2159 48.7857 0.0000 -1.1605 0.0000
# 2 45.2159 149.1805 80.9689 0.0000 -3.0124 0.0000
# 3 48.7857 80.9689 120.1929 0.0000 -18.3500 0.0000
# 4 0.0000 0.0000 0.0000 31.2921 0.0000 0.4362
# 5 -1.1605 -3.0124 -18.3500 0.0000 41.8834 0.0000
# 6 0.0000 0.0000 0.0000 0.4362 0.0000 29.4564
#
#
#
# Elastic Compliance Matrix: (Units=1/GPa)
#
#
# Indices 1 2 3 4 5 6 
#
# 1 0.008012 -0.000941 -0.002781 0.000000 -0.001064 0.000000
# 2 -0.000941 0.010933 -0.007360 0.000000 -0.002464 0.000000
# 3 -0.002781 -0.007360 0.015340 0.000000 0.006114 0.000000
# 4 0.000000 0.000000 0.000000 0.031964 0.000000 -0.000473
# 5 -0.001064 -0.002464 0.006114 0.000000 0.026348 0.000000
# 6 0.000000 0.000000 0.000000 -0.000473 0.000000 0.033956
#
#
# Mechanical properties :
#
#
# Convention : Reuss Voigt Hill
#
# Bulk Modulus (GPa) = 82.48642 85.13430 83.81036
# Shear Modulus (GPa) = 32.73197 36.61285 34.67241
#
# Velocity S-wave (km/s) = 3.87978 4.10335 3.99313
# Velocity P-wave (km/s) = 7.61604 7.84865 7.73322
#
# Compressibility (1/GPa) = 0.01212321
#
# Stress axis : x y z
#
# Youngs Moduli (GPa) = 124.80744 91.46559 65.18882
#
# Poissons Ratio (x) = 0.08603 0.18129
# Poissons Ratio (y) = 0.11739 0.47976
# Poissons Ratio (z) = 0.34709 0.67315
#
# Static dielectric constant tensor:
#      x y z
#    x 3.462340 0.000000 -0.355980 
#    y 0.000000 3.987460 0.000000 
#    z -0.355980 0.000000 3.938010 
# 
# 
# High freq. dielectric constant tensor:
#      x y z
#    x 1.884360 0.000000 -0.011190 
#    y 0.000000 1.853780 0.000000 
#    z -0.011190 0.000000 1.849680 
# 
# From -- ./inp_files/73009.got.cif
#   From: 2010.06.25/outbox.cif.g09.slc.cpg/sg15_37_cif.got.tgz:73009.got - 2010.06.28 07:06:18.
