data_PCOD8150027
_publ_section_title
;
Structure prediction by ZEFSAII (Michael W. Deem and Ramdas Pophale) SiO2 
 PCOD8150027
Probable space group: C 2/C
;
_chemical_formula_sum "Si O2"
_cell_formula_units_Z 64
_cell_length_a 10.888438
_cell_length_b 27.082596
_cell_length_c 15.051731
_cell_angle_alpha 90.000000
_cell_angle_beta 41.302918
_cell_angle_gamma 90.000000
_cell_volume 2929.628354
_symmetry_space_group_name_H-M "C 2/C"
_symmetry_group_IT_number 15
_symmetry_cell_setting 'monoclinic'
loop_
_space_group_symop_operation_xyz
x,y,z
-x,y,1/2-z
-x,-y,-z
x,-y,1/2+z
1/2+x,1/2+y,z
1/2-x,1/2+y,1/2-z
1/2-x,1/2-y,-z
1/2+x,1/2-y,1/2+z
loop_
_atom_site_type_symbol
_atom_site_label
_atom_site_fract_x
_atom_site_fract_y
_atom_site_fract_z
Si Si1 0.727617 0.159569 0.837608
Si Si2 0.163534 0.792241 0.725091
Si Si3 0.133721 0.153254 0.547357
Si Si4 0.445872 0.260337 0.530754
Si Si5 0.188379 0.906815 0.697167
Si Si6 0.335546 0.564608 0.088352
Si Si7 0.752572 0.541083 0.864295
Si Si8 0.033801 0.581720 0.594208
O O1 0.744029 0.143828 0.931658
O O2 0.692985 0.217532 0.862657
O O3 0.557275 0.135229 0.876455
O O4 0.915129 0.145612 0.683865
O O5 0.347397 0.757889 0.610798
O O6 0.062414 0.793999 0.876464
O O7 0.223348 0.848181 0.671872
O O8 0.000000 0.772767 0.750000
O O9 0.150136 0.208213 0.496557
O O10 0.223973 0.113499 0.431358
O O11 0.192149 0.928085 0.792776
O O12 0.354356 0.934322 0.554102
O O13 0.000000 0.921593 0.750000
O O14 0.224885 0.515851 0.115294
O O15 0.547306 0.554564 0.949121
O O16 0.825493 0.580859 0.897446
O O17 0.868592 0.544378 0.709191
#
# Coordination Sequence:
#
# PCOD8150027 Si02
#       8
#     8   8   8   8   8   8   8   8
#     4  11  24  43  68 101 134 182 236 274 340 409
#     4  11  24  39  63 102 142 180 224 278 340 411
#     4  11  24  44  69  95 139 184 225 287 337 405
#     4  12  22  44  64 101 138 182 231 277 336 407
#     4  11  22  40  68  99 140 177 219 279 345 403
#     4  11  22  46  66  99 132 177 222 273 353 403
#     4  10  24  43  71  96 132 173 224 277 344 410
#     4  11  22  46  66 102 131 175 227 283 333 404
#
# _framework density 21.845773999999999
#
# number of rings (size 3 to 8) (size 9 to 14) (size 15 to 20)
#    0.000    1.000    6.250    0.750    0.000    0.500 
#   11.250    1.250    0.000    0.000    0.000    0.000 
#    0.000    0.000    0.000    0.000    0.000    0.000 
#
# Total GULP energy -396502.565741 kJ/mol
# GULP energy per Si atom -12390.705179 kJ/mol
# Density = 2.179605 g / cm^3
# Si number density = 21.845774 Si / 1000 Ang^3
#
#
#
# Elastic Constant Matrix: (Units=GPa)
#
#
# Indices 1 2 3 4 5 6 
#
# 1 77.0810 47.1454 30.7659 0.0000 15.2154 0.0000
# 2 47.1454 102.9653 30.9793 0.0000 5.9895 0.0000
# 3 30.7659 30.9793 143.2305 0.0000 11.5459 0.0000
# 4 0.0000 0.0000 0.0000 -16.6550 0.0000 -11.5550
# 5 15.2154 5.9895 11.5459 0.0000 30.2616 0.0000
# 6 0.0000 0.0000 0.0000 -11.5550 0.0000 21.8080
#
#
#
# Elastic Compliance Matrix: (Units=1/GPa)
#
#
# Indices 1 2 3 4 5 6 
#
# 1 0.020369 -0.008283 -0.001950 0.000000 -0.007858 0.000000
# 2 -0.008283 0.013801 -0.001363 0.000000 0.001953 0.000000
# 3 -0.001950 -0.001363 0.007836 0.000000 -0.001739 0.000000
# 4 0.000000 0.000000 0.000000 -0.043903 0.000000 -0.023262
# 5 -0.007858 0.001953 -0.001739 0.000000 0.037273 0.000000
# 6 0.000000 0.000000 0.000000 -0.023262 0.000000 0.033529
#
#
# Mechanical properties :
#
#
# Convention : Reuss Voigt Hill
#
# Bulk Modulus (GPa) = 53.15452 60.11755 56.63604
# Shear Modulus (GPa) = 50.82937 21.37532 36.10235
#
# Velocity S-wave (km/s) = 4.82886 3.13144 4.06963
# Velocity P-wave (km/s) = 7.44816 6.37600 6.93283
#
# Compressibility (1/GPa) = 0.01881308
#
# Stress axis : x y z
#
# Youngs Moduli (GPa) = 49.09469 72.45865 127.61993
#
# Poissons Ratio (x) = 0.60014 0.24891
# Poissons Ratio (y) = 0.40663 0.17399
# Poissons Ratio (z) = 0.09575 0.09879
#
# Static dielectric constant tensor:
#      x y z
#    x 3.929150 0.000000 0.071590 
#    y 0.000000 3.944640 0.000000 
#    z 0.071590 0.000000 4.189970 
# 
# 
# High freq. dielectric constant tensor:
#      x y z
#    x 1.845400 0.000000 0.002500 
#    y 0.000000 1.847940 0.000000 
#    z 0.002500 0.000000 1.881320 
# 
# From -- ./inp_files/149171.got.cif
#   From: 2010.06.25/outbox.cif.g09.slc.cpg/sg15_75_cif.got.tgz:149171.got - 2010.06.28 07:06:18.
