data_PCOD8150152
_publ_section_title
;
Structure prediction by ZEFSAII (Michael W. Deem and Ramdas Pophale) SiO2 
 PCOD8150152
Probable space group: C 2/C
;
_chemical_formula_sum "Si O2"
_cell_formula_units_Z 56
_cell_length_a 16.626630
_cell_length_b 27.209735
_cell_length_c 9.025987
_cell_angle_alpha 90.000000
_cell_angle_beta 38.587888
_cell_angle_gamma 90.000000
_cell_volume 2546.883037
_symmetry_space_group_name_H-M "C 2/C"
_symmetry_group_IT_number 15
_symmetry_cell_setting 'monoclinic'
loop_
_space_group_symop_operation_xyz
x,y,z
-x,y,1/2-z
-x,-y,-z
x,-y,1/2+z
1/2+x,1/2+y,z
1/2-x,1/2+y,1/2-z
1/2-x,1/2-y,-z
1/2+x,1/2-y,1/2+z
loop_
_atom_site_type_symbol
_atom_site_label
_atom_site_fract_x
_atom_site_fract_y
_atom_site_fract_z
Si Si1 0.382141 0.811168 0.530832
Si Si2 0.648460 0.972008 0.036563
Si Si3 0.811403 0.106944 0.145694
Si Si4 0.721771 0.719232 0.689271
Si Si5 0.444493 0.152709 0.476582
Si Si6 0.789199 0.561693 0.739154
Si Si7 0.398334 0.382264 0.191182
O O1 0.260105 0.846332 0.676229
O O2 0.335992 0.754950 0.601040
O O3 0.432828 0.825727 0.618475
O O4 0.500000 0.819136 0.250000
O O5 0.500000 0.953651 0.250000
O O6 0.719675 0.968445 0.094108
O O7 0.730811 0.941226 0.800492
O O8 0.649563 0.027868 0.976831
O O9 0.821411 0.107789 0.953943
O O10 0.952281 0.104650 0.014818
O O11 0.750000 0.750000 0.500000
O O12 0.851934 0.698050 0.571383
O O13 0.618732 0.675827 0.812876
O O14 0.376467 0.108331 0.660402
O O15 0.500000 0.127724 0.250000
O O16 0.656449 0.584115 0.864115
#
# Coordination Sequence:
#
# PCOD8150152 Si02
#       7
#     8   8   8   8   8   8   8
#     4  12  25  41  64 100 138 174 229 285 342 396
#     4  12  25  43  72 101 138 175 223 279 346 408
#     4  11  23  43  69  96 134 179 226 280 341 402
#     4  11  22  41  66  97 132 183 231 275 337 408
#     4  11  22  40  68  93 133 174 224 281 337 406
#     4  11  24  44  66 102 134 175 223 280 342 406
#     4  10  24  44  69  96 135 181 231 278 333 415
#
# _framework density 21.987660000000002
#
# number of rings (size 3 to 8) (size 9 to 14) (size 15 to 20)
#    0.000    0.857    2.857    4.714    2.000    1.714 
#    5.143    0.000    0.000    0.000    0.000    0.000 
#    0.000    0.000    0.000    0.000    0.000    0.000 
#
# Total GULP energy -347154.712805 kJ/mol
# GULP energy per Si atom -12398.382600 kJ/mol
# Density = 2.193761 g / cm^3
# Si number density = 21.987660 Si / 1000 Ang^3
#
#
#
# Elastic Constant Matrix: (Units=GPa)
#
#
# Indices 1 2 3 4 5 6 
#
# 1 96.7816 46.9997 33.3564 0.0000 -4.3629 0.0000
# 2 46.9997 114.9047 41.4096 0.0000 -5.8229 0.0000
# 3 33.3564 41.4096 110.9653 0.0000 -9.8706 0.0000
# 4 0.0000 0.0000 0.0000 25.5441 0.0000 6.9587
# 5 -4.3629 -5.8229 -9.8706 0.0000 40.2711 0.0000
# 6 0.0000 0.0000 0.0000 6.9587 0.0000 25.3984
#
#
#
# Elastic Compliance Matrix: (Units=1/GPa)
#
#
# Indices 1 2 3 4 5 6 
#
# 1 0.013380 -0.004644 -0.002269 0.000000 0.000222 0.000000
# 2 -0.004644 0.011679 -0.002920 0.000000 0.000470 0.000000
# 3 -0.002269 -0.002920 0.010963 0.000000 0.002019 0.000000
# 4 0.000000 0.000000 0.000000 0.042306 0.000000 -0.011591
# 5 0.000222 0.000470 0.002019 0.000000 0.025419 0.000000
# 6 0.000000 0.000000 0.000000 -0.011591 0.000000 0.042548
#
#
# Mechanical properties :
#
#
# Convention : Reuss Voigt Hill
#
# Bulk Modulus (GPa) = 61.14417 62.90921 62.02669
# Shear Modulus (GPa) = 29.16936 31.63511 30.40224
#
# Velocity S-wave (km/s) = 3.64624 3.79722 3.72250
# Velocity P-wave (km/s) = 6.75244 6.92087 6.83718
#
# Compressibility (1/GPa) = 0.01635479
#
# Stress axis : x y z
#
# Youngs Moduli (GPa) = 74.73958 85.62693 91.21224
#
# Poissons Ratio (x) = 0.39762 0.20699
# Poissons Ratio (y) = 0.34707 0.26638
# Poissons Ratio (z) = 0.16961 0.25007
#
# Static dielectric constant tensor:
#      x y z
#    x 4.074840 0.000000 -0.102470 
#    y 0.000000 4.007420 0.000000 
#    z -0.102470 0.000000 3.960210 
# 
# 
# High freq. dielectric constant tensor:
#      x y z
#    x 1.869400 0.000000 -0.002590 
#    y 0.000000 1.875430 0.000000 
#    z -0.002590 0.000000 1.859040 
# 
# From -- ./inp_files/34363.got.cif
#   From: 2010.06.25/outbox.cif.g09.slc.cpg/sg15_18_cif.got.tgz:34363.got - 2010.06.28 07:06:18.
