data_PCOD8150184
_publ_section_title
;
Structure prediction by ZEFSAII (Michael W. Deem and Ramdas Pophale) SiO2 
 PCOD8150184
Probable space group: C 2/C
;
_chemical_formula_sum "Si O2"
_cell_formula_units_Z 60
_cell_length_a 24.147155
_cell_length_b 8.222955
_cell_length_c 22.309183
_cell_angle_alpha 90.000000
_cell_angle_beta 143.370588
_cell_angle_gamma 90.000000
_cell_volume 2642.942212
_symmetry_space_group_name_H-M "C 2/C"
_symmetry_group_IT_number 15
_symmetry_cell_setting 'monoclinic'
loop_
_space_group_symop_operation_xyz
x,y,z
-x,y,1/2-z
-x,-y,-z
x,-y,1/2+z
1/2+x,1/2+y,z
1/2-x,1/2+y,1/2-z
1/2-x,1/2-y,-z
1/2+x,1/2-y,1/2+z
loop_
_atom_site_type_symbol
_atom_site_label
_atom_site_fract_x
_atom_site_fract_y
_atom_site_fract_z
Si Si1 0.916723 0.358123 0.614963
Si Si2 0.311374 0.004706 0.416845
Si Si3 0.431252 0.245983 0.441906
Si Si4 0.788376 0.290387 0.721067
Si Si5 0.116488 0.512503 0.290939
Si Si6 0.391535 0.400736 0.880391
Si Si7 0.876121 0.858971 0.730661
Si Si8 0.500000 0.566515 0.750000
O O1 0.856443 0.379245 0.503098
O O2 0.870530 0.473149 0.626056
O O3 0.020537 0.406333 0.688987
O O4 0.924942 0.173836 0.647238
O O5 0.388962 0.121095 0.453957
O O6 0.233005 0.117122 0.379215
O O7 0.250140 0.891828 0.319748
O O8 0.388988 0.206777 0.340279
O O9 0.544761 0.245690 0.540891
O O10 0.412084 0.437919 0.438113
O O11 0.799963 0.390027 0.669415
O O12 0.716972 0.370726 0.704886
O O13 0.108386 0.330796 0.261652
O O14 0.408094 0.419530 0.823979
O O15 0.940317 0.954198 0.740906
#
# Coordination Sequence:
#
# PCOD8150184 Si02
#       8
#     8   8   8   8   8   8   8   4
#     4  10  24  46  66 103 131 182 229 290 348 407
#     4  12  25  42  72 100 139 181 234 282 354 413
#     4  11  24  44  65 101 143 182 226 283 343 411
#     4  12  24  43  68 105 138 183 228 288 341 418
#     4  10  24  44  71  96 142 175 235 288 344 412
#     4  11  26  42  68 101 143 180 233 281 346 413
#     4  12  23  44  70 100 134 185 227 289 343 412
#     4  10  24  44  74  94 136 178 234 286 342 418
#
# _framework density 22.701971
#
# number of rings (size 3 to 8) (size 9 to 14) (size 15 to 20)
#    0.000    1.067    2.667    4.000    3.733    4.267 
#    0.000    1.333    0.000    0.000    0.000    0.000 
#    0.000    0.000    0.000    0.000    0.000    0.000 
#
# Total GULP energy -371802.780726 kJ/mol
# GULP energy per Si atom -12393.426024 kJ/mol
# Density = 2.265030 g / cm^3
# Si number density = 22.701971 Si / 1000 Ang^3
#
#
#
# Elastic Constant Matrix: (Units=GPa)
#
#
# Indices 1 2 3 4 5 6 
#
# 1 129.5396 64.8237 27.7765 0.0000 -0.2331 0.0000
# 2 64.8237 118.7862 31.5106 0.0000 -0.4015 0.0001
# 3 27.7765 31.5106 79.6263 0.0000 -3.4353 0.0000
# 4 0.0000 0.0000 0.0000 21.0069 0.0000 10.6315
# 5 -0.2331 -0.4015 -3.4353 0.0000 17.8333 0.0000
# 6 0.0000 0.0001 0.0000 10.6315 0.0000 133.6487
#
#
#
# Elastic Compliance Matrix: (Units=1/GPa)
#
#
# Indices 1 2 3 4 5 6 
#
# 1 0.010801 -0.005466 -0.001617 0.000000 -0.000293 0.000000
# 2 -0.005466 0.012177 -0.002928 0.000000 -0.000361 0.000000
# 3 -0.001617 -0.002928 0.014397 0.000000 0.002686 0.000000
# 4 0.000000 0.000000 0.000000 0.049600 0.000000 -0.003946
# 5 -0.000293 -0.000361 0.002686 0.000000 0.056580 0.000000
# 6 0.000000 0.000000 0.000000 -0.003946 0.000000 0.007796
#
#
# Mechanical properties :
#
#
# Convention : Reuss Voigt Hill
#
# Bulk Modulus (GPa) = 57.62672 64.01929 60.82300
# Shear Modulus (GPa) = 28.22312 48.08718 38.15515
#
# Velocity S-wave (km/s) = 3.52973 4.60738 4.10408
# Velocity P-wave (km/s) = 6.48468 7.52097 7.02197
#
# Compressibility (1/GPa) = 0.01735306
#
# Stress axis : x y z
#
# Youngs Moduli (GPa) = 92.58028 82.12192 69.45768
#
# Poissons Ratio (x) = 0.44892 0.11234
# Poissons Ratio (y) = 0.50609 0.20334
# Poissons Ratio (z) = 0.14973 0.24041
#
# Static dielectric constant tensor:
#      x y z
#    x 4.991930 0.000000 0.291740 
#    y 0.000000 4.225780 0.000000 
#    z 0.291740 0.000000 4.201820 
# 
# 
# High freq. dielectric constant tensor:
#      x y z
#    x 1.898420 0.000000 0.008510 
#    y 0.000000 1.902650 0.000000 
#    z 0.008510 0.000000 1.890830 
# 
# From -- ./inp_files/281675.got.cif
#   From: 2010.06.25/outbox.cif.g09.slc.cpg/sg15_141_cif.got.tgz:281675.got - 2010.06.28 07:06:18.
