data_PCOD8150491
_publ_section_title
;
Structure prediction by ZEFSAII (Michael W. Deem and Ramdas Pophale) SiO2 
 PCOD8150491
Probable space group: C 2/C
;
_chemical_formula_sum "Si O2"
_cell_formula_units_Z 44
_cell_length_a 4.891342
_cell_length_b 20.474604
_cell_length_c 19.338855
_cell_angle_alpha 90.000000
_cell_angle_beta 109.764026
_cell_angle_gamma 90.000000
_cell_volume 1822.665457
_symmetry_space_group_name_H-M "C 2/C"
_symmetry_group_IT_number 15
_symmetry_cell_setting 'monoclinic'
loop_
_space_group_symop_operation_xyz
x,y,z
-x,y,1/2-z
-x,-y,-z
x,-y,1/2+z
1/2+x,1/2+y,z
1/2-x,1/2+y,1/2-z
1/2-x,1/2-y,-z
1/2+x,1/2-y,1/2+z
loop_
_atom_site_type_symbol
_atom_site_label
_atom_site_fract_x
_atom_site_fract_y
_atom_site_fract_z
Si Si1 0.172484 0.917603 0.635509
Si Si2 0.038285 0.571647 0.035915
Si Si3 0.912617 0.788170 0.352256
Si Si4 0.500000 0.021490 0.750000
Si Si5 0.000000 0.314209 0.750000
Si Si6 0.968006 0.699790 0.554063
Si Si7 0.500000 0.605376 0.750000
O O1 0.274066 0.911070 0.564673
O O2 0.255505 0.856222 0.690229
O O3 0.826848 0.924835 0.607179
O O4 0.307244 0.981605 0.680047
O O5 0.052003 0.627234 0.978717
O O6 0.000000 0.500000 0.000000
O O7 0.203116 0.772026 0.422058
O O8 0.989652 0.853981 0.319119
O O9 0.836457 0.729974 0.292930
O O10 0.629635 0.801818 0.374050
O O11 0.709742 0.063038 0.719125
O O12 0.750000 0.750000 0.500000
#
# Coordination Sequence:
#
# PCOD8150491 Si02
#       7
#     8   8   8   4   4   8   4
#     4  11  25  45  71 100 137 185 235 287 348 422
#     4  12  27  44  69 103 146 192 233 289 351 433
#     4  11  25  42  71  99 136 175 229 293 350 418
#     4  11  24  41  70  95 134 175 228 290 340 409
#     4  10  24  48  74 106 136 182 240 304 360 412
#     4  12  25  44  69 101 139 186 232 287 349 425
#     4  11  24  41  64  97 132 173 218 288 354 399
#
# _framework density 24.140471999999999
#
# number of rings (size 3 to 8) (size 9 to 14) (size 15 to 20)
#    0.000    0.727    0.000    6.545    7.636    5.818 
#    0.000    0.000    0.000    0.000    0.000    0.000 
#    0.000    0.000    0.000    0.000    0.000    0.000 
#
# Total GULP energy -272939.441162 kJ/mol
# GULP energy per Si atom -12406.338235 kJ/mol
# Density = 2.408553 g / cm^3
# Si number density = 24.140472 Si / 1000 Ang^3
#
#
#
# Elastic Constant Matrix: (Units=GPa)
#
#
# Indices 1 2 3 4 5 6 
#
# 1 79.4310 14.4341 3.5849 0.0000 0.4897 0.0000
# 2 14.4341 155.1739 44.4749 0.0000 -6.7211 0.0000
# 3 3.5849 44.4749 90.7154 0.0000 -4.5343 0.0000
# 4 0.0000 0.0000 0.0000 33.8278 0.0000 2.6901
# 5 0.4897 -6.7211 -4.5343 0.0000 44.2811 0.0000
# 6 0.0000 0.0000 0.0000 2.6901 0.0000 26.0913
#
#
#
# Elastic Compliance Matrix: (Units=1/GPa)
#
#
# Indices 1 2 3 4 5 6 
#
# 1 0.012811 -0.001228 0.000080 0.000000 -0.000320 0.000000
# 2 -0.001228 0.007642 -0.003658 0.000000 0.000799 0.000000
# 3 0.000080 -0.003658 0.012852 0.000000 0.000760 0.000000
# 4 0.000000 0.000000 0.000000 0.029806 0.000000 -0.003073
# 5 -0.000320 0.000799 0.000760 0.000000 0.022786 0.000000
# 6 0.000000 0.000000 0.000000 -0.003073 0.000000 0.038644
#
#
# Mechanical properties :
#
#
# Convention : Reuss Voigt Hill
#
# Bulk Modulus (GPa) = 42.20900 50.03423 46.12161
# Shear Modulus (GPa) = 35.19890 38.36182 36.78036
#
# Velocity S-wave (km/s) = 3.82263 3.99069 3.90756
# Velocity P-wave (km/s) = 6.08326 6.48116 6.28536
#
# Compressibility (1/GPa) = 0.02369163
#
# Stress axis : x y z
#
# Youngs Moduli (GPa) = 78.05711 130.86116 77.81070
#
# Poissons Ratio (x) = 0.16076 -0.00623
# Poissons Ratio (y) = 0.09589 0.28463
# Poissons Ratio (z) = -0.00625 0.47869
#
# Static dielectric constant tensor:
#      x y z
#    x 4.714190 0.000000 -0.167990 
#    y 0.000000 4.519900 0.000000 
#    z -0.167990 0.000000 4.405880 
# 
# 
# High freq. dielectric constant tensor:
#      x y z
#    x 1.967500 0.000000 -0.000610 
#    y 0.000000 1.970970 0.000000 
#    z -0.000610 0.000000 1.966920 
# 
# From -- ./inp_files/185012.got.cif
#   From: 2010.06.25/outbox.cif.g09.slc.cpg/sg15_93_cif.got.tgz:185012.got - 2010.06.28 07:06:18.
