data_PCOD8150683
_publ_section_title
;
Structure prediction by ZEFSAII (Michael W. Deem and Ramdas Pophale) SiO2 
 PCOD8150683
Probable space group: C 2/C
;
_chemical_formula_sum "Si O2"
_cell_formula_units_Z 36
_cell_length_a 8.502495
_cell_length_b 18.776597
_cell_length_c 14.432875
_cell_angle_alpha 90.000000
_cell_angle_beta 41.623337
_cell_angle_gamma 90.000000
_cell_volume 1530.506196
_symmetry_space_group_name_H-M "C 2/C"
_symmetry_group_IT_number 15
_symmetry_cell_setting 'monoclinic'
loop_
_space_group_symop_operation_xyz
x,y,z
-x,y,1/2-z
-x,-y,-z
x,-y,1/2+z
1/2+x,1/2+y,z
1/2-x,1/2+y,1/2-z
1/2-x,1/2-y,-z
1/2+x,1/2-y,1/2+z
loop_
_atom_site_type_symbol
_atom_site_label
_atom_site_fract_x
_atom_site_fract_y
_atom_site_fract_z
Si Si1 0.500000 0.120908 0.750000
Si Si2 0.649333 0.038104 0.854889
Si Si3 0.334457 0.605399 0.239180
Si Si4 0.153265 0.661588 0.975241
Si Si5 0.499593 0.312595 0.012196
O O1 0.486057 0.067744 0.843883
O O2 0.724253 0.173492 0.652462
O O3 0.842535 0.981575 0.731262
O O4 0.764170 0.107627 0.851441
O O5 0.500000 0.000000 0.000000
O O6 0.500000 0.632978 0.250000
O O7 0.066093 0.629480 0.371517
O O8 0.419799 0.635119 0.104216
O O9 0.057585 0.730770 0.960832
O O10 0.364586 0.675190 0.952178
#
# Coordination Sequence:
#
# PCOD8150683 Si02
#       5
#     4   8   8   8   8
#     4  12  28  44  74 110 146 192 240 294 364 432
#     4  10  25  46  70 106 145 190 237 295 355 430
#     4  11  25  45  74 105 145 192 240 298 361 428
#     4  10  25  48  72 104 146 188 244 301 362 425
#     4  11  26  46  75 108 143 192 240 302 361 433
#
# _framework density 23.521630999999999
#
# number of rings (size 3 to 8) (size 9 to 14) (size 15 to 20)
#    0.000    1.333    0.000    3.333   14.000    2.667 
#    0.000    0.000    0.000    0.000    0.000    0.000 
#    0.000    0.000    0.000    0.000    0.000    0.000 
#
# Total GULP energy -223151.239457 kJ/mol
# GULP energy per Si atom -12397.291081 kJ/mol
# Density = 2.346809 g / cm^3
# Si number density = 23.521631 Si / 1000 Ang^3
#
#
#
# Elastic Constant Matrix: (Units=GPa)
#
#
# Indices 1 2 3 4 5 6 
#
# 1 114.2134 58.8698 46.7447 0.0003 -4.1292 -0.0001
# 2 58.8698 193.2167 70.8797 -0.0011 13.8524 0.0002
# 3 46.7447 70.8797 102.5966 -0.0041 -5.3636 -0.0004
# 4 0.0003 -0.0011 -0.0041 29.5780 0.0014 4.9932
# 5 -4.1292 13.8524 -5.3636 0.0014 45.4334 0.0003
# 6 -0.0001 0.0002 -0.0004 4.9932 0.0003 33.9292
#
#
#
# Elastic Compliance Matrix: (Units=1/GPa)
#
#
# Indices 1 2 3 4 5 6 
#
# 1 0.011434 -0.002266 -0.003576 -0.000001 0.001308 0.000000
# 2 -0.002266 0.007726 -0.004467 0.000000 -0.003089 0.000000
# 3 -0.003576 -0.004467 0.014606 0.000002 0.002761 0.000000
# 4 -0.000001 0.000000 0.000002 0.034670 -0.000001 -0.005102
# 5 0.001308 -0.003089 0.002761 -0.000001 0.023397 0.000000
# 6 0.000000 0.000000 0.000000 -0.005102 0.000000 0.030224
#
#
# Mechanical properties :
#
#
# Convention : Reuss Voigt Hill
#
# Bulk Modulus (GPa) = 76.04702 84.77944 80.41323
# Shear Modulus (GPa) = 34.00031 37.35694 35.67863
#
# Velocity S-wave (km/s) = 3.80609 3.98954 3.89889
# Velocity P-wave (km/s) = 7.19138 7.57254 7.38442
#
# Compressibility (1/GPa) = 0.01314976
#
# Stress axis : x y z
#
# Youngs Moduli (GPa) = 87.45670 129.43523 68.46356
#
# Poissons Ratio (x) = 0.29327 0.24482
# Poissons Ratio (y) = 0.19816 0.30580
# Poissons Ratio (z) = 0.31274 0.57814
#
# Static dielectric constant tensor:
#      x y z
#    x 4.261280 0.000000 0.073270 
#    y 0.000000 5.080380 0.000000 
#    z 0.073270 0.000000 4.037540 
# 
# 
# High freq. dielectric constant tensor:
#      x y z
#    x 1.940740 0.000000 0.004030 
#    y 0.000000 1.950550 0.000000 
#    z 0.004030 0.000000 1.923170 
# 
# From -- ./inp_files/136385.got.cif
#   From: 2010.06.25/outbox.cif.g09.slc.cpg/sg15_69_cif.got.tgz:136385.got - 2010.06.28 07:06:18.
