data_PCOD8150496
_publ_section_title
;
Structure prediction by ZEFSAII (Michael W. Deem and Ramdas Pophale) SiO2 
 PCOD8150496
Probable space group: C 2/C
;
_chemical_formula_sum "Si O2"
_cell_formula_units_Z 32
_cell_length_a 13.547128
_cell_length_b 20.269563
_cell_length_c 5.051380
_cell_angle_alpha 90.000000
_cell_angle_beta 63.874543
_cell_angle_gamma 90.000000
_cell_volume 1245.365268
_symmetry_space_group_name_H-M "C 2/C"
_symmetry_group_IT_number 15
_symmetry_cell_setting 'monoclinic'
loop_
_space_group_symop_operation_xyz
x,y,z
-x,y,1/2-z
-x,-y,-z
x,-y,1/2+z
1/2+x,1/2+y,z
1/2-x,1/2+y,1/2-z
1/2-x,1/2-y,-z
1/2+x,1/2-y,1/2+z
loop_
_atom_site_type_symbol
_atom_site_label
_atom_site_fract_x
_atom_site_fract_y
_atom_site_fract_z
Si Si1 0.666572 0.130077 0.813108
Si Si2 0.000000 0.454497 0.250000
Si Si3 0.592683 0.350865 0.443656
Si Si4 0.301462 0.456226 0.485930
Si Si5 0.500000 0.232459 0.250000
O O1 0.607774 0.092026 0.641335
O O2 0.785828 0.154427 0.562665
O O3 0.686121 0.079765 0.040618
O O4 0.591137 0.189777 0.995202
O O5 0.000000 0.500000 0.500000
O O6 0.500000 0.377985 0.750000
O O7 0.600967 0.403321 0.189749
O O8 0.562405 0.277785 0.386782
O O9 0.310521 0.479893 0.777608
#
# Coordination Sequence:
#
# PCOD8150496 Si02
#       5
#     8   4   8   8   4
#     4  10  26  47  80 112 159 204 270 336 400 468
#     4  12  25  50  80 118 157 206 266 330 410 472
#     4  10  27  48  77 116 157 218 268 333 400 483
#     4  10  24  48  76 112 154 199 262 331 401 471
#     4  12  25  52  74 118 163 218 274 324 402 488
#
# _framework density 25.695270000000001
#
# number of rings (size 3 to 8) (size 9 to 14) (size 15 to 20)
#    1.500    0.000    0.000    3.000    5.250    4.000 
#    9.000    0.000    0.000    0.000    0.000    0.000 
#    0.000    0.000    0.000    0.000    0.000    0.000 
#
# Total GULP energy -198265.108956 kJ/mol
# GULP energy per Si atom -12391.569310 kJ/mol
# Density = 2.563679 g / cm^3
# Si number density = 25.695270 Si / 1000 Ang^3
#
#
#
# Elastic Constant Matrix: (Units=GPa)
#
#
# Indices 1 2 3 4 5 6 
#
# 1 145.4287 40.6835 52.7577 0.0000 -40.4965 0.0000
# 2 40.6835 137.9982 24.3721 0.0000 -24.2352 0.0000
# 3 52.7577 24.3721 62.1352 0.0000 -18.6701 0.0000
# 4 0.0000 0.0000 0.0000 13.5481 0.0000 -11.9598
# 5 -40.4965 -24.2352 -18.6701 0.0000 45.7897 0.0000
# 6 0.0000 0.0000 0.0000 -11.9598 0.0000 97.2717
#
#
#
# Elastic Compliance Matrix: (Units=1/GPa)
#
#
# Indices 1 2 3 4 5 6 
#
# 1 0.011799 -0.000935 -0.007595 0.000000 0.006843 0.000000
# 2 -0.000935 0.008317 -0.001589 0.000000 0.002927 0.000000
# 3 -0.007595 -0.001589 0.023812 0.000000 0.002151 0.000000
# 4 0.000000 0.000000 0.000000 0.082798 0.000000 0.010180
# 5 0.006843 0.002927 0.002151 0.000000 0.030317 0.000000
# 6 0.000000 0.000000 0.000000 0.010180 0.000000 0.011532
#
#
# Mechanical properties :
#
#
# Convention : Reuss Voigt Hill
#
# Bulk Modulus (GPa) = 42.21205 64.57654 53.39429
# Shear Modulus (GPa) = 25.41820 46.50515 35.96167
#
# Velocity S-wave (km/s) = 3.14859 4.25887 3.74511
# Velocity P-wave (km/s) = 5.44810 7.02640 6.28697
#
# Compressibility (1/GPa) = 0.02368992
#
# Stress axis : x y z
#
# Youngs Moduli (GPa) = 84.75557 120.23860 41.99530
#
# Poissons Ratio (x) = 0.11245 0.31895
# Poissons Ratio (y) = 0.07927 0.06671
# Poissons Ratio (z) = 0.64372 0.19101
#
# Static dielectric constant tensor:
#      x y z
#    x 5.203780 0.000000 -0.249510 
#    y 0.000000 4.760740 0.000000 
#    z -0.249510 0.000000 4.148230 
# 
# 
# High freq. dielectric constant tensor:
#      x y z
#    x 2.040650 0.000000 -0.013780 
#    y 0.000000 2.035100 0.000000 
#    z -0.013780 0.000000 2.008810 
# 
# From -- ./inp_files/6812.got.cif
#   From: 2010.06.25/outbox.cif.g09.slc.cpg/sg15_4_cif.got.tgz:6812.got - 2010.06.28 07:06:18.
