data_PCOD8150005
_publ_section_title
;
Structure prediction by ZEFSAII (Michael W. Deem and Ramdas Pophale) SiO2 
 PCOD8150005
Probable space group: C 2/C
;
_chemical_formula_sum "Si O2"
_cell_formula_units_Z 40
_cell_length_a 19.549714
_cell_length_b 4.984646
_cell_length_c 18.231789
_cell_angle_alpha 90.000000
_cell_angle_beta 107.542291
_cell_angle_gamma 90.000000
_cell_volume 1694.034749
_symmetry_space_group_name_H-M "C 2/C"
_symmetry_group_IT_number 15
_symmetry_cell_setting 'monoclinic'
loop_
_space_group_symop_operation_xyz
x,y,z
-x,y,1/2-z
-x,-y,-z
x,-y,1/2+z
1/2+x,1/2+y,z
1/2-x,1/2+y,1/2-z
1/2-x,1/2-y,-z
1/2+x,1/2-y,1/2+z
loop_
_atom_site_type_symbol
_atom_site_label
_atom_site_fract_x
_atom_site_fract_y
_atom_site_fract_z
Si Si1 0.825982 0.683514 0.636525
Si Si2 0.105114 0.524570 0.480402
Si Si3 0.771628 0.678991 0.887189
Si Si4 0.042859 0.248788 0.600600
Si Si5 0.389279 0.228321 0.809387
O O1 0.875444 0.668685 0.580838
O O2 0.792126 0.390749 0.636392
O O3 0.876320 0.781544 0.719649
O O4 0.760868 0.887423 0.607923
O O5 0.171396 0.714339 0.527762
O O6 0.084001 0.324041 0.539229
O O7 0.042226 0.733555 0.439895
O O8 0.811733 0.693801 0.822144
O O9 0.065467 0.455979 0.671069
O O10 0.064103 0.954418 0.634532
#
# Coordination Sequence:
#
# PCOD8150005 Si02
#       5
#     8   8   8   8   8
#     4  12  24  40  66  99 133 171 219 277 332 399
#     4  10  24  43  68  98 131 174 225 275 330 393
#     4  11  23  40  65  97 134 171 215 272 337 400
#     4  10  24  44  67  92 131 177 221 271 330 399
#     4  11  23  43  66  94 132 177 219 269 336 400
#
# _framework density 23.612268
#
# number of rings (size 3 to 8) (size 9 to 14) (size 15 to 20)
#    0.000    1.200    0.000    6.000    0.000   14.400 
#    0.000    2.000    0.000    0.000    0.000    0.000 
#    0.000    0.000    0.000    0.000    0.000    0.000 
#
# Total GULP energy -248080.280912 kJ/mol
# GULP energy per Si atom -12404.014046 kJ/mol
# Density = 2.355853 g / cm^3
# Si number density = 23.612268 Si / 1000 Ang^3
#
#
#
# Elastic Constant Matrix: (Units=GPa)
#
#
# Indices 1 2 3 4 5 6 
#
# 1 68.0192 13.8460 71.4317 -0.0001 10.8838 0.0000
# 2 13.8460 71.6990 22.4237 -0.0001 -4.4178 0.0002
# 3 71.4317 22.4237 136.6187 0.0000 2.7356 0.0001
# 4 -0.0001 -0.0001 0.0000 27.7919 0.0001 10.2228
# 5 10.8838 -4.4178 2.7356 0.0001 26.4978 0.0000
# 6 0.0000 0.0002 0.0001 10.2228 0.0000 30.1927
#
#
#
# Elastic Compliance Matrix: (Units=1/GPa)
#
#
# Indices 1 2 3 4 5 6 
#
# 1 0.036943 -0.002125 -0.018695 0.000000 -0.013598 0.000000
# 2 -0.002125 0.015020 -0.001425 0.000000 0.003524 0.000000
# 3 -0.018695 -0.001425 0.017215 0.000000 0.005664 0.000000
# 4 0.000000 0.000000 0.000000 0.041101 0.000000 -0.013916
# 5 -0.013598 0.003524 0.005664 0.000000 0.043327 0.000000
# 6 0.000000 0.000000 0.000000 -0.013916 0.000000 0.037832
#
#
# Mechanical properties :
#
#
# Convention : Reuss Voigt Hill
#
# Bulk Modulus (GPa) = 40.50459 54.63775 47.57117
# Shear Modulus (GPa) = 20.47868 28.13884 24.30876
#
# Velocity S-wave (km/s) = 2.94817 3.45585 3.21206
# Velocity P-wave (km/s) = 5.36472 6.25409 5.82640
#
# Compressibility (1/GPa) = 0.02468856
#
# Stress axis : x y z
#
# Youngs Moduli (GPa) = 27.06893 66.57645 58.09022
#
# Poissons Ratio (x) = 0.14150 1.08597
# Poissons Ratio (y) = 0.05753 0.08276
# Poissons Ratio (z) = 0.50604 0.09485
#
# Static dielectric constant tensor:
#      x y z
#    x 4.348630 0.000000 0.050970 
#    y 0.000000 4.016970 0.000000 
#    z 0.050970 0.000000 4.340810 
# 
# 
# High freq. dielectric constant tensor:
#      x y z
#    x 1.936420 0.000000 0.009740 
#    y 0.000000 1.931310 0.000000 
#    z 0.009740 0.000000 1.943380 
# 
# From -- ./inp_files/212736.got.cif
#   From: 2010.06.25/outbox.cif.g09.slc.cpg/sg15_107_cif.got.tgz:212736.got - 2010.06.28 07:06:18.
