data_PCOD8150305
_publ_section_title
;
Structure prediction by ZEFSAII (Michael W. Deem and Ramdas Pophale) SiO2 
 PCOD8150305
Probable space group: C 2/C
;
_chemical_formula_sum "Si O2"
_cell_formula_units_Z 32
_cell_length_a 13.041170
_cell_length_b 5.341423
_cell_length_c 17.539494
_cell_angle_alpha 90.000000
_cell_angle_beta 80.082475
_cell_angle_gamma 90.000000
_cell_volume 1203.515851
_symmetry_space_group_name_H-M "C 2/C"
_symmetry_group_IT_number 15
_symmetry_cell_setting 'monoclinic'
loop_
_space_group_symop_operation_xyz
x,y,z
-x,y,1/2-z
-x,-y,-z
x,-y,1/2+z
1/2+x,1/2+y,z
1/2-x,1/2+y,1/2-z
1/2-x,1/2-y,-z
1/2+x,1/2-y,1/2+z
loop_
_atom_site_type_symbol
_atom_site_label
_atom_site_fract_x
_atom_site_fract_y
_atom_site_fract_z
Si Si1 0.951762 0.797517 0.561129
Si Si2 0.164770 0.536837 0.531807
Si Si3 0.654193 0.093579 0.197858
Si Si4 0.371855 0.407683 0.733108
O O1 0.849994 0.662225 0.535310
O O2 0.046592 0.613858 0.566707
O O3 0.916030 0.929856 0.642549
O O4 0.000000 0.000000 0.500000
O O5 0.250000 0.750000 0.500000
O O6 0.199803 0.407306 0.606040
O O7 0.588833 0.841086 0.226593
O O8 0.747166 0.098725 0.247604
O O9 0.590128 0.350569 0.222243
#
# Coordination Sequence:
#
# PCOD8150305 Si02
#       4
#     8   8   8   8
#     4  11  27  47  74 112 151 201 264 325 387 485
#     4  11  27  47  79 111 152 207 260 325 400 478
#     4  10  24  45  74 109 145 200 246 316 389 459
#     4  10  24  45  74 105 151 192 253 314 384 468
#
# _framework density 26.588766
#
# number of rings (size 3 to 8) (size 9 to 14) (size 15 to 20)
#    0.000    1.500    0.000    1.500   21.000    3.000 
#    0.000    0.000    0.000    0.000    0.000    0.000 
#    0.000    0.000    0.000    0.000    0.000    0.000 
#
# Total GULP energy -198265.528989 kJ/mol
# GULP energy per Si atom -12391.595562 kJ/mol
# Density = 2.652825 g / cm^3
# Si number density = 26.588766 Si / 1000 Ang^3
#
#
#
# Elastic Constant Matrix: (Units=GPa)
#
#
# Indices 1 2 3 4 5 6 
#
# 1 94.4122 19.1949 25.0529 0.0000 12.4449 0.0000
# 2 19.1949 239.6414 100.6276 0.0000 5.2601 0.0000
# 3 25.0529 100.6276 187.8318 0.0000 -1.9145 0.0000
# 4 0.0000 0.0000 0.0000 60.6268 0.0000 10.3788
# 5 12.4449 5.2601 -1.9145 0.0000 29.8543 0.0000
# 6 0.0000 0.0000 0.0000 10.3788 0.0000 -14.2940
#
#
#
# Elastic Compliance Matrix: (Units=1/GPa)
#
#
# Indices 1 2 3 4 5 6 
#
# 1 0.011681 -0.000196 -0.001503 0.000000 -0.004931 0.000000
# 2 -0.000196 0.005426 -0.002892 0.000000 -0.001060 0.000000
# 3 -0.001503 -0.002892 0.007090 0.000000 0.001591 0.000000
# 4 0.000000 0.000000 0.000000 0.014671 0.000000 0.010652
# 5 -0.004931 -0.001060 0.001591 0.000000 0.035840 0.000000
# 6 0.000000 0.000000 0.000000 0.010652 0.000000 -0.062225
#
#
# Mechanical properties :
#
#
# Convention : Reuss Voigt Hill
#
# Bulk Modulus (GPa) = 66.60164 90.18182 78.39173
# Shear Modulus (GPa) = 187.48146 40.37141 113.92643
#
# Velocity S-wave (km/s) = 8.40622 3.90085 6.55291
# Velocity P-wave (km/s) = 10.92349 7.36748 9.31671
#
# Compressibility (1/GPa) = 0.01501465
#
# Stress axis : x y z
#
# Youngs Moduli (GPa) = 85.61224 184.29564 141.04959
#
# Poissons Ratio (x) = 0.03616 0.21201
# Poissons Ratio (y) = 0.01680 0.40785
# Poissons Ratio (z) = 0.12868 0.53290
#
# Static dielectric constant tensor:
#      x y z
#    x 3.859590 0.000000 0.643470 
#    y 0.000000 5.251740 0.000000 
#    z 0.643470 0.000000 4.306710 
# 
# 
# High freq. dielectric constant tensor:
#      x y z
#    x 2.086580 0.000000 -0.003270 
#    y 0.000000 2.072490 0.000000 
#    z -0.003270 0.000000 2.066200 
# 
# From -- ./inp_files/241388.got.cif
#   From: 2010.06.25/outbox.cif.g09.slc.cpg/sg15_121_cif.got.tgz:241388.got - 2010.06.28 07:06:18.
