data_PCOD8150702
_publ_section_title
;
Structure prediction by ZEFSAII (Michael W. Deem and Ramdas Pophale) SiO2 
 PCOD8150702
Probable space group: C 2/C
;
_chemical_formula_sum "Si O2"
_cell_formula_units_Z 52
_cell_length_a 12.197415
_cell_length_b 24.082182
_cell_length_c 9.509550
_cell_angle_alpha 90.000000
_cell_angle_beta 63.860676
_cell_angle_gamma 90.000000
_cell_volume 2507.651170
_symmetry_space_group_name_H-M "C 2/C"
_symmetry_group_IT_number 15
_symmetry_cell_setting 'monoclinic'
loop_
_space_group_symop_operation_xyz
x,y,z
-x,y,1/2-z
-x,-y,-z
x,-y,1/2+z
1/2+x,1/2+y,z
1/2-x,1/2+y,1/2-z
1/2-x,1/2-y,-z
1/2+x,1/2-y,1/2+z
loop_
_atom_site_type_symbol
_atom_site_label
_atom_site_fract_x
_atom_site_fract_y
_atom_site_fract_z
Si Si1 0.446848 0.950504 0.438076
Si Si2 0.481285 0.564460 0.036098
Si Si3 0.715704 0.214735 0.386830
Si Si4 0.500000 0.637211 0.750000
Si Si5 0.742688 0.707835 0.628193
Si Si6 0.487018 0.156469 0.424601
Si Si7 0.808449 0.909106 0.873398
O O1 0.500000 0.950425 0.250000
O O2 0.475027 0.896346 0.509684
O O3 0.299426 0.950500 0.514205
O O4 0.500000 0.000000 0.500000
O O5 0.592388 0.590641 0.059746
O O6 0.357879 0.569068 0.196436
O O7 0.500000 0.500000 0.000000
O O8 0.467566 0.597862 0.899200
O O9 0.750000 0.250000 0.500000
O O10 0.778385 0.252904 0.235985
O O11 0.571367 0.208057 0.429532
O O12 0.772218 0.154159 0.367578
O O13 0.614302 0.676672 0.719162
O O14 0.750000 0.750000 0.500000
O O15 0.846933 0.662695 0.546062
O O16 0.500000 0.147476 0.250000
#
# Coordination Sequence:
#
# PCOD8150702 Si02
#       7
#     8   8   8   4   8   8   8
#     4  11  27  46  73 103 134 181 229 287 355 421
#     4  11  25  45  69 100 136 182 228 292 344 413
#     4  11  24  43  67  99 139 185 226 286 350 419
#     4  12  26  40  72 102 134 182 240 286 344 422
#     4  12  24  42  68 100 139 181 232 286 353 412
#     4  11  25  44  67 101 140 177 232 290 346 421
#     4  10  25  47  67  98 141 175 232 280 347 416
#
# _framework density 20.736536999999998
#
# number of rings (size 3 to 8) (size 9 to 14) (size 15 to 20)
#    0.000    0.923    1.538    4.154   10.769    3.692 
#    0.000    0.000    0.000    0.000    0.000    0.000 
#    0.000    0.000    0.000    0.000    0.000    0.000 
#
# Total GULP energy -322279.027789 kJ/mol
# GULP energy per Si atom -12395.347223 kJ/mol
# Density = 2.068934 g / cm^3
# Si number density = 20.736537 Si / 1000 Ang^3
#
#
#
# Elastic Constant Matrix: (Units=GPa)
#
#
# Indices 1 2 3 4 5 6 
#
# 1 95.5731 29.7720 67.2006 0.0000 -2.5001 0.0000
# 2 29.7720 108.7338 61.4907 0.0000 5.4958 0.0000
# 3 67.2006 61.4907 179.9174 0.0000 9.4271 0.0000
# 4 0.0000 0.0000 0.0000 37.8980 0.0000 9.2241
# 5 -2.5001 5.4958 9.4271 0.0000 49.7657 0.0000
# 6 0.0000 0.0000 0.0000 9.2241 0.0000 33.7582
#
#
#
# Elastic Compliance Matrix: (Units=1/GPa)
#
#
# Indices 1 2 3 4 5 6 
#
# 1 0.014458 -0.001169 -0.005096 0.000000 0.001821 0.000000
# 2 -0.001169 0.011508 -0.003461 0.000000 -0.000674 0.000000
# 3 -0.005096 -0.003461 0.008725 0.000000 -0.001526 0.000000
# 4 0.000000 0.000000 0.000000 0.028266 0.000000 -0.007724
# 5 0.001821 -0.000674 -0.001526 0.000000 0.020549 0.000000
# 6 0.000000 0.000000 0.000000 -0.007724 0.000000 0.031733
#
#
# Mechanical properties :
#
#
# Convention : Reuss Voigt Hill
#
# Bulk Modulus (GPa) = 65.62375 77.90566 71.76471
# Shear Modulus (GPa) = 35.77260 39.33511 37.55386
#
# Velocity S-wave (km/s) = 4.15794 4.36007 4.26020
# Velocity P-wave (km/s) = 7.40043 7.93711 7.67347
#
# Compressibility (1/GPa) = 0.01523839
#
# Stress axis : x y z
#
# Youngs Moduli (GPa) = 69.16470 86.89374 114.61897
#
# Poissons Ratio (x) = 0.10156 0.58412
# Poissons Ratio (y) = 0.08084 0.39674
# Poissons Ratio (z) = 0.35248 0.30077
#
# Static dielectric constant tensor:
#      x y z
#    x 4.768260 0.000000 -0.346690 
#    y 0.000000 3.671230 0.000000 
#    z -0.346690 0.000000 4.243310 
# 
# 
# High freq. dielectric constant tensor:
#      x y z
#    x 1.825940 0.000000 0.005350 
#    y 0.000000 1.822790 0.000000 
#    z 0.005350 0.000000 1.829030 
# 
# From -- ./inp_files/34077.got.cif
#   From: 2010.06.25/outbox.cif.g09.slc.cpg/sg15_18_cif.got.tgz:34077.got - 2010.06.28 07:06:18.
