data_PCOD8150066
_publ_section_title
;
Structure prediction by ZEFSAII (Michael W. Deem and Ramdas Pophale) SiO2 
 PCOD8150066
Probable space group: C 2/C
;
_chemical_formula_sum "Si O2"
_cell_formula_units_Z 36
_cell_length_a 17.061234
_cell_length_b 7.482800
_cell_length_c 12.999889
_cell_angle_alpha 90.000000
_cell_angle_beta 96.625064
_cell_angle_gamma 90.000000
_cell_volume 1648.558817
_symmetry_space_group_name_H-M "C 2/C"
_symmetry_group_IT_number 15
_symmetry_cell_setting 'monoclinic'
loop_
_space_group_symop_operation_xyz
x,y,z
-x,y,1/2-z
-x,-y,-z
x,-y,1/2+z
1/2+x,1/2+y,z
1/2-x,1/2+y,1/2-z
1/2-x,1/2-y,-z
1/2+x,1/2-y,1/2+z
loop_
_atom_site_type_symbol
_atom_site_label
_atom_site_fract_x
_atom_site_fract_y
_atom_site_fract_z
Si Si1 0.672993 0.007508 0.270357
Si Si2 0.500000 0.335349 0.750000
Si Si3 0.553495 0.111312 0.583932
Si Si4 0.835159 0.213479 0.554456
Si Si5 0.833102 0.895943 0.688461
O O1 0.615139 0.005689 0.162043
O O2 0.671215 0.817105 0.328759
O O3 0.645378 0.162871 0.343477
O O4 0.763367 0.039173 0.251679
O O5 0.491629 0.210788 0.648086
O O6 0.419001 0.446679 0.750926
O O7 0.601943 0.255821 0.525418
O O8 0.500000 0.000000 0.500000
O O9 0.750000 0.250000 0.500000
O O10 0.833051 0.003307 0.581718
#
# Coordination Sequence:
#
# PCOD8150066 Si02
#       5
#     8   4   8   8   8
#     4  11  23  45  70 100 139 178 228 282 343 401
#     4  10  24  44  64 100 140 172 228 284 338 398
#     4  11  23  44  68 101 138 180 229 281 338 411
#     4  12  24  44  71 102 134 181 233 273 343 417
#     4  11  22  43  69  98 135 179 220 285 332 405
#
# _framework density 21.837256
#
# number of rings (size 3 to 8) (size 9 to 14) (size 15 to 20)
#    0.000    0.889    4.444    4.000    0.000    3.556 
#    4.000    0.000    0.000    0.000    0.000    0.000 
#    0.000    0.000    0.000    0.000    0.000    0.000 
#
# Total GULP energy -223092.181822 kJ/mol
# GULP energy per Si atom -12394.010101 kJ/mol
# Density = 2.178755 g / cm^3
# Si number density = 21.837256 Si / 1000 Ang^3
#
#
#
# Elastic Constant Matrix: (Units=GPa)
#
#
# Indices 1 2 3 4 5 6 
#
# 1 142.3540 31.7198 46.8448 0.0000 3.9439 0.0000
# 2 31.7198 93.6855 50.5007 0.0000 7.9658 0.0000
# 3 46.8448 50.5007 133.9540 0.0000 -0.1549 0.0000
# 4 0.0000 0.0000 0.0000 38.7248 0.0000 -8.7107
# 5 3.9439 7.9658 -0.1549 0.0000 49.2207 0.0000
# 6 0.0000 0.0000 0.0000 -8.7107 0.0000 33.3134
#
#
#
# Elastic Compliance Matrix: (Units=1/GPa)
#
#
# Indices 1 2 3 4 5 6 
#
# 1 0.008117 -0.001484 -0.002280 0.000000 -0.000417 0.000000
# 2 -0.001484 0.013907 -0.004726 0.000000 -0.002147 0.000000
# 3 -0.002280 -0.004726 0.010045 0.000000 0.000979 0.000000
# 4 0.000000 0.000000 0.000000 0.027437 0.000000 0.007174
# 5 -0.000417 -0.002147 0.000979 0.000000 0.020701 0.000000
# 6 0.000000 0.000000 0.000000 0.007174 0.000000 0.031894
#
#
# Mechanical properties :
#
#
# Convention : Reuss Voigt Hill
#
# Bulk Modulus (GPa) = 66.27205 69.79157 68.03181
# Shear Modulus (GPa) = 37.28272 40.31365 38.79818
#
# Velocity S-wave (km/s) = 4.13643 4.30128 4.21966
# Velocity P-wave (km/s) = 7.29571 7.52976 7.41366
#
# Compressibility (1/GPa) = 0.01508932
#
# Stress axis : x y z
#
# Youngs Moduli (GPa) = 123.19613 71.90786 99.54771
#
# Poissons Ratio (x) = 0.10671 0.22693
# Poissons Ratio (y) = 0.18282 0.47050
# Poissons Ratio (z) = 0.28085 0.33986
#
# Static dielectric constant tensor:
#      x y z
#    x 4.337190 0.000000 -0.138880 
#    y 0.000000 4.055890 0.000000 
#    z -0.138880 0.000000 4.119540 
# 
# 
# High freq. dielectric constant tensor:
#      x y z
#    x 1.888240 0.000000 -0.006580 
#    y 0.000000 1.842330 0.000000 
#    z -0.006580 0.000000 1.854020 
# 
# From -- ./inp_files/102429.got.cif
#   From: 2010.06.25/outbox.cif.g09.slc.cpg/sg15_52_cif.got.tgz:102429.got - 2010.06.28 07:06:18.
