data_PCOD8150684
_publ_section_title
;
Structure prediction by ZEFSAII (Michael W. Deem and Ramdas Pophale) SiO2 
 PCOD8150684
Probable space group: C 2/C
;
_chemical_formula_sum "Si O2"
_cell_formula_units_Z 56
_cell_length_a 31.257667
_cell_length_b 11.707988
_cell_length_c 8.686965
_cell_angle_alpha 90.000000
_cell_angle_beta 124.320013
_cell_angle_gamma 90.000000
_cell_volume 2625.639561
_symmetry_space_group_name_H-M "C 2/C"
_symmetry_group_IT_number 15
_symmetry_cell_setting 'monoclinic'
loop_
_space_group_symop_operation_xyz
x,y,z
-x,y,1/2-z
-x,-y,-z
x,-y,1/2+z
1/2+x,1/2+y,z
1/2-x,1/2+y,1/2-z
1/2-x,1/2-y,-z
1/2+x,1/2-y,1/2+z
loop_
_atom_site_type_symbol
_atom_site_label
_atom_site_fract_x
_atom_site_fract_y
_atom_site_fract_z
Si Si1 0.006155 0.876076 0.940987
Si Si2 0.673329 0.853494 0.606303
Si Si3 0.867948 0.910245 0.001729
Si Si4 0.649303 0.088712 0.704527
Si Si5 0.119858 0.138972 0.641497
Si Si6 0.222531 0.225269 0.284884
Si Si7 0.448251 0.232412 0.053252
O O1 0.000000 0.887989 0.750000
O O2 0.063395 0.830362 0.091131
O O3 0.965076 0.784602 0.922923
O O4 0.000000 0.000000 0.000000
O O5 0.659792 0.886903 0.404726
O O6 0.640609 0.747746 0.596249
O O7 0.733389 0.813638 0.746217
O O8 0.659484 0.956728 0.691941
O O9 0.848654 0.898480 0.140588
O O10 0.918597 0.833150 0.081024
O O11 0.820503 0.874352 0.793591
O O12 0.882089 0.039600 0.990244
O O13 0.689633 0.159993 0.677464
O O14 0.589859 0.123753 0.546095
O O15 0.250000 0.250000 0.500000
O O16 0.500000 0.194475 0.250000
#
# Coordination Sequence:
#
# PCOD8150684 Si02
#       7
#     8   8   8   8   8   8   8
#     4  12  22  37  62  95 136 176 222 277 344 404
#     4  11  26  46  71  98 140 182 231 287 342 414
#     4  11  25  40  69 102 140 174 232 283 345 421
#     4  10  25  46  70  98 139 180 235 282 342 418
#     4  12  26  40  67 105 138 175 230 281 353 411
#     4   9  23  45  70  96 133 181 223 278 351 400
#     4  11  22  44  67  95 136 187 226 289 342 404
#
# _framework density 21.328137000000002
#
# number of rings (size 3 to 8) (size 9 to 14) (size 15 to 20)
#    0.000    1.143    2.857    2.143   12.000    1.714 
#    0.000    3.571    0.000    0.000    0.000    0.000 
#    0.000    0.000    0.000    0.000    0.000    0.000 
#
# Total GULP energy -347072.181717 kJ/mol
# GULP energy per Si atom -12395.435061 kJ/mol
# Density = 2.127959 g / cm^3
# Si number density = 21.328137 Si / 1000 Ang^3
#
#
#
# Elastic Constant Matrix: (Units=GPa)
#
#
# Indices 1 2 3 4 5 6 
#
# 1 128.4080 58.4101 51.3293 0.0000 9.7871 0.0000
# 2 58.4101 102.7558 31.8255 0.0000 -2.5346 0.0000
# 3 51.3293 31.8255 110.9457 0.0000 -1.5735 0.0000
# 4 0.0000 0.0000 0.0000 25.1092 0.0000 -8.4180
# 5 9.7871 -2.5346 -1.5735 0.0000 47.7985 0.0000
# 6 0.0000 0.0000 0.0000 -8.4180 0.0000 42.9595
#
#
#
# Elastic Compliance Matrix: (Units=1/GPa)
#
#
# Indices 1 2 3 4 5 6 
#
# 1 0.012268 -0.005790 -0.004057 0.000000 -0.002953 0.000000
# 2 -0.005790 0.013424 -0.001146 0.000000 0.001860 0.000000
# 3 -0.004057 -0.001146 0.011235 0.000000 0.001140 0.000000
# 4 0.000000 0.000000 0.000000 0.042626 0.000000 0.008353
# 5 -0.002953 0.001860 0.001140 0.000000 0.021662 0.000000
# 6 0.000000 0.000000 0.000000 0.008353 0.000000 0.024914
#
#
# Mechanical properties :
#
#
# Convention : Reuss Voigt Hill
#
# Bulk Modulus (GPa) = 66.92473 69.47102 68.19788
# Shear Modulus (GPa) = 32.65942 36.54309 34.60125
#
# Velocity S-wave (km/s) = 3.91741 4.14378 4.03218
# Velocity P-wave (km/s) = 7.20473 7.45237 7.32960
#
# Compressibility (1/GPa) = 0.01494216
#
# Stress axis : x y z
#
# Youngs Moduli (GPa) = 81.51204 74.49505 89.00675
#
# Poissons Ratio (x) = 0.43132 0.36109
# Poissons Ratio (y) = 0.47195 0.10196
# Poissons Ratio (z) = 0.33068 0.08534
#
# Static dielectric constant tensor:
#      x y z
#    x 4.354910 0.000000 0.168340 
#    y 0.000000 3.706210 0.000000 
#    z 0.168340 0.000000 3.851660 
# 
# 
# High freq. dielectric constant tensor:
#      x y z
#    x 1.847840 0.000000 0.006070 
#    y 0.000000 1.820830 0.000000 
#    z 0.006070 0.000000 1.843000 
# 
# From -- ./inp_files/69465.got.cif
#   From: 2010.06.25/outbox.cif.g09.slc.cpg/sg15_35_cif.got.tgz:69465.got - 2010.06.28 07:06:18.
