data_PCOD8150697
_publ_section_title
;
Structure prediction by ZEFSAII (Michael W. Deem and Ramdas Pophale) SiO2 
 PCOD8150697
Probable space group: C 2/C
;
_chemical_formula_sum "Si O2"
_cell_formula_units_Z 36
_cell_length_a 13.162405
_cell_length_b 4.987724
_cell_length_c 22.988294
_cell_angle_alpha 90.000000
_cell_angle_beta 99.768940
_cell_angle_gamma 90.000000
_cell_volume 1487.308449
_symmetry_space_group_name_H-M "C 2/C"
_symmetry_group_IT_number 15
_symmetry_cell_setting 'monoclinic'
loop_
_space_group_symop_operation_xyz
x,y,z
-x,y,1/2-z
-x,-y,-z
x,-y,1/2+z
1/2+x,1/2+y,z
1/2-x,1/2+y,1/2-z
1/2-x,1/2-y,-z
1/2+x,1/2-y,1/2+z
loop_
_atom_site_type_symbol
_atom_site_label
_atom_site_fract_x
_atom_site_fract_y
_atom_site_fract_z
Si Si1 0.332432 0.983512 0.568338
Si Si2 0.319188 0.340774 0.261119
Si Si3 0.801645 0.526440 0.437408
Si Si4 0.000000 0.868292 0.750000
Si Si5 0.951759 0.492245 0.851552
O O1 0.254018 0.199233 0.589345
O O2 0.433796 0.945160 0.616141
O O3 0.286363 0.689652 0.561992
O O4 0.358647 0.078607 0.504811
O O5 0.236097 0.572713 0.268281
O O6 0.401050 0.449256 0.220344
O O7 0.393388 0.276513 0.323423
O O8 0.882266 0.409333 0.398596
O O9 0.045401 0.699694 0.701166
#
# Coordination Sequence:
#
# PCOD8150697 Si02
#       5
#     8   8   8   4   8
#     4  10  25  48  73 110 141 180 243 296 366 422
#     4  12  29  49  69 103 149 193 246 299 356 428
#     4  10  25  46  75 107 145 183 231 306 358 431
#     4  12  30  48  70 112 146 196 246 302 352 440
#     4  12  28  46  79 104 144 196 241 293 361 432
#
# _framework density 24.204796000000002
#
# number of rings (size 3 to 8) (size 9 to 14) (size 15 to 20)
#    0.000    0.889    2.222    1.333    9.333    1.778 
#    0.000    6.667    0.000    0.000    0.000    0.000 
#    0.000    0.000    0.000    0.000    0.000    0.000 
#
# Total GULP energy -223101.976012 kJ/mol
# GULP energy per Si atom -12394.554223 kJ/mol
# Density = 2.414970 g / cm^3
# Si number density = 24.204796 Si / 1000 Ang^3
#
#
#
# Elastic Constant Matrix: (Units=GPa)
#
#
# Indices 1 2 3 4 5 6 
#
# 1 82.4872 35.3454 33.2304 0.0000 19.1573 0.0000
# 2 35.3454 128.7572 28.7970 0.0000 15.6091 0.0000
# 3 33.2304 28.7970 79.8206 0.0000 11.1383 0.0000
# 4 0.0000 0.0000 0.0000 17.7066 0.0000 3.5700
# 5 19.1573 15.6091 11.1383 0.0000 53.7573 0.0000
# 6 0.0000 0.0000 0.0000 3.5700 0.0000 29.3370
#
#
#
# Elastic Compliance Matrix: (Units=1/GPa)
#
#
# Indices 1 2 3 4 5 6 
#
# 1 0.016363 -0.002845 -0.005239 0.000000 -0.003920 0.000000
# 2 -0.002845 0.009131 -0.001937 0.000000 -0.001236 0.000000
# 3 -0.005239 -0.001937 0.015518 0.000000 -0.000786 0.000000
# 4 0.000000 0.000000 0.000000 0.057896 0.000000 -0.007045
# 5 -0.003920 -0.001236 -0.000786 0.000000 0.020521 0.000000
# 6 0.000000 0.000000 0.000000 -0.007045 0.000000 0.034944
#
#
# Mechanical properties :
#
#
# Convention : Reuss Voigt Hill
#
# Bulk Modulus (GPa) = 47.68880 53.97895 50.83387
# Shear Modulus (GPa) = 27.56279 33.07299 30.31789
#
# Velocity S-wave (km/s) = 3.37817 3.70047 3.54299
# Velocity P-wave (km/s) = 5.91279 6.37239 6.14688
#
# Compressibility (1/GPa) = 0.02096928
#
# Stress axis : x y z
#
# Youngs Moduli (GPa) = 61.11367 109.52142 64.44297
#
# Poissons Ratio (x) = 0.31159 0.33760
# Poissons Ratio (y) = 0.17387 0.12484
# Poissons Ratio (z) = 0.32016 0.21216
#
# Static dielectric constant tensor:
#      x y z
#    x 4.565820 0.000000 0.150000 
#    y 0.000000 4.420300 0.000000 
#    z 0.150000 0.000000 4.569270 
# 
# 
# High freq. dielectric constant tensor:
#      x y z
#    x 1.973390 0.000000 0.005260 
#    y 0.000000 1.969710 0.000000 
#    z 0.005260 0.000000 1.950640 
# 
# From -- ./inp_files/267119.got.cif
#   From: 2010.06.25/outbox.cif.g09.slc.cpg/sg15_134_cif.got.tgz:267119.got - 2010.06.28 07:06:18.
