data_PCOD8150775
_publ_section_title
;
Structure prediction by ZEFSAII (Michael W. Deem and Ramdas Pophale) SiO2 
 PCOD8150775
Probable space group: C 2/C
;
_chemical_formula_sum "Si O2"
_cell_formula_units_Z 40
_cell_length_a 26.317555
_cell_length_b 7.925961
_cell_length_c 19.979279
_cell_angle_alpha 90.000000
_cell_angle_beta 152.821566
_cell_angle_gamma 90.000000
_cell_volume 1903.567639
_symmetry_space_group_name_H-M "C 2/C"
_symmetry_group_IT_number 15
_symmetry_cell_setting 'monoclinic'
loop_
_space_group_symop_operation_xyz
x,y,z
-x,y,1/2-z
-x,-y,-z
x,-y,1/2+z
1/2+x,1/2+y,z
1/2-x,1/2+y,1/2-z
1/2-x,1/2-y,-z
1/2+x,1/2-y,1/2+z
loop_
_atom_site_type_symbol
_atom_site_label
_atom_site_fract_x
_atom_site_fract_y
_atom_site_fract_z
Si Si1 0.293167 0.328840 0.862080
Si Si2 0.079494 0.593919 0.897598
Si Si3 0.014848 0.017252 0.339782
Si Si4 0.778899 0.878329 0.096003
Si Si5 0.900252 0.526451 0.932712
O O1 0.231526 0.224880 0.847649
O O2 0.203290 0.416397 0.710661
O O3 0.361252 0.218909 0.888200
O O4 0.378959 0.456053 0.995584
O O5 0.045138 0.788007 0.864062
O O6 0.000000 0.505635 0.750000
O O7 0.200433 0.544756 0.009450
O O8 0.057484 0.513533 0.943576
O O9 0.000000 0.929854 0.250000
O O10 0.900109 0.965412 0.240784
O O11 0.750000 0.750000 0.000000
O O12 0.000000 0.500000 0.000000
#
# Coordination Sequence:
#
# PCOD8150775 Si02
#       5
#     8   8   8   8   8
#     4  11  24  42  68  99 139 180 236 281 348 421
#     4  10  26  43  68 100 139 176 237 278 350 412
#     4  11  23  42  66 100 136 179 228 290 342 413
#     4  11  24  42  72 100 137 181 231 289 347 405
#     4  11  25  43  67  98 136 184 223 291 348 410
#
# _framework density 21.013173999999999
#
# number of rings (size 3 to 8) (size 9 to 14) (size 15 to 20)
#    0.000    1.200    2.000    2.400    8.400    8.000 
#    0.000    7.000    0.000    0.000    0.000    0.000 
#    0.000    0.000    0.000    0.000    0.000    0.000 
#
# Total GULP energy -247761.164092 kJ/mol
# GULP energy per Si atom -12388.058205 kJ/mol
# Density = 2.096535 g / cm^3
# Si number density = 21.013174 Si / 1000 Ang^3
#
#
#
# Elastic Constant Matrix: (Units=GPa)
#
#
# Indices 1 2 3 4 5 6 
#
# 1 116.3716 25.3115 54.5111 0.0000 6.3456 0.0000
# 2 25.3115 83.0911 39.6303 0.0000 5.8850 0.0000
# 3 54.5111 39.6303 141.8511 0.0000 -6.5837 0.0000
# 4 0.0000 0.0000 0.0000 0.3297 0.0000 28.7346
# 5 6.3456 5.8850 -6.5837 0.0000 39.8155 0.0000
# 6 0.0000 0.0000 0.0000 28.7346 0.0000 -14.4083
#
#
#
# Elastic Compliance Matrix: (Units=1/GPa)
#
#
# Indices 1 2 3 4 5 6 
#
# 1 0.010818 -0.001281 -0.003900 0.000000 -0.002180 0.000000
# 2 -0.001281 0.014334 -0.003629 0.000000 -0.002515 0.000000
# 3 -0.003900 -0.003629 0.009691 0.000000 0.002760 0.000000
# 4 0.000000 0.000000 0.000000 0.017350 0.000000 0.034602
# 5 -0.002180 -0.002515 0.002760 0.000000 0.026291 0.000000
# 6 0.000000 0.000000 0.000000 0.034602 0.000000 -0.000397
#
#
# Mechanical properties :
#
#
# Convention : Reuss Voigt Hill
#
# Bulk Modulus (GPa) = 58.06609 64.46884 61.26747
# Shear Modulus (GPa) = 49.28614 19.93810 34.61212
#
# Velocity S-wave (km/s) = 4.84828 3.08366 4.06293
# Velocity P-wave (km/s) = 7.68337 6.58980 7.15750
#
# Compressibility (1/GPa) = 0.01722175
#
# Stress axis : x y z
#
# Youngs Moduli (GPa) = 92.44188 69.76329 103.19293
#
# Poissons Ratio (x) = 0.08934 0.40250
# Poissons Ratio (y) = 0.11838 0.37452
# Poissons Ratio (z) = 0.36056 0.25319
#
# Static dielectric constant tensor:
#      x y z
#    x 3.789380 0.000000 0.220630 
#    y 0.000000 3.968860 0.000000 
#    z 0.220630 0.000000 3.720270 
# 
# 
# High freq. dielectric constant tensor:
#      x y z
#    x 1.831860 0.000000 -0.005320 
#    y 0.000000 1.827030 0.000000 
#    z -0.005320 0.000000 1.844260 
# 
# From -- ./inp_files/102766.got.cif
#   From: 2010.06.25/outbox.cif.g09.slc.cpg/sg15_52_cif.got.tgz:102766.got - 2010.06.28 07:06:18.
