data_PCOD8150800
_publ_section_title
;
Structure prediction by ZEFSAII (Michael W. Deem and Ramdas Pophale) SiO2 
 PCOD8150800
Probable space group: C 2/C
;
_chemical_formula_sum "Si O2"
_cell_formula_units_Z 36
_cell_length_a 16.632298
_cell_length_b 9.958638
_cell_length_c 20.045253
_cell_angle_alpha 90.000000
_cell_angle_beta 152.093730
_cell_angle_gamma 90.000000
_cell_volume 1553.939877
_symmetry_space_group_name_H-M "C 2/C"
_symmetry_group_IT_number 15
_symmetry_cell_setting 'monoclinic'
loop_
_space_group_symop_operation_xyz
x,y,z
-x,y,1/2-z
-x,-y,-z
x,-y,1/2+z
1/2+x,1/2+y,z
1/2-x,1/2+y,1/2-z
1/2-x,1/2-y,-z
1/2+x,1/2-y,1/2+z
loop_
_atom_site_type_symbol
_atom_site_label
_atom_site_fract_x
_atom_site_fract_y
_atom_site_fract_z
Si Si1 0.500000 0.783830 0.750000
Si Si2 0.409099 0.493601 0.364496
Si Si3 0.849487 0.663710 0.519348
Si Si4 0.811289 0.071830 0.525460
Si Si5 0.774263 0.253439 0.213833
O O1 0.330899 0.878697 0.633628
O O2 0.436481 0.692060 0.642004
O O3 0.500000 0.500000 0.500000
O O4 0.553587 0.520326 0.414141
O O5 0.315855 0.349963 0.297851
O O6 0.279649 0.615749 0.259268
O O7 0.750000 0.750000 0.500000
O O8 0.779699 0.510071 0.480163
O O9 0.826666 0.718586 0.427870
O O10 0.051058 0.674088 0.681563
#
# Coordination Sequence:
#
# PCOD8150800 Si02
#       5
#     4   8   8   8   8
#     4  10  26  44  70 106 138 188 232 308 354 436
#     4  12  27  47  70 110 149 192 237 304 369 442
#     4  12  25  46  78 107 135 192 254 304 350 436
#     4  11  25  45  74 101 145 185 247 291 369 428
#     4  12  27  47  77 107 151 192 245 304 373 438
#
# _framework density 23.166919
#
# number of rings (size 3 to 8) (size 9 to 14) (size 15 to 20)
#    0.000    0.444    4.444    2.000    9.333    2.667 
#    0.000    0.000    0.000    0.000    0.000    0.000 
#    0.000    0.000    0.000    0.000    0.000    0.000 
#
# Total GULP energy -222996.294352 kJ/mol
# GULP energy per Si atom -12388.683020 kJ/mol
# Density = 2.311419 g / cm^3
# Si number density = 23.166919 Si / 1000 Ang^3
#
#
#
# Elastic Constant Matrix: (Units=GPa)
#
#
# Indices 1 2 3 4 5 6 
#
# 1 71.0882 27.6839 13.1486 -0.0009 3.0800 -0.0002
# 2 27.6839 134.6346 35.2512 -0.0043 -1.0655 -0.0016
# 3 13.1486 35.2512 120.7142 -0.0035 1.9063 -0.0017
# 4 -0.0009 -0.0043 -0.0035 45.8947 -0.0013 2.4308
# 5 3.0800 -1.0655 1.9063 -0.0013 28.2139 -0.0005
# 6 -0.0002 -0.0016 -0.0017 2.4308 -0.0005 42.6396
#
#
#
# Elastic Compliance Matrix: (Units=1/GPa)
#
#
# Indices 1 2 3 4 5 6 
#
# 1 0.015450 -0.002986 -0.000783 0.000000 -0.001746 0.000000
# 2 -0.002986 0.008625 -0.002206 0.000001 0.000801 0.000000
# 3 -0.000783 -0.002206 0.009023 0.000000 -0.000607 0.000000
# 4 0.000000 0.000001 0.000000 0.021855 0.000001 -0.001246
# 5 -0.001746 0.000801 -0.000607 0.000001 0.035706 0.000000
# 6 0.000000 0.000000 0.000000 -0.001246 0.000000 0.023523
#
#
# Mechanical properties :
#
#
# Convention : Reuss Voigt Hill
#
# Bulk Modulus (GPa) = 47.28514 53.17828 50.23171
# Shear Modulus (GPa) = 37.54234 40.03984 38.79109
#
# Velocity S-wave (km/s) = 4.02993 4.16182 4.09640
# Velocity P-wave (km/s) = 6.48912 6.78959 6.64106
#
# Compressibility (1/GPa) = 0.02114829
#
# Stress axis : x y z
#
# Youngs Moduli (GPa) = 64.72365 115.93638 110.82500
#
# Poissons Ratio (x) = 0.34614 0.08683
# Poissons Ratio (y) = 0.19324 0.24451
# Poissons Ratio (z) = 0.05071 0.25578
#
# Static dielectric constant tensor:
#      x y z
#    x 2.803280 0.000020 -0.265280 
#    y 0.000020 4.187430 0.000010 
#    z -0.265280 0.000010 4.208790 
# 
# 
# High freq. dielectric constant tensor:
#      x y z
#    x 1.893770 0.000000 0.005140 
#    y 0.000000 1.938280 0.000000 
#    z 0.005140 0.000000 1.928290 
# 
# From -- ./inp_files/247737.got.cif
#   From: 2010.06.25/outbox.cif.g09.slc.cpg/sg15_124_cif.got.tgz:247737.got - 2010.06.28 07:06:18.
