data_PCOD8150935
_publ_section_title
;
Structure prediction by ZEFSAII (Michael W. Deem and Ramdas Pophale) SiO2 
 PCOD8150935
Probable space group: C 2/C
;
_chemical_formula_sum "Si O2"
_cell_formula_units_Z 52
_cell_length_a 8.692175
_cell_length_b 11.083973
_cell_length_c 27.099748
_cell_angle_alpha 90.000000
_cell_angle_beta 118.793880
_cell_angle_gamma 90.000000
_cell_volume 2288.077838
_symmetry_space_group_name_H-M "C 2/C"
_symmetry_group_IT_number 15
_symmetry_cell_setting 'monoclinic'
loop_
_space_group_symop_operation_xyz
x,y,z
-x,y,1/2-z
-x,-y,-z
x,-y,1/2+z
1/2+x,1/2+y,z
1/2-x,1/2+y,1/2-z
1/2-x,1/2-y,-z
1/2+x,1/2-y,1/2+z
loop_
_atom_site_type_symbol
_atom_site_label
_atom_site_fract_x
_atom_site_fract_y
_atom_site_fract_z
Si Si1 0.500000 0.497619 0.250000
Si Si2 0.204640 0.572411 0.873119
Si Si3 0.281461 0.615815 0.466349
Si Si4 0.955808 0.268362 0.946618
Si Si5 0.606920 0.411575 0.665176
Si Si6 0.324443 0.861656 0.345957
Si Si7 0.254017 0.001849 0.932639
O O1 0.426914 0.585558 0.281440
O O2 0.654824 0.411859 0.292170
O O3 0.293136 0.486520 0.927653
O O4 0.299067 0.702142 0.892934
O O5 0.246426 0.512177 0.826608
O O6 0.997316 0.584942 0.846578
O O7 0.465384 0.689686 0.495571
O O8 0.257240 0.564856 0.517220
O O9 0.113200 0.703924 0.431510
O O10 0.890943 0.393236 0.959259
O O11 0.676592 0.282468 0.657923
O O12 0.431935 0.445526 0.609478
O O13 0.321455 0.902571 0.402277
#
# Coordination Sequence:
#
# PCOD8150935 Si02
#       7
#     4   8   8   8   8   8   8
#     4  10  28  52  68 100 122 166 220 282 358 400
#     4  12  25  41  67 105 131 180 225 265 325 391
#     4  11  25  38  61 102 147 184 221 263 309 382
#     4  11  23  39  62  97 144 186 220 264 306 384
#     4  11  26  46  73  96 131 168 223 280 336 399
#     4  11  26  46  72  98 131 170 220 278 338 399
#     4  11  23  43  65 100 138 187 218 261 325 387
#
# _framework density 22.726499
#
# number of rings (size 3 to 8) (size 9 to 14) (size 15 to 20)
#    0.000    0.923    4.615    0.923    4.308    3.692 
#    0.000    0.000    0.000    0.000    0.000    0.000 
#    0.000    0.000    0.000    0.000    0.000    0.000 
#
# Total GULP energy -322448.062643 kJ/mol
# GULP energy per Si atom -12401.848563 kJ/mol
# Density = 2.267477 g / cm^3
# Si number density = 22.726499 Si / 1000 Ang^3
#
#
#
# Elastic Constant Matrix: (Units=GPa)
#
#
# Indices 1 2 3 4 5 6 
#
# 1 84.6202 30.1131 49.4670 0.0000 -3.2109 0.0000
# 2 30.1131 120.0941 32.4256 0.0000 -8.4600 0.0000
# 3 49.4670 32.4256 76.6887 0.0000 -7.8869 0.0000
# 4 0.0000 0.0000 0.0000 18.2894 0.0000 9.3687
# 5 -3.2109 -8.4600 -7.8869 0.0000 38.6282 0.0000
# 6 0.0000 0.0000 0.0000 9.3687 0.0000 38.8828
#
#
#
# Elastic Compliance Matrix: (Units=1/GPa)
#
#
# Indices 1 2 3 4 5 6 
#
# 1 0.019315 -0.001727 -0.011851 0.000000 -0.001192 0.000000
# 2 -0.001727 0.009616 -0.002809 0.000000 0.001389 0.000000
# 3 -0.011851 -0.002809 0.022173 0.000000 0.002927 0.000000
# 4 0.000000 0.000000 0.000000 0.062375 0.000000 -0.015029
# 5 -0.001192 0.001389 0.002927 0.000000 0.026691 0.000000
# 6 0.000000 0.000000 0.000000 -0.015029 0.000000 0.029340
#
#
# Mechanical properties :
#
#
# Convention : Reuss Voigt Hill
#
# Bulk Modulus (GPa) = 54.55769 56.15716 55.35743
# Shear Modulus (GPa) = 23.99311 30.45321 27.22316
#
# Velocity S-wave (km/s) = 3.25273 3.66455 3.46477
# Velocity P-wave (km/s) = 6.17781 6.53214 6.35745
#
# Compressibility (1/GPa) = 0.01832922
#
# Stress axis : x y z
#
# Youngs Moduli (GPa) = 51.77388 103.99145 45.10045
#
# Poissons Ratio (x) = 0.17963 0.53449
# Poissons Ratio (y) = 0.08943 0.12668
# Poissons Ratio (z) = 0.61357 0.29210
#
# Static dielectric constant tensor:
#      x y z
#    x 4.434770 0.000000 0.091020 
#    y 0.000000 4.298450 0.000000 
#    z 0.091020 0.000000 3.989810 
# 
# 
# High freq. dielectric constant tensor:
#      x y z
#    x 1.914900 0.000000 0.011940 
#    y 0.000000 1.912700 0.000000 
#    z 0.011940 0.000000 1.871710 
# 
# From -- ./inp_files/307286.got.cif
#   From: 2010.06.25/outbox.cif.g09.slc.cpg/sg15_154_cif.got.tgz:307286.got - 2010.06.28 07:06:18.
