data_PCOD8150253
_publ_section_title
;
Structure prediction by ZEFSAII (Michael W. Deem and Ramdas Pophale) SiO2 
 PCOD8150253
Probable space group: C 2/C
;
_chemical_formula_sum "Si O2"
_cell_formula_units_Z 60
_cell_length_a 14.565666
_cell_length_b 13.761528
_cell_length_c 26.529556
_cell_angle_alpha 90.000000
_cell_angle_beta 32.310783
_cell_angle_gamma 90.000000
_cell_volume 2842.392006
_symmetry_space_group_name_H-M "C 2/C"
_symmetry_group_IT_number 15
_symmetry_cell_setting 'monoclinic'
loop_
_space_group_symop_operation_xyz
x,y,z
-x,y,1/2-z
-x,-y,-z
x,-y,1/2+z
1/2+x,1/2+y,z
1/2-x,1/2+y,1/2-z
1/2-x,1/2-y,-z
1/2+x,1/2-y,1/2+z
loop_
_atom_site_type_symbol
_atom_site_label
_atom_site_fract_x
_atom_site_fract_y
_atom_site_fract_z
Si Si1 0.849401 0.608778 0.219623
Si Si2 0.981910 0.019020 0.376093
Si Si3 0.177458 0.827844 0.287369
Si Si4 0.245819 0.573931 0.397190
Si Si5 0.801331 0.715363 0.836476
Si Si6 0.589831 0.948199 0.386633
Si Si7 0.338779 0.550380 0.547193
Si Si8 0.000000 0.458652 0.750000
O O1 0.647507 0.583902 0.312290
O O2 0.889856 0.718704 0.185460
O O3 0.945336 0.534094 0.137573
O O4 0.921304 0.606410 0.242484
O O5 0.912163 0.054610 0.354411
O O6 0.845062 0.032444 0.484455
O O7 0.023033 0.904654 0.352796
O O8 0.256205 0.838960 0.305782
O O9 0.324047 0.854045 0.178662
O O10 0.269301 0.669592 0.352394
O O11 0.216118 0.485886 0.372303
O O12 0.087566 0.587214 0.508253
O O13 0.673433 0.666652 0.937389
O O14 0.000000 0.692151 0.750000
O O15 0.500000 0.500000 0.500000
O O16 0.156506 0.518754 0.654275
#
# Coordination Sequence:
#
# PCOD8150253 Si02
#       8
#     8   8   8   8   8   8   8   4
#     4  11  23  43  67  96 138 181 233 288 346 428
#     4  11  25  43  69 102 140 180 235 296 351 419
#     4  11  24  44  66  98 137 184 227 293 352 422
#     4  11  25  44  70 100 137 185 234 300 349 427
#     4  12  25  42  71 103 136 182 240 293 354 417
#     4  10  24  45  68  96 144 181 234 289 360 417
#     4  12  23  44  68 101 141 181 228 294 356 416
#     4  12  24  42  66 100 136 182 228 288 350 418
#
# _framework density 21.108981
#
# number of rings (size 3 to 8) (size 9 to 14) (size 15 to 20)
#    0.000    0.800    4.667    2.400    5.600    1.600 
#    0.000    4.000    0.000    0.000    0.000    0.000 
#    0.000    0.000    0.000    0.000    0.000    0.000 
#
# Total GULP energy -371964.620597 kJ/mol
# GULP energy per Si atom -12398.820687 kJ/mol
# Density = 2.106094 g / cm^3
# Si number density = 21.108981 Si / 1000 Ang^3
#
#
#
# Elastic Constant Matrix: (Units=GPa)
#
#
# Indices 1 2 3 4 5 6 
#
# 1 120.0891 23.2084 20.0484 -0.0001 -2.1434 0.0001
# 2 23.2084 80.4433 23.3386 0.0004 -5.3234 0.0001
# 3 20.0484 23.3386 101.9082 0.0053 0.9231 0.0021
# 4 -0.0001 0.0004 0.0053 28.3724 0.0002 2.4286
# 5 -2.1434 -5.3234 0.9231 0.0002 35.5368 -0.0003
# 6 0.0001 0.0001 0.0021 2.4286 -0.0003 28.1704
#
#
#
# Elastic Compliance Matrix: (Units=1/GPa)
#
#
# Indices 1 2 3 4 5 6 
#
# 1 0.008968 -0.002205 -0.001261 0.000000 0.000243 0.000000
# 2 -0.002205 0.014013 -0.002794 0.000000 0.002039 0.000000
# 3 -0.001261 -0.002794 0.010708 -0.000002 -0.000773 -0.000001
# 4 0.000000 0.000000 -0.000002 0.035508 0.000000 -0.003061
# 5 0.000243 0.002039 -0.000773 0.000000 0.028480 0.000000
# 6 0.000000 0.000000 -0.000001 -0.003061 0.000000 0.035762
#
#
# Mechanical properties :
#
#
# Convention : Reuss Voigt Hill
#
# Bulk Modulus (GPa) = 47.24179 48.40349 47.82264
# Shear Modulus (GPa) = 32.67640 34.13892 33.40766
#
# Velocity S-wave (km/s) = 3.93871 4.02589 3.98254
# Velocity P-wave (km/s) = 6.56606 6.67761 6.62207
#
# Compressibility (1/GPa) = 0.02116770
#
# Stress axis : x y z
#
# Youngs Moduli (GPa) = 111.50396 71.36325 93.39035
#
# Poissons Ratio (x) = 0.15738 0.11781
# Poissons Ratio (y) = 0.24590 0.26091
# Poissons Ratio (z) = 0.14066 0.19937
#
# Static dielectric constant tensor:
#      x y z
#    x 4.015610 0.000000 0.161480 
#    y 0.000000 3.726960 0.000000 
#    z 0.161480 0.000000 3.916400 
# 
# 
# High freq. dielectric constant tensor:
#      x y z
#    x 1.838150 0.000000 0.011870 
#    y 0.000000 1.822770 0.000000 
#    z 0.011870 0.000000 1.833710 
# 
# From -- ./inp_files/296676.got.cif
#   From: 2010.06.25/outbox.cif.g09.slc.cpg/sg15_149_cif.got.tgz:296676.got - 2010.06.28 07:06:18.
