data_PCOD8150209
_publ_section_title
;
Structure prediction by ZEFSAII (Michael W. Deem and Ramdas Pophale) SiO2 
 PCOD8150209
Probable space group: C 2/C
;
_chemical_formula_sum "Si O2"
_cell_formula_units_Z 44
_cell_length_a 12.031621
_cell_length_b 11.377627
_cell_length_c 13.944285
_cell_angle_alpha 90.000000
_cell_angle_beta 91.296439
_cell_angle_gamma 90.000000
_cell_volume 1908.362612
_symmetry_space_group_name_H-M "C 2/C"
_symmetry_group_IT_number 15
_symmetry_cell_setting 'monoclinic'
loop_
_space_group_symop_operation_xyz
x,y,z
-x,y,1/2-z
-x,-y,-z
x,-y,1/2+z
1/2+x,1/2+y,z
1/2-x,1/2+y,1/2-z
1/2-x,1/2-y,-z
1/2+x,1/2-y,1/2+z
loop_
_atom_site_type_symbol
_atom_site_label
_atom_site_fract_x
_atom_site_fract_y
_atom_site_fract_z
Si Si1 0.530360 0.282697 0.921934
Si Si2 0.651327 0.710173 0.929320
Si Si3 0.121131 0.436021 0.509387
Si Si4 0.301238 0.532829 0.158450
Si Si5 0.678686 0.056094 0.334933
Si Si6 0.500000 0.878899 0.250000
O O1 0.616019 0.198556 0.978461
O O2 0.597914 0.391105 0.880123
O O3 0.467603 0.206019 0.838514
O O4 0.446010 0.328275 0.000601
O O5 0.675886 0.603394 0.858726
O O6 0.621918 0.817155 0.855297
O O7 0.750000 0.750000 0.000000
O O8 0.178308 0.437946 0.613966
O O9 0.207465 0.503004 0.440224
O O10 0.000000 0.500000 0.500000
O O11 0.289891 0.563823 0.271837
O O12 0.600308 0.963095 0.279971
#
# Coordination Sequence:
#
# PCOD8150209 Si02
#       6
#     8   8   8   8   8   4
#     4  11  25  43  70 101 140 181 230 296 356 419
#     4  12  24  46  71  96 142 186 231 292 360 424
#     4  11  21  45  70 100 133 187 235 281 334 431
#     4  12  26  42  69 106 142 178 231 296 363 410
#     4  11  24  41  71 101 128 184 240 275 343 430
#     4  10  24  44  74  96 134 186 242 282 340 434
#
# _framework density 23.056415999999999
#
# number of rings (size 3 to 8) (size 9 to 14) (size 15 to 20)
#    0.000    0.727    3.636    4.364    7.636    0.000 
#    0.000    0.909    0.000    0.000    0.000    0.000 
#    0.000    0.000    0.000    0.000    0.000    0.000 
#
# Total GULP energy -272672.507216 kJ/mol
# GULP energy per Si atom -12394.204873 kJ/mol
# Density = 2.300394 g / cm^3
# Si number density = 23.056416 Si / 1000 Ang^3
#
#
#
# Elastic Constant Matrix: (Units=GPa)
#
#
# Indices 1 2 3 4 5 6 
#
# 1 70.6042 25.8791 31.7782 0.0000 -22.6483 0.0000
# 2 25.8791 112.4281 31.4292 0.0000 -8.6840 0.0000
# 3 31.7782 31.4292 129.7218 0.0000 -37.5315 0.0000
# 4 0.0000 0.0000 0.0000 41.7293 0.0000 -11.4852
# 5 -22.6483 -8.6840 -37.5315 0.0000 46.8719 0.0000
# 6 0.0000 0.0000 0.0000 -11.4852 0.0000 26.2257
#
#
#
# Elastic Compliance Matrix: (Units=1/GPa)
#
#
# Indices 1 2 3 4 5 6 
#
# 1 0.018320 -0.003204 -0.001721 0.000000 0.006880 0.000000
# 2 -0.003204 0.010102 -0.002042 0.000000 -0.001312 0.000000
# 3 -0.001721 -0.002042 0.010770 0.000000 0.007414 0.000000
# 4 0.000000 0.000000 0.000000 0.027248 0.000000 0.011933
# 5 0.006880 -0.001312 0.007414 0.000000 0.030353 0.000000
# 6 0.000000 0.000000 0.000000 0.011933 0.000000 0.043356
#
#
# Mechanical properties :
#
#
# Convention : Reuss Voigt Hill
#
# Bulk Modulus (GPa) = 39.59281 54.54746 47.07013
# Shear Modulus (GPa) = 30.76876 37.87657 34.32267
#
# Velocity S-wave (km/s) = 3.65704 4.05752 3.86247
# Velocity P-wave (km/s) = 5.91958 6.75728 6.35225
#
# Compressibility (1/GPa) = 0.02525711
#
# Stress axis : x y z
#
# Youngs Moduli (GPa) = 54.58645 98.99343 92.84903
#
# Poissons Ratio (x) = 0.31721 0.15977
# Poissons Ratio (y) = 0.17492 0.18960
# Poissons Ratio (z) = 0.09393 0.20215
#
# Static dielectric constant tensor:
#      x y z
#    x 3.792350 0.000000 -0.151720 
#    y 0.000000 4.354020 0.000000 
#    z -0.151720 0.000000 4.655130 
# 
# 
# High freq. dielectric constant tensor:
#      x y z
#    x 1.877960 0.000000 -0.017580 
#    y 0.000000 1.924730 0.000000 
#    z -0.017580 0.000000 1.929550 
# 
# From -- ./inp_files/142234.got.cif
#   From: 2010.06.25/outbox.cif.g09.slc.cpg/sg15_72_cif.got.tgz:142234.got - 2010.06.28 07:06:18.
