data_PCOD8150862
_publ_section_title
;
Structure prediction by ZEFSAII (Michael W. Deem and Ramdas Pophale) SiO2 
 PCOD8150862
Probable space group: C 2/C
;
_chemical_formula_sum "Si O2"
_cell_formula_units_Z 52
_cell_length_a 12.958398
_cell_length_b 26.746424
_cell_length_c 8.719245
_cell_angle_alpha 90.000000
_cell_angle_beta 51.020196
_cell_angle_gamma 90.000000
_cell_volume 2349.213212
_symmetry_space_group_name_H-M "C 2/C"
_symmetry_group_IT_number 15
_symmetry_cell_setting 'monoclinic'
loop_
_space_group_symop_operation_xyz
x,y,z
-x,y,1/2-z
-x,-y,-z
x,-y,1/2+z
1/2+x,1/2+y,z
1/2-x,1/2+y,1/2-z
1/2-x,1/2-y,-z
1/2+x,1/2-y,1/2+z
loop_
_atom_site_type_symbol
_atom_site_label
_atom_site_fract_x
_atom_site_fract_y
_atom_site_fract_z
Si Si1 0.517448 0.697675 0.984908
Si Si2 0.573811 0.861899 0.015476
Si Si3 0.245112 0.732588 0.333149
Si Si4 0.000000 0.878459 0.250000
Si Si5 0.000000 0.387000 0.750000
Si Si6 0.771664 0.053514 0.331665
Si Si7 0.500000 0.378748 0.750000
Si Si8 0.732450 0.552429 0.508523
O O1 0.396302 0.735689 0.132938
O O2 0.564961 0.659862 0.071009
O O3 0.646014 0.731973 0.824925
O O4 0.455483 0.660358 0.919872
O O5 0.500000 0.850479 0.250000
O O6 0.695871 0.824274 0.879781
O O7 0.496439 0.857351 0.920309
O O8 0.631016 0.917969 0.974791
O O9 0.250000 0.750000 0.500000
O O10 0.877001 0.912329 0.307740
O O11 0.127469 0.421341 0.623142
O O12 0.883475 0.085717 0.306672
O O13 0.819195 0.043921 0.114815
O O14 0.753494 0.000164 0.424148
#
# Coordination Sequence:
#
# PCOD8150862 Si02
#       8
#     8   8   8   4   4   8   4   8
#     4  12  25  43  72  96 138 175 224 285 344 413
#     4  11  24  43  71 102 138 188 237 288 358 416
#     4  12  23  45  70 103 134 179 232 285 343 422
#     4  12  27  47  64 104 140 176 227 285 344 414
#     4  10  26  47  66 101 151 178 235 302 340 418
#     4  11  25  42  68 100 138 181 233 285 348 416
#     4  12  21  44  68  93 135 184 218 281 344 408
#     4  11  26  44  68 100 141 181 235 288 344 416
#
# _framework density 22.135069000000001
#
# number of rings (size 3 to 8) (size 9 to 14) (size 15 to 20)
#    0.000    0.615    4.615    2.308    5.385    6.154 
#    0.000    0.000    0.000    0.000    0.000    0.000 
#    0.000    0.000    0.000    0.000    0.000    0.000 
#
# Total GULP energy -322102.474524 kJ/mol
# GULP energy per Si atom -12388.556712 kJ/mol
# Density = 2.208469 g / cm^3
# Si number density = 22.135069 Si / 1000 Ang^3
#
#
#
# Elastic Constant Matrix: (Units=GPa)
#
#
# Indices 1 2 3 4 5 6 
#
# 1 108.6515 31.0594 34.9202 0.0000 -0.3430 0.0000
# 2 31.0594 85.4338 9.5383 0.0000 5.0895 0.0000
# 3 34.9202 9.5383 73.0614 0.0000 9.3911 0.0000
# 4 0.0000 0.0000 0.0000 54.9062 0.0000 -18.5806
# 5 -0.3430 5.0895 9.3911 0.0000 42.6902 0.0000
# 6 0.0000 0.0000 0.0000 -18.5806 0.0000 66.3991
#
#
#
# Elastic Compliance Matrix: (Units=1/GPa)
#
#
# Indices 1 2 3 4 5 6 
#
# 1 0.012087 -0.003886 -0.005497 0.000000 0.001770 0.000000
# 2 -0.003886 0.013178 0.000353 0.000000 -0.001680 0.000000
# 3 -0.005497 0.000353 0.016753 0.000000 -0.003772 0.000000
# 4 0.000000 0.000000 0.000000 0.020118 0.000000 0.005630
# 5 0.001770 -0.001680 -0.003772 0.000000 0.024469 0.000000
# 6 0.000000 0.000000 0.000000 0.005630 0.000000 0.016636
#
#
# Mechanical properties :
#
#
# Convention : Reuss Voigt Hill
#
# Bulk Modulus (GPa) = 41.73980 46.46473 44.10227
# Shear Modulus (GPa) = 38.67343 45.57436 42.12389
#
# Velocity S-wave (km/s) = 4.18443 4.54246 4.36712
# Velocity P-wave (km/s) = 6.49952 6.96770 6.73768
#
# Compressibility (1/GPa) = 0.02395795
#
# Stress axis : x y z
#
# Youngs Moduli (GPa) = 82.73403 75.88192 59.68981
#
# Poissons Ratio (x) = 0.29487 0.32813
# Poissons Ratio (y) = 0.32149 -0.02106
# Poissons Ratio (z) = 0.45480 -0.02677
#
# Static dielectric constant tensor:
#      x y z
#    x 4.897570 0.000000 0.238430 
#    y 0.000000 -20.706270 0.000000 
#    z 0.238430 0.000000 4.121080 
# 
# 
# High freq. dielectric constant tensor:
#      x y z
#    x 1.883620 0.000000 0.003110 
#    y 0.000000 1.884650 0.000000 
#    z 0.003110 0.000000 1.864250 
# 
# From -- ./inp_files/43437.got.cif
#   From: 2010.06.25/outbox.cif.g09.slc.cpg/sg15_22_cif.got.tgz:43437.got - 2010.06.28 07:06:18.
