data_PCOD8150936
_publ_section_title
;
Structure prediction by ZEFSAII (Michael W. Deem and Ramdas Pophale) SiO2 
 PCOD8150936
Probable space group: C 2/C
;
_chemical_formula_sum "Si O2"
_cell_formula_units_Z 52
_cell_length_a 8.456345
_cell_length_b 12.249894
_cell_length_c 26.935338
_cell_angle_alpha 90.000000
_cell_angle_beta 54.524707
_cell_angle_gamma 90.000000
_cell_volume 2272.254688
_symmetry_space_group_name_H-M "C 2/C"
_symmetry_group_IT_number 15
_symmetry_cell_setting 'monoclinic'
loop_
_space_group_symop_operation_xyz
x,y,z
-x,y,1/2-z
-x,-y,-z
x,-y,1/2+z
1/2+x,1/2+y,z
1/2-x,1/2+y,1/2-z
1/2-x,1/2-y,-z
1/2+x,1/2-y,1/2+z
loop_
_atom_site_type_symbol
_atom_site_label
_atom_site_fract_x
_atom_site_fract_y
_atom_site_fract_z
Si Si1 0.612361 0.533798 0.865956
Si Si2 0.815435 0.228962 0.931688
Si Si3 0.634210 0.899108 0.098696
Si Si4 0.857373 0.164994 0.371750
Si Si5 0.562249 0.881424 0.006018
Si Si6 0.915544 0.401971 0.659824
Si Si7 0.500000 0.970151 0.750000
O O1 0.475637 0.638257 0.888091
O O2 0.685672 0.534986 0.909517
O O3 0.504644 0.423323 0.868116
O O4 0.814883 0.545428 0.798232
O O5 0.619220 0.189195 0.941206
O O6 0.894582 0.339599 0.894559
O O7 0.750000 0.250000 0.000000
O O8 0.566135 0.788415 0.139600
O O9 0.700096 0.884272 0.029327
O O10 0.440483 0.973063 0.137619
O O11 0.664496 0.173961 0.440670
O O12 0.787796 0.138245 0.327877
O O13 0.500000 0.000000 0.000000
O O14 0.922448 0.393980 0.718609
#
# Coordination Sequence:
#
# PCOD8150936 Si02
#       7
#     8   8   8   8   8   8   4
#     4  11  25  48  74 106 147 202 252 311 381 445
#     4  12  22  44  81 113 152 197 240 322 399 458
#     4  11  24  43  68 105 148 189 243 304 371 456
#     4  12  24  45  74 108 145 200 242 300 392 446
#     4  12  22  41  65 111 158 181 237 304 379 475
#     4  11  24  49  72 105 152 191 253 311 371 456
#     4  10  28  52  68 104 150 200 270 310 362 462
#
# _framework density 22.88476
#
# number of rings (size 3 to 8) (size 9 to 14) (size 15 to 20)
#    0.000    0.615    6.154    0.462    4.308    1.231 
#    5.538    0.000    0.000    0.000    0.000    0.000 
#    0.000    0.000    0.000    0.000    0.000    0.000 
#
# Total GULP energy -322099.807256 kJ/mol
# GULP energy per Si atom -12388.454125 kJ/mol
# Density = 2.283267 g / cm^3
# Si number density = 22.884760 Si / 1000 Ang^3
#
#
#
# Elastic Constant Matrix: (Units=GPa)
#
#
# Indices 1 2 3 4 5 6 
#
# 1 128.2166 48.5498 57.0964 0.0000 16.7678 0.0000
# 2 48.5498 146.0449 34.0538 0.0000 0.4285 0.0000
# 3 57.0964 34.0538 114.1474 -0.0001 9.8920 0.0000
# 4 0.0000 0.0000 -0.0001 28.6980 0.0000 -0.0509
# 5 16.7678 0.4285 9.8920 0.0000 57.5384 0.0000
# 6 0.0000 0.0000 0.0000 -0.0509 0.0000 38.0073
#
#
#
# Elastic Compliance Matrix: (Units=1/GPa)
#
#
# Indices 1 2 3 4 5 6 
#
# 1 0.011157 -0.002633 -0.004583 0.000000 -0.002444 0.000000
# 2 -0.002633 0.007987 -0.001144 0.000000 0.000905 0.000000
# 3 -0.004583 -0.001144 0.011449 0.000000 -0.000624 0.000000
# 4 0.000000 0.000000 0.000000 0.034846 0.000000 0.000047
# 5 -0.002444 0.000905 -0.000624 0.000000 0.018192 0.000000
# 6 0.000000 0.000000 0.000000 0.000047 0.000000 0.026311
#
#
# Mechanical properties :
#
#
# Convention : Reuss Voigt Hill
#
# Bulk Modulus (GPa) = 72.09142 74.20101 73.14621
# Shear Modulus (GPa) = 38.08489 41.42932 39.75710
#
# Velocity S-wave (km/s) = 4.08389 4.25943 4.17258
# Velocity P-wave (km/s) = 7.33538 7.52891 7.43278
#
# Compressibility (1/GPa) = 0.01387128
#
# Stress axis : x y z
#
# Youngs Moduli (GPa) = 89.63034 125.20962 87.34700
#
# Poissons Ratio (x) = 0.32968 0.40035
# Poissons Ratio (y) = 0.23600 0.09993
# Poissons Ratio (z) = 0.41081 0.14324
#
# Static dielectric constant tensor:
#      x y z
#    x 4.573430 0.000000 0.087920 
#    y 0.000000 4.354540 0.000000 
#    z 0.087920 0.000000 4.130120 
# 
# 
# High freq. dielectric constant tensor:
#      x y z
#    x 1.915570 0.000000 0.015680 
#    y 0.000000 1.910240 0.000000 
#    z 0.015680 0.000000 1.880880 
# 
# From -- ./inp_files/287915.got.cif
#   From: 2010.06.25/outbox.cif.g09.slc.cpg/sg15_144_cif.got.tgz:287915.got - 2010.06.28 07:06:18.
