data_PCOD8150714
_publ_section_title
;
Structure prediction by ZEFSAII (Michael W. Deem and Ramdas Pophale) SiO2 
 PCOD8150714
Probable space group: C 2/C
;
_chemical_formula_sum "Si O2"
_cell_formula_units_Z 44
_cell_length_a 19.798953
_cell_length_b 18.489367
_cell_length_c 5.448930
_cell_angle_alpha 90.000000
_cell_angle_beta 111.619715
_cell_angle_gamma 90.000000
_cell_volume 1854.363451
_symmetry_space_group_name_H-M "C 2/C"
_symmetry_group_IT_number 15
_symmetry_cell_setting 'monoclinic'
loop_
_space_group_symop_operation_xyz
x,y,z
-x,y,1/2-z
-x,-y,-z
x,-y,1/2+z
1/2+x,1/2+y,z
1/2-x,1/2+y,1/2-z
1/2-x,1/2-y,-z
1/2+x,1/2-y,1/2+z
loop_
_atom_site_type_symbol
_atom_site_label
_atom_site_fract_x
_atom_site_fract_y
_atom_site_fract_z
Si Si1 0.849921 0.693259 0.006963
Si Si2 0.067069 0.195009 0.173210
Si Si3 0.692429 0.683922 0.700902
Si Si4 0.585609 0.960372 0.860261
Si Si5 0.500000 0.424811 0.250000
Si Si6 0.650849 0.536527 0.830736
O O1 0.828842 0.738355 0.219270
O O2 0.876308 0.615864 0.128981
O O3 0.915549 0.733655 0.959080
O O4 0.777545 0.685551 0.739621
O O5 0.140193 0.168223 0.403376
O O6 0.000000 0.219585 0.250000
O O7 0.044979 0.125265 0.993147
O O8 0.677421 0.619818 0.877314
O O9 0.500000 0.949679 0.750000
O O10 0.610509 0.006940 0.656273
O O11 0.437915 0.471321 0.306067
O O12 0.681523 0.500548 0.620463
#
# Coordination Sequence:
#
# PCOD8150714 Si02
#       6
#     8   8   8   8   4   8
#     4  11  26  46  74 101 147 191 237 309 373 433
#     4  12  23  42  74 105 144 183 249 308 357 432
#     4  11  26  46  68 108 142 192 250 294 362 452
#     4  10  25  47  73 109 142 182 243 303 369 440
#     4  12  24  44  66 108 146 188 250 302 360 432
#     4  12  26  44  70 103 148 198 241 299 360 427
#
# _framework density 23.727819
#
# number of rings (size 3 to 8) (size 9 to 14) (size 15 to 20)
#    0.000    0.727    3.636    2.182    6.364    2.182 
#    0.000    0.000    0.000    0.000    0.000    0.000 
#    0.000    0.000    0.000    0.000    0.000    0.000 
#
# Total GULP energy -272847.655746 kJ/mol
# GULP energy per Si atom -12402.166170 kJ/mol
# Density = 2.367381 g / cm^3
# Si number density = 23.727819 Si / 1000 Ang^3
#
#
#
# Elastic Constant Matrix: (Units=GPa)
#
#
# Indices 1 2 3 4 5 6 
#
# 1 43.8424 18.6465 12.0339 0.0000 -10.8246 0.0000
# 2 18.6465 138.3307 38.0627 0.0000 -14.9423 0.0000
# 3 12.0339 38.0627 127.6878 0.0000 -12.5491 0.0000
# 4 0.0000 0.0000 0.0000 64.7117 0.0000 -40.0560
# 5 -10.8246 -14.9423 -12.5491 0.0000 29.4777 0.0000
# 6 0.0000 0.0000 0.0000 -40.0560 0.0000 69.0889
#
#
#
# Elastic Compliance Matrix: (Units=1/GPa)
#
#
# Indices 1 2 3 4 5 6 
#
# 1 0.026051 -0.002388 -0.000962 0.000000 0.007946 0.000000
# 2 -0.002388 0.008379 -0.002026 0.000000 0.002508 0.000000
# 3 -0.000962 -0.002026 0.008757 0.000000 0.002348 0.000000
# 4 0.000000 0.000000 0.000000 0.024103 0.000000 0.013974
# 5 0.007946 0.002508 0.002348 0.000000 0.039112 0.000000
# 6 0.000000 0.000000 0.000000 0.013974 0.000000 0.022576
#
#
# Mechanical properties :
#
#
# Convention : Reuss Voigt Hill
#
# Bulk Modulus (GPa) = 30.83260 49.70522 40.26891
# Shear Modulus (GPa) = 33.21290 48.73018 40.97154
#
# Velocity S-wave (km/s) = 3.74538 4.53671 4.15990
# Velocity P-wave (km/s) = 5.63261 6.95959 6.33096
#
# Compressibility (1/GPa) = 0.03243321
#
# Stress axis : x y z
#
# Youngs Moduli (GPa) = 38.38664 119.33954 114.19407
#
# Poissons Ratio (x) = 0.28504 0.10988
# Poissons Ratio (y) = 0.09169 0.23139
# Poissons Ratio (z) = 0.03694 0.24181
#
# Static dielectric constant tensor:
#      x y z
#    x 4.467150 0.000000 0.029340 
#    y 0.000000 4.269830 0.000000 
#    z 0.029340 0.000000 4.336170 
# 
# 
# High freq. dielectric constant tensor:
#      x y z
#    x 1.941330 0.000000 0.001930 
#    y 0.000000 1.948270 0.000000 
#    z 0.001930 0.000000 1.937090 
# 
# From -- ./inp_files/12882.got.cif
#   From: 2010.06.25/outbox.cif.g09.slc.cpg/sg15_7_cif.got.tgz:12882.got - 2010.06.28 07:06:18.
