data_PCOD8150335
_publ_section_title
;
Structure prediction by ZEFSAII (Michael W. Deem and Ramdas Pophale) SiO2 
 PCOD8150335
Probable space group: C 2/C
;
_chemical_formula_sum "Si O2"
_cell_formula_units_Z 60
_cell_length_a 7.434680
_cell_length_b 25.135481
_cell_length_c 14.311473
_cell_angle_alpha 90.000000
_cell_angle_beta 75.148115
_cell_angle_gamma 90.000000
_cell_volume 2585.097124
_symmetry_space_group_name_H-M "C 2/C"
_symmetry_group_IT_number 15
_symmetry_cell_setting 'monoclinic'
loop_
_space_group_symop_operation_xyz
x,y,z
-x,y,1/2-z
-x,-y,-z
x,-y,1/2+z
1/2+x,1/2+y,z
1/2-x,1/2+y,1/2-z
1/2-x,1/2-y,-z
1/2+x,1/2-y,1/2+z
loop_
_atom_site_type_symbol
_atom_site_label
_atom_site_fract_x
_atom_site_fract_y
_atom_site_fract_z
Si Si1 0.389890 0.234938 0.619508
Si Si2 0.500000 0.936526 0.250000
Si Si3 0.624101 0.031159 0.344681
Si Si4 0.222143 0.411288 0.651344
Si Si5 0.688393 0.849284 0.121134
Si Si6 0.741665 0.319105 0.727547
Si Si7 0.514787 0.735787 0.902691
Si Si8 0.865407 0.102241 0.418420
O O1 0.491222 0.181219 0.638672
O O2 0.397073 0.276727 0.703973
O O3 0.499332 0.260235 0.516847
O O4 0.179897 0.221013 0.618701
O O5 0.668560 0.899457 0.192452
O O6 0.566603 0.970029 0.333345
O O7 0.444192 0.068826 0.394161
O O8 0.723383 0.046209 0.234596
O O9 0.769933 0.044559 0.407577
O O10 0.170308 0.353413 0.699449
O O11 0.424118 0.409632 0.575143
O O12 0.842248 0.810403 0.144159
O O13 0.749702 0.868724 0.012140
O O14 0.907807 0.290714 0.649457
O O15 0.629308 0.359077 0.673233
#
# Coordination Sequence:
#
# PCOD8150335 Si02
#       8
#     8   4   8   8   8   8   8   8
#     4  11  25  40  59  89 137 173 217 259 314 380
#     4  10  24  46  68  88 130 174 210 264 336 396
#     4   9  21  43  64  94 123 158 216 270 326 386
#     4   9  20  35  62  96 123 154 205 266 328 369
#     4  12  25  44  61  92 133 175 213 263 320 391
#     4  11  21  35  61  89 123 170 209 263 314 369
#     4  11  25  39  57  93 130 170 225 252 307 393
#     4  11  23  38  67  97 123 158 222 270 322 380
#
# _framework density 23.209956999999999
#
# number of rings (size 3 to 8) (size 9 to 14) (size 15 to 20)
#    0.000    1.600    1.333    4.000   11.200    1.600 
#    0.000    8.000    0.000    0.000    0.000    0.000 
#    0.000    0.000    0.000    0.000    0.000    0.000 
#
# Total GULP energy -371856.976789 kJ/mol
# GULP energy per Si atom -12395.232560 kJ/mol
# Density = 2.315713 g / cm^3
# Si number density = 23.209957 Si / 1000 Ang^3
#
#
#
# Elastic Constant Matrix: (Units=GPa)
#
#
# Indices 1 2 3 4 5 6 
#
# 1 117.3300 51.6853 31.9642 0.0000 -20.4372 0.0000
# 2 51.6853 124.8292 39.3213 0.0000 -12.1203 0.0000
# 3 31.9642 39.3213 71.0523 0.0000 -14.7312 0.0000
# 4 0.0000 0.0000 0.0000 25.6592 0.0000 -8.5701
# 5 -20.4372 -12.1203 -14.7312 0.0000 30.8451 0.0000
# 6 0.0000 0.0000 0.0000 -8.5701 0.0000 25.1734
#
#
#
# Elastic Compliance Matrix: (Units=1/GPa)
#
#
# Indices 1 2 3 4 5 6 
#
# 1 0.011617 -0.003629 -0.002128 0.000000 0.005255 0.000000
# 2 -0.003629 0.010890 -0.004445 0.000000 -0.000249 0.000000
# 3 -0.002128 -0.004445 0.018688 0.000000 0.005768 0.000000
# 4 0.000000 0.000000 0.000000 0.043972 0.000000 0.014970
# 5 0.005255 -0.000249 0.005768 0.000000 0.038559 0.000000
# 6 0.000000 0.000000 0.000000 0.014970 0.000000 0.044821
#
#
# Mechanical properties :
#
#
# Convention : Reuss Voigt Hill
#
# Bulk Modulus (GPa) = 48.10365 62.12810 55.11588
# Shear Modulus (GPa) = 25.52569 29.01827 27.27198
#
# Velocity S-wave (km/s) = 3.31988 3.53972 3.43156
# Velocity P-wave (km/s) = 5.95533 6.59789 6.28483
#
# Compressibility (1/GPa) = 0.02078844
#
# Stress axis : x y z
#
# Youngs Moduli (GPa) = 86.08254 91.82881 53.51166
#
# Poissons Ratio (x) = 0.33328 0.11388
# Poissons Ratio (y) = 0.31242 0.23788
# Poissons Ratio (z) = 0.18319 0.40822
#
# Static dielectric constant tensor:
#      x y z
#    x 4.272660 0.000000 -0.155200 
#    y 0.000000 4.298030 0.000000 
#    z -0.155200 0.000000 4.099430 
# 
# 
# High freq. dielectric constant tensor:
#      x y z
#    x 1.919910 0.000000 -0.019890 
#    y 0.000000 1.907400 0.000000 
#    z -0.019890 0.000000 1.904620 
# 
# From -- ./inp_files/192075.got.cif
#   From: 2010.06.25/outbox.cif.g09.slc.cpg/sg15_97_cif.got.tgz:192075.got - 2010.06.28 07:06:18.
