data_PCOD8150143
_publ_section_title
;
Structure prediction by ZEFSAII (Michael W. Deem and Ramdas Pophale) SiO2 
 PCOD8150143
Probable space group: C 2/C
;
_chemical_formula_sum "Si O2"
_cell_formula_units_Z 44
_cell_length_a 25.147407
_cell_length_b 6.787251
_cell_length_c 17.481116
_cell_angle_alpha 90.000000
_cell_angle_beta 42.265288
_cell_angle_gamma 90.000000
_cell_volume 2006.735262
_symmetry_space_group_name_H-M "C 2/C"
_symmetry_group_IT_number 15
_symmetry_cell_setting 'monoclinic'
loop_
_space_group_symop_operation_xyz
x,y,z
-x,y,1/2-z
-x,-y,-z
x,-y,1/2+z
1/2+x,1/2+y,z
1/2-x,1/2+y,1/2-z
1/2-x,1/2-y,-z
1/2+x,1/2-y,1/2+z
loop_
_atom_site_type_symbol
_atom_site_label
_atom_site_fract_x
_atom_site_fract_y
_atom_site_fract_z
Si Si1 0.982121 0.728267 0.851125
Si Si2 0.833637 0.231007 0.865563
Si Si3 0.500000 0.850718 0.750000
Si Si4 0.355046 0.327142 0.096147
Si Si5 0.882635 0.088755 0.199239
Si Si6 0.806264 0.492908 0.257610
O O1 0.000000 0.829760 0.750000
O O2 0.989705 0.490871 0.835820
O O3 0.037838 0.817423 0.855211
O O4 0.895610 0.783570 0.972014
O O5 0.836871 0.416696 0.804714
O O6 0.916413 0.232141 0.827534
O O7 0.833189 0.028132 0.817616
O O8 0.750000 0.250000 0.000000
O O9 0.406664 0.440444 0.105506
O O10 0.287753 0.481326 0.145039
O O11 0.331792 0.117070 0.156619
O O12 0.831828 0.267801 0.221283
#
# Coordination Sequence:
#
# PCOD8150143 Si02
#       6
#     8   8   4   8   8   8
#     4  10  24  44  69 100 138 186 224 295 348 408
#     4  11  27  43  71 102 139 186 231 292 348 418
#     4  10  24  46  64 106 140 174 238 284 352 414
#     4  11  24  42  71 100 140 181 233 286 347 421
#     4  11  24  45  66 102 137 179 234 280 353 415
#     4  11  23  44  66 103 133 178 236 285 344 416
#
# _framework density 21.926158999999998
#
# number of rings (size 3 to 8) (size 9 to 14) (size 15 to 20)
#    0.545    0.727    3.636    0.545    6.364    1.455 
#    3.273    0.000    0.000    0.000    0.000    0.000 
#    0.000    0.000    0.000    0.000    0.000    0.000 
#
# Total GULP energy -272550.211144 kJ/mol
# GULP energy per Si atom -12388.645961 kJ/mol
# Density = 2.187625 g / cm^3
# Si number density = 21.926159 Si / 1000 Ang^3
#
#
#
# Elastic Constant Matrix: (Units=GPa)
#
#
# Indices 1 2 3 4 5 6 
#
# 1 104.3244 30.2397 49.0557 -0.1741 -15.1587 0.0831
# 2 30.2397 106.8674 35.7734 -0.8985 -3.3946 0.3451
# 3 49.0557 35.7734 149.4078 -0.3538 5.1580 0.0858
# 4 -0.1741 -0.8985 -0.3538 135.3118 -0.0243 -71.6669
# 5 -15.1587 -3.3946 5.1580 -0.0243 27.5464 -0.0002
# 6 0.0831 0.3451 0.0858 -71.6669 -0.0002 69.2705
#
#
#
# Elastic Compliance Matrix: (Units=1/GPa)
#
#
# Indices 1 2 3 4 5 6 
#
# 1 0.013275 -0.002130 -0.004118 -0.000014 0.007814 -0.000015
# 2 -0.002130 0.010597 -0.001854 0.000083 0.000481 0.000038
# 3 -0.004118 -0.001854 0.008631 0.000013 -0.004111 0.000017
# 4 -0.000014 0.000083 0.000013 0.016350 0.000014 0.016915
# 5 0.007814 0.000481 -0.004111 0.000014 0.041431 0.000008
# 6 -0.000015 0.000038 0.000017 0.016915 0.000008 0.031936
#
#
# Mechanical properties :
#
#
# Convention : Reuss Voigt Hill
#
# Bulk Modulus (GPa) = 61.35805 65.63749 63.49777
# Shear Modulus (GPa) = 34.75663 62.79444 48.77554
#
# Velocity S-wave (km/s) = 3.98574 5.35735 4.72162
# Velocity P-wave (km/s) = 7.01613 8.26250 7.66470
#
# Compressibility (1/GPa) = 0.01629778
#
# Stress axis : x y z
#
# Youngs Moduli (GPa) = 75.33135 94.36992 115.85766
#
# Poissons Ratio (x) = 0.20096 0.47715
# Poissons Ratio (y) = 0.16042 0.21485
# Poissons Ratio (z) = 0.31025 0.17500
#
# Static dielectric constant tensor:
#      x y z
#    x 6.518630 0.001460 -2.621750 
#    y 0.001460 3.945740 -0.001470 
#    z -2.621750 -0.001470 6.341680 
# 
# 
# High freq. dielectric constant tensor:
#      x y z
#    x 1.869390 -0.000010 -0.005980 
#    y -0.000010 1.868290 0.000010 
#    z -0.005980 0.000010 1.846840 
# 
# From -- ./inp_files/218481.got.cif
#   From: 2010.06.25/outbox.cif.g09.slc.cpg/sg15_110_cif.got.tgz:218481.got - 2010.06.28 07:06:18.
