data_PCOD8150026
_publ_section_title
;
Structure prediction by ZEFSAII (Michael W. Deem and Ramdas Pophale) SiO2 
 PCOD8150026
Probable space group: C 2/C
;
_chemical_formula_sum "Si O2"
_cell_formula_units_Z 48
_cell_length_a 9.068912
_cell_length_b 14.522125
_cell_length_c 25.110650
_cell_angle_alpha 90.000000
_cell_angle_beta 143.202283
_cell_angle_gamma 90.000000
_cell_volume 1980.907116
_symmetry_space_group_name_H-M "C 2/C"
_symmetry_group_IT_number 15
_symmetry_cell_setting 'monoclinic'
loop_
_space_group_symop_operation_xyz
x,y,z
-x,y,1/2-z
-x,-y,-z
x,-y,1/2+z
1/2+x,1/2+y,z
1/2-x,1/2+y,1/2-z
1/2-x,1/2-y,-z
1/2+x,1/2-y,1/2+z
loop_
_atom_site_type_symbol
_atom_site_label
_atom_site_fract_x
_atom_site_fract_y
_atom_site_fract_z
Si Si1 0.790251 0.309636 0.112984
Si Si2 0.537220 0.824786 0.038663
Si Si3 0.846402 0.472119 0.058702
Si Si4 0.023815 0.100189 0.896297
Si Si5 0.739926 0.741344 0.195068
Si Si6 0.333217 0.966086 0.751540
O O1 0.702072 0.391995 0.048396
O O2 0.693301 0.334628 0.143395
O O3 0.092781 0.301841 0.197486
O O4 0.677207 0.211339 0.062302
O O5 0.480611 0.925736 0.046465
O O6 0.790481 0.831522 0.079421
O O7 0.564020 0.746956 0.092347
O O8 0.039437 0.520423 0.154678
O O9 0.658229 0.548509 0.983892
O O10 0.914995 0.026176 0.823158
O O11 0.769470 0.640276 0.226222
O O12 0.000000 0.784552 0.250000
O O13 0.500000 0.998951 0.750000
#
# Coordination Sequence:
#
# PCOD8150026 Si02
#       6
#     8   8   8   8   8   8
#     4  11  23  45  69 101 139 187 236 293 358 431
#     4  11  25  43  70 103 147 188 231 298 361 426
#     4  11  24  45  73 100 138 192 238 289 357 424
#     4  12  25  42  72 106 146 181 246 293 357 430
#     4  10  24  43  71  93 140 185 242 289 365 411
#     4  11  24  44  70 101 136 188 248 299 348 430
#
# _framework density 24.231324000000001
#
# number of rings (size 3 to 8) (size 9 to 14) (size 15 to 20)
#    0.000    1.000    1.667    5.500    9.333    0.000 
#    0.000    0.000    0.000    0.000    0.000    0.000 
#    0.000    0.000    0.000    0.000    0.000    0.000 
#
# Total GULP energy -297507.561095 kJ/mol
# GULP energy per Si atom -12396.148379 kJ/mol
# Density = 2.417617 g / cm^3
# Si number density = 24.231324 Si / 1000 Ang^3
#
#
#
# Elastic Constant Matrix: (Units=GPa)
#
#
# Indices 1 2 3 4 5 6 
#
# 1 135.7080 45.0062 16.3246 -0.0001 26.6204 0.0000
# 2 45.0062 99.6307 43.0106 -0.0001 -3.5241 0.0000
# 3 16.3246 43.0106 109.6362 -0.0006 -2.5527 -0.0003
# 4 -0.0001 -0.0001 -0.0006 52.7207 -0.0001 3.8259
# 5 26.6204 -3.5241 -2.5527 -0.0001 36.6777 -0.0001
# 6 0.0000 0.0000 -0.0003 3.8259 -0.0001 32.0615
#
#
#
# Elastic Compliance Matrix: (Units=1/GPa)
#
#
# Indices 1 2 3 4 5 6 
#
# 1 0.010690 -0.005238 0.000271 0.000000 -0.008243 0.000000
# 2 -0.005238 0.014675 -0.004864 0.000000 0.004873 0.000000
# 3 0.000271 -0.004864 0.010991 0.000000 0.000101 0.000000
# 4 0.000000 0.000000 0.000000 0.019134 0.000000 -0.002283
# 5 -0.008243 0.004873 0.000101 0.000000 0.033723 0.000000
# 6 0.000000 0.000000 0.000000 -0.002283 0.000000 0.031463
#
#
# Mechanical properties :
#
#
# Convention : Reuss Voigt Hill
#
# Bulk Modulus (GPa) = 59.89558 61.51752 60.70655
# Shear Modulus (GPa) = 34.26978 40.33422 37.30200
#
# Velocity S-wave (km/s) = 3.76477 4.08431 3.92779
# Velocity P-wave (km/s) = 6.60832 6.90542 6.75850
#
# Compressibility (1/GPa) = 0.01669572
#
# Stress axis : x y z
#
# Youngs Moduli (GPa) = 93.54382 68.14240 90.98245
#
# Poissons Ratio (x) = 0.35691 -0.02466
# Poissons Ratio (y) = 0.48995 0.44252
# Poissons Ratio (z) = -0.02536 0.33143
#
# Static dielectric constant tensor:
#      x y z
#    x 4.563410 0.000000 0.181960 
#    y 0.000000 4.139720 0.000000 
#    z 0.181960 0.000000 4.279910 
# 
# 
# High freq. dielectric constant tensor:
#      x y z
#    x 1.966210 0.000000 0.007000 
#    y 0.000000 1.955860 0.000000 
#    z 0.007000 0.000000 1.957660 
# 
# From -- ./inp_files/289106.got.cif
#   From: 2010.06.25/outbox.cif.g09.slc.cpg/sg15_145_cif.got.tgz:289106.got - 2010.06.28 07:06:18.
