data_PCOD8150018
_publ_section_title
;
Structure prediction by ZEFSAII (Michael W. Deem and Ramdas Pophale) SiO2 
 PCOD8150018
Probable space group: C 2/C
;
_chemical_formula_sum "Si O2"
_cell_formula_units_Z 44
_cell_length_a 28.590512
_cell_length_b 9.308943
_cell_length_c 23.077916
_cell_angle_alpha 90.000000
_cell_angle_beta 19.492361
_cell_angle_gamma 90.000000
_cell_volume 2049.512645
_symmetry_space_group_name_H-M "C 2/C"
_symmetry_group_IT_number 15
_symmetry_cell_setting 'monoclinic'
loop_
_space_group_symop_operation_xyz
x,y,z
-x,y,1/2-z
-x,-y,-z
x,-y,1/2+z
1/2+x,1/2+y,z
1/2-x,1/2+y,1/2-z
1/2-x,1/2-y,-z
1/2+x,1/2-y,1/2+z
loop_
_atom_site_type_symbol
_atom_site_label
_atom_site_fract_x
_atom_site_fract_y
_atom_site_fract_z
Si Si1 0.428452 0.828796 0.240039
Si Si2 0.061851 0.684847 0.461300
Si Si3 0.172965 0.045944 0.102935
Si Si4 0.000000 0.804750 0.250000
Si Si5 0.676393 0.883868 0.341260
Si Si6 0.361309 0.061732 0.481003
O O1 0.274618 0.886958 0.435491
O O2 0.444429 0.665495 0.244724
O O3 0.534064 0.929802 0.150610
O O4 0.457986 0.837548 0.137002
O O5 0.170356 0.814078 0.349480
O O6 0.157194 0.543516 0.336204
O O7 0.954184 0.711236 0.532638
O O8 0.116374 0.901421 0.142685
O O9 0.230687 0.992900 0.097098
O O10 0.927140 0.708749 0.382976
O O11 0.674778 0.904329 0.411415
#
# Coordination Sequence:
#
# PCOD8150018 Si02
#       6
#     8   8   8   4   8   8
#     4  10  24  43  70  93 136 173 231 270 331 397
#     4  10  24  45  68 101 133 183 222 286 329 408
#     4  11  25  41  69 100 131 177 223 277 338 399
#     4  12  26  38  68 102 136 176 214 274 354 396
#     4  10  25  43  70  97 138 176 229 275 343 395
#     4  11  24  45  65  97 140 170 221 282 333 408
#
# _framework density 21.468516999999999
#
# number of rings (size 3 to 8) (size 9 to 14) (size 15 to 20)
#    0.000    1.455    1.818    0.545   12.727    5.091 
#    0.000    0.000    0.000    0.000    0.000    0.000 
#    0.000    0.000    0.000    0.000    0.000    0.000 
#
# Total GULP energy -272633.594796 kJ/mol
# GULP energy per Si atom -12392.436127 kJ/mol
# Density = 2.141965 g / cm^3
# Si number density = 21.468517 Si / 1000 Ang^3
#
#
#
# Elastic Constant Matrix: (Units=GPa)
#
#
# Indices 1 2 3 4 5 6 
#
# 1 115.4246 57.5455 65.3659 0.0004 -5.4724 0.0001
# 2 57.5455 144.1673 42.8935 -0.0022 -10.9836 -0.0001
# 3 65.3659 42.8935 82.8659 -0.0010 -5.0247 0.0002
# 4 0.0004 -0.0022 -0.0010 26.9886 0.0001 -7.6447
# 5 -5.4724 -10.9836 -5.0247 0.0001 29.1596 -0.0001
# 6 0.0001 -0.0001 0.0002 -7.6447 -0.0001 36.7210
#
#
#
# Elastic Compliance Matrix: (Units=1/GPa)
#
#
# Indices 1 2 3 4 5 6 
#
# 1 0.016877 -0.003286 -0.011616 -0.000001 -0.000072 0.000000
# 2 -0.003286 0.009006 -0.001922 0.000001 0.002444 0.000000
# 3 -0.011616 -0.001922 0.022282 0.000001 0.000936 0.000000
# 4 -0.000001 0.000001 0.000001 0.039375 0.000000 0.008197
# 5 -0.000072 0.002444 0.000936 0.000000 0.035362 0.000000
# 6 0.000000 0.000000 0.000000 0.008197 0.000000 0.028939
#
#
# Mechanical properties :
#
#
# Convention : Reuss Voigt Hill
#
# Bulk Modulus (GPa) = 68.88178 74.89639 71.88909
# Shear Modulus (GPa) = 26.27056 30.35069 28.31062
#
# Velocity S-wave (km/s) = 3.50191 3.76404 3.63534
# Velocity P-wave (km/s) = 6.96461 7.33846 7.15398
#
# Compressibility (1/GPa) = 0.01451763
#
# Stress axis : x y z
#
# Youngs Moduli (GPa) = 59.25304 111.03825 44.87914
#
# Poissons Ratio (x) = 0.36486 0.52132
# Poissons Ratio (y) = 0.19470 0.08624
# Poissons Ratio (z) = 0.68829 0.21336
#
# Static dielectric constant tensor:
#      x y z
#    x 3.889660 0.000000 0.416330 
#    y 0.000000 4.254200 0.000000 
#    z 0.416330 0.000000 -1.078230 
# 
# 
# High freq. dielectric constant tensor:
#      x y z
#    x 1.856000 0.000000 -0.001170 
#    y 0.000000 1.853810 0.000000 
#    z -0.001170 0.000000 1.827520 
# 
# From -- ./inp_files/284386.got.cif
#   From: 2010.06.25/outbox.cif.g09.slc.cpg/sg15_143_cif.got.tgz:284386.got - 2010.06.28 07:06:18.
