data_PCOD8150883
_publ_section_title
;
Structure prediction by ZEFSAII (Michael W. Deem and Ramdas Pophale) SiO2 
 PCOD8150883
Probable space group: C 2/C
;
_chemical_formula_sum "Si O2"
_cell_formula_units_Z 36
_cell_length_a 14.815297
_cell_length_b 11.308984
_cell_length_c 14.112124
_cell_angle_alpha 90.000000
_cell_angle_beta 38.171546
_cell_angle_gamma 90.000000
_cell_volume 1461.259996
_symmetry_space_group_name_H-M "C 2/C"
_symmetry_group_IT_number 15
_symmetry_cell_setting 'monoclinic'
loop_
_space_group_symop_operation_xyz
x,y,z
-x,y,1/2-z
-x,-y,-z
x,-y,1/2+z
1/2+x,1/2+y,z
1/2-x,1/2+y,1/2-z
1/2-x,1/2-y,-z
1/2+x,1/2-y,1/2+z
loop_
_atom_site_type_symbol
_atom_site_label
_atom_site_fract_x
_atom_site_fract_y
_atom_site_fract_z
Si Si1 0.167522 0.927841 0.694748
Si Si2 0.506428 0.350134 0.139920
Si Si3 0.293139 0.161519 0.286883
Si Si4 0.000000 0.725787 0.750000
Si Si5 0.030021 0.515906 0.586453
O O1 0.222227 0.886132 0.750832
O O2 0.136358 0.814898 0.653640
O O3 0.296299 0.007990 0.540415
O O4 0.023941 0.008659 0.830753
O O5 0.500000 0.295523 0.250000
O O6 0.375304 0.284076 0.192146
O O7 0.664016 0.321128 0.968046
O O8 0.417104 0.073526 0.229948
O O9 0.007907 0.647729 0.647576
O O10 0.000000 0.500000 0.500000
#
# Coordination Sequence:
#
# PCOD8150883 Si02
#       5
#     8   8   8   4   8
#     4  11  26  47  73 109 149 194 253 306 374 454
#     4  12  26  47  71 107 151 194 259 307 379 446
#     4  11  27  46  75 104 152 204 243 314 380 441
#     4  12  26  44  82 110 148 192 256 304 372 440
#     4  10  26  48  73 110 154 191 248 304 382 442
#
# _framework density 24.636271000000001
#
# number of rings (size 3 to 8) (size 9 to 14) (size 15 to 20)
#    0.000    0.889    1.111    3.333   17.111    1.778 
#    0.000    0.000    0.000    0.000    0.000    0.000 
#    0.000    0.000    0.000    0.000    0.000    0.000 
#
# Total GULP energy -223027.150361 kJ/mol
# GULP energy per Si atom -12390.397242 kJ/mol
# Density = 2.458020 g / cm^3
# Si number density = 24.636271 Si / 1000 Ang^3
#
#
#
# Elastic Constant Matrix: (Units=GPa)
#
#
# Indices 1 2 3 4 5 6 
#
# 1 82.4922 41.6855 52.1445 0.0000 -0.9768 0.0000
# 2 41.6855 141.9606 55.5647 0.0000 -5.1770 0.0000
# 3 52.1445 55.5647 191.1614 0.0000 -16.9796 0.0000
# 4 0.0000 0.0000 0.0000 35.8265 0.0000 -8.7002
# 5 -0.9768 -5.1770 -16.9796 0.0000 29.3679 0.0000
# 6 0.0000 0.0000 0.0000 -8.7002 0.0000 58.9768
#
#
#
# Elastic Compliance Matrix: (Units=1/GPa)
#
#
# Indices 1 2 3 4 5 6 
#
# 1 0.016082 -0.003395 -0.003590 0.000000 -0.002139 0.000000
# 2 -0.003395 0.008665 -0.001546 0.000000 0.000521 0.000000
# 3 -0.003590 -0.001546 0.006984 0.000000 0.003646 0.000000
# 4 0.000000 0.000000 0.000000 0.028949 0.000000 0.004271
# 5 -0.002139 0.000521 0.003646 0.000000 0.036179 0.000000
# 6 0.000000 0.000000 0.000000 0.004271 0.000000 0.017586
#
#
# Mechanical properties :
#
#
# Convention : Reuss Voigt Hill
#
# Bulk Modulus (GPa) = 68.17524 79.37818 73.77671
# Shear Modulus (GPa) = 36.65742 42.58221 39.61982
#
# Velocity S-wave (km/s) = 3.86157 4.16196 4.01458
# Velocity P-wave (km/s) = 6.90037 7.44217 7.17638
#
# Compressibility (1/GPa) = 0.01466808
#
# Stress axis : x y z
#
# Youngs Moduli (GPa) = 62.18148 115.40093 143.18940
#
# Poissons Ratio (x) = 0.39181 0.51404
# Poissons Ratio (y) = 0.21112 0.22143
# Poissons Ratio (z) = 0.22323 0.17846
#
# Static dielectric constant tensor:
#      x y z
#    x 4.759450 0.000000 -0.693500 
#    y 0.000000 4.498660 0.000000 
#    z -0.693500 0.000000 5.456330 
# 
# 
# High freq. dielectric constant tensor:
#      x y z
#    x 1.990720 0.000000 -0.013370 
#    y 0.000000 1.979650 0.000000 
#    z -0.013370 0.000000 1.983030 
# 
# From -- ./inp_files/152409.got.cif
#   From: 2010.06.25/outbox.cif.g09.slc.cpg/sg15_77_cif.got.tgz:152409.got - 2010.06.28 07:06:18.
