data_PCOD8150210
_publ_section_title
;
Structure prediction by ZEFSAII (Michael W. Deem and Ramdas Pophale) SiO2 
 PCOD8150210
Probable space group: C 2/C
;
_chemical_formula_sum "Si O2"
_cell_formula_units_Z 40
_cell_length_a 14.197213
_cell_length_b 12.156472
_cell_length_c 11.549682
_cell_angle_alpha 90.000000
_cell_angle_beta 62.601568
_cell_angle_gamma 90.000000
_cell_volume 1769.740160
_symmetry_space_group_name_H-M "C 2/C"
_symmetry_group_IT_number 15
_symmetry_cell_setting 'monoclinic'
loop_
_space_group_symop_operation_xyz
x,y,z
-x,y,1/2-z
-x,-y,-z
x,-y,1/2+z
1/2+x,1/2+y,z
1/2-x,1/2+y,1/2-z
1/2-x,1/2-y,-z
1/2+x,1/2-y,1/2+z
loop_
_atom_site_type_symbol
_atom_site_label
_atom_site_fract_x
_atom_site_fract_y
_atom_site_fract_z
Si Si1 0.030190 0.745616 0.523103
Si Si2 0.098194 0.040231 0.119259
Si Si3 0.833096 0.817469 0.526908
Si Si4 0.453122 0.033770 0.653869
Si Si5 0.223631 0.615884 0.310443
O O1 0.051732 0.864793 0.564146
O O2 0.138045 0.696982 0.413740
O O3 0.947596 0.757851 0.462883
O O4 0.973309 0.664909 0.649220
O O5 0.194767 0.084544 0.138008
O O6 0.000000 0.994369 0.250000
O O7 0.150591 0.942670 0.018348
O O8 0.750000 0.750000 0.500000
O O9 0.787727 0.814923 0.681282
O O10 0.500000 0.984561 0.750000
O O11 0.331355 0.992441 0.716478
O O12 0.500000 0.000000 0.500000
#
# Coordination Sequence:
#
# PCOD8150210 Si02
#       5
#     8   8   8   8   8
#     4  11  25  48  74 109 143 202 252 313 376 463
#     4  12  26  49  71 109 147 194 250 314 384 460
#     4  12  29  45  73 109 149 197 250 314 389 454
#     4  10  24  44  75 107 150 194 255 314 375 459
#     4  11  27  45  74 105 148 197 250 312 387 454
#
# _framework density 22.602188000000002
#
# number of rings (size 3 to 8) (size 9 to 14) (size 15 to 20)
#    0.000    0.800    2.000    3.000   14.000    1.600 
#    0.000    0.000    0.000    0.000    0.000    0.000 
#    0.000    0.000    0.000    0.000    0.000    0.000 
#
# Total GULP energy -247842.390320 kJ/mol
# GULP energy per Si atom -12392.119516 kJ/mol
# Density = 2.255074 g / cm^3
# Si number density = 22.602188 Si / 1000 Ang^3
#
#
#
# Elastic Constant Matrix: (Units=GPa)
#
#
# Indices 1 2 3 4 5 6 
#
# 1 188.2723 40.1347 40.1353 0.0000 13.8776 0.0000
# 2 40.1347 98.9856 19.7280 0.0000 2.8637 0.0000
# 3 40.1353 19.7280 84.4851 0.0000 10.0438 0.0000
# 4 0.0000 0.0000 0.0000 889.8705 0.0000 13.9649
# 5 13.8776 2.8637 10.0438 0.0000 40.2488 0.0000
# 6 0.0000 0.0000 0.0000 13.9649 0.0000 42.7719
#
#
#
# Elastic Compliance Matrix: (Units=1/GPa)
#
#
# Indices 1 2 3 4 5 6 
#
# 1 0.006364 -0.002066 -0.002368 0.000000 -0.001456 0.000000
# 2 -0.002066 0.011267 -0.001689 0.000000 0.000332 0.000000
# 3 -0.002368 -0.001689 0.013649 0.000000 -0.002470 0.000000
# 4 0.000000 0.000000 0.000000 0.001130 0.000000 -0.000369
# 5 -0.001456 0.000332 -0.002470 0.000000 0.025940 0.000000
# 6 0.000000 0.000000 0.000000 -0.000369 0.000000 0.023500
#
#
# Mechanical properties :
#
#
# Convention : Reuss Voigt Hill
#
# Bulk Modulus (GPa) = 52.53553 63.52654 58.03104
# Shear Modulus (GPa) = 49.78042 212.69457 131.23749
#
# Velocity S-wave (km/s) = 4.69813 9.71122 7.62824
# Velocity P-wave (km/s) = 7.26112 12.40609 10.16452
#
# Compressibility (1/GPa) = 0.01903474
#
# Stress axis : x y z
#
# Youngs Moduli (GPa) = 157.13326 88.75247 73.26483
#
# Poissons Ratio (x) = 0.18339 0.17346
# Poissons Ratio (y) = 0.32469 0.12374
# Poissons Ratio (z) = 0.37203 0.14989
#
# Static dielectric constant tensor:
#      x y z
#    x 4.288150 0.000000 -0.234480 
#    y 0.000000 4.285100 0.000000 
#    z -0.234480 0.000000 3.828850 
# 
# 
# High freq. dielectric constant tensor:
#      x y z
#    x 1.916510 0.000000 0.001920 
#    y 0.000000 1.895670 0.000000 
#    z 0.001920 0.000000 1.889850 
# 
# From -- ./inp_files/94904.got.cif
#   From: 2010.06.25/outbox.cif.g09.slc.cpg/sg15_48_cif.got.tgz:94904.got - 2010.06.28 07:06:18.
