data_PCOD8150264
_publ_section_title
;
Structure prediction by ZEFSAII (Michael W. Deem and Ramdas Pophale) SiO2 
 PCOD8150264
Probable space group: C 2/C
;
_chemical_formula_sum "Si O2"
_cell_formula_units_Z 44
_cell_length_a 21.072884
_cell_length_b 8.414853
_cell_length_c 13.316912
_cell_angle_alpha 90.000000
_cell_angle_beta 121.310172
_cell_angle_gamma 90.000000
_cell_volume 2017.522068
_symmetry_space_group_name_H-M "C 2/C"
_symmetry_group_IT_number 15
_symmetry_cell_setting 'monoclinic'
loop_
_space_group_symop_operation_xyz
x,y,z
-x,y,1/2-z
-x,-y,-z
x,-y,1/2+z
1/2+x,1/2+y,z
1/2-x,1/2+y,1/2-z
1/2-x,1/2-y,-z
1/2+x,1/2-y,1/2+z
loop_
_atom_site_type_symbol
_atom_site_label
_atom_site_fract_x
_atom_site_fract_y
_atom_site_fract_z
Si Si1 0.658775 0.361404 0.093835
Si Si2 0.518373 0.235728 0.076914
Si Si3 0.101208 0.587635 0.660053
Si Si4 0.000000 0.937589 0.250000
Si Si5 0.141805 0.154621 0.349689
Si Si6 0.244121 0.567872 0.212338
O O1 0.574311 0.350987 0.062083
O O2 0.695904 0.532408 0.148937
O O3 0.709645 0.241594 0.201278
O O4 0.664357 0.311949 0.982652
O O5 0.483004 0.327547 0.140874
O O6 0.558481 0.076052 0.149957
O O7 0.451266 0.201028 0.947153
O O8 0.123830 0.676818 0.781637
O O9 0.175274 0.555046 0.655968
O O10 0.929216 0.043493 0.214252
O O11 0.210532 0.062579 0.354880
#
# Coordination Sequence:
#
# PCOD8150264 Si02
#       6
#     8   8   8   4   8   8
#     4  11  24  45  68  96 136 172 229 273 343 394
#     4  10  24  46  66  98 134 180 223 280 327 405
#     4  10  24  45  69  94 141 178 221 275 339 392
#     4  12  26  40  70 102 132 174 232 274 334 396
#     4  12  25  42  70 101 131 186 218 280 336 402
#     4  11  23  43  67 100 131 176 220 280 325 403
#
# _framework density 21.808931000000001
#
# number of rings (size 3 to 8) (size 9 to 14) (size 15 to 20)
#    0.000    1.091    3.636    1.636    2.545    6.545 
#    3.273    1.818    0.000    0.000    0.000    0.000 
#    0.000    0.000    0.000    0.000    0.000    0.000 
#
# Total GULP energy -272787.893913 kJ/mol
# GULP energy per Si atom -12399.449723 kJ/mol
# Density = 2.175929 g / cm^3
# Si number density = 21.808931 Si / 1000 Ang^3
#
#
#
# Elastic Constant Matrix: (Units=GPa)
#
#
# Indices 1 2 3 4 5 6 
#
# 1 115.3995 15.8179 11.1364 0.0000 1.0789 0.0000
# 2 15.8179 54.8186 28.4496 0.0000 0.5543 0.0000
# 3 11.1364 28.4496 97.9075 0.0000 -5.8399 0.0000
# 4 0.0000 0.0000 0.0000 37.1159 0.0000 -0.1741
# 5 1.0789 0.5543 -5.8399 0.0000 39.0640 0.0000
# 6 0.0000 0.0000 0.0000 -0.1741 0.0000 39.4188
#
#
#
# Elastic Compliance Matrix: (Units=1/GPa)
#
#
# Indices 1 2 3 4 5 6 
#
# 1 0.009034 -0.002429 -0.000338 0.000000 -0.000266 0.000000
# 2 -0.002429 0.022195 -0.006244 0.000000 -0.001181 0.000000
# 3 -0.000338 -0.006244 0.012181 0.000000 0.001919 0.000000
# 4 0.000000 0.000000 0.000000 0.026943 0.000000 0.000119
# 5 -0.000266 -0.001181 0.001919 0.000000 0.025910 0.000000
# 6 0.000000 0.000000 0.000000 0.000119 0.000000 0.025369
#
#
# Mechanical properties :
#
#
# Convention : Reuss Voigt Hill
#
# Bulk Modulus (GPa) = 39.38627 42.10371 40.74499
# Shear Modulus (GPa) = 33.75765 37.30119 35.52942
#
# Velocity S-wave (km/s) = 3.93858 4.14014 4.04062
# Velocity P-wave (km/s) = 6.22753 6.49630 6.36334
#
# Compressibility (1/GPa) = 0.02538956
#
# Stress axis : x y z
#
# Youngs Moduli (GPa) = 110.69888 45.05521 82.09634
#
# Poissons Ratio (x) = 0.10943 0.02772
# Poissons Ratio (y) = 0.26886 0.51257
# Poissons Ratio (z) = 0.03737 0.28130
#
# Static dielectric constant tensor:
#      x y z
#    x 4.232630 0.000000 0.168140 
#    y 0.000000 4.091760 0.000000 
#    z 0.168140 0.000000 3.836040 
# 
# 
# High freq. dielectric constant tensor:
#      x y z
#    x 1.878740 0.000000 0.017460 
#    y 0.000000 1.859310 0.000000 
#    z 0.017460 0.000000 1.846060 
# 
# From -- ./inp_files/116852.got.cif
#   From: 2010.06.25/outbox.cif.g09.slc.cpg/sg15_59_cif.got.tgz:116852.got - 2010.06.28 07:06:18.
