data_PCOD8150588
_publ_section_title
;
Structure prediction by ZEFSAII (Michael W. Deem and Ramdas Pophale) SiO2 
 PCOD8150588
Probable space group: C 2/C
;
_chemical_formula_sum "Si O2"
_cell_formula_units_Z 60
_cell_length_a 20.220817
_cell_length_b 17.274363
_cell_length_c 9.178966
_cell_angle_alpha 90.000000
_cell_angle_beta 62.108297
_cell_angle_gamma 90.000000
_cell_volume 2833.771982
_symmetry_space_group_name_H-M "C 2/C"
_symmetry_group_IT_number 15
_symmetry_cell_setting 'monoclinic'
loop_
_space_group_symop_operation_xyz
x,y,z
-x,y,1/2-z
-x,-y,-z
x,-y,1/2+z
1/2+x,1/2+y,z
1/2-x,1/2+y,1/2-z
1/2-x,1/2-y,-z
1/2+x,1/2-y,1/2+z
loop_
_atom_site_type_symbol
_atom_site_label
_atom_site_fract_x
_atom_site_fract_y
_atom_site_fract_z
Si Si1 0.905357 0.789954 0.694836
Si Si2 0.077534 0.043524 0.404675
Si Si3 0.186284 0.008969 0.038197
Si Si4 0.794242 0.817978 0.037164
Si Si5 0.073453 0.546733 0.469530
Si Si6 0.212410 0.716988 0.895303
Si Si7 0.500000 0.168330 0.750000
Si Si8 0.340031 0.068697 0.417713
O O1 0.945669 0.866339 0.592085
O O2 0.838477 0.774030 0.649219
O O3 0.959943 0.717806 0.663796
O O4 0.877951 0.808451 0.889398
O O5 0.127913 0.010514 0.226419
O O6 0.133108 0.028591 0.476395
O O7 0.000000 0.000000 0.500000
O O8 0.227263 0.092258 0.972161
O O9 0.252893 0.948037 0.985409
O O10 0.782751 0.808670 0.221792
O O11 0.750000 0.750000 0.000000
O O12 0.115515 0.575023 0.280549
O O13 0.127268 0.492950 0.505670
O O14 0.000000 0.500000 0.500000
O O15 0.056896 0.617214 0.596189
O O16 0.250000 0.750000 0.000000
O O17 0.155682 0.649791 0.002412
#
# Coordination Sequence:
#
# PCOD8150588 Si02
#       8
#     8   8   8   8   8   8   4   8
#     4  10  25  43  68  96 136 184 234 280 354 425
#     4  11  24  44  69  98 134 177 236 286 349 406
#     4  11  23  42  66 101 130 177 229 284 341 415
#     4   9  21  39  66  95 136 174 227 279 348 419
#     4  12  25  45  69 103 139 186 231 286 346 427
#     4  11  23  41  66 102 139 173 224 292 351 411
#     4  12  26  44  72  98 142 184 242 276 356 440
#     4  12  25  42  71  99 140 179 231 284 349 413
#
# _framework density 21.173193000000001
#
# number of rings (size 3 to 8) (size 9 to 14) (size 15 to 20)
#    0.000    1.067    1.333    4.400    9.333    1.067 
#    0.000    2.667    0.000    0.000    0.000    0.000 
#    0.000    0.000    0.000    0.000    0.000    0.000 
#
# Total GULP energy -371654.899645 kJ/mol
# GULP energy per Si atom -12388.496655 kJ/mol
# Density = 2.112500 g / cm^3
# Si number density = 21.173193 Si / 1000 Ang^3
#
#
#
# Elastic Constant Matrix: (Units=GPa)
#
#
# Indices 1 2 3 4 5 6 
#
# 1 125.0590 38.1904 41.8263 0.0000 3.7519 0.0000
# 2 38.1904 121.4617 58.3485 0.0000 -5.9844 0.0000
# 3 41.8263 58.3485 169.2181 0.0000 6.5093 0.0000
# 4 0.0000 0.0000 0.0000 37.3429 0.0000 0.4024
# 5 3.7519 -5.9844 6.5093 0.0000 33.5066 0.0000
# 6 0.0000 0.0000 0.0000 0.4024 0.0000 40.5975
#
#
#
# Elastic Compliance Matrix: (Units=1/GPa)
#
#
# Indices 1 2 3 4 5 6 
#
# 1 0.009205 -0.002252 -0.001454 0.000000 -0.001150 0.000000
# 2 -0.002252 0.010621 -0.003212 0.000000 0.002773 0.000000
# 3 -0.001454 -0.003212 0.007448 0.000000 -0.001858 0.000000
# 4 0.000000 0.000000 0.000000 0.026782 0.000000 -0.000265
# 5 -0.001150 0.002773 -0.001858 0.000000 0.030830 0.000000
# 6 0.000000 0.000000 0.000000 -0.000265 0.000000 0.024635
#
#
# Mechanical properties :
#
#
# Convention : Reuss Voigt Hill
#
# Bulk Modulus (GPa) = 74.42523 76.94101 75.68312
# Shear Modulus (GPa) = 39.11237 40.78096 39.94666
#
# Velocity S-wave (km/s) = 4.30264 4.39346 4.34828
# Velocity P-wave (km/s) = 7.74019 7.88381 7.81233
#
# Compressibility (1/GPa) = 0.01343630
#
# Stress axis : x y z
#
# Youngs Moduli (GPa) = 108.63719 94.15353 134.26273
#
# Poissons Ratio (x) = 0.21206 0.19527
# Poissons Ratio (y) = 0.24468 0.43128
# Poissons Ratio (z) = 0.15800 0.30244
#
# Static dielectric constant tensor:
#      x y z
#    x 3.745250 0.000000 -0.087840 
#    y 0.000000 4.187370 0.000000 
#    z -0.087840 0.000000 4.390180 
# 
# 
# High freq. dielectric constant tensor:
#      x y z
#    x 1.823480 0.000000 0.004320 
#    y 0.000000 1.843830 0.000000 
#    z 0.004320 0.000000 1.849100 
# 
# From -- ./inp_files/57006.got.cif
#   From: 2010.06.25/outbox.cif.g09.slc.cpg/sg15_29_cif.got.tgz:57006.got - 2010.06.28 07:06:18.
