data_PCOD8150624
_publ_section_title
;
Structure prediction by ZEFSAII (Michael W. Deem and Ramdas Pophale) SiO2 
 PCOD8150624
Probable space group: C 2/C
;
_chemical_formula_sum "Si O2"
_cell_formula_units_Z 44
_cell_length_a 26.943914
_cell_length_b 8.642983
_cell_length_c 9.753839
_cell_angle_alpha 90.000000
_cell_angle_beta 123.050260
_cell_angle_gamma 90.000000
_cell_volume 1903.898049
_symmetry_space_group_name_H-M "C 2/C"
_symmetry_group_IT_number 15
_symmetry_cell_setting 'monoclinic'
loop_
_space_group_symop_operation_xyz
x,y,z
-x,y,1/2-z
-x,-y,-z
x,-y,1/2+z
1/2+x,1/2+y,z
1/2-x,1/2+y,1/2-z
1/2-x,1/2-y,-z
1/2+x,1/2-y,1/2+z
loop_
_atom_site_type_symbol
_atom_site_label
_atom_site_fract_x
_atom_site_fract_y
_atom_site_fract_z
Si Si1 0.249159 0.604335 0.398298
Si Si2 0.684827 0.446019 0.776290
Si Si3 0.920590 0.838251 0.713347
Si Si4 0.363579 0.775364 0.865224
Si Si5 0.510301 0.180234 0.023659
Si Si6 0.000000 0.890331 0.250000
O O1 0.250000 0.750000 0.500000
O O2 0.271137 0.456384 0.522479
O O3 0.288217 0.634376 0.319067
O O4 0.181758 0.583462 0.238488
O O5 0.624843 0.358514 0.728845
O O6 0.671472 0.619843 0.714265
O O7 0.887575 0.726232 0.556351
O O8 0.981791 0.754628 0.845743
O O9 0.941061 0.006260 0.687893
O O10 0.420159 0.789974 0.853104
O O11 0.479802 0.274744 0.099705
O O12 0.500000 0.000000 0.000000
#
# Coordination Sequence:
#
# PCOD8150624 Si02
#       6
#     8   8   8   8   8   4
#     4  10  25  44  70 106 145 186 249 315 382 438
#     4  11  22  46  74 108 139 201 264 314 374 465
#     4  12  23  44  81 106 143 202 264 313 382 473
#     4  11  23  45  70 100 152 191 254 316 378 467
#     4  12  28  44  69 114 156 195 246 325 411 452
#     4  12  24  44  78 108 144 202 262 316 378 474
#
# _framework density 23.110482999999999
#
# number of rings (size 3 to 8) (size 9 to 14) (size 15 to 20)
#    0.000    0.727    5.455    1.636    2.545    2.182 
#    6.545    0.000    0.000    0.000    0.000    0.000 
#    0.000    0.000    0.000    0.000    0.000    0.000 
#
# Total GULP energy -272604.274631 kJ/mol
# GULP energy per Si atom -12391.103392 kJ/mol
# Density = 2.305788 g / cm^3
# Si number density = 23.110483 Si / 1000 Ang^3
#
#
#
# Elastic Constant Matrix: (Units=GPa)
#
#
# Indices 1 2 3 4 5 6 
#
# 1 152.7567 39.7346 60.3916 0.0000 -2.1127 0.0000
# 2 39.7346 85.3139 34.3595 0.0000 -5.0304 0.0000
# 3 60.3916 34.3595 126.6302 0.0000 2.3069 0.0000
# 4 0.0000 0.0000 0.0000 37.5637 0.0000 -3.3822
# 5 -2.1127 -5.0304 2.3069 0.0000 49.9602 0.0000
# 6 0.0000 0.0000 0.0000 -3.3822 0.0000 30.3937
#
#
#
# Elastic Compliance Matrix: (Units=1/GPa)
#
#
# Indices 1 2 3 4 5 6 
#
# 1 0.008566 -0.002613 -0.003381 0.000000 0.000255 0.000000
# 2 -0.002613 0.014068 -0.002597 0.000000 0.001426 0.000000
# 3 -0.003381 -0.002597 0.010230 0.000000 -0.000877 0.000000
# 4 0.000000 0.000000 0.000000 0.026891 0.000000 0.002992
# 5 0.000255 0.001426 -0.000877 0.000000 0.020211 0.000000
# 6 0.000000 0.000000 0.000000 0.002992 0.000000 0.033234
#
#
# Mechanical properties :
#
#
# Convention : Reuss Voigt Hill
#
# Bulk Modulus (GPa) = 63.76480 70.40801 67.08641
# Shear Modulus (GPa) = 36.87025 38.93120 37.90072
#
# Velocity S-wave (km/s) = 3.99857 4.10880 4.05406
# Velocity P-wave (km/s) = 6.99780 7.28297 7.14181
#
# Compressibility (1/GPa) = 0.01568263
#
# Stress axis : x y z
#
# Youngs Moduli (GPa) = 116.73755 71.08105 97.75054
#
# Poissons Ratio (x) = 0.18573 0.33049
# Poissons Ratio (y) = 0.30503 0.25387
# Poissons Ratio (z) = 0.39469 0.18461
#
# Static dielectric constant tensor:
#      x y z
#    x 5.109510 0.000000 0.329070 
#    y 0.000000 3.849690 0.000000 
#    z 0.329070 0.000000 5.062960 
# 
# 
# High freq. dielectric constant tensor:
#      x y z
#    x 1.921110 0.000000 0.003280 
#    y 0.000000 1.876030 0.000000 
#    z 0.003280 0.000000 1.933670 
# 
# From -- ./inp_files/68648.got.cif
#   From: 2010.06.25/outbox.cif.g09.slc.cpg/sg15_35_cif.got.tgz:68648.got - 2010.06.28 07:06:18.
