data_PCOD8150008
_publ_section_title
;
Structure prediction by ZEFSAII (Michael W. Deem and Ramdas Pophale) SiO2 
 PCOD8150008
Probable space group: C 2/C
;
_chemical_formula_sum "Si O2"
_cell_formula_units_Z 48
_cell_length_a 16.771873
_cell_length_b 16.609268
_cell_length_c 8.918433
_cell_angle_alpha 90.000000
_cell_angle_beta 124.728142
_cell_angle_gamma 90.000000
_cell_volume 2041.835466
_symmetry_space_group_name_H-M "C 2/C"
_symmetry_group_IT_number 15
_symmetry_cell_setting 'monoclinic'
loop_
_space_group_symop_operation_xyz
x,y,z
-x,y,1/2-z
-x,-y,-z
x,-y,1/2+z
1/2+x,1/2+y,z
1/2-x,1/2+y,1/2-z
1/2-x,1/2-y,-z
1/2+x,1/2-y,1/2+z
loop_
_atom_site_type_symbol
_atom_site_label
_atom_site_fract_x
_atom_site_fract_y
_atom_site_fract_z
Si Si1 0.611528 0.049814 0.911279
Si Si2 0.021425 0.793692 0.608822
Si Si3 0.407241 0.604512 0.572652
Si Si4 0.700193 0.811191 0.332106
Si Si5 0.194083 0.414738 0.824297
Si Si6 0.840875 0.767947 0.237814
O O1 0.500000 0.069750 0.750000
O O2 0.686756 0.101956 0.892856
O O3 0.635719 0.957076 0.896497
O O4 0.635796 0.064193 0.110826
O O5 0.925108 0.750696 0.446414
O O6 0.000000 0.828397 0.750000
O O7 0.058782 0.870065 0.555941
O O8 0.094962 0.720790 0.681583
O O9 0.500000 0.558324 0.750000
O O10 0.307148 0.554142 0.446347
O O11 0.385630 0.683835 0.647809
O O12 0.750000 0.750000 0.500000
O O13 0.759314 0.818883 0.239910
O O14 0.199945 0.318386 0.861311
#
# Coordination Sequence:
#
# PCOD8150008 Si02
#       6
#     8   8   8   8   8   8
#     4  12  28  45  69 104 147 182 230 283 355 423
#     4  11  20  36  66 103 133 170 232 292 339 402
#     4  10  24  43  69 102 137 175 241 294 340 408
#     4  12  21  40  70 100 135 177 236 289 336 413
#     4  12  25  47  66 101 142 190 226 280 359 416
#     4  11  23  40  71 101 135 182 235 291 348 404
#
# _framework density 23.50826
#
# number of rings (size 3 to 8) (size 9 to 14) (size 15 to 20)
#    0.000    0.667    5.000    2.500    2.333    2.000 
#    0.000    0.833    3.667    0.000    0.000    0.000 
#    0.000    0.000    0.000    0.000    0.000    0.000 
#
# Total GULP energy -297560.850804 kJ/mol
# GULP energy per Si atom -12398.368783 kJ/mol
# Density = 2.345475 g / cm^3
# Si number density = 23.508260 Si / 1000 Ang^3
#
#
#
# Elastic Constant Matrix: (Units=GPa)
#
#
# Indices 1 2 3 4 5 6 
#
# 1 123.0532 13.0153 35.0996 0.0000 7.9589 0.0000
# 2 13.0153 51.2706 -7.7306 0.0000 0.1788 0.0000
# 3 35.0996 -7.7306 108.8951 0.0000 27.0921 0.0000
# 4 0.0000 0.0000 0.0000 13.2060 0.0000 3.2472
# 5 7.9589 0.1788 27.0921 0.0000 55.0349 0.0000
# 6 0.0000 0.0000 0.0000 3.2472 0.0000 39.3471
#
#
#
# Elastic Compliance Matrix: (Units=1/GPa)
#
#
# Indices 1 2 3 4 5 6 
#
# 1 0.009350 -0.002870 -0.003286 0.000000 0.000275 0.000000
# 2 -0.002870 0.020632 0.002625 0.000000 -0.000944 0.000000
# 3 -0.003286 0.002625 0.011752 0.000000 -0.005318 0.000000
# 4 0.000000 0.000000 0.000000 0.077292 0.000000 -0.006379
# 5 0.000275 -0.000944 -0.005318 0.000000 0.020752 0.000000
# 6 0.000000 0.000000 0.000000 -0.006379 0.000000 0.025941
#
#
# Mechanical properties :
#
#
# Convention : Reuss Voigt Hill
#
# Bulk Modulus (GPa) = 28.84230 40.44305 34.64267
# Shear Modulus (GPa) = 27.12428 37.70656 32.41542
#
# Velocity S-wave (km/s) = 3.40048 4.00931 3.71738
# Velocity P-wave (km/s) = 5.26434 6.21883 5.76138
#
# Compressibility (1/GPa) = 0.03467130
#
# Stress axis : x y z
#
# Youngs Moduli (GPa) = 106.95725 48.46868 85.09417
#
# Poissons Ratio (x) = 0.13909 0.27959
# Poissons Ratio (y) = 0.30694 -0.22333
# Poissons Ratio (z) = 0.35142 -0.12721
#
# Static dielectric constant tensor:
#      x y z
#    x 4.688260 0.000000 0.266300 
#    y 0.000000 3.732020 0.000000 
#    z 0.266300 0.000000 4.543490 
# 
# 
# High freq. dielectric constant tensor:
#      x y z
#    x 1.948610 0.000000 0.011830 
#    y 0.000000 1.884890 0.000000 
#    z 0.011830 0.000000 1.959610 
# 
# From -- ./inp_files/48713.got.cif
#   From: 2010.06.25/outbox.cif.g09.slc.cpg/sg15_25_cif.got.tgz:48713.got - 2010.06.28 07:06:18.
