data_PCOD8150634
_publ_section_title
;
Structure prediction by ZEFSAII (Michael W. Deem and Ramdas Pophale) SiO2 
 PCOD8150634
Probable space group: C 2/C
;
_chemical_formula_sum "Si O2"
_cell_formula_units_Z 36
_cell_length_a 4.787294
_cell_length_b 18.880536
_cell_length_c 14.088186
_cell_angle_alpha 90.000000
_cell_angle_beta 97.861780
_cell_angle_gamma 90.000000
_cell_volume 1261.415682
_symmetry_space_group_name_H-M "C 2/C"
_symmetry_group_IT_number 15
_symmetry_cell_setting 'monoclinic'
loop_
_space_group_symop_operation_xyz
x,y,z
-x,y,1/2-z
-x,-y,-z
x,-y,1/2+z
1/2+x,1/2+y,z
1/2-x,1/2+y,1/2-z
1/2-x,1/2-y,-z
1/2+x,1/2-y,1/2+z
loop_
_atom_site_type_symbol
_atom_site_label
_atom_site_fract_x
_atom_site_fract_y
_atom_site_fract_z
Si Si1 0.443950 0.600807 0.377151
Si Si2 0.214723 0.546558 0.842198
Si Si3 0.989193 0.626890 0.500895
Si Si4 0.000000 0.685375 0.250000
Si Si5 0.225464 0.700172 0.840865
O O1 0.440440 0.516214 0.361658
O O2 0.769720 0.624604 0.400882
O O3 0.277912 0.637942 0.282716
O O4 0.300554 0.623714 0.471024
O O5 0.366076 0.622454 0.826316
O O6 0.000000 0.524868 0.750000
O O7 0.051274 0.557061 0.934887
O O8 0.930960 0.697262 0.563052
O O9 0.044947 0.737062 0.159148
O O10 0.000000 0.718445 0.750000
#
# Coordination Sequence:
#
# PCOD8150634 Si02
#       5
#     8   8   8   4   8
#     4  12  25  46  71 109 139 183 237 306 341 416
#     4   9  20  47  71 105 139 189 231 291 356 422
#     4  10  25  44  75 102 143 180 245 286 356 413
#     4  12  28  44  70 104 152 186 240 286 370 412
#     4   9  24  45  70  98 143 189 233 281 353 437
#
# _framework density 28.539363999999999
#
# number of rings (size 3 to 8) (size 9 to 14) (size 15 to 20)
#    1.333    0.444    1.111    1.333    6.222    1.778 
#    8.000    0.000    0.000    0.000    0.000    0.000 
#    0.000    0.000    0.000    0.000    0.000    0.000 
#
# Total GULP energy -223068.514973 kJ/mol
# GULP energy per Si atom -12392.695276 kJ/mol
# Density = 2.847441 g / cm^3
# Si number density = 28.539364 Si / 1000 Ang^3
#
#
#
# Elastic Constant Matrix: (Units=GPa)
#
#
# Indices 1 2 3 4 5 6 
#
# 1 50.4054 12.5202 -15.5491 0.0000 7.1679 0.0000
# 2 12.5202 146.0571 -19.1124 0.0000 1.7768 0.0000
# 3 -15.5491 -19.1124 105.5792 0.0000 17.5180 0.0000
# 4 0.0000 0.0000 0.0000 11.5129 0.0000 -22.1382
# 5 7.1679 1.7768 17.5180 0.0000 37.0266 0.0000
# 6 0.0000 0.0000 0.0000 -22.1382 0.0000 0.1160
#
#
#
# Elastic Compliance Matrix: (Units=1/GPa)
#
#
# Indices 1 2 3 4 5 6 
#
# 1 0.022299 -0.001303 0.004074 0.000000 -0.006182 0.000000
# 2 -0.001303 0.007124 0.001207 0.000000 -0.000661 0.000000
# 3 0.004074 0.001207 0.011319 0.000000 -0.006202 0.000000
# 4 0.000000 0.000000 0.000000 -0.000237 0.000000 -0.045294
# 5 -0.006182 -0.000661 -0.006202 0.000000 0.031170 0.000000
# 6 0.000000 0.000000 0.000000 -0.045294 0.000000 -0.023555
#
#
# Mechanical properties :
#
#
# Convention : Reuss Voigt Hill
#
# Bulk Modulus (GPa) = 20.53472 28.63991 24.58731
# Shear Modulus (GPa) = 88.65805 31.34331 60.00068
#
# Velocity S-wave (km/s) = 5.57966 3.31758 4.59015
# Velocity P-wave (km/s) = 6.98004 4.97314 6.06024
#
# Compressibility (1/GPa) = 0.04869801
#
# Stress axis : x y z
#
# Youngs Moduli (GPa) = 44.84596 140.36300 88.34611
#
# Poissons Ratio (x) = 0.18292 -0.35990
# Poissons Ratio (y) = 0.05844 -0.10667
# Poissons Ratio (z) = -0.18269 -0.16948
#
# Static dielectric constant tensor:
#      x y z
#    x 4.564500 0.000000 -0.191250 
#    y 0.000000 5.040530 0.000000 
#    z -0.191250 0.000000 5.263700 
# 
# 
# High freq. dielectric constant tensor:
#      x y z
#    x 2.121990 0.000000 -0.011100 
#    y 0.000000 2.158020 0.000000 
#    z -0.011100 0.000000 2.176620 
# 
# From -- ./inp_files/128775.got.cif
#   From: 2010.06.25/outbox.cif.g09.slc.cpg/sg15_65_cif.got.tgz:128775.got - 2010.06.28 07:06:18.
