data_PCOD8150177
_publ_section_title
;
Structure prediction by ZEFSAII (Michael W. Deem and Ramdas Pophale) SiO2 
 PCOD8150177
Probable space group: C 2/C
;
_chemical_formula_sum "Si O2"
_cell_formula_units_Z 40
_cell_length_a 9.168212
_cell_length_b 22.570781
_cell_length_c 8.569431
_cell_angle_alpha 90.000000
_cell_angle_beta 78.886359
_cell_angle_gamma 90.000000
_cell_volume 1740.048983
_symmetry_space_group_name_H-M "C 2/C"
_symmetry_group_IT_number 15
_symmetry_cell_setting 'monoclinic'
loop_
_space_group_symop_operation_xyz
x,y,z
-x,y,1/2-z
-x,-y,-z
x,-y,1/2+z
1/2+x,1/2+y,z
1/2-x,1/2+y,1/2-z
1/2-x,1/2-y,-z
1/2+x,1/2-y,1/2+z
loop_
_atom_site_type_symbol
_atom_site_label
_atom_site_fract_x
_atom_site_fract_y
_atom_site_fract_z
Si Si1 0.454276 0.874126 0.583497
Si Si2 0.044748 0.137060 0.566056
Si Si3 0.069076 0.746585 0.565015
Si Si4 0.787224 0.061395 0.520409
Si Si5 0.703182 0.060886 0.890985
O O1 0.500000 0.882725 0.750000
O O2 0.492335 0.807863 0.523560
O O3 0.282444 0.888509 0.580486
O O4 0.533437 0.927847 0.472121
O O5 0.215371 0.116615 0.540332
O O6 0.000000 0.152608 0.750000
O O7 0.016996 0.194902 0.470201
O O8 0.956786 0.081015 0.511567
O O9 0.250000 0.750000 0.500000
O O10 0.000000 0.734276 0.750000
O O11 0.708333 0.061293 0.704212
O O12 0.777770 0.998576 0.438937
#
# Coordination Sequence:
#
# PCOD8150177 Si02
#       5
#     8   8   8   8   8
#     4  12  26  44  69  99 138 183 237 288 356 420
#     4  10  24  44  70  99 139 183 235 287 353 419
#     4  12  27  47  76 104 143 188 236 295 357 422
#     4  11  22  44  66 101 141 179 235 286 356 418
#     4  11  24  40  70 100 136 185 229 296 345 428
#
# _framework density 22.987857999999999
#
# number of rings (size 3 to 8) (size 9 to 14) (size 15 to 20)
#    0.000    0.800    2.000    4.800    5.600    2.400 
#    0.000    0.000    0.000    0.000    0.000    0.000 
#    0.000    0.000    0.000    0.000    0.000    0.000 
#
# Total GULP energy -247884.955560 kJ/mol
# GULP energy per Si atom -12394.247778 kJ/mol
# Density = 2.293554 g / cm^3
# Si number density = 22.987858 Si / 1000 Ang^3
#
#
#
# Elastic Constant Matrix: (Units=GPa)
#
#
# Indices 1 2 3 4 5 6 
#
# 1 57.6966 3.6145 46.2594 0.0000 10.9263 0.0000
# 2 3.6145 115.3161 23.6094 0.0000 14.6487 0.0000
# 3 46.2594 23.6094 97.4797 0.0000 25.2851 0.0000
# 4 0.0000 0.0000 0.0000 20.1506 0.0000 -6.4035
# 5 10.9263 14.6487 25.2851 0.0000 36.2069 0.0000
# 6 0.0000 0.0000 0.0000 -6.4035 0.0000 3.0279
#
#
#
# Elastic Compliance Matrix: (Units=1/GPa)
#
#
# Indices 1 2 3 4 5 6 
#
# 1 0.028401 0.001930 -0.014068 0.000000 0.000473 0.000000
# 2 0.001930 0.009464 -0.002520 0.000000 -0.002651 0.000000
# 3 -0.014068 -0.002520 0.019758 0.000000 -0.008533 0.000000
# 4 0.000000 0.000000 0.000000 0.151325 0.000000 0.320026
# 5 0.000473 -0.002651 -0.008533 0.000000 0.034508 0.000000
# 6 0.000000 0.000000 0.000000 0.320026 0.000000 1.007057
#
#
# Mechanical properties :
#
#
# Convention : Reuss Voigt Hill
#
# Bulk Modulus (GPa) = 35.32711 46.38432 40.85572
# Shear Modulus (GPa) = 3.87818 25.01103 14.44461
#
# Velocity S-wave (km/s) = 1.30028 3.30208 2.50943
# Velocity P-wave (km/s) = 4.20183 5.89575 5.11934
#
# Compressibility (1/GPa) = 0.02830687
#
# Stress axis : x y z
#
# Youngs Moduli (GPa) = 35.21047 105.66217 50.61181
#
# Poissons Ratio (x) = -0.20392 0.71199
# Poissons Ratio (y) = -0.06795 0.12756
# Poissons Ratio (z) = 0.49533 0.26630
#
# Static dielectric constant tensor:
#      x y z
#    x 4.347300 0.000000 0.154500 
#    y 0.000000 4.107490 0.000000 
#    z 0.154500 0.000000 4.079360 
# 
# 
# High freq. dielectric constant tensor:
#      x y z
#    x 1.918640 0.000000 0.017590 
#    y 0.000000 1.919250 0.000000 
#    z 0.017590 0.000000 1.909180 
# 
# From -- ./inp_files/23434.got.cif
#   From: 2010.06.25/outbox.cif.g09.slc.cpg/sg15_12_cif.got.tgz:23434.got - 2010.06.28 07:06:18.
