data_PCOD8150941
_publ_section_title
;
Structure prediction by ZEFSAII (Michael W. Deem and Ramdas Pophale) SiO2 
 PCOD8150941
Probable space group: C 2/C
;
_chemical_formula_sum "Si O2"
_cell_formula_units_Z 48
_cell_length_a 26.467732
_cell_length_b 13.319028
_cell_length_c 13.914865
_cell_angle_alpha 90.000000
_cell_angle_beta 28.163508
_cell_angle_gamma 90.000000
_cell_volume 2315.263728
_symmetry_space_group_name_H-M "C 2/C"
_symmetry_group_IT_number 15
_symmetry_cell_setting 'monoclinic'
loop_
_space_group_symop_operation_xyz
x,y,z
-x,y,1/2-z
-x,-y,-z
x,-y,1/2+z
1/2+x,1/2+y,z
1/2-x,1/2+y,1/2-z
1/2-x,1/2-y,-z
1/2+x,1/2-y,1/2+z
loop_
_atom_site_type_symbol
_atom_site_label
_atom_site_fract_x
_atom_site_fract_y
_atom_site_fract_z
Si Si1 0.512754 0.221596 0.561658
Si Si2 0.000000 0.868533 0.750000
Si Si3 0.380623 0.954163 0.704341
Si Si4 0.193034 0.782608 0.691593
Si Si5 0.710611 0.002805 0.438310
Si Si6 0.225362 0.904818 0.347243
Si Si7 0.000000 0.581810 0.750000
O O1 0.546958 0.308532 0.578306
O O2 0.611003 0.162376 0.345633
O O3 0.433518 0.263510 0.612481
O O4 0.455928 0.142955 0.730811
O O5 0.108463 0.928469 0.593215
O O6 0.500000 0.000000 0.500000
O O7 0.304423 0.018736 0.765652
O O8 0.327950 0.953536 0.897990
O O9 0.250000 0.750000 0.500000
O O10 0.237778 0.710693 0.700454
O O11 0.216234 0.898186 0.674692
O O12 0.779345 0.924679 0.259742
O O13 0.605216 0.019108 0.547340
#
# Coordination Sequence:
#
# PCOD8150941 Si02
#       7
#     8   4   8   8   8   8   4
#     4  11  20  35  64  96 122 161 213 264 312 390
#     4  11  24  42  64  89 128 186 219 250 324 409
#     4  12  20  37  64 101 131 158 209 279 328 373
#     4  12  19  39  63  93 126 171 213 262 320 390
#     4  12  23  36  63  98 132 164 213 273 329 379
#     4  12  24  39  65  97 131 170 222 265 320 391
#     4  11  16  30  58  95 122 146 205 264 316 363
#
# _framework density 20.731978999999999
#
# number of rings (size 3 to 8) (size 9 to 14) (size 15 to 20)
#    0.000    0.333   10.000    1.000    0.000    0.000 
#    0.000    4.167    3.667    0.000    0.000    0.000 
#    0.000    0.000    0.000    0.000    0.000    0.000 
#
# Total GULP energy -297326.046075 kJ/mol
# GULP energy per Si atom -12388.585253 kJ/mol
# Density = 2.068479 g / cm^3
# Si number density = 20.731979 Si / 1000 Ang^3
#
#
#
# Elastic Constant Matrix: (Units=GPa)
#
#
# Indices 1 2 3 4 5 6 
#
# 1 94.4963 47.6224 58.5385 0.0000 10.0050 0.0000
# 2 47.6224 91.2253 59.9785 0.0000 15.8546 0.0000
# 3 58.5385 59.9785 108.3055 0.0000 5.2006 0.0000
# 4 0.0000 0.0000 0.0000 37.1404 0.0000 2.7238
# 5 10.0050 15.8546 5.2006 0.0000 43.9815 0.0000
# 6 0.0000 0.0000 0.0000 2.7238 0.0000 18.9071
#
#
#
# Elastic Compliance Matrix: (Units=1/GPa)
#
#
# Indices 1 2 3 4 5 6 
#
# 1 0.017088 -0.004124 -0.006876 0.000000 -0.001588 0.000000
# 2 -0.004124 0.019459 -0.008303 0.000000 -0.005095 0.000000
# 3 -0.006876 -0.008303 0.017428 0.000000 0.002496 0.000000
# 4 0.000000 0.000000 0.000000 0.027212 0.000000 -0.003920
# 5 -0.001588 -0.005095 0.002496 0.000000 0.024639 0.000000
# 6 0.000000 0.000000 0.000000 -0.003920 0.000000 0.053455
#
#
# Mechanical properties :
#
#
# Convention : Reuss Voigt Hill
#
# Bulk Modulus (GPa) = 65.06284 69.58954 67.32619
# Shear Modulus (GPa) = 24.62929 28.53164 26.58046
#
# Velocity S-wave (km/s) = 3.45046 3.71376 3.58453
# Velocity P-wave (km/s) = 6.87933 7.21308 7.04818
#
# Compressibility (1/GPa) = 0.01536976
#
# Stress axis : x y z
#
# Youngs Moduli (GPa) = 58.51907 51.39060 57.37976
#
# Poissons Ratio (x) = 0.21192 0.39456
# Poissons Ratio (y) = 0.24132 0.47640
# Poissons Ratio (z) = 0.40239 0.42667
#
# Static dielectric constant tensor:
#      x y z
#    x 4.056470 0.000000 -0.138710 
#    y 0.000000 4.859060 0.000000 
#    z -0.138710 0.000000 3.597810 
# 
# 
# High freq. dielectric constant tensor:
#      x y z
#    x 1.824840 0.000000 -0.006610 
#    y 0.000000 1.783550 0.000000 
#    z -0.006610 0.000000 1.797170 
# 
# From -- ./inp_files/177773.got.cif
#   From: 2010.06.25/outbox.cif.g09.slc.cpg/sg15_89_cif.got.tgz:177773.got - 2010.06.28 07:06:18.
