data_PCOD8150266
_publ_section_title
;
Structure prediction by ZEFSAII (Michael W. Deem and Ramdas Pophale) SiO2 
 PCOD8150266
Probable space group: C 2/C
;
_chemical_formula_sum "Si O2"
_cell_formula_units_Z 48
_cell_length_a 19.553140
_cell_length_b 25.050149
_cell_length_c 8.063209
_cell_angle_alpha 90.000000
_cell_angle_beta 147.580980
_cell_angle_gamma 90.000000
_cell_volume 2117.318823
_symmetry_space_group_name_H-M "C 2/C"
_symmetry_group_IT_number 15
_symmetry_cell_setting 'monoclinic'
loop_
_space_group_symop_operation_xyz
x,y,z
-x,y,1/2-z
-x,-y,-z
x,-y,1/2+z
1/2+x,1/2+y,z
1/2-x,1/2+y,1/2-z
1/2-x,1/2-y,-z
1/2+x,1/2-y,1/2+z
loop_
_atom_site_type_symbol
_atom_site_label
_atom_site_fract_x
_atom_site_fract_y
_atom_site_fract_z
Si Si1 0.145536 0.524390 0.603478
Si Si2 0.500000 0.163232 0.750000
Si Si3 0.500000 0.276048 0.250000
Si Si4 0.812681 0.110954 0.785770
Si Si5 0.436236 0.368770 0.876675
Si Si6 0.793830 0.421770 0.931384
Si Si7 0.651749 0.206790 0.349012
O O1 0.243094 0.555668 0.682962
O O2 0.194370 0.462835 0.698784
O O3 0.149936 0.546035 0.797950
O O4 0.000000 0.530493 0.250000
O O5 0.620264 0.129201 0.932189
O O6 0.459286 0.201236 0.515153
O O7 0.535139 0.311865 0.481312
O O8 0.608391 0.233156 0.431692
O O9 0.710268 0.148471 0.489252
O O10 0.857009 0.140022 0.046092
O O11 0.931194 0.101522 0.901614
O O12 0.352934 0.403993 0.836090
O O13 0.750000 0.250000 0.500000
#
# Coordination Sequence:
#
# PCOD8150266 Si02
#       7
#     8   4   4   8   8   8   8
#     4  11  23  41  70 103 133 180 226 279 345 409
#     4  12  28  46  67 108 137 178 238 280 350 410
#     4  12  26  42  69 102 129 178 234 280 348 394
#     4  10  24  45  69  97 145 181 231 278 344 413
#     4  10  24  46  67 100 140 183 226 287 338 414
#     4  11  25  43  70  99 139 177 225 290 342 409
#     4  12  27  44  71 100 135 189 224 294 341 405
#
# _framework density 22.670180999999999
#
# number of rings (size 3 to 8) (size 9 to 14) (size 15 to 20)
#    0.000    1.000    2.500    2.500   10.500    1.333 
#    0.000    1.667    0.000    0.000    0.000    0.000 
#    0.000    0.000    0.000    0.000    0.000    0.000 
#
# Total GULP energy -297522.659234 kJ/mol
# GULP energy per Si atom -12396.777468 kJ/mol
# Density = 2.261858 g / cm^3
# Si number density = 22.670181 Si / 1000 Ang^3
#
#
#
# Elastic Constant Matrix: (Units=GPa)
#
#
# Indices 1 2 3 4 5 6 
#
# 1 121.9289 28.7870 30.4515 0.0000 30.2153 0.0000
# 2 28.7870 93.9687 29.4885 0.0000 14.3387 0.0000
# 3 30.4515 29.4885 74.8813 0.0000 18.1854 0.0000
# 4 0.0000 0.0000 0.0000 23.5089 0.0000 1.1267
# 5 30.2153 14.3387 18.1854 0.0000 43.1691 0.0000
# 6 0.0000 0.0000 0.0000 1.1267 0.0000 54.1013
#
#
#
# Elastic Compliance Matrix: (Units=1/GPa)
#
#
# Indices 1 2 3 4 5 6 
#
# 1 0.010620 -0.001647 -0.002225 0.000000 -0.005949 0.000000
# 2 -0.001647 0.012597 -0.003960 0.000000 -0.001363 0.000000
# 3 -0.002225 -0.003960 0.016844 0.000000 -0.004223 0.000000
# 4 0.000000 0.000000 0.000000 0.042580 0.000000 -0.000887
# 5 -0.005949 -0.001363 -0.004223 0.000000 0.029560 0.000000
# 6 0.000000 0.000000 0.000000 -0.000887 0.000000 0.018502
#
#
# Mechanical properties :
#
#
# Convention : Reuss Voigt Hill
#
# Bulk Modulus (GPa) = 40.98937 52.02587 46.50762
# Shear Modulus (GPa) = 32.36207 37.62598 34.99402
#
# Velocity S-wave (km/s) = 3.78235 4.07838 3.93315
# Velocity P-wave (km/s) = 6.09876 6.72134 6.41760
#
# Compressibility (1/GPa) = 0.02439657
#
# Stress axis : x y z
#
# Youngs Moduli (GPa) = 94.15806 79.38305 59.36667
#
# Poissons Ratio (x) = 0.13078 0.13212
# Poissons Ratio (y) = 0.15512 0.23508
# Poissons Ratio (z) = 0.20955 0.31435
#
# Static dielectric constant tensor:
#      x y z
#    x 4.315100 0.000000 0.156140 
#    y 0.000000 3.930540 0.000000 
#    z 0.156140 0.000000 4.000290 
# 
# 
# High freq. dielectric constant tensor:
#      x y z
#    x 1.919530 0.000000 0.006740 
#    y 0.000000 1.890130 0.000000 
#    z 0.006740 0.000000 1.893110 
# 
# From -- ./inp_files/59173.got.cif
#   From: 2010.06.25/outbox.cif.g09.slc.cpg/sg15_30_cif.got.tgz:59173.got - 2010.06.28 07:06:18.
