data_PCOD8150830
_publ_section_title
;
Structure prediction by ZEFSAII (Michael W. Deem and Ramdas Pophale) SiO2 
 PCOD8150830
Probable space group: C 2/C
;
_chemical_formula_sum "Si O2"
_cell_formula_units_Z 44
_cell_length_a 32.176622
_cell_length_b 5.121288
_cell_length_c 20.827463
_cell_angle_alpha 90.000000
_cell_angle_beta 144.568179
_cell_angle_gamma 90.000000
_cell_volume 1989.686410
_symmetry_space_group_name_H-M "C 2/C"
_symmetry_group_IT_number 15
_symmetry_cell_setting 'monoclinic'
loop_
_space_group_symop_operation_xyz
x,y,z
-x,y,1/2-z
-x,-y,-z
x,-y,1/2+z
1/2+x,1/2+y,z
1/2-x,1/2+y,1/2-z
1/2-x,1/2-y,-z
1/2+x,1/2-y,1/2+z
loop_
_atom_site_type_symbol
_atom_site_label
_atom_site_fract_x
_atom_site_fract_y
_atom_site_fract_z
Si Si1 0.500000 0.738107 0.250000
Si Si2 0.795626 0.044862 0.493087
Si Si3 0.360130 0.031744 0.243616
Si Si4 0.097447 0.971833 0.766110
Si Si5 0.298007 0.014395 0.804714
Si Si6 0.360979 0.054702 0.515285
O O1 0.465373 0.550068 0.260186
O O2 0.558041 0.924713 0.356867
O O3 0.710080 0.047649 0.389663
O O4 0.822349 0.329543 0.506358
O O5 0.826099 0.972303 0.601241
O O6 0.820287 0.830079 0.472338
O O7 0.412286 0.269070 0.288802
O O8 0.339070 0.052845 0.291160
O O9 0.403933 0.769351 0.284748
O O10 0.236601 0.801263 0.741278
O O11 0.357943 0.010553 0.935995
#
# Coordination Sequence:
#
# PCOD8150830 Si02
#       6
#     4   8   8   8   8   8
#     4  10  26  46  64  86 132 172 222 250 308 378
#     4  11  21  38  64  95 130 157 207 266 324 367
#     4  12  22  38  63  97 129 156 212 262 321 369
#     4  11  24  39  61  92 127 172 207 261 307 372
#     4  12  22  41  65  95 133 162 203 256 325 385
#     4  11  22  41  66  94 122 177 207 252 309 383
#
# _framework density 22.114039999999999
#
# number of rings (size 3 to 8) (size 9 to 14) (size 15 to 20)
#    0.000    0.727    3.636    5.455    0.000    6.545 
#    0.000    1.818    0.000    0.000    0.000    0.000 
#    0.000    0.000    0.000    0.000    0.000    0.000 
#
# Total GULP energy -272880.940641 kJ/mol
# GULP energy per Si atom -12403.679120 kJ/mol
# Density = 2.206371 g / cm^3
# Si number density = 22.114040 Si / 1000 Ang^3
#
#
#
# Elastic Constant Matrix: (Units=GPa)
#
#
# Indices 1 2 3 4 5 6 
#
# 1 125.7438 43.1306 18.4194 -0.0019 -9.8632 -0.0023
# 2 43.1306 127.2797 19.6685 -0.0058 4.0381 -0.0008
# 3 18.4194 19.6685 61.6546 -0.0011 -0.5468 -0.0036
# 4 -0.0019 -0.0058 -0.0011 15.3431 -0.0009 -4.5790
# 5 -9.8632 4.0381 -0.5468 -0.0009 34.9900 -0.0006
# 6 -0.0023 -0.0008 -0.0036 -4.5790 -0.0006 31.8368
#
#
#
# Elastic Compliance Matrix: (Units=1/GPa)
#
#
# Indices 1 2 3 4 5 6 
#
# 1 0.009497 -0.003028 -0.001845 0.000000 0.002998 0.000000
# 2 -0.003028 0.009264 -0.002068 0.000003 -0.001955 0.000000
# 3 -0.001845 -0.002068 0.017430 0.000001 -0.000009 0.000002
# 4 0.000000 0.000003 0.000001 0.068099 0.000002 0.009795
# 5 0.002998 -0.001955 -0.000009 0.000002 0.029650 0.000001
# 6 0.000000 0.000000 0.000002 0.009795 0.000001 0.032819
#
#
# Mechanical properties :
#
#
# Convention : Reuss Voigt Hill
#
# Bulk Modulus (GPa) = 44.82375 53.01277 48.91826
# Shear Modulus (GPa) = 26.58479 31.99795 29.29137
#
# Velocity S-wave (km/s) = 3.47099 3.80801 3.64340
# Velocity P-wave (km/s) = 6.03134 6.58476 6.31412
#
# Compressibility (1/GPa) = 0.02230960
#
# Stress axis : x y z
#
# Youngs Moduli (GPa) = 105.30000 107.93927 57.37191
#
# Poissons Ratio (x) = 0.32686 0.10583
# Poissons Ratio (y) = 0.31886 0.11865
# Poissons Ratio (z) = 0.19423 0.22323
#
# Static dielectric constant tensor:
#      x y z
#    x 3.889710 -0.000010 -0.112890 
#    y -0.000010 4.231430 -0.000010 
#    z -0.112890 -0.000010 3.868590 
# 
# 
# High freq. dielectric constant tensor:
#      x y z
#    x 1.871060 0.000000 -0.014990 
#    y 0.000000 1.892580 0.000000 
#    z -0.014990 0.000000 1.839640 
# 
# From -- ./inp_files/221123.got.cif
#   From: 2010.06.25/outbox.cif.g09.slc.cpg/sg15_111_cif.got.tgz:221123.got - 2010.06.28 07:06:18.
