data_PCOD8150082
_publ_section_title
;
Structure prediction by ZEFSAII (Michael W. Deem and Ramdas Pophale) SiO2 
 PCOD8150082
Probable space group: C 2/C
;
_chemical_formula_sum "Si O2"
_cell_formula_units_Z 48
_cell_length_a 21.958748
_cell_length_b 6.794294
_cell_length_c 20.745971
_cell_angle_alpha 90.000000
_cell_angle_beta 48.947562
_cell_angle_gamma 90.000000
_cell_volume 2334.101308
_symmetry_space_group_name_H-M "C 2/C"
_symmetry_group_IT_number 15
_symmetry_cell_setting 'monoclinic'
loop_
_space_group_symop_operation_xyz
x,y,z
-x,y,1/2-z
-x,-y,-z
x,-y,1/2+z
1/2+x,1/2+y,z
1/2-x,1/2+y,1/2-z
1/2-x,1/2-y,-z
1/2+x,1/2-y,1/2+z
loop_
_atom_site_type_symbol
_atom_site_label
_atom_site_fract_x
_atom_site_fract_y
_atom_site_fract_z
Si Si1 0.549432 0.703026 0.814310
Si Si2 0.254770 0.541342 0.527085
Si Si3 0.622114 0.259102 0.124354
Si Si4 0.353980 0.625654 0.192446
Si Si5 0.787287 0.182390 0.641973
Si Si6 0.915973 0.481339 0.594269
O O1 0.454453 0.724527 0.869008
O O2 0.599183 0.713907 0.714259
O O3 0.568581 0.490376 0.832757
O O4 0.576146 0.882132 0.841163
O O5 0.250000 0.750000 0.500000
O O6 0.314411 0.422309 0.440047
O O7 0.164692 0.452088 0.587904
O O8 0.288748 0.556811 0.575712
O O9 0.299189 0.712732 0.287982
O O10 0.299277 0.471840 0.191312
O O11 0.383414 0.797766 0.124840
O O12 0.856426 0.349710 0.591908
O O13 0.000000 0.500000 0.500000
#
# Coordination Sequence:
#
# PCOD8150082 Si02
#       6
#     8   8   8   8   8   8
#     4  10  24  44  66  93 131 175 215 268 333 394
#     4  11  25  40  67  96 127 172 218 273 328 392
#     4  10  24  44  65  94 132 171 219 271 321 401
#     4  11  23  42  67  96 132 173 216 271 337 403
#     4  11  24  41  68  98 132 173 222 272 338 401
#     4  11  26  40  67 100 132 172 222 281 334 398
#
# _framework density 20.564661000000001
#
# number of rings (size 3 to 8) (size 9 to 14) (size 15 to 20)
#    0.000    1.333    1.667    2.000    9.333    2.667 
#    0.000    3.333    0.000    0.000    0.000    0.000 
#    0.000    0.000    0.000    0.000    0.000    0.000 
#
# Total GULP energy -297695.029651 kJ/mol
# GULP energy per Si atom -12403.959569 kJ/mol
# Density = 2.051785 g / cm^3
# Si number density = 20.564661 Si / 1000 Ang^3
#
#
#
# Elastic Constant Matrix: (Units=GPa)
#
#
# Indices 1 2 3 4 5 6 
#
# 1 110.8633 44.2138 37.0416 0.2269 -10.2516 -0.1341
# 2 44.2138 129.0082 33.0188 0.2307 -12.2488 -0.1701
# 3 37.0416 33.0188 91.0824 0.1249 -14.8450 -0.1111
# 4 0.2269 0.2307 0.1249 29.3075 -0.0546 -0.7855
# 5 -10.2516 -12.2488 -14.8450 -0.0546 34.4483 0.0445
# 6 -0.1341 -0.1701 -0.1111 -0.7855 0.0445 35.3245
#
#
#
# Elastic Compliance Matrix: (Units=1/GPa)
#
#
# Indices 1 2 3 4 5 6 
#
# 1 0.011426 -0.002954 -0.003434 -0.000049 0.000870 0.000016
# 2 -0.002954 0.009417 -0.001947 -0.000039 0.001630 0.000025
# 3 -0.003434 -0.001947 0.013769 -0.000009 0.004219 0.000015
# 4 -0.000049 -0.000039 -0.000009 0.034142 0.000021 0.000759
# 5 0.000870 0.001630 0.004219 0.000021 0.031686 -0.000015
# 6 0.000016 0.000025 0.000015 0.000759 -0.000015 0.028326
#
#
# Mechanical properties :
#
#
# Convention : Reuss Voigt Hill
#
# Bulk Modulus (GPa) = 55.73349 62.16691 58.95020
# Shear Modulus (GPa) = 33.02134 34.26136 33.64135
#
# Velocity S-wave (km/s) = 4.01151 4.08613 4.04899
# Velocity P-wave (km/s) = 6.97257 7.24966 7.11246
#
# Compressibility (1/GPa) = 0.01794253
#
# Stress axis : x y z
#
# Youngs Moduli (GPa) = 87.51740 106.18999 72.62690
#
# Poissons Ratio (x) = 0.31373 0.24940
# Poissons Ratio (y) = 0.25856 0.14137
# Poissons Ratio (z) = 0.30053 0.20670
#
# Static dielectric constant tensor:
#      x y z
#    x 3.630770 -0.000450 -0.301260 
#    y -0.000450 3.865120 -0.000280 
#    z -0.301260 -0.000280 3.541210 
# 
# 
# High freq. dielectric constant tensor:
#      x y z
#    x 1.805230 0.000000 -0.002940 
#    y 0.000000 1.817780 0.000000 
#    z -0.002940 0.000000 1.814050 
# 
# From -- ./inp_files/254234.got.cif
#   From: 2010.06.25/outbox.cif.g09.slc.cpg/sg15_128_cif.got.tgz:254234.got - 2010.06.28 07:06:18.
