data_PCOD8150924
_publ_section_title
;
Structure prediction by ZEFSAII (Michael W. Deem and Ramdas Pophale) SiO2 
 PCOD8150924
Probable space group: C 2/C
;
_chemical_formula_sum "Si O2"
_cell_formula_units_Z 40
_cell_length_a 19.286626
_cell_length_b 4.899583
_cell_length_c 17.115387
_cell_angle_alpha 90.000000
_cell_angle_beta 84.854974
_cell_angle_gamma 90.000000
_cell_volume 1610.826446
_symmetry_space_group_name_H-M "C 2/C"
_symmetry_group_IT_number 15
_symmetry_cell_setting 'monoclinic'
loop_
_space_group_symop_operation_xyz
x,y,z
-x,y,1/2-z
-x,-y,-z
x,-y,1/2+z
1/2+x,1/2+y,z
1/2-x,1/2+y,1/2-z
1/2-x,1/2-y,-z
1/2+x,1/2-y,1/2+z
loop_
_atom_site_type_symbol
_atom_site_label
_atom_site_fract_x
_atom_site_fract_y
_atom_site_fract_z
Si Si1 0.196573 0.345701 0.440429
Si Si2 0.124927 0.984056 0.327916
Si Si3 0.468760 0.987080 0.170474
Si Si4 0.679726 0.560516 0.156031
Si Si5 0.611323 0.056309 0.086749
O O1 0.250000 0.250000 0.500000
O O2 0.168034 0.080840 0.398547
O O3 0.238428 0.543053 0.376474
O O4 0.134084 0.496414 0.493992
O O5 0.058036 0.178254 0.321264
O O6 0.174975 0.990740 0.247766
O O7 0.096769 0.678088 0.345787
O O8 0.500000 0.083562 0.250000
O O9 0.528749 0.008685 0.099232
O O10 0.630395 0.363286 0.110055
O O11 0.652722 0.864477 0.143051
#
# Coordination Sequence:
#
# PCOD8150924 Si02
#       5
#     8   8   8   8   8
#     4  10  27  46  66 100 141 180 227 281 339 404
#     4  12  25  42  73 103 131 184 231 279 344 406
#     4  12  23  43  72 104 137 172 233 287 338 408
#     4  11  22  43  69  96 133 180 228 277 335 407
#     4  11  23  43  70  97 139 178 216 285 345 395
#
# _framework density 24.831973999999999
#
# number of rings (size 3 to 8) (size 9 to 14) (size 15 to 20)
#    0.000    0.800    4.000    2.400    0.000   12.800 
#    0.000    0.000    0.000    0.000    0.000    0.000 
#    0.000    0.000    0.000    0.000    0.000    0.000 
#
# Total GULP energy -248134.536159 kJ/mol
# GULP energy per Si atom -12406.726808 kJ/mol
# Density = 2.477545 g / cm^3
# Si number density = 24.831974 Si / 1000 Ang^3
#
#
#
# Elastic Constant Matrix: (Units=GPa)
#
#
# Indices 1 2 3 4 5 6 
#
# 1 103.5837 -3.6024 52.7192 0.0000 -30.7112 0.0000
# 2 -3.6024 60.1548 -0.2500 0.0000 -7.5777 0.0000
# 3 52.7192 -0.2500 140.7543 0.0000 -40.9073 0.0000
# 4 0.0000 0.0000 0.0000 33.3918 0.0000 -4.7105
# 5 -30.7112 -7.5777 -40.9073 0.0000 63.2253 0.0000
# 6 0.0000 0.0000 0.0000 -4.7105 0.0000 30.7886
#
#
#
# Elastic Compliance Matrix: (Units=1/GPa)
#
#
# Indices 1 2 3 4 5 6 
#
# 1 0.012714 0.001250 -0.003598 0.000000 0.003998 0.000000
# 2 0.001250 0.017068 0.000410 0.000000 0.002918 0.000000
# 3 -0.003598 0.000410 0.009803 0.000000 0.004644 0.000000
# 4 0.000000 0.000000 0.000000 0.030608 0.000000 0.004683
# 5 0.003998 0.002918 0.004644 0.000000 0.021113 0.000000
# 6 0.000000 0.000000 0.000000 0.004683 0.000000 0.033196
#
#
# Mechanical properties :
#
#
# Convention : Reuss Voigt Hill
#
# Bulk Modulus (GPa) = 28.00412 44.69184 36.34798
# Shear Modulus (GPa) = 35.64316 42.52288 39.08302
#
# Velocity S-wave (km/s) = 3.79274 4.14263 3.97154
# Velocity P-wave (km/s) = 5.52103 6.39677 5.97497
#
# Compressibility (1/GPa) = 0.03570903
#
# Stress axis : x y z
#
# Youngs Moduli (GPa) = 78.65403 58.58938 102.01441
#
# Poissons Ratio (x) = -0.07324 0.36704
# Poissons Ratio (y) = -0.09832 -0.04185
# Poissons Ratio (z) = 0.28299 -0.02404
#
# Static dielectric constant tensor:
#      x y z
#    x 4.570420 0.000000 -0.619630 
#    y 0.000000 4.250170 0.000000 
#    z -0.619630 0.000000 4.930180 
# 
# 
# High freq. dielectric constant tensor:
#      x y z
#    x 1.992540 0.000000 -0.018180 
#    y 0.000000 1.984000 0.000000 
#    z -0.018180 0.000000 1.997760 
# 
# From -- ./inp_files/208012.got.cif
#   From: 2010.06.25/outbox.cif.g09.slc.cpg/sg15_105_cif.got.tgz:208012.got - 2010.06.28 07:06:18.
