data_PCOD8150353
_publ_section_title
;
Structure prediction by ZEFSAII (Michael W. Deem and Ramdas Pophale) SiO2 
 PCOD8150353
Probable space group: C 2/C
;
_chemical_formula_sum "Si O2"
_cell_formula_units_Z 52
_cell_length_a 21.820388
_cell_length_b 5.499715
_cell_length_c 23.601575
_cell_angle_alpha 90.000000
_cell_angle_beta 128.229489
_cell_angle_gamma 90.000000
_cell_volume 2224.903185
_symmetry_space_group_name_H-M "C 2/C"
_symmetry_group_IT_number 15
_symmetry_cell_setting 'monoclinic'
loop_
_space_group_symop_operation_xyz
x,y,z
-x,y,1/2-z
-x,-y,-z
x,-y,1/2+z
1/2+x,1/2+y,z
1/2-x,1/2+y,1/2-z
1/2-x,1/2-y,-z
1/2+x,1/2-y,1/2+z
loop_
_atom_site_type_symbol
_atom_site_label
_atom_site_fract_x
_atom_site_fract_y
_atom_site_fract_z
Si Si1 0.294177 0.838603 0.407134
Si Si2 0.500000 0.676539 0.750000
Si Si3 0.861858 0.967041 0.855750
Si Si4 0.284922 0.288074 0.707868
Si Si5 0.985689 0.060265 0.616114
Si Si6 0.395013 0.071689 0.553181
Si Si7 0.843099 0.526191 0.141199
O O1 0.362090 0.676245 0.415989
O O2 0.333609 0.052324 0.466437
O O3 0.235029 0.685907 0.412246
O O4 0.239018 0.942865 0.325925
O O5 0.507024 0.521195 0.695312
O O6 0.578422 0.831643 0.798621
O O7 0.844250 0.783934 0.793990
O O8 0.942411 0.097930 0.885917
O O9 0.794377 0.163548 0.818707
O O10 0.331199 0.163688 0.683903
O O11 0.945930 0.811435 0.570845
O O12 0.937065 0.308285 0.580912
O O13 0.351651 0.119548 0.587508
#
# Coordination Sequence:
#
# PCOD8150353 Si02
#       7
#     8   4   8   8   8   8   8
#     4  11  25  46  70 100 142 187 233 290 344 423
#     4  10  24  46  70 104 140 176 234 298 356 406
#     4  11  25  42  69 101 140 181 242 288 351 408
#     4  11  24  42  71 102 134 185 235 295 348 410
#     4  11  28  45  72 103 143 186 235 290 349 419
#     4  11  28  47  70 107 142 189 232 281 357 420
#     4  10  25  44  72 103 138 181 234 291 353 416
#
# _framework density 23.371803
#
# number of rings (size 3 to 8) (size 9 to 14) (size 15 to 20)
#    0.000    1.231    1.538    1.385   19.385    2.462 
#    0.000    0.000    0.000    0.000    0.000    0.000 
#    0.000    0.000    0.000    0.000    0.000    0.000 
#
# Total GULP energy -322296.210456 kJ/mol
# GULP energy per Si atom -12396.008094 kJ/mol
# Density = 2.331861 g / cm^3
# Si number density = 23.371803 Si / 1000 Ang^3
#
#
#
# Elastic Constant Matrix: (Units=GPa)
#
#
# Indices 1 2 3 4 5 6 
#
# 1 147.3364 19.2173 15.5538 0.0002 -8.5534 -0.0009
# 2 19.2173 82.2461 -0.3144 -0.0018 1.4532 0.0001
# 3 15.5538 -0.3144 62.3468 -0.0007 -1.1746 -0.0009
# 4 0.0002 -0.0018 -0.0007 30.5554 -0.0010 1.3139
# 5 -8.5534 1.4532 -1.1746 -0.0010 16.7475 -0.0006
# 6 -0.0009 0.0001 -0.0009 1.3139 -0.0006 17.8409
#
#
#
# Elastic Compliance Matrix: (Units=1/GPa)
#
#
# Indices 1 2 3 4 5 6 
#
# 1 0.007435 -0.001812 -0.001792 0.000000 0.003829 0.000000
# 2 -0.001812 0.012619 0.000478 0.000001 -0.001987 0.000000
# 3 -0.001792 0.000478 0.016492 0.000000 0.000200 0.000001
# 4 0.000000 0.000001 0.000000 0.032831 0.000002 -0.002418
# 5 0.003829 -0.001987 0.000200 0.000002 0.061852 0.000002
# 6 0.000000 0.000000 0.000001 -0.002418 0.000002 0.056229
#
#
# Mechanical properties :
#
#
# Convention : Reuss Voigt Hill
#
# Bulk Modulus (GPa) = 33.00808 40.09363 36.55086
# Shear Modulus (GPa) = 24.53287 30.19360 27.36324
#
# Velocity S-wave (km/s) = 3.24339 3.59817 3.42538
# Velocity P-wave (km/s) = 5.30846 5.86979 5.59617
#
# Compressibility (1/GPa) = 0.03029561
#
# Stress axis : x y z
#
# Youngs Moduli (GPa) = 134.50045 79.24630 60.63364
#
# Poissons Ratio (x) = 0.14357 0.10864
# Poissons Ratio (y) = 0.24368 -0.02899
# Poissons Ratio (z) = 0.24100 -0.03789
#
# Static dielectric constant tensor:
#      x y z
#    x 4.441110 -0.000010 -0.264280 
#    y -0.000010 4.011060 0.000000 
#    z -0.264280 0.000000 4.348990 
# 
# 
# High freq. dielectric constant tensor:
#      x y z
#    x 1.943290 0.000000 -0.012820 
#    y 0.000000 1.916760 0.000000 
#    z -0.012820 0.000000 1.922220 
# 
# From -- ./inp_files/251098.got.cif
#   From: 2010.06.25/outbox.cif.g09.slc.cpg/sg15_126_cif.got.tgz:251098.got - 2010.06.28 07:06:18.
