data_PCOD8150336
_publ_section_title
;
Structure prediction by ZEFSAII (Michael W. Deem and Ramdas Pophale) SiO2 
 PCOD8150336
Probable space group: C 2/C
;
_chemical_formula_sum "Si O2"
_cell_formula_units_Z 52
_cell_length_a 9.341685
_cell_length_b 13.294303
_cell_length_c 29.243888
_cell_angle_alpha 90.000000
_cell_angle_beta 135.836028
_cell_angle_gamma 90.000000
_cell_volume 2530.349695
_symmetry_space_group_name_H-M "C 2/C"
_symmetry_group_IT_number 15
_symmetry_cell_setting 'monoclinic'
loop_
_space_group_symop_operation_xyz
x,y,z
-x,y,1/2-z
-x,-y,-z
x,-y,1/2+z
1/2+x,1/2+y,z
1/2-x,1/2+y,1/2-z
1/2-x,1/2-y,-z
1/2+x,1/2-y,1/2+z
loop_
_atom_site_type_symbol
_atom_site_label
_atom_site_fract_x
_atom_site_fract_y
_atom_site_fract_z
Si Si1 0.000000 0.789036 0.750000
Si Si2 0.318419 0.628427 0.451523
Si Si3 0.304855 0.034531 0.427025
Si Si4 0.875692 0.439057 0.842165
Si Si5 0.976453 0.978262 0.418318
Si Si6 0.813165 0.249079 0.962783
Si Si7 0.422651 0.122749 0.659309
O O1 0.807117 0.863567 0.712707
O O2 0.012778 0.716326 0.708469
O O3 0.404166 0.583310 0.423586
O O4 0.371412 0.566326 0.508882
O O5 0.438523 0.733930 0.484098
O O6 0.072855 0.634789 0.392009
O O7 0.327130 0.006546 0.379131
O O8 0.266546 0.152964 0.423048
O O9 0.500000 0.000000 0.500000
O O10 0.099038 0.984406 0.399162
O O11 0.916621 0.531228 0.815384
O O12 0.773041 0.917306 0.357093
O O13 0.678171 0.157855 0.911529
O O14 0.750000 0.250000 0.000000
#
# Coordination Sequence:
#
# PCOD8150336 Si02
#       7
#     4   8   8   8   8   8   8
#     4  12  26  48  68  94 136 186 240 284 334 400
#     4   9  18  36  60  93 128 172 212 262 336 412
#     4  12  21  34  62 104 139 168 213 280 347 401
#     4  11  24  43  69  96 132 176 232 280 334 414
#     4   9  18  35  63  91 130 169 207 267 345 397
#     4  11  20  36  65 100 139 165 209 278 348 408
#     4  10  24  46  68  89 130 183 224 276 342 403
#
# _framework density 20.550518
#
# number of rings (size 3 to 8) (size 9 to 14) (size 15 to 20)
#    0.000    1.538    4.615    1.846    0.000    3.077 
#    0.000    1.538    0.000    0.000    0.000    0.000 
#    0.000    0.000    0.000    0.000    0.000    0.000 
#
# Total GULP energy -322127.417998 kJ/mol
# GULP energy per Si atom -12389.516077 kJ/mol
# Density = 2.050374 g / cm^3
# Si number density = 20.550518 Si / 1000 Ang^3
#
#
#
# Elastic Constant Matrix: (Units=GPa)
#
#
# Indices 1 2 3 4 5 6 
#
# 1 144.2384 46.7257 55.5708 0.0000 13.1271 0.0000
# 2 46.7257 97.4201 48.2704 0.0000 13.7573 0.0000
# 3 55.5708 48.2704 95.3536 0.0000 19.3457 0.0000
# 4 0.0000 0.0000 0.0000 39.4768 0.0000 1.7837
# 5 13.1271 13.7573 19.3457 0.0000 30.1436 0.0000
# 6 0.0000 0.0000 0.0000 1.7837 0.0000 32.5302
#
#
#
# Elastic Compliance Matrix: (Units=1/GPa)
#
#
# Indices 1 2 3 4 5 6 
#
# 1 0.009338 -0.002363 -0.004185 0.000000 -0.000303 0.000000
# 2 -0.002363 0.014413 -0.005511 0.000000 -0.002012 0.000000
# 3 -0.004185 -0.005511 0.017057 0.000000 -0.006609 0.000000
# 4 0.000000 0.000000 0.000000 0.025394 0.000000 -0.001392
# 5 -0.000303 -0.002012 -0.006609 0.000000 0.038466 0.000000
# 6 0.000000 0.000000 0.000000 -0.001392 0.000000 0.030817
#
#
# Mechanical properties :
#
#
# Convention : Reuss Voigt Hill
#
# Bulk Modulus (GPa) = 59.91237 70.90511 65.40874
# Shear Modulus (GPa) = 30.27263 32.85979 31.56621
#
# Velocity S-wave (km/s) = 3.84224 4.00306 3.92347
# Velocity P-wave (km/s) = 6.99291 7.47955 7.24032
#
# Compressibility (1/GPa) = 0.01669104
#
# Stress axis : x y z
#
# Youngs Moduli (GPa) = 107.08781 69.38287 58.62769
#
# Poissons Ratio (x) = 0.16393 0.24534
# Poissons Ratio (y) = 0.25301 0.32309
# Poissons Ratio (z) = 0.44813 0.38237
#
# Static dielectric constant tensor:
#      x y z
#    x 3.933160 0.000000 0.066260 
#    y 0.000000 4.341120 0.000000 
#    z 0.066260 0.000000 3.620150 
# 
# 
# High freq. dielectric constant tensor:
#      x y z
#    x 1.812050 0.000000 0.009230 
#    y 0.000000 1.798010 0.000000 
#    z 0.009230 0.000000 1.782980 
# 
# From -- ./inp_files/231318.got.cif
#   From: 2010.06.25/outbox.cif.g09.slc.cpg/sg15_116_cif.got.tgz:231318.got - 2010.06.28 07:06:18.
