data_PCOD8150204
_publ_section_title
;
Structure prediction by ZEFSAII (Michael W. Deem and Ramdas Pophale) SiO2 
 PCOD8150204
Probable space group: C 2/C
;
_chemical_formula_sum "Si O2"
_cell_formula_units_Z 48
_cell_length_a 13.839193
_cell_length_b 27.211439
_cell_length_c 7.395333
_cell_angle_alpha 90.000000
_cell_angle_beta 40.919570
_cell_angle_gamma 90.000000
_cell_volume 1824.150262
_symmetry_space_group_name_H-M "C 2/C"
_symmetry_group_IT_number 15
_symmetry_cell_setting 'monoclinic'
loop_
_space_group_symop_operation_xyz
x,y,z
-x,y,1/2-z
-x,-y,-z
x,-y,1/2+z
1/2+x,1/2+y,z
1/2-x,1/2+y,1/2-z
1/2-x,1/2-y,-z
1/2+x,1/2-y,1/2+z
loop_
_atom_site_type_symbol
_atom_site_label
_atom_site_fract_x
_atom_site_fract_y
_atom_site_fract_z
Si Si1 0.539372 0.083378 0.391158
Si Si2 0.343385 0.453979 0.390136
Si Si3 0.882309 0.203122 0.665900
Si Si4 0.770361 0.939343 0.082341
Si Si5 0.182057 0.165373 0.120331
Si Si6 0.353342 0.814562 0.714608
O O1 0.500000 0.063179 0.250000
O O2 0.408060 0.060909 0.699246
O O3 0.527478 0.143025 0.410128
O O4 0.705440 0.065464 0.210729
O O5 0.500000 0.435859 0.250000
O O6 0.318872 0.434519 0.222934
O O7 0.340985 0.513227 0.388479
O O8 0.801565 0.197137 0.586169
O O9 0.913934 0.260293 0.666869
O O10 0.039096 0.177715 0.439778
O O11 0.788442 0.176929 0.955594
O O12 0.835790 0.892073 0.892724
O O13 0.320259 0.178943 0.048862
#
# Coordination Sequence:
#
# PCOD8150204 Si02
#       6
#     8   8   8   8   8   8
#     4  10  24  46  72 107 152 190 248 308 376 451
#     4  11  25  46  76 106 147 195 253 316 378 451
#     4  10  24  44  73 108 152 191 250 314 370 445
#     4  11  26  47  72 109 148 197 247 313 384 450
#     4  11  25  44  71 109 151 192 253 308 374 447
#     4  11  24  45  75 106 144 204 244 300 381 447
#
# _framework density 26.31362
#
# number of rings (size 3 to 8) (size 9 to 14) (size 15 to 20)
#    0.000    1.333    0.000    4.000    4.667   11.333 
#    0.000    0.000    0.000    0.000    0.000    0.000 
#    0.000    0.000    0.000    0.000    0.000    0.000 
#
# Total GULP energy -297654.435628 kJ/mol
# GULP energy per Si atom -12402.268151 kJ/mol
# Density = 2.625373 g / cm^3
# Si number density = 26.313620 Si / 1000 Ang^3
#
#
#
# Elastic Constant Matrix: (Units=GPa)
#
#
# Indices 1 2 3 4 5 6 
#
# 1 101.8868 9.4750 36.1122 0.0000 -21.4520 0.0000
# 2 9.4750 92.1896 28.7780 0.0000 -8.7165 0.0000
# 3 36.1122 28.7780 95.1688 0.0000 -21.3434 0.0000
# 4 0.0000 0.0000 0.0000 51.2558 0.0000 -0.8029
# 5 -21.4520 -8.7165 -21.3434 0.0000 41.7535 0.0000
# 6 0.0000 0.0000 0.0000 -0.8029 0.0000 35.4574
#
#
#
# Elastic Compliance Matrix: (Units=1/GPa)
#
#
# Indices 1 2 3 4 5 6 
#
# 1 0.012005 0.000326 -0.003677 0.000000 0.004356 0.000000
# 2 0.000326 0.012007 -0.003563 0.000000 0.000853 0.000000
# 3 -0.003677 -0.003563 0.013994 0.000000 0.004521 0.000000
# 4 0.000000 0.000000 0.000000 0.019517 0.000000 0.000442
# 5 0.004356 0.000853 0.004521 0.000000 0.028677 0.000000
# 6 0.000000 0.000000 0.000000 0.000442 0.000000 0.028213
#
#
# Mechanical properties :
#
#
# Convention : Reuss Voigt Hill
#
# Bulk Modulus (GPa) = 41.36099 48.66395 45.01247
# Shear Modulus (GPa) = 36.68383 40.01868 38.35126
#
# Velocity S-wave (km/s) = 3.73782 3.90402 3.82182
# Velocity P-wave (km/s) = 5.86353 6.23344 6.05131
#
# Compressibility (1/GPa) = 0.02417737
#
# Stress axis : x y z
#
# Youngs Moduli (GPa) = 83.29907 83.28760 71.45864
#
# Poissons Ratio (x) = -0.02714 0.26274
# Poissons Ratio (y) = -0.02714 0.25461
# Poissons Ratio (z) = 0.30628 0.29676
#
# Static dielectric constant tensor:
#      x y z
#    x 4.734500 0.000000 -0.063870 
#    y 0.000000 4.692760 0.000000 
#    z -0.063870 0.000000 4.783810 
# 
# 
# High freq. dielectric constant tensor:
#      x y z
#    x 2.050650 0.000000 0.001300 
#    y 0.000000 2.058320 0.000000 
#    z 0.001300 0.000000 2.057840 
# 
# From -- ./inp_files/44442.got.cif
#   From: 2010.06.25/outbox.cif.g09.slc.cpg/sg15_23_cif.got.tgz:44442.got - 2010.06.28 07:06:18.
