data_PCOD8150794
_publ_section_title
;
Structure prediction by ZEFSAII (Michael W. Deem and Ramdas Pophale) SiO2 
 PCOD8150794
Probable space group: C 2/C
;
_chemical_formula_sum "Si O2"
_cell_formula_units_Z 44
_cell_length_a 16.530109
_cell_length_b 7.724962
_cell_length_c 16.192332
_cell_angle_alpha 90.000000
_cell_angle_beta 104.765783
_cell_angle_gamma 90.000000
_cell_volume 1999.387902
_symmetry_space_group_name_H-M "C 2/C"
_symmetry_group_IT_number 15
_symmetry_cell_setting 'monoclinic'
loop_
_space_group_symop_operation_xyz
x,y,z
-x,y,1/2-z
-x,-y,-z
x,-y,1/2+z
1/2+x,1/2+y,z
1/2-x,1/2+y,1/2-z
1/2-x,1/2-y,-z
1/2+x,1/2-y,1/2+z
loop_
_atom_site_type_symbol
_atom_site_label
_atom_site_fract_x
_atom_site_fract_y
_atom_site_fract_z
Si Si1 0.000000 0.370900 0.250000
Si Si2 0.333744 0.854587 0.496530
Si Si3 0.149687 0.509270 0.181830
Si Si4 0.287928 0.635958 0.836104
Si Si5 0.360571 0.210375 0.595006
Si Si6 0.903959 0.016117 0.488361
O O1 0.062201 0.475614 0.205774
O O2 0.059977 0.257494 0.324482
O O3 0.250000 0.750000 0.500000
O O4 0.342278 0.918207 0.404692
O O5 0.400756 0.703469 0.530142
O O6 0.357988 0.012712 0.561959
O O7 0.232057 0.451393 0.252115
O O8 0.149552 0.716978 0.179697
O O9 0.227328 0.739731 0.883249
O O10 0.346430 0.485113 0.890677
O O11 0.364947 0.355697 0.527332
O O12 0.000000 0.000000 0.500000
#
# Coordination Sequence:
#
# PCOD8150794 Si02
#       6
#     4   8   8   8   8   8
#     4  10  26  44  68  96 140 186 220 286 350 396
#     4  12  24  43  75 104 134 184 232 280 347 416
#     4  11  24  43  70  99 140 179 229 284 341 408
#     4  11  23  44  67  98 137 179 226 282 337 410
#     4  11  24  48  67  99 140 179 226 284 342 405
#     4  12  25  41  68 105 134 177 229 279 343 410
#
# _framework density 22.006734999999999
#
# number of rings (size 3 to 8) (size 9 to 14) (size 15 to 20)
#    0.000    0.727    3.636    3.818    5.091    2.909 
#    0.000    0.909    0.000    0.000    0.000    0.000 
#    0.000    0.000    0.000    0.000    0.000    0.000 
#
# Total GULP energy -272601.763276 kJ/mol
# GULP energy per Si atom -12390.989240 kJ/mol
# Density = 2.195665 g / cm^3
# Si number density = 22.006735 Si / 1000 Ang^3
#
#
#
# Elastic Constant Matrix: (Units=GPa)
#
#
# Indices 1 2 3 4 5 6 
#
# 1 90.0664 -4.8993 44.5970 0.0000 10.3599 0.0000
# 2 -4.8993 109.7200 17.3429 0.0000 0.5929 0.0000
# 3 44.5970 17.3429 79.4546 0.0000 2.0459 0.0000
# 4 0.0000 0.0000 0.0000 19.5392 0.0000 -3.9184
# 5 10.3599 0.5929 2.0459 0.0000 39.7216 0.0000
# 6 0.0000 0.0000 0.0000 -3.9184 0.0000 25.6930
#
#
#
# Elastic Compliance Matrix: (Units=1/GPa)
#
#
# Indices 1 2 3 4 5 6 
#
# 1 0.016430 0.002275 -0.009620 0.000000 -0.003824 0.000000
# 2 0.002275 0.009755 -0.003392 0.000000 -0.000564 0.000000
# 3 -0.009620 -0.003392 0.018685 0.000000 0.001597 0.000000
# 4 0.000000 0.000000 0.000000 0.052794 0.000000 0.008052
# 5 -0.003824 -0.000564 0.001597 0.000000 0.026099 0.000000
# 6 0.000000 0.000000 0.000000 0.008052 0.000000 0.040149
#
#
# Mechanical properties :
#
#
# Convention : Reuss Voigt Hill
#
# Bulk Modulus (GPa) = 42.74252 43.70247 43.22250
# Shear Modulus (GPa) = 25.88220 31.80411 28.84315
#
# Velocity S-wave (km/s) = 3.43316 3.80570 3.62422
# Velocity P-wave (km/s) = 5.93128 6.26202 6.09889
#
# Compressibility (1/GPa) = 0.02339590
#
# Stress axis : x y z
#
# Youngs Moduli (GPa) = 60.86468 102.51333 53.52009
#
# Poissons Ratio (x) = -0.23321 0.51486
# Poissons Ratio (y) = -0.13846 0.18152
# Poissons Ratio (z) = 0.58552 0.34768
#
# Static dielectric constant tensor:
#      x y z
#    x 4.228220 0.000000 -0.098700 
#    y 0.000000 3.944950 0.000000 
#    z -0.098700 0.000000 4.160380 
# 
# 
# High freq. dielectric constant tensor:
#      x y z
#    x 1.881020 0.000000 0.002290 
#    y 0.000000 1.870520 0.000000 
#    z 0.002290 0.000000 1.869980 
# 
# From -- ./inp_files/202732.got.cif
#   From: 2010.06.25/outbox.cif.g09.slc.cpg/sg15_102_cif.got.tgz:202732.got - 2010.06.28 07:06:18.
