data_PCOD8150571
_publ_section_title
;
Structure prediction by ZEFSAII (Michael W. Deem and Ramdas Pophale) SiO2 
 PCOD8150571
Probable space group: C 2/C
;
_chemical_formula_sum "Si O2"
_cell_formula_units_Z 48
_cell_length_a 14.872570
_cell_length_b 18.062225
_cell_length_c 18.852088
_cell_angle_alpha 90.000000
_cell_angle_beta 151.758637
_cell_angle_gamma 90.000000
_cell_volume 2396.345400
_symmetry_space_group_name_H-M "C 2/C"
_symmetry_group_IT_number 15
_symmetry_cell_setting 'monoclinic'
loop_
_space_group_symop_operation_xyz
x,y,z
-x,y,1/2-z
-x,-y,-z
x,-y,1/2+z
1/2+x,1/2+y,z
1/2-x,1/2+y,1/2-z
1/2-x,1/2-y,-z
1/2+x,1/2-y,1/2+z
loop_
_atom_site_type_symbol
_atom_site_label
_atom_site_fract_x
_atom_site_fract_y
_atom_site_fract_z
Si Si1 0.818513 0.328859 0.073494
Si Si2 0.007470 0.417116 0.084154
Si Si3 0.802963 0.204671 0.792355
Si Si4 0.037313 0.832040 0.587563
Si Si5 0.050421 0.289698 0.863410
Si Si6 0.597585 0.917949 0.649952
O O1 0.860075 0.380986 0.035993
O O2 0.000000 0.322213 0.250000
O O3 0.750000 0.250000 0.000000
O O4 0.642612 0.364242 0.994761
O O5 0.209391 0.375704 0.220861
O O6 0.046985 0.499727 0.139541
O O7 0.910779 0.413566 0.940596
O O8 0.641719 0.264883 0.702728
O O9 0.894291 0.230036 0.781349
O O10 0.968290 0.203143 0.965555
O O11 0.186936 0.897960 0.677255
O O12 0.000000 0.317784 0.750000
O O13 0.048898 0.360605 0.915011
O O14 0.250000 0.250000 0.000000
#
# Coordination Sequence:
#
# PCOD8150571 Si02
#       6
#     8   8   8   8   8   8
#     4  12  24  38  64 100 126 161 212 264 313 377
#     4  11  23  43  62  91 131 166 210 256 316 383
#     4  11  21  39  66  91 123 166 207 259 316 374
#     4  11  21  40  63  96 126 165 209 256 319 373
#     4  11  22  40  64  90 118 159 214 262 301 364
#     4  10  25  43  63  88 129 174 206 260 321 373
#
# _framework density 20.030501000000001
#
# number of rings (size 3 to 8) (size 9 to 14) (size 15 to 20)
#    0.000    1.000    3.333    5.000    2.333    1.333 
#    3.000    0.000    0.000    0.000    0.000    0.000 
#    0.000    0.000    0.000    0.000    0.000    0.000 
#
# Total GULP energy -297657.538312 kJ/mol
# GULP energy per Si atom -12402.397430 kJ/mol
# Density = 1.998491 g / cm^3
# Si number density = 20.030501 Si / 1000 Ang^3
#
#
#
# Elastic Constant Matrix: (Units=GPa)
#
#
# Indices 1 2 3 4 5 6 
#
# 1 130.4076 64.3512 39.6552 -0.0235 13.1851 -0.0089
# 2 64.3512 140.7558 45.0383 -0.0508 14.0042 -0.0233
# 3 39.6552 45.0383 107.3539 -0.0979 10.3467 -0.0480
# 4 -0.0235 -0.0508 -0.0979 27.3147 -0.0158 -1.1276
# 5 13.1851 14.0042 10.3467 -0.0158 39.6037 -0.0041
# 6 -0.0089 -0.0233 -0.0480 -1.1276 -0.0041 33.0899
#
#
#
# Elastic Compliance Matrix: (Units=1/GPa)
#
#
# Indices 1 2 3 4 5 6 
#
# 1 0.010389 -0.003946 -0.002034 -0.000007 -0.001532 -0.000003
# 2 -0.003946 0.009871 -0.002538 0.000005 -0.001514 0.000002
# 3 -0.002034 -0.002538 0.011263 0.000034 -0.001368 0.000015
# 4 -0.000007 0.000005 0.000034 0.036662 0.000006 0.001249
# 5 -0.001532 -0.001514 -0.001368 0.000006 0.026653 0.000000
# 6 -0.000003 0.000002 0.000015 0.001249 0.000000 0.030263
#
#
# Mechanical properties :
#
#
# Convention : Reuss Voigt Hill
#
# Bulk Modulus (GPa) = 69.02941 75.17852 72.10396
# Shear Modulus (GPa) = 34.02115 35.29982 34.66048
#
# Velocity S-wave (km/s) = 4.12572 4.20253 4.16430
# Velocity P-wave (km/s) = 7.56521 7.82061 7.69397
#
# Compressibility (1/GPa) = 0.01448658
#
# Stress axis : x y z
#
# Youngs Moduli (GPa) = 96.25416 101.30343 88.78659
#
# Poissons Ratio (x) = 0.39978 0.18062
# Poissons Ratio (y) = 0.37986 0.22531
# Poissons Ratio (z) = 0.19582 0.25708
#
# Static dielectric constant tensor:
#      x y z
#    x 14.980190 0.003450 -2.986030 
#    y 0.003450 3.623030 -0.001060 
#    z -2.986030 -0.001060 4.691800 
# 
# 
# High freq. dielectric constant tensor:
#      x y z
#    x 1.791610 0.000000 0.000980 
#    y 0.000000 1.766320 0.000000 
#    z 0.000980 0.000000 1.790770 
# 
# From -- ./inp_files/206495.got.cif
#   From: 2010.06.25/outbox.cif.g09.slc.cpg/sg15_104_cif.got.tgz:206495.got - 2010.06.28 07:06:18.
