data_PCOD8150256
_publ_section_title
;
Structure prediction by ZEFSAII (Michael W. Deem and Ramdas Pophale) SiO2 
 PCOD8150256
Probable space group: C 2/C
;
_chemical_formula_sum "Si O2"
_cell_formula_units_Z 36
_cell_length_a 11.567966
_cell_length_b 27.238279
_cell_length_c 9.082295
_cell_angle_alpha 90.000000
_cell_angle_beta 141.401898
_cell_angle_gamma 90.000000
_cell_volume 1785.315732
_symmetry_space_group_name_H-M "C 2/C"
_symmetry_group_IT_number 15
_symmetry_cell_setting 'monoclinic'
loop_
_space_group_symop_operation_xyz
x,y,z
-x,y,1/2-z
-x,-y,-z
x,-y,1/2+z
1/2+x,1/2+y,z
1/2-x,1/2+y,1/2-z
1/2-x,1/2-y,-z
1/2+x,1/2-y,1/2+z
loop_
_atom_site_type_symbol
_atom_site_label
_atom_site_fract_x
_atom_site_fract_y
_atom_site_fract_z
Si Si1 0.506099 0.942684 0.031864
Si Si2 0.000000 0.622657 0.250000
Si Si3 0.222371 0.095884 0.454572
Si Si4 0.188029 0.800138 0.513143
Si Si5 0.685630 0.700989 0.357321
O O1 0.673544 0.929360 0.307225
O O2 0.558898 0.912666 0.939709
O O3 0.299100 0.930045 0.883395
O O4 0.500000 0.000000 0.000000
O O5 0.832259 0.656924 0.131998
O O6 0.300803 0.152015 0.510876
O O7 0.000000 0.089444 0.250000
O O8 0.250000 0.750000 0.500000
O O9 0.162284 0.789606 0.660668
O O10 0.000000 0.818146 0.250000
O O11 0.500000 0.685389 0.250000
O O12 0.750000 0.750000 0.500000
#
# Coordination Sequence:
#
# PCOD8150256 Si02
#       5
#     8   4   8   8   8
#     4  11  25  47  73  99 133 181 235 288 347 403
#     4  12  26  42  70 100 144 178 218 294 348 400
#     4  10  24  45  69 101 138 174 232 282 336 415
#     4  12  26  43  66 103 144 181 226 281 348 416
#     4  11  25  41  68  98 136 187 228 273 340 414
#
# _framework density 20.164498999999999
#
# number of rings (size 3 to 8) (size 9 to 14) (size 15 to 20)
#    0.000    0.889    3.333    2.667   12.444    0.889 
#    0.000    2.222    0.000    0.000    0.000    0.000 
#    0.000    0.000    0.000    0.000    0.000    0.000 
#
# Total GULP energy -223047.517046 kJ/mol
# GULP energy per Si atom -12391.528725 kJ/mol
# Density = 2.011860 g / cm^3
# Si number density = 20.164499 Si / 1000 Ang^3
#
#
#
# Elastic Constant Matrix: (Units=GPa)
#
#
# Indices 1 2 3 4 5 6 
#
# 1 138.9198 53.6337 53.5659 0.0000 -18.7232 0.0000
# 2 53.6337 181.9515 57.1287 0.0000 -14.8965 0.0000
# 3 53.5659 57.1287 121.4363 0.0000 -11.6135 0.0000
# 4 0.0000 0.0000 0.0000 37.6112 0.0000 -16.5089
# 5 -18.7232 -14.8965 -11.6135 0.0000 47.0772 0.0000
# 6 0.0000 0.0000 0.0000 -16.5089 0.0000 51.1187
#
#
#
# Elastic Compliance Matrix: (Units=1/GPa)
#
#
# Indices 1 2 3 4 5 6 
#
# 1 0.009348 -0.001565 -0.003153 0.000000 0.002445 0.000000
# 2 -0.001565 0.006792 -0.002416 0.000000 0.000931 0.000000
# 3 -0.003153 -0.002416 0.010825 0.000000 0.000652 0.000000
# 4 0.000000 0.000000 0.000000 0.030979 0.000000 0.010005
# 5 0.002445 0.000931 0.000652 0.000000 0.022669 0.000000
# 6 0.000000 0.000000 0.000000 0.010005 0.000000 0.022793
#
#
# Mechanical properties :
#
#
# Convention : Reuss Voigt Hill
#
# Bulk Modulus (GPa) = 78.76578 85.66270 82.21424
# Shear Modulus (GPa) = 41.01476 45.69340 43.35408
#
# Velocity S-wave (km/s) = 4.51489 4.76545 4.64186
# Velocity P-wave (km/s) = 8.14404 8.53543 8.34203
#
# Compressibility (1/GPa) = 0.01269587
#
# Stress axis : x y z
#
# Youngs Moduli (GPa) = 106.97378 147.23027 92.38285
#
# Poissons Ratio (x) = 0.23046 0.29131
# Poissons Ratio (y) = 0.16745 0.22318
# Poissons Ratio (z) = 0.33732 0.35568
#
# Static dielectric constant tensor:
#      x y z
#    x 4.004580 0.000000 -0.154610 
#    y 0.000000 3.934920 0.000000 
#    z -0.154610 0.000000 3.764980 
# 
# 
# High freq. dielectric constant tensor:
#      x y z
#    x 1.808850 0.000000 -0.006530 
#    y 0.000000 1.806830 0.000000 
#    z -0.006530 0.000000 1.781720 
# 
# From -- ./inp_files/33260.got.cif
#   From: 2010.06.25/outbox.cif.g09.slc.cpg/sg15_17_cif.got.tgz:33260.got - 2010.06.28 07:06:18.
