data_PCOD8150766
_publ_section_title
;
Structure prediction by ZEFSAII (Michael W. Deem and Ramdas Pophale) SiO2 
 PCOD8150766
Probable space group: C 2/C
;
_chemical_formula_sum "Si O2"
_cell_formula_units_Z 44
_cell_length_a 27.918086
_cell_length_b 6.454965
_cell_length_c 13.675342
_cell_angle_alpha 90.000000
_cell_angle_beta 61.013087
_cell_angle_gamma 90.000000
_cell_volume 2155.718054
_symmetry_space_group_name_H-M "C 2/C"
_symmetry_group_IT_number 15
_symmetry_cell_setting 'monoclinic'
loop_
_space_group_symop_operation_xyz
x,y,z
-x,y,1/2-z
-x,-y,-z
x,-y,1/2+z
1/2+x,1/2+y,z
1/2-x,1/2+y,1/2-z
1/2-x,1/2-y,-z
1/2+x,1/2-y,1/2+z
loop_
_atom_site_type_symbol
_atom_site_label
_atom_site_fract_x
_atom_site_fract_y
_atom_site_fract_z
Si Si1 0.272599 0.057491 0.421702
Si Si2 0.086805 0.055615 0.237535
Si Si3 0.359692 0.217792 0.190057
Si Si4 0.464348 0.040097 0.628118
Si Si5 0.828197 0.237429 0.498653
Si Si6 0.000000 0.748484 0.250000
O O1 0.250000 0.250000 0.500000
O O2 0.303870 0.137780 0.294542
O O3 0.223938 0.909824 0.434072
O O4 0.311220 0.949614 0.463437
O O5 0.044862 0.222131 0.327643
O O6 0.126890 0.146095 0.117699
O O7 0.121985 0.944404 0.288534
O O8 0.053435 0.888444 0.208330
O O9 0.404076 0.048875 0.175677
O O10 0.353920 0.222495 0.079157
O O11 0.500000 0.000000 0.500000
O O12 0.504267 0.909897 0.657403
#
# Coordination Sequence:
#
# PCOD8150766 Si02
#       6
#     8   8   8   8   8   4
#     4  11  24  46  63 100 133 172 225 270 330 398
#     4  11  24  46  66 100 133 173 231 270 333 406
#     4  11  26  42  68 100 131 178 223 273 338 396
#     4  11  26  44  67  97 135 175 225 269 332 402
#     4  11  26  42  71  93 138 176 216 284 329 395
#     4  10  26  42  68  94 134 172 216 280 326 386
#
# _framework density 20.410833
#
# number of rings (size 3 to 8) (size 9 to 14) (size 15 to 20)
#    0.000    1.091    3.636    0.545   10.182    2.909 
#    0.000    0.000    0.000    0.000    0.000    0.000 
#    0.000    0.000    0.000    0.000    0.000    0.000 
#
# Total GULP energy -272688.666978 kJ/mol
# GULP energy per Si atom -12394.939408 kJ/mol
# Density = 2.036438 g / cm^3
# Si number density = 20.410833 Si / 1000 Ang^3
#
#
#
# Elastic Constant Matrix: (Units=GPa)
#
#
# Indices 1 2 3 4 5 6 
#
# 1 84.3071 38.9622 38.2833 0.0000 24.6218 0.0000
# 2 38.9622 124.0376 49.8720 -0.0002 9.4360 0.0001
# 3 38.2833 49.8720 140.0853 0.0000 4.7102 0.0000
# 4 0.0000 -0.0002 0.0000 13.8379 0.0000 15.0188
# 5 24.6218 9.4360 4.7102 0.0000 41.8755 0.0000
# 6 0.0000 0.0001 0.0000 15.0188 0.0000 9.9167
#
#
#
# Elastic Compliance Matrix: (Units=1/GPa)
#
#
# Indices 1 2 3 4 5 6 
#
# 1 0.017671 -0.003538 -0.003259 0.000000 -0.009226 0.000000
# 2 -0.003538 0.010247 -0.002683 0.000000 0.000073 0.000000
# 3 -0.003259 -0.002683 0.008934 0.000000 0.001516 0.000000
# 4 0.000000 0.000000 0.000000 -0.112257 0.000000 0.170014
# 5 -0.009226 0.000073 0.001516 0.000000 0.029118 0.000000
# 6 0.000000 0.000000 0.000000 0.170014 0.000000 -0.156646
#
#
# Mechanical properties :
#
#
# Convention : Reuss Voigt Hill
#
# Bulk Modulus (GPa) = 55.89955 66.96279 61.43117
# Shear Modulus (GPa) = -28.08860 27.88019 -0.10421
#
# Velocity S-wave (km/s) = -3.71369 3.69989 -0.22620
# Velocity P-wave (km/s) = 3.00965 7.15059 5.48584
#
# Compressibility (1/GPa) = 0.01788923
#
# Stress axis : x y z
#
# Youngs Moduli (GPa) = 56.58899 97.59014 111.93683
#
# Poissons Ratio (x) = 0.34532 0.36484
# Poissons Ratio (y) = 0.20024 0.30038
# Poissons Ratio (z) = 0.18444 0.26188
#
# Static dielectric constant tensor:
#      x y z
#    x 3.744730 0.000000 0.017850 
#    y 0.000000 4.048850 0.000000 
#    z 0.017850 0.000000 3.545690 
# 
# 
# High freq. dielectric constant tensor:
#      x y z
#    x 1.808180 0.000000 -0.001390 
#    y 0.000000 1.813240 0.000000 
#    z -0.001390 0.000000 1.807790 
# 
# From -- ./inp_files/175623.got.cif
#   From: 2010.06.25/outbox.cif.g09.slc.cpg/sg15_88_cif.got.tgz:175623.got - 2010.06.28 07:06:18.
