data_PCOD8150234
_publ_section_title
;
Structure prediction by ZEFSAII (Michael W. Deem and Ramdas Pophale) SiO2 
 PCOD8150234
Probable space group: C 2/C
;
_chemical_formula_sum "Si O2"
_cell_formula_units_Z 48
_cell_length_a 10.363075
_cell_length_b 11.255034
_cell_length_c 17.121375
_cell_angle_alpha 90.000000
_cell_angle_beta 85.270906
_cell_angle_gamma 90.000000
_cell_volume 1990.183309
_symmetry_space_group_name_H-M "C 2/C"
_symmetry_group_IT_number 15
_symmetry_cell_setting 'monoclinic'
loop_
_space_group_symop_operation_xyz
x,y,z
-x,y,1/2-z
-x,-y,-z
x,-y,1/2+z
1/2+x,1/2+y,z
1/2-x,1/2+y,1/2-z
1/2-x,1/2-y,-z
1/2+x,1/2-y,1/2+z
loop_
_atom_site_type_symbol
_atom_site_label
_atom_site_fract_x
_atom_site_fract_y
_atom_site_fract_z
Si Si1 0.320999 0.040808 0.561888
Si Si2 0.197993 0.769417 0.162680
Si Si3 0.916669 0.541384 0.382454
Si Si4 0.800089 0.898834 0.181813
Si Si5 0.200911 0.200433 0.083946
Si Si6 0.551415 0.622133 0.333370
O O1 0.246331 0.162485 0.583065
O O2 0.344293 0.036760 0.468888
O O3 0.445896 0.020344 0.610800
O O4 0.225554 0.937403 0.591619
O O5 0.078160 0.679976 0.147034
O O6 0.165014 0.867911 0.230022
O O7 0.314310 0.688007 0.184999
O O8 0.840040 0.462440 0.322636
O O9 0.789040 0.772591 0.140033
O O10 0.912255 0.986250 0.140710
O O11 0.044461 0.200057 0.105831
O O12 0.250000 0.250000 0.000000
O O13 0.500000 0.611993 0.250000
#
# Coordination Sequence:
#
# PCOD8150234 Si02
#       6
#     8   8   8   8   8   8
#     4  11  24  42  70  96 141 186 237 292 357 443
#     4  11  24  43  74  98 139 182 239 306 363 428
#     4  10  24  45  66 102 135 185 237 291 363 434
#     4  11  24  46  69 103 137 183 245 293 368 436
#     4  12  25  44  67 103 144 191 237 294 369 434
#     4  11  24  44  71 100 142 187 235 303 365 429
#
# _framework density 24.118382
#
# number of rings (size 3 to 8) (size 9 to 14) (size 15 to 20)
#    0.000    1.000    3.333    2.500    4.667    3.333 
#    0.000    0.000    0.000    0.000    0.000    0.000 
#    0.000    0.000    0.000    0.000    0.000    0.000 
#
# Total GULP energy -297370.433099 kJ/mol
# GULP energy per Si atom -12390.434712 kJ/mol
# Density = 2.406349 g / cm^3
# Si number density = 24.118382 Si / 1000 Ang^3
#
#
#
# Elastic Constant Matrix: (Units=GPa)
#
#
# Indices 1 2 3 4 5 6 
#
# 1 47.6417 23.2409 19.5266 0.0000 -13.6484 0.0000
# 2 23.2409 121.5991 25.8678 0.0000 9.1073 0.0000
# 3 19.5266 25.8678 71.2181 0.0000 -7.3164 0.0000
# 4 0.0000 0.0000 0.0000 46.7101 0.0000 3.3710
# 5 -13.6484 9.1073 -7.3164 0.0000 19.3036 0.0000
# 6 0.0000 0.0000 0.0000 3.3710 0.0000 32.0830
#
#
#
# Elastic Compliance Matrix: (Units=1/GPa)
#
#
# Indices 1 2 3 4 5 6 
#
# 1 0.033676 -0.007566 -0.003821 0.000000 0.025931 0.000000
# 2 -0.007566 0.011247 -0.003231 0.000000 -0.011880 0.000000
# 3 -0.003821 -0.003231 0.016796 0.000000 0.005189 0.000000
# 4 0.000000 0.000000 0.000000 0.021572 0.000000 -0.002267
# 5 0.025931 -0.011880 0.005189 0.000000 0.077710 0.000000
# 6 0.000000 0.000000 0.000000 -0.002267 0.000000 0.031407
#
#
# Mechanical properties :
#
#
# Convention : Reuss Voigt Hill
#
# Bulk Modulus (GPa) = 30.78611 41.96994 36.37803
# Shear Modulus (GPa) = 21.50803 31.07424 26.29113
#
# Velocity S-wave (km/s) = 2.98949 3.59333 3.30523
# Velocity P-wave (km/s) = 4.97075 5.88689 5.44811
#
# Compressibility (1/GPa) = 0.03248218
#
# Stress axis : x y z
#
# Youngs Moduli (GPa) = 29.69499 88.91342 59.53882
#
# Poissons Ratio (x) = 0.67268 0.22751
# Poissons Ratio (y) = 0.22466 0.19238
# Poissons Ratio (z) = 0.11347 0.28730
#
# Static dielectric constant tensor:
#      x y z
#    x 4.918390 0.000000 0.009530 
#    y 0.000000 4.800650 0.000000 
#    z 0.009530 0.000000 4.184590 
# 
# 
# High freq. dielectric constant tensor:
#      x y z
#    x 1.949550 0.000000 0.010020 
#    y 0.000000 1.982190 0.000000 
#    z 0.010020 0.000000 1.942400 
# 
# From -- ./inp_files/195982.got.cif
#   From: 2010.06.25/outbox.cif.g09.slc.cpg/sg15_98_cif.got.tgz:195982.got - 2010.06.28 07:06:18.
