data_PCOD8150880
_publ_section_title
;
Structure prediction by ZEFSAII (Michael W. Deem and Ramdas Pophale) SiO2 
 PCOD8150880
Probable space group: C 2/C
;
_chemical_formula_sum "Si O2"
_cell_formula_units_Z 56
_cell_length_a 17.861739
_cell_length_b 16.718077
_cell_length_c 8.570470
_cell_angle_alpha 90.000000
_cell_angle_beta 76.332266
_cell_angle_gamma 90.000000
_cell_volume 2486.789410
_symmetry_space_group_name_H-M "C 2/C"
_symmetry_group_IT_number 15
_symmetry_cell_setting 'monoclinic'
loop_
_space_group_symop_operation_xyz
x,y,z
-x,y,1/2-z
-x,-y,-z
x,-y,1/2+z
1/2+x,1/2+y,z
1/2-x,1/2+y,1/2-z
1/2-x,1/2-y,-z
1/2+x,1/2-y,1/2+z
loop_
_atom_site_type_symbol
_atom_site_label
_atom_site_fract_x
_atom_site_fract_y
_atom_site_fract_z
Si Si1 0.000000 0.494996 0.250000
Si Si2 0.500000 0.534352 0.250000
Si Si3 0.957119 0.240122 0.553243
Si Si4 0.426285 0.850718 0.141936
Si Si5 0.219399 0.178569 0.405923
Si Si6 0.667576 0.747651 0.115373
Si Si7 0.116632 0.365900 0.672691
Si Si8 0.066607 0.899033 0.017154
O O1 0.029438 0.436328 0.374178
O O2 0.074832 0.548807 0.182713
O O3 0.444540 0.481010 0.384749
O O4 0.446474 0.588133 0.162795
O O5 0.884290 0.205500 0.492524
O O6 0.931110 0.302568 0.700673
O O7 0.006745 0.284770 0.396688
O O8 0.004619 0.167288 0.605780
O O9 0.369575 0.834779 0.318713
O O10 0.377898 0.836658 0.008215
O O11 0.250000 0.250000 0.500000
O O12 0.172165 0.202078 0.275523
O O13 0.294498 0.126897 0.315206
O O14 0.153777 0.126490 0.523826
O O15 0.750000 0.750000 0.000000
#
# Coordination Sequence:
#
# PCOD8150880 Si02
#       8
#     4   4   8   8   8   8   8   8
#     4  12  26  44  72 104 154 190 236 284 360 448
#     4  10  26  48  72 106 132 190 232 292 370 414
#     4  12  23  43  77 104 133 190 245 292 341 428
#     4  12  24  45  69 105 140 195 236 291 349 419
#     4  12  25  45  70 105 143 181 237 303 350 418
#     4  12  24  40  67 105 141 180 244 298 350 405
#     4  12  26  43  70 108 144 190 238 283 367 421
#     4  11  25  47  75 101 142 180 242 295 352 430
#
# _framework density 22.518996000000001
#
# number of rings (size 3 to 8) (size 9 to 14) (size 15 to 20)
#    0.000    0.286    7.143    1.286    4.000    0.000 
#    2.571    1.429    0.000    0.000    0.000    0.000 
#    0.000    0.000    0.000    0.000    0.000    0.000 
#
# Total GULP energy -346954.244208 kJ/mol
# GULP energy per Si atom -12391.223007 kJ/mol
# Density = 2.246774 g / cm^3
# Si number density = 22.518996 Si / 1000 Ang^3
#
#
#
# Elastic Constant Matrix: (Units=GPa)
#
#
# Indices 1 2 3 4 5 6 
#
# 1 160.7954 62.2893 33.0344 0.0000 -9.1844 0.0000
# 2 62.2893 88.8407 28.2670 0.0000 -4.2449 0.0000
# 3 33.0344 28.2670 86.3989 0.0000 4.0794 0.0000
# 4 0.0000 0.0000 0.0000 26.5042 0.0000 6.7138
# 5 -9.1844 -4.2449 4.0794 0.0000 39.5371 0.0000
# 6 0.0000 0.0000 0.0000 6.7138 0.0000 40.8509
#
#
#
# Elastic Compliance Matrix: (Units=1/GPa)
#
#
# Indices 1 2 3 4 5 6 
#
# 1 0.008806 -0.005583 -0.001617 0.000000 0.001613 0.000000
# 2 -0.005583 0.016229 -0.003212 0.000000 0.000777 0.000000
# 3 -0.001617 -0.003212 0.013342 0.000000 -0.002097 0.000000
# 4 0.000000 0.000000 0.000000 0.039369 0.000000 -0.006470
# 5 0.001613 0.000777 -0.002097 0.000000 0.025967 0.000000
# 6 0.000000 0.000000 0.000000 -0.006470 0.000000 0.025543
#
#
# Mechanical properties :
#
#
# Convention : Reuss Voigt Hill
#
# Bulk Modulus (GPa) = 56.96353 64.80182 60.88268
# Shear Modulus (GPa) = 32.06557 35.54139 33.80348
#
# Velocity S-wave (km/s) = 3.77760 3.97707 3.87862
# Velocity P-wave (km/s) = 6.66166 7.06601 6.86681
#
# Compressibility (1/GPa) = 0.01755509
#
# Stress axis : x y z
#
# Youngs Moduli (GPa) = 113.55886 61.61644 74.95030
#
# Poissons Ratio (x) = 0.34399 0.12117
# Poissons Ratio (y) = 0.63397 0.24073
# Poissons Ratio (z) = 0.18358 0.19791
#
# Static dielectric constant tensor:
#      x y z
#    x 4.501960 0.000000 0.100820 
#    y 0.000000 3.939910 0.000000 
#    z 0.100820 0.000000 4.332200 
# 
# 
# High freq. dielectric constant tensor:
#      x y z
#    x 1.905190 0.000000 0.011890 
#    y 0.000000 1.863550 0.000000 
#    z 0.011890 0.000000 1.895520 
# 
# From -- ./inp_files/49072.got.cif
#   From: 2010.06.25/outbox.cif.g09.slc.cpg/sg15_25_cif.got.tgz:49072.got - 2010.06.28 07:06:18.
