data_PCOD8150375
_publ_section_title
;
Structure prediction by ZEFSAII (Michael W. Deem and Ramdas Pophale) SiO2 
 PCOD8150375
Probable space group: C 2/C
;
_chemical_formula_sum "Si O2"
_cell_formula_units_Z 36
_cell_length_a 17.864633
_cell_length_b 11.449282
_cell_length_c 9.001033
_cell_angle_alpha 90.000000
_cell_angle_beta 121.116918
_cell_angle_gamma 90.000000
_cell_volume 1576.146464
_symmetry_space_group_name_H-M "C 2/C"
_symmetry_group_IT_number 15
_symmetry_cell_setting 'monoclinic'
loop_
_space_group_symop_operation_xyz
x,y,z
-x,y,1/2-z
-x,-y,-z
x,-y,1/2+z
1/2+x,1/2+y,z
1/2-x,1/2+y,1/2-z
1/2-x,1/2-y,-z
1/2+x,1/2-y,1/2+z
loop_
_atom_site_type_symbol
_atom_site_label
_atom_site_fract_x
_atom_site_fract_y
_atom_site_fract_z
Si Si1 0.706185 0.593461 0.814086
Si Si2 0.685249 0.360412 0.951198
Si Si3 0.973125 0.630653 0.443913
Si Si4 0.500000 0.272526 0.750000
Si Si5 0.625964 0.784574 0.907690
O O1 0.724725 0.462022 0.887227
O O2 0.677013 0.596920 0.612961
O O3 0.635508 0.653095 0.852696
O O4 0.792496 0.672176 0.914089
O O5 0.585774 0.343750 0.785528
O O6 0.750000 0.250000 0.000000
O O7 0.954925 0.691211 0.580432
O O8 0.887564 0.630855 0.250783
O O9 0.000000 0.500000 0.500000
O O10 0.044693 0.709749 0.434488
#
# Coordination Sequence:
#
# PCOD8150375 Si02
#       5
#     8   8   8   4   8
#     4  11  27  48  72 103 147 194 239 303 364 437
#     4  12  30  48  76 108 147 191 249 300 367 446
#     4  11  24  42  71 107 141 189 241 305 359 429
#     4  12  26  46  70 108 146 182 248 288 366 436
#     4  10  24  46  71  99 144 189 243 293 374 423
#
# _framework density 22.840517999999999
#
# number of rings (size 3 to 8) (size 9 to 14) (size 15 to 20)
#    0.000    0.889    2.222    2.667   18.667    2.667 
#    0.000    0.000    0.000    0.000    0.000    0.000 
#    0.000    0.000    0.000    0.000    0.000    0.000 
#
# Total GULP energy -223149.906763 kJ/mol
# GULP energy per Si atom -12397.217042 kJ/mol
# Density = 2.278853 g / cm^3
# Si number density = 22.840518 Si / 1000 Ang^3
#
#
#
# Elastic Constant Matrix: (Units=GPa)
#
#
# Indices 1 2 3 4 5 6 
#
# 1 74.5235 20.0733 6.5540 0.0000 3.6520 0.0000
# 2 20.0733 121.7748 18.5953 0.0000 -9.0183 0.0000
# 3 6.5540 18.5953 109.0480 0.0000 1.4001 0.0000
# 4 0.0000 0.0000 0.0000 39.8977 0.0000 -2.1823
# 5 3.6520 -9.0183 1.4001 0.0000 39.4103 0.0000
# 6 0.0000 0.0000 0.0000 -2.1823 0.0000 27.2389
#
#
#
# Elastic Compliance Matrix: (Units=1/GPa)
#
#
# Indices 1 2 3 4 5 6 
#
# 1 0.014196 -0.002414 -0.000418 0.000000 -0.001853 0.000000
# 2 -0.002414 0.008999 -0.001419 0.000000 0.002333 0.000000
# 3 -0.000418 -0.001419 0.009445 0.000000 -0.000622 0.000000
# 4 0.000000 0.000000 0.000000 0.025174 0.000000 0.002017
# 5 -0.001853 0.002333 -0.000622 0.000000 0.026102 0.000000
# 6 0.000000 0.000000 0.000000 0.002017 0.000000 0.036874
#
#
# Mechanical properties :
#
#
# Convention : Reuss Voigt Hill
#
# Bulk Modulus (GPa) = 41.42639 43.97681 42.70160
# Shear Modulus (GPa) = 36.40622 38.65096 37.52859
#
# Velocity S-wave (km/s) = 3.99674 4.11811 4.05788
# Velocity P-wave (km/s) = 6.28293 6.47360 6.37897
#
# Compressibility (1/GPa) = 0.02413920
#
# Stress axis : x y z
#
# Youngs Moduli (GPa) = 70.44123 111.11989 105.87137
#
# Poissons Ratio (x) = 0.26819 0.04424
# Poissons Ratio (y) = 0.17001 0.15028
# Poissons Ratio (z) = 0.02944 0.15773
#
# Static dielectric constant tensor:
#      x y z
#    x 5.059030 0.000000 0.129510 
#    y 0.000000 4.091450 0.000000 
#    z 0.129510 0.000000 4.521480 
# 
# 
# High freq. dielectric constant tensor:
#      x y z
#    x 1.895690 0.000000 0.000900 
#    y 0.000000 1.892750 0.000000 
#    z 0.000900 0.000000 1.924950 
# 
# From -- ./inp_files/45927.got.cif
#   From: 2010.06.25/outbox.cif.g09.slc.cpg/sg15_23_cif.got.tgz:45927.got - 2010.06.28 07:06:18.
