data_PCOD8150024
_publ_section_title
;
Structure prediction by ZEFSAII (Michael W. Deem and Ramdas Pophale) SiO2 
 PCOD8150024
Probable space group: C 2/C
;
_chemical_formula_sum "Si O2"
_cell_formula_units_Z 64
_cell_length_a 30.389593
_cell_length_b 9.664975
_cell_length_c 13.596604
_cell_angle_alpha 90.000000
_cell_angle_beta 135.931658
_cell_angle_gamma 90.000000
_cell_volume 2777.557959
_symmetry_space_group_name_H-M "C 2/C"
_symmetry_group_IT_number 15
_symmetry_cell_setting 'monoclinic'
loop_
_space_group_symop_operation_xyz
x,y,z
-x,y,1/2-z
-x,-y,-z
x,-y,1/2+z
1/2+x,1/2+y,z
1/2-x,1/2+y,1/2-z
1/2-x,1/2-y,-z
1/2+x,1/2-y,1/2+z
loop_
_atom_site_type_symbol
_atom_site_label
_atom_site_fract_x
_atom_site_fract_y
_atom_site_fract_z
Si Si1 0.719793 0.869384 0.390715
Si Si2 0.873638 0.552647 0.461962
Si Si3 0.007496 0.384893 0.874679
Si Si4 0.415436 0.863493 0.233078
Si Si5 0.774240 0.342403 0.323819
Si Si6 0.702693 0.647227 0.975843
Si Si7 0.642370 0.701531 0.690385
Si Si8 0.495345 0.340343 0.519095
O O1 0.750000 0.750000 0.500000
O O2 0.649296 0.897422 0.315050
O O3 0.717018 0.813321 0.276127
O O4 0.768459 0.995914 0.476241
O O5 0.905490 0.646491 0.598772
O O6 0.814247 0.477686 0.418287
O O7 0.846566 0.638314 0.324845
O O8 0.921545 0.439824 0.494395
O O9 0.960775 0.508240 0.831350
O O10 0.000000 0.339517 0.750000
O O11 0.994678 0.251087 0.919466
O O12 0.448884 0.719074 0.320767
O O13 0.805688 0.208233 0.428178
O O14 0.701292 0.378204 0.234597
O O15 0.641006 0.664087 0.805621
O O16 0.750000 0.750000 0.000000
O O17 0.572902 0.668427 0.536009
O O18 0.500000 0.500000 0.500000
#
# Coordination Sequence:
#
# PCOD8150024 Si02
#       8
#     8   8   8   8   8   8   8   8
#     4  12  27  47  74 110 150 191 247 301 369 455
#     4  11  23  46  77 112 138 189 260 305 358 444
#     4  10  24  45  76 107 133 192 250 307 354 441
#     4  11  24  47  79 105 140 191 253 301 365 432
#     4  11  24  41  71 110 144 183 240 309 364 423
#     4  10  24  43  71 104 141 189 229 303 367 428
#     4  11  25  46  72 102 147 189 241 296 377 431
#     4  12  28  47  70 106 151 193 236 307 383 445
#
# _framework density 23.041824999999999
#
# number of rings (size 3 to 8) (size 9 to 14) (size 15 to 20)
#    0.000    1.000    1.250    4.875   10.500    2.000 
#    6.750    0.000    0.000    0.000    0.000    0.000 
#    0.000    0.000    0.000    0.000    0.000    0.000 
#
# Total GULP energy -396586.754567 kJ/mol
# GULP energy per Si atom -12393.336080 kJ/mol
# Density = 2.298938 g / cm^3
# Si number density = 23.041825 Si / 1000 Ang^3
#
#
#
# Elastic Constant Matrix: (Units=GPa)
#
#
# Indices 1 2 3 4 5 6 
#
# 1 116.9569 50.2746 49.7677 0.0000 10.6668 0.0000
# 2 50.2746 168.7215 67.7022 0.0000 -5.4655 0.0000
# 3 49.7677 67.7022 131.3607 0.0000 -3.0454 0.0000
# 4 0.0000 0.0000 0.0000 31.5703 0.0000 -0.6102
# 5 10.6668 -5.4655 -3.0454 0.0000 44.2386 0.0000
# 6 0.0000 0.0000 0.0000 -0.6102 0.0000 35.1318
#
#
#
# Elastic Compliance Matrix: (Units=1/GPa)
#
#
# Indices 1 2 3 4 5 6 
#
# 1 0.011111 -0.002136 -0.003182 0.000000 -0.003162 0.000000
# 2 -0.002136 0.007902 -0.003234 0.000000 0.001269 0.000000
# 3 -0.003182 -0.003234 0.010510 0.000000 0.001091 0.000000
# 4 0.000000 0.000000 0.000000 0.031686 0.000000 0.000550
# 5 -0.003162 0.001269 0.001091 0.000000 0.023599 0.000000
# 6 0.000000 0.000000 0.000000 0.000550 0.000000 0.028474
#
#
# Mechanical properties :
#
#
# Convention : Reuss Voigt Hill
#
# Bulk Modulus (GPa) = 80.52142 83.61421 82.06782
# Shear Modulus (GPa) = 37.16762 38.80778 37.98770
#
# Velocity S-wave (km/s) = 4.02064 4.10839 4.06475
# Velocity P-wave (km/s) = 7.52168 7.67281 7.59762
#
# Compressibility (1/GPa) = 0.01241906
#
# Stress axis : x y z
#
# Youngs Moduli (GPa) = 90.00270 126.54526 95.14676
#
# Poissons Ratio (x) = 0.27036 0.30272
# Poissons Ratio (y) = 0.19229 0.30770
# Poissons Ratio (z) = 0.28636 0.40924
#
# Static dielectric constant tensor:
#      x y z
#    x 4.630510 0.000000 -0.510770 
#    y 0.000000 3.808210 0.000000 
#    z -0.510770 0.000000 5.094440 
# 
# 
# High freq. dielectric constant tensor:
#      x y z
#    x 1.912930 0.000000 -0.000480 
#    y 0.000000 1.890320 0.000000 
#    z -0.000480 0.000000 1.932810 
# 
# From -- ./inp_files/181171.got.cif
#   From: 2010.06.25/outbox.cif.g09.slc.cpg/sg15_91_cif.got.tgz:181171.got - 2010.06.28 07:06:18.
