data_PCOD8150015
_publ_section_title
;
Structure prediction by ZEFSAII (Michael W. Deem and Ramdas Pophale) SiO2 
 PCOD8150015
Probable space group: C 2/C
;
_chemical_formula_sum "Si O2"
_cell_formula_units_Z 48
_cell_length_a 17.268339
_cell_length_b 14.019144
_cell_length_c 17.497565
_cell_angle_alpha 90.000000
_cell_angle_beta 148.441208
_cell_angle_gamma 90.000000
_cell_volume 2216.976832
_symmetry_space_group_name_H-M "C 2/C"
_symmetry_group_IT_number 15
_symmetry_cell_setting 'monoclinic'
loop_
_space_group_symop_operation_xyz
x,y,z
-x,y,1/2-z
-x,-y,-z
x,-y,1/2+z
1/2+x,1/2+y,z
1/2-x,1/2+y,1/2-z
1/2-x,1/2-y,-z
1/2+x,1/2-y,1/2+z
loop_
_atom_site_type_symbol
_atom_site_label
_atom_site_fract_x
_atom_site_fract_y
_atom_site_fract_z
Si Si1 0.668632 0.458370 0.978344
Si Si2 0.371240 0.251780 0.296714
Si Si3 0.327524 0.318232 0.003156
Si Si4 0.819704 0.673419 0.725926
Si Si5 0.058266 0.601614 0.033604
Si Si6 0.845927 0.881102 0.696626
O O1 0.497099 0.432877 0.847110
O O2 0.715277 0.414465 0.936552
O O3 0.702595 0.571056 0.004216
O O4 0.764382 0.412196 0.126178
O O5 0.492980 0.308952 0.348992
O O6 0.239544 0.210773 0.134685
O O7 0.300359 0.312113 0.306960
O O8 0.465510 0.164879 0.411221
O O9 0.250000 0.250000 0.000000
O O10 0.978516 0.647445 0.893760
O O11 0.853030 0.766282 0.702820
O O12 0.000000 0.500000 0.000000
O O13 0.232062 0.588647 0.165832
#
# Coordination Sequence:
#
# PCOD8150015 Si02
#       6
#     8   8   8   8   8   8
#     4  11  26  43  73 105 138 188 230 284 353 422
#     4  11  25  46  70 100 138 184 231 292 344 408
#     4  12  28  47  72  99 142 186 236 289 350 420
#     4  11  23  46  69 106 140 179 228 293 349 407
#     4  11  24  41  69 101 141 182 230 283 343 411
#     4  10  24  43  70 102 139 182 230 288 346 409
#
# _framework density 21.651105000000001
#
# number of rings (size 3 to 8) (size 9 to 14) (size 15 to 20)
#    0.000    1.000    1.667    4.000   11.667    2.667 
#    3.000    0.000    0.000    0.000    0.000    0.000 
#    0.000    0.000    0.000    0.000    0.000    0.000 
#
# Total GULP energy -297604.444081 kJ/mol
# GULP energy per Si atom -12400.185170 kJ/mol
# Density = 2.160183 g / cm^3
# Si number density = 21.651105 Si / 1000 Ang^3
#
#
#
# Elastic Constant Matrix: (Units=GPa)
#
#
# Indices 1 2 3 4 5 6 
#
# 1 73.6895 46.9985 17.7640 0.0001 -2.6305 0.0003
# 2 46.9985 162.1299 31.1294 0.0011 -3.2884 0.0010
# 3 17.7640 31.1294 83.8846 0.0016 -8.3688 0.0015
# 4 0.0001 0.0011 0.0016 33.6674 0.0002 2.5134
# 5 -2.6305 -3.2884 -8.3688 0.0002 35.3811 0.0001
# 6 0.0003 0.0010 0.0015 2.5134 0.0001 20.6680
#
#
#
# Elastic Compliance Matrix: (Units=1/GPa)
#
#
# Indices 1 2 3 4 5 6 
#
# 1 0.016930 -0.004543 -0.001860 0.000000 0.000397 0.000000
# 2 -0.004543 0.007860 -0.001962 0.000000 -0.000071 0.000000
# 3 -0.001860 -0.001962 0.013326 -0.000001 0.002831 -0.000001
# 4 0.000000 0.000000 -0.000001 0.029974 0.000000 -0.003645
# 5 0.000397 -0.000071 0.002831 0.000000 0.028956 0.000000
# 6 0.000000 0.000000 -0.000001 -0.003645 0.000000 0.048827
#
#
# Mechanical properties :
#
#
# Convention : Reuss Voigt Hill
#
# Bulk Modulus (GPa) = 46.75796 56.83198 51.79497
# Shear Modulus (GPa) = 29.45829 32.86411 31.16120
#
# Velocity S-wave (km/s) = 3.69262 3.90024 3.79785
# Velocity P-wave (km/s) = 6.31059 6.82558 6.57313
#
# Compressibility (1/GPa) = 0.02138673
#
# Stress axis : x y z
#
# Youngs Moduli (GPa) = 59.06604 127.22704 75.04375
#
# Poissons Ratio (x) = 0.57794 0.13958
# Poissons Ratio (y) = 0.26831 0.14723
# Poissons Ratio (z) = 0.10986 0.24961
#
# Static dielectric constant tensor:
#      x y z
#    x 3.717610 0.000000 -0.111980 
#    y 0.000000 3.926580 0.000000 
#    z -0.111980 0.000000 3.869450 
# 
# 
# High freq. dielectric constant tensor:
#      x y z
#    x 1.852270 0.000000 -0.000900 
#    y 0.000000 1.856360 0.000000 
#    z -0.000900 0.000000 1.863480 
# 
# From -- ./inp_files/66511.got.cif
#   From: 2010.06.25/outbox.cif.g09.slc.cpg/sg15_34_cif.got.tgz:66511.got - 2010.06.28 07:06:18.
