data_PCOD8150890
_publ_section_title
;
Structure prediction by ZEFSAII (Michael W. Deem and Ramdas Pophale) SiO2 
 PCOD8150890
Probable space group: C 2/C
;
_chemical_formula_sum "Si O2"
_cell_formula_units_Z 28
_cell_length_a 30.750544
_cell_length_b 4.635349
_cell_length_c 8.721991
_cell_angle_alpha 90.000000
_cell_angle_beta 52.962018
_cell_angle_gamma 90.000000
_cell_volume 992.390036
_symmetry_space_group_name_H-M "C 2/C"
_symmetry_group_IT_number 15
_symmetry_cell_setting 'monoclinic'
loop_
_space_group_symop_operation_xyz
x,y,z
-x,y,1/2-z
-x,-y,-z
x,-y,1/2+z
1/2+x,1/2+y,z
1/2-x,1/2+y,1/2-z
1/2-x,1/2-y,-z
1/2+x,1/2-y,1/2+z
loop_
_atom_site_type_symbol
_atom_site_label
_atom_site_fract_x
_atom_site_fract_y
_atom_site_fract_z
Si Si1 0.500000 0.913910 0.750000
Si Si2 0.857115 0.688290 0.330310
Si Si3 0.715423 0.133032 0.285384
Si Si4 0.933727 0.223241 0.161408
O O1 0.544602 0.127717 0.728802
O O2 0.520159 0.693325 0.570633
O O3 0.806602 0.768621 0.326954
O O4 0.832323 0.549144 0.535525
O O5 0.891240 0.440747 0.172234
O O6 0.900542 0.938039 0.279452
O O7 0.766507 0.912390 0.151966
#
# Coordination Sequence:
#
# PCOD8150890 Si02
#       4
#     4   8   8   8
#     4  10  26  48  76 108 148 192 240 304 366 436
#     4  12  26  46  74 108 146 192 244 300 362 436
#     4  12  25  46  74 107 148 193 242 300 365 434
#     4  11  26  47  74 108 146 190 244 299 366 433
#
# _framework density 28.214711999999999
#
# number of rings (size 3 to 8) (size 9 to 14) (size 15 to 20)
#    0.000    0.571    0.000    6.857    0.000   13.714 
#    0.000    2.857    0.000    0.000    0.000    0.000 
#    0.000    0.000    0.000    0.000    0.000    0.000 
#
# Total GULP energy -173527.962262 kJ/mol
# GULP energy per Si atom -12394.854447 kJ/mol
# Density = 2.815049 g / cm^3
# Si number density = 28.214712 Si / 1000 Ang^3
#
#
#
# Elastic Constant Matrix: (Units=GPa)
#
#
# Indices 1 2 3 4 5 6 
#
# 1 84.7996 14.0322 35.1616 0.0000 -5.5215 0.0000
# 2 14.0322 133.5568 19.6594 0.0000 -5.9309 0.0000
# 3 35.1616 19.6594 69.6385 0.0000 13.1108 0.0000
# 4 0.0000 0.0000 0.0000 697.1766 0.0000 -280.7150
# 5 -5.5215 -5.9309 13.1108 0.0000 36.4764 0.0000
# 6 0.0000 0.0000 0.0000 -280.7150 0.0000 145.8804
#
#
#
# Elastic Compliance Matrix: (Units=1/GPa)
#
#
# Indices 1 2 3 4 5 6 
#
# 1 0.015947 -0.000085 -0.009095 0.000000 0.005669 0.000000
# 2 -0.000085 0.007983 -0.002631 0.000000 0.002231 0.000000
# 3 -0.009095 -0.002631 0.021489 0.000000 -0.009528 0.000000
# 4 0.000000 0.000000 0.000000 0.006369 0.000000 0.012256
# 5 0.005669 0.002231 -0.009528 0.000000 0.032061 0.000000
# 6 0.000000 0.000000 0.000000 0.012256 0.000000 0.030440
#
#
# Mechanical properties :
#
#
# Convention : Reuss Voigt Hill
#
# Bulk Modulus (GPa) = 45.87839 47.30014 46.58926
# Shear Modulus (GPa) = 34.44113 190.51614 112.47863
#
# Velocity S-wave (km/s) = 3.49761 8.22619 6.32074
# Velocity P-wave (km/s) = 5.71024 10.34542 8.35567
#
# Compressibility (1/GPa) = 0.02179675
#
# Stress axis : x y z
#
# Youngs Moduli (GPa) = 62.70771 125.27163 46.53599
#
# Poissons Ratio (x) = 0.01064 0.42326
# Poissons Ratio (y) = 0.00532 0.12242
# Poissons Ratio (z) = 0.57034 0.32954
#
# Static dielectric constant tensor:
#      x y z
#    x 5.489510 0.000000 -0.678850 
#    y 0.000000 5.177700 0.000000 
#    z -0.678850 0.000000 5.044800 
# 
# 
# High freq. dielectric constant tensor:
#      x y z
#    x 2.166520 0.000000 -0.015040 
#    y 0.000000 2.146340 0.000000 
#    z -0.015040 0.000000 2.135420 
# 
# From -- ./inp_files/64280.got.cif
#   From: 2010.06.25/outbox.cif.g09.slc.cpg/sg15_33_cif.got.tgz:64280.got - 2010.06.28 07:06:18.
