data_PCOD8150620
_publ_section_title
;
Structure prediction by ZEFSAII (Michael W. Deem and Ramdas Pophale) SiO2 
 PCOD8150620
Probable space group: C 2/C
;
_chemical_formula_sum "Si O2"
_cell_formula_units_Z 40
_cell_length_a 8.453294
_cell_length_b 14.652726
_cell_length_c 12.981654
_cell_angle_alpha 90.000000
_cell_angle_beta 71.786078
_cell_angle_gamma 90.000000
_cell_volume 1527.392137
_symmetry_space_group_name_H-M "C 2/C"
_symmetry_group_IT_number 15
_symmetry_cell_setting 'monoclinic'
loop_
_space_group_symop_operation_xyz
x,y,z
-x,y,1/2-z
-x,-y,-z
x,-y,1/2+z
1/2+x,1/2+y,z
1/2-x,1/2+y,1/2-z
1/2-x,1/2-y,-z
1/2+x,1/2-y,1/2+z
loop_
_atom_site_type_symbol
_atom_site_label
_atom_site_fract_x
_atom_site_fract_y
_atom_site_fract_z
Si Si1 0.879473 0.193706 0.036043
Si Si2 0.913737 0.092855 0.661302
Si Si3 0.690043 0.274674 0.729962
Si Si4 0.878770 0.503828 0.368028
Si Si5 0.932307 0.362328 0.537343
O O1 0.801430 0.170201 0.163076
O O2 0.750000 0.250000 0.000000
O O3 0.945231 0.108864 0.954989
O O4 0.031087 0.265021 0.021716
O O5 0.803396 0.183454 0.706469
O O6 0.806494 0.007677 0.640191
O O7 0.000000 0.062099 0.750000
O O8 0.500000 0.246625 0.750000
O O9 0.761480 0.350165 0.636491
O O10 0.904291 0.429267 0.450143
O O11 0.000000 0.483829 0.250000
O O12 0.917663 0.601331 0.415957
#
# Coordination Sequence:
#
# PCOD8150620 Si02
#       5
#     8   8   8   8   8
#     4  11  22  38  70 101 138 177 237 295 343 405
#     4  11  22  39  67 107 139 186 233 289 351 426
#     4  11  22  41  74 104 138 176 244 297 345 410
#     4  11  24  44  71  94 147 186 232 284 359 424
#     4  10  25  44  69 105 134 191 233 291 357 415
#
# _framework density 26.188431000000001
#
# number of rings (size 3 to 8) (size 9 to 14) (size 15 to 20)
#    0.000    1.200    2.000    4.200    2.800    3.200 
#    0.000    2.000    0.000    0.000    0.000    0.000 
#    0.000    0.000    0.000    0.000    0.000    0.000 
#
# Total GULP energy -247915.446407 kJ/mol
# GULP energy per Si atom -12395.772320 kJ/mol
# Density = 2.612882 g / cm^3
# Si number density = 26.188431 Si / 1000 Ang^3
#
#
#
# Elastic Constant Matrix: (Units=GPa)
#
#
# Indices 1 2 3 4 5 6 
#
# 1 89.4003 18.0657 22.7919 0.0000 13.9935 0.0000
# 2 18.0657 74.9538 43.0514 0.0000 -4.6988 0.0000
# 3 22.7919 43.0514 191.9990 0.0000 -8.7283 0.0000
# 4 0.0000 0.0000 0.0000 29.8594 0.0000 5.3266
# 5 13.9935 -4.6988 -8.7283 0.0000 49.5895 0.0000
# 6 0.0000 0.0000 0.0000 5.3266 0.0000 35.7275
#
#
#
# Elastic Compliance Matrix: (Units=1/GPa)
#
#
# Indices 1 2 3 4 5 6 
#
# 1 0.012629 -0.002674 -0.001082 0.000000 -0.004008 0.000000
# 2 -0.002674 0.015916 -0.003174 0.000000 0.001704 0.000000
# 3 -0.001082 -0.003174 0.006097 0.000000 0.001078 0.000000
# 4 0.000000 0.000000 0.000000 0.034405 0.000000 -0.005129
# 5 -0.004008 0.001704 0.001078 0.000000 0.021648 0.000000
# 6 0.000000 0.000000 0.000000 -0.005129 0.000000 0.028754
#
#
# Mechanical properties :
#
#
# Convention : Reuss Voigt Hill
#
# Bulk Modulus (GPa) = 48.11551 58.24124 53.17838
# Shear Modulus (GPa) = 35.65410 41.19822 38.42616
#
# Velocity S-wave (km/s) = 3.69378 3.97059 3.83468
# Velocity P-wave (km/s) = 6.05018 6.58091 6.32112
#
# Compressibility (1/GPa) = 0.02078332
#
# Stress axis : x y z
#
# Youngs Moduli (GPa) = 79.18263 62.83055 164.00297
#
# Poissons Ratio (x) = 0.16799 0.17742
# Poissons Ratio (y) = 0.21172 0.52053
# Poissons Ratio (z) = 0.08566 0.19942
#
# Static dielectric constant tensor:
#      x y z
#    x 5.110200 0.000000 -0.392500 
#    y 0.000000 7.915500 0.000000 
#    z -0.392500 0.000000 5.683620 
# 
# 
# High freq. dielectric constant tensor:
#      x y z
#    x 2.055530 0.000000 -0.001760 
#    y 0.000000 2.040090 0.000000 
#    z -0.001760 0.000000 2.077000 
# 
# From -- ./inp_files/76651.got.cif
#   From: 2010.06.25/outbox.cif.g09.slc.cpg/sg15_39_cif.got.tgz:76651.got - 2010.06.28 07:06:18.
