data_PCOD8150567
_publ_section_title
;
Structure prediction by ZEFSAII (Michael W. Deem and Ramdas Pophale) SiO2 
 PCOD8150567
Probable space group: C 2/C
;
_chemical_formula_sum "Si O2"
_cell_formula_units_Z 44
_cell_length_a 25.106428
_cell_length_b 10.208468
_cell_length_c 9.142177
_cell_angle_alpha 90.000000
_cell_angle_beta 134.580671
_cell_angle_gamma 90.000000
_cell_volume 1668.919683
_symmetry_space_group_name_H-M "C 2/C"
_symmetry_group_IT_number 15
_symmetry_cell_setting 'monoclinic'
loop_
_space_group_symop_operation_xyz
x,y,z
-x,y,1/2-z
-x,-y,-z
x,-y,1/2+z
1/2+x,1/2+y,z
1/2-x,1/2+y,1/2-z
1/2-x,1/2-y,-z
1/2+x,1/2-y,1/2+z
loop_
_atom_site_type_symbol
_atom_site_label
_atom_site_fract_x
_atom_site_fract_y
_atom_site_fract_z
Si Si1 0.588482 0.627138 0.164156
Si Si2 0.005747 0.365090 0.929135
Si Si3 0.154571 0.282266 0.829017
Si Si4 0.500000 0.473218 0.750000
Si Si5 0.758958 0.559203 0.511490
Si Si6 0.242567 0.759242 0.231731
O O1 0.560020 0.612717 0.276257
O O2 0.670075 0.563874 0.307697
O O3 0.581277 0.784589 0.115691
O O4 0.537533 0.563667 0.943155
O O5 0.934053 0.278926 0.838581
O O6 0.000000 0.400743 0.750000
O O7 0.000000 0.500000 0.000000
O O8 0.177538 0.207338 0.724477
O O9 0.196742 0.423657 0.915058
O O10 0.186519 0.205540 0.034526
O O11 0.791892 0.657321 0.451416
O O12 0.769811 0.610997 0.698375
#
# Coordination Sequence:
#
# PCOD8150567 Si02
#       6
#     8   8   8   4   8   8
#     4  11  26  48  73 108 145 196 252 314 378 455
#     4  12  30  48  75 106 158 199 252 305 384 463
#     4  11  26  46  73 108 143 193 245 305 373 438
#     4  10  26  44  76 104 144 192 250 318 386 446
#     4  11  25  43  75 103 147 186 252 303 369 441
#     4  10  25  42  71 101 145 189 238 307 366 441
#
# _framework density 26.364360999999999
#
# number of rings (size 3 to 8) (size 9 to 14) (size 15 to 20)
#    0.000    1.091    0.909    2.182   19.091    2.909 
#    0.000    0.000    0.000    0.000    0.000    0.000 
#    0.000    0.000    0.000    0.000    0.000    0.000 
#
# Total GULP energy -272626.472510 kJ/mol
# GULP energy per Si atom -12392.112387 kJ/mol
# Density = 2.630435 g / cm^3
# Si number density = 26.364361 Si / 1000 Ang^3
#
#
#
# Elastic Constant Matrix: (Units=GPa)
#
#
# Indices 1 2 3 4 5 6 
#
# 1 103.8709 1.5559 44.1956 0.0000 -20.8285 0.0000
# 2 1.5559 81.7639 2.7618 0.0000 -20.7909 0.0000
# 3 44.1956 2.7618 110.4005 0.0000 -27.9863 0.0000
# 4 0.0000 0.0000 0.0000 19.3244 0.0000 9.7933
# 5 -20.8285 -20.7909 -27.9863 0.0000 57.9526 0.0000
# 6 0.0000 0.0000 0.0000 9.7933 0.0000 35.5908
#
#
#
# Elastic Compliance Matrix: (Units=1/GPa)
#
#
# Indices 1 2 3 4 5 6 
#
# 1 0.011876 0.000540 -0.004144 0.000000 0.002461 0.000000
# 2 0.000540 0.013582 0.000830 0.000000 0.005468 0.000000
# 3 -0.004144 0.000830 0.011844 0.000000 0.004528 0.000000
# 4 0.000000 0.000000 0.000000 0.060133 0.000000 -0.016546
# 5 0.002461 0.005468 0.004528 0.000000 0.022288 0.000000
# 6 0.000000 0.000000 0.000000 -0.016546 0.000000 0.032650
#
#
# Mechanical properties :
#
#
# Convention : Reuss Voigt Hill
#
# Bulk Modulus (GPa) = 31.49191 43.67353 37.58272
# Shear Modulus (GPa) = 29.67249 39.07505 34.37377
#
# Velocity S-wave (km/s) = 3.35845 3.85400 3.61473
# Velocity P-wave (km/s) = 5.19709 6.03372 5.63096
#
# Compressibility (1/GPa) = 0.03175419
#
# Stress axis : x y z
#
# Youngs Moduli (GPa) = 84.20460 73.62504 84.43161
#
# Poissons Ratio (x) = -0.03973 0.34987
# Poissons Ratio (y) = -0.04544 -0.07010
# Poissons Ratio (z) = 0.34893 -0.06112
#
# Static dielectric constant tensor:
#      x y z
#    x 5.142900 0.000000 -0.240310 
#    y 0.000000 4.818600 0.000000 
#    z -0.240310 0.000000 5.267500 
# 
# 
# High freq. dielectric constant tensor:
#      x y z
#    x 2.070390 0.000000 -0.019180 
#    y 0.000000 2.044290 0.000000 
#    z -0.019180 0.000000 2.072930 
# 
# From -- ./inp_files/65643.got.cif
#   From: 2010.06.25/outbox.cif.g09.slc.cpg/sg15_33_cif.got.tgz:65643.got - 2010.06.28 07:06:18.
