data_PCOD8150761
_publ_section_title
;
Structure prediction by ZEFSAII (Michael W. Deem and Ramdas Pophale) SiO2 
 PCOD8150761
Probable space group: C 2/C
;
_chemical_formula_sum "Si O2"
_cell_formula_units_Z 48
_cell_length_a 14.390044
_cell_length_b 22.607463
_cell_length_c 10.762280
_cell_angle_alpha 90.000000
_cell_angle_beta 138.402407
_cell_angle_gamma 90.000000
_cell_volume 2324.435515
_symmetry_space_group_name_H-M "C 2/C"
_symmetry_group_IT_number 15
_symmetry_cell_setting 'monoclinic'
loop_
_space_group_symop_operation_xyz
x,y,z
-x,y,1/2-z
-x,-y,-z
x,-y,1/2+z
1/2+x,1/2+y,z
1/2-x,1/2+y,1/2-z
1/2-x,1/2-y,-z
1/2+x,1/2-y,1/2+z
loop_
_atom_site_type_symbol
_atom_site_label
_atom_site_fract_x
_atom_site_fract_y
_atom_site_fract_z
Si Si1 0.228756 0.274535 0.841586
Si Si2 0.500000 0.377091 0.750000
Si Si3 0.524352 0.681819 0.531657
Si Si4 0.327939 0.098667 0.204956
Si Si5 0.265082 0.452399 0.636623
Si Si6 0.500000 0.993562 0.750000
Si Si7 0.381419 0.428643 0.217486
O O1 0.151986 0.226481 0.680801
O O2 0.127184 0.332594 0.741200
O O3 0.250000 0.250000 0.000000
O O4 0.379139 0.290516 0.933634
O O5 0.473906 0.332491 0.611144
O O6 0.365304 0.418156 0.641114
O O7 0.552893 0.620992 0.631140
O O8 0.244905 0.085237 0.248306
O O9 0.451548 0.050498 0.313544
O O10 0.237469 0.097425 0.989570
O O11 0.118948 0.462574 0.419151
O O12 0.323681 0.516264 0.738991
O O13 0.500000 0.456659 0.250000
#
# Coordination Sequence:
#
# PCOD8150761 Si02
#       7
#     8   4   8   8   8   4   8
#     4  12  24  45  71  96 134 173 231 295 335 386
#     4  12  26  48  67  99 138 188 224 270 338 426
#     4  12  27  44  69 101 135 178 234 275 342 403
#     4  11  23  43  68 102 135 176 227 282 339 398
#     4  11  24  43  71  97 143 179 222 277 341 415
#     4  10  26  42  65 107 142 176 224 272 356 404
#     4  11  20  38  68 102 130 168 225 277 329 397
#
# _framework density 20.650174
#
# number of rings (size 3 to 8) (size 9 to 14) (size 15 to 20)
#    0.000    0.667    5.833    1.000    7.000    2.000 
#    3.000    0.000    0.000    0.000    0.000    0.000 
#    0.000    0.000    0.000    0.000    0.000    0.000 
#
# Total GULP energy -297558.001110 kJ/mol
# GULP energy per Si atom -12398.250046 kJ/mol
# Density = 2.060317 g / cm^3
# Si number density = 20.650174 Si / 1000 Ang^3
#
#
#
# Elastic Constant Matrix: (Units=GPa)
#
#
# Indices 1 2 3 4 5 6 
#
# 1 132.7552 58.6680 58.8352 0.0000 -8.7935 0.0000
# 2 58.6680 135.2401 67.8058 0.0000 -9.2157 0.0000
# 3 58.8352 67.8058 115.7866 0.0000 -0.7461 0.0000
# 4 0.0000 0.0000 0.0000 35.9905 0.0000 5.9799
# 5 -8.7935 -9.2157 -0.7461 0.0000 34.5355 0.0000
# 6 0.0000 0.0000 0.0000 5.9799 0.0000 24.8689
#
#
#
# Elastic Compliance Matrix: (Units=1/GPa)
#
#
# Indices 1 2 3 4 5 6 
#
# 1 0.010462 -0.002475 -0.003854 0.000000 0.001920 0.000000
# 2 -0.002475 0.011304 -0.005347 0.000000 0.002271 0.000000
# 3 -0.003854 -0.005347 0.013713 0.000000 -0.002112 0.000000
# 4 0.000000 0.000000 0.000000 0.028941 0.000000 -0.006959
# 5 0.001920 0.002271 -0.002112 0.000000 0.030005 0.000000
# 6 0.000000 0.000000 0.000000 -0.006959 0.000000 0.041884
#
#
# Mechanical properties :
#
#
# Convention : Reuss Voigt Hill
#
# Bulk Modulus (GPa) = 82.47283 83.82219 83.14751
# Shear Modulus (GPa) = 30.54305 32.31052 31.42679
#
# Velocity S-wave (km/s) = 3.85004 3.95987 3.90534
# Velocity P-wave (km/s) = 7.73230 7.84774 7.79024
#
# Compressibility (1/GPa) = 0.01212521
#
# Stress axis : x y z
#
# Youngs Moduli (GPa) = 95.58593 88.46688 72.92487
#
# Poissons Ratio (x) = 0.21897 0.28106
# Poissons Ratio (y) = 0.23659 0.38994
# Poissons Ratio (z) = 0.36840 0.47305
#
# Static dielectric constant tensor:
#      x y z
#    x 3.850240 0.000000 0.124000 
#    y 0.000000 4.062690 0.000000 
#    z 0.124000 0.000000 3.477530 
# 
# 
# High freq. dielectric constant tensor:
#      x y z
#    x 1.810740 0.000000 0.006160 
#    y 0.000000 1.822440 0.000000 
#    z 0.006160 0.000000 1.802870 
# 
# From -- ./inp_files/100100.got.cif
#   From: 2010.06.25/outbox.cif.g09.slc.cpg/sg15_51_cif.got.tgz:100100.got - 2010.06.28 07:06:18.
