data_PCOD8150313
_publ_section_title
;
Structure prediction by ZEFSAII (Michael W. Deem and Ramdas Pophale) SiO2 
 PCOD8150313
Probable space group: C 2/C
;
_chemical_formula_sum "Si O2"
_cell_formula_units_Z 60
_cell_length_a 28.059112
_cell_length_b 11.656270
_cell_length_c 9.612874
_cell_angle_alpha 90.000000
_cell_angle_beta 57.622563
_cell_angle_gamma 90.000000
_cell_volume 2655.256085
_symmetry_space_group_name_H-M "C 2/C"
_symmetry_group_IT_number 15
_symmetry_cell_setting 'monoclinic'
loop_
_space_group_symop_operation_xyz
x,y,z
-x,y,1/2-z
-x,-y,-z
x,-y,1/2+z
1/2+x,1/2+y,z
1/2-x,1/2+y,1/2-z
1/2-x,1/2-y,-z
1/2+x,1/2-y,1/2+z
loop_
_atom_site_type_symbol
_atom_site_label
_atom_site_fract_x
_atom_site_fract_y
_atom_site_fract_z
Si Si1 0.865917 0.873718 0.934766
Si Si2 0.639884 0.626201 0.524093
Si Si3 0.266371 0.896979 0.397890
Si Si4 0.000000 0.495735 0.250000
Si Si5 0.621762 0.786111 0.326181
Si Si6 0.574052 0.956239 0.885996
Si Si7 0.843283 0.746503 0.226873
Si Si8 0.242526 0.603575 0.272396
O O1 0.897322 0.795162 0.771692
O O2 0.798622 0.864916 0.017357
O O3 0.880623 0.823039 0.063364
O O4 0.889717 0.004953 0.891149
O O5 0.602097 0.719279 0.498736
O O6 0.666563 0.681071 0.619508
O O7 0.690136 0.594770 0.339195
O O8 0.309176 0.796063 0.281770
O O9 0.279868 0.920165 0.538394
O O10 0.284634 0.005954 0.281187
O O11 0.036080 0.568681 0.307503
O O12 0.958139 0.424125 0.418292
O O13 0.592026 0.909402 0.361001
O O14 0.626859 0.873732 0.788330
O O15 0.782467 0.722482 0.250618
#
# Coordination Sequence:
#
# PCOD8150313 Si02
#       8
#     8   8   8   4   8   8   8   8
#     4  11  23  39  55  84 132 179 212 254 293 341
#     4  11  25  36  56  88 129 178 216 252 291 347
#     4  11  23  36  57  85 129 174 220 263 302 342
#     4  10  24  46  64 100 134 134 192 270 354 416
#     4  12  21  40  64  86 124 165 219 256 308 380
#     4  11  24  42  71 100 119 158 194 265 346 382
#     4  12  23  39  62  90 123 162 224 257 305 385
#     4  11  23  37  55  87 128 174 219 266 299 344
#
# _framework density 22.596689999999999
#
# number of rings (size 3 to 8) (size 9 to 14) (size 15 to 20)
#    0.000    0.800    4.000    4.000    7.467    0.000 
#    0.000    0.000    0.000    0.000    0.000   65.333 
#    0.000    0.000    0.000    0.000    0.000    0.000 
#
# Total GULP energy -371774.237353 kJ/mol
# GULP energy per Si atom -12392.474578 kJ/mol
# Density = 2.254526 g / cm^3
# Si number density = 22.596690 Si / 1000 Ang^3
#
#
#
# Elastic Constant Matrix: (Units=GPa)
#
#
# Indices 1 2 3 4 5 6 
#
# 1 47.7589 14.3360 12.2705 0.0000 12.4241 0.0000
# 2 14.3360 144.1093 36.1829 0.0000 16.9797 0.0000
# 3 12.2705 36.1829 104.2275 0.0000 33.8670 0.0000
# 4 0.0000 0.0000 0.0000 35.8415 0.0000 12.1265
# 5 12.4241 16.9797 33.8670 0.0000 37.3006 0.0000
# 6 0.0000 0.0000 0.0000 12.1265 0.0000 12.1718
#
#
#
# Elastic Compliance Matrix: (Units=1/GPa)
#
#
# Indices 1 2 3 4 5 6 
#
# 1 0.023220 -0.001495 0.000110 0.000000 -0.007153 0.000000
# 2 -0.001495 0.007758 -0.002173 0.000000 -0.001061 0.000000
# 3 0.000110 -0.002173 0.014222 0.000000 -0.011960 0.000000
# 4 0.000000 0.000000 0.000000 0.042087 0.000000 -0.041931
# 5 -0.007153 -0.001061 -0.011960 0.000000 0.040534 0.000000
# 6 0.000000 0.000000 0.000000 -0.041931 0.000000 0.123932
#
#
# Mechanical properties :
#
#
# Convention : Reuss Voigt Hill
#
# Bulk Modulus (GPa) = 26.25702 46.85271 36.55487
# Shear Modulus (GPa) = 18.41186 32.61652 25.51419
#
# Velocity S-wave (km/s) = 2.85757 3.80336 3.36387
# Velocity P-wave (km/s) = 4.74686 6.32983 5.59461
#
# Compressibility (1/GPa) = 0.03808505
#
# Stress axis : x y z
#
# Youngs Moduli (GPa) = 43.06663 128.89273 70.31357
#
# Poissons Ratio (x) = 0.19264 -0.00770
# Poissons Ratio (y) = 0.06437 0.15276
# Poissons Ratio (z) = -0.00472 0.28002
#
# Static dielectric constant tensor:
#      x y z
#    x 3.695720 0.000000 0.332110 
#    y 0.000000 4.294910 0.000000 
#    z 0.332110 0.000000 4.207010 
# 
# 
# High freq. dielectric constant tensor:
#      x y z
#    x 1.845280 0.000000 0.036550 
#    y 0.000000 1.897280 0.000000 
#    z 0.036550 0.000000 1.897930 
# 
# From -- ./inp_files/69341.got.cif
#   From: 2010.06.25/outbox.cif.g09.slc.cpg/sg15_35_cif.got.tgz:69341.got - 2010.06.28 07:06:18.
