data_PCOD8150395
_publ_section_title
;
Structure prediction by ZEFSAII (Michael W. Deem and Ramdas Pophale) SiO2 
 PCOD8150395
Probable space group: C 2/C
;
_chemical_formula_sum "Si O2"
_cell_formula_units_Z 52
_cell_length_a 18.510785
_cell_length_b 13.781347
_cell_length_c 14.653928
_cell_angle_alpha 90.000000
_cell_angle_beta 37.953860
_cell_angle_gamma 90.000000
_cell_volume 2299.135272
_symmetry_space_group_name_H-M "C 2/C"
_symmetry_group_IT_number 15
_symmetry_cell_setting 'monoclinic'
loop_
_space_group_symop_operation_xyz
x,y,z
-x,y,1/2-z
-x,-y,-z
x,-y,1/2+z
1/2+x,1/2+y,z
1/2-x,1/2+y,1/2-z
1/2-x,1/2-y,-z
1/2+x,1/2-y,1/2+z
loop_
_atom_site_type_symbol
_atom_site_label
_atom_site_fract_x
_atom_site_fract_y
_atom_site_fract_z
Si Si1 0.744674 0.791814 0.736837
Si Si2 0.540364 0.099913 0.499227
Si Si3 0.000000 0.074375 0.750000
Si Si4 0.273015 0.662316 0.911123
Si Si5 0.291678 0.135301 0.813524
Si Si6 0.608181 0.477191 0.958096
Si Si7 0.367442 0.968058 0.412568
O O1 0.615941 0.839961 0.849717
O O2 0.760826 0.698070 0.655886
O O3 0.742376 0.743619 0.841520
O O4 0.845754 0.870077 0.614660
O O5 0.422868 0.153120 0.645021
O O6 0.632478 0.083381 0.489909
O O7 0.500000 0.000000 0.500000
O O8 0.089383 0.138781 0.719790
O O9 0.068860 0.012862 0.603750
O O10 0.250000 0.750000 0.000000
O O11 0.198137 0.570182 0.016912
O O12 0.300464 0.105125 0.910590
O O13 0.213978 0.053874 0.838105
O O14 0.500000 0.500000 0.000000
O O15 0.500000 0.990298 0.250000
#
# Coordination Sequence:
#
# PCOD8150395 Si02
#       7
#     8   8   4   8   8   8   8
#     4  12  27  44  75 109 142 192 250 298 364 447
#     4  11  24  44  75 103 143 194 239 299 365 427
#     4  12  26  44  72 102 150 196 234 302 380 418
#     4  12  25  43  68 108 146 183 243 301 361 432
#     4  11  24  48  70 106 146 189 250 292 364 438
#     4  12  27  48  71 108 150 194 243 307 373 433
#     4  10  24  46  74 101 145 195 234 303 362 429
#
# _framework density 22.617198999999999
#
# number of rings (size 3 to 8) (size 9 to 14) (size 15 to 20)
#    0.000    0.615    4.615    1.846    9.692    0.615 
#    0.000    0.000    0.000    0.000    0.000    0.000 
#    0.000    0.000    0.000    0.000    0.000    0.000 
#
# Total GULP energy -322256.514356 kJ/mol
# GULP energy per Si atom -12394.481321 kJ/mol
# Density = 2.256572 g / cm^3
# Si number density = 22.617199 Si / 1000 Ang^3
#
#
#
# Elastic Constant Matrix: (Units=GPa)
#
#
# Indices 1 2 3 4 5 6 
#
# 1 131.5663 46.4731 33.4128 0.0000 -4.9239 0.0000
# 2 46.4731 111.4766 49.7124 0.0000 4.5360 0.0000
# 3 33.4128 49.7124 94.7595 0.0000 1.1339 0.0000
# 4 0.0000 0.0000 0.0000 34.9811 0.0000 2.2001
# 5 -4.9239 4.5360 1.1339 0.0000 35.8712 0.0000
# 6 0.0000 0.0000 0.0000 2.2001 0.0000 43.2644
#
#
#
# Elastic Compliance Matrix: (Units=1/GPa)
#
#
# Indices 1 2 3 4 5 6 
#
# 1 0.009197 -0.003196 -0.001587 0.000000 0.001717 0.000000
# 2 -0.003196 0.012881 -0.005608 0.000000 -0.001890 0.000000
# 3 -0.001587 -0.005608 0.014054 0.000000 0.000047 0.000000
# 4 0.000000 0.000000 0.000000 0.028679 0.000000 -0.001458
# 5 0.001717 -0.001890 0.000047 0.000000 0.028351 0.000000
# 6 0.000000 0.000000 0.000000 -0.001458 0.000000 0.023188
#
#
# Mechanical properties :
#
#
# Convention : Reuss Voigt Hill
#
# Bulk Modulus (GPa) = 65.14639 66.33325 65.73982
# Shear Modulus (GPa) = 35.15021 36.70363 35.92692
#
# Velocity S-wave (km/s) = 3.94653 4.03279 3.98990
# Velocity P-wave (km/s) = 7.04509 7.14681 7.09613
#
# Compressibility (1/GPa) = 0.01535004
#
# Stress axis : x y z
#
# Youngs Moduli (GPa) = 108.73136 77.63564 71.15517
#
# Poissons Ratio (x) = 0.24816 0.11289
# Poissons Ratio (y) = 0.34755 0.39902
# Poissons Ratio (z) = 0.17251 0.43536
#
# Static dielectric constant tensor:
#      x y z
#    x 4.363290 0.000000 -1.270880 
#    y 0.000000 4.122450 0.000000 
#    z -1.270880 0.000000 4.408160 
# 
# 
# High freq. dielectric constant tensor:
#      x y z
#    x 1.905420 0.000000 -0.007940 
#    y 0.000000 1.887070 0.000000 
#    z -0.007940 0.000000 1.898320 
# 
# From -- ./inp_files/162470.got.cif
#   From: 2010.06.25/outbox.cif.g09.slc.cpg/sg15_82_cif.got.tgz:162470.got - 2010.06.28 07:06:18.
