data_PCOD8150162
_publ_section_title
;
Structure prediction by ZEFSAII (Michael W. Deem and Ramdas Pophale) SiO2 
 PCOD8150162
Probable space group: C 2/C
;
_chemical_formula_sum "Si O2"
_cell_formula_units_Z 44
_cell_length_a 14.833704
_cell_length_b 10.394277
_cell_length_c 13.149184
_cell_angle_alpha 90.000000
_cell_angle_beta 93.011187
_cell_angle_gamma 90.000000
_cell_volume 2024.615939
_symmetry_space_group_name_H-M "C 2/C"
_symmetry_group_IT_number 15
_symmetry_cell_setting 'monoclinic'
loop_
_space_group_symop_operation_xyz
x,y,z
-x,y,1/2-z
-x,-y,-z
x,-y,1/2+z
1/2+x,1/2+y,z
1/2-x,1/2+y,1/2-z
1/2-x,1/2-y,-z
1/2+x,1/2-y,1/2+z
loop_
_atom_site_type_symbol
_atom_site_label
_atom_site_fract_x
_atom_site_fract_y
_atom_site_fract_z
Si Si1 0.000000 0.382688 0.750000
Si Si2 0.433840 0.711346 0.343971
Si Si3 0.205894 0.613084 0.021769
Si Si4 0.541080 0.746134 0.550437
Si Si5 0.830243 0.540645 0.794027
Si Si6 0.820896 0.966090 0.364358
O O1 0.010998 0.297814 0.853356
O O2 0.910257 0.468853 0.739099
O O3 0.500000 0.719221 0.250000
O O4 0.481049 0.688294 0.456126
O O5 0.374856 0.839187 0.354023
O O6 0.366681 0.592889 0.322588
O O7 0.098084 0.636559 0.001803
O O8 0.218619 0.562538 0.136224
O O9 0.250000 0.750000 0.000000
O O10 0.252865 0.504804 0.954615
O O11 0.604176 0.635034 0.598811
O O12 0.748841 0.594797 0.720833
#
# Coordination Sequence:
#
# PCOD8150162 Si02
#       6
#     4   8   8   8   8   8
#     4  10  24  44  70 102 136 178 236 280 340 400
#     4  12  27  44  69 102 143 182 229 283 347 407
#     4   9  22  43  69  95 133 176 227 279 339 397
#     4  10  24  46  71  97 139 180 226 286 343 411
#     4  11  25  43  70 103 135 183 229 283 336 418
#     4  11  26  42  69  99 138 177 229 280 343 406
#
# _framework density 21.732516
#
# number of rings (size 3 to 8) (size 9 to 14) (size 15 to 20)
#    0.000    1.455    0.909    1.636   16.545    3.636 
#    0.000    0.000    0.000    0.000    0.000    0.000 
#    0.000    0.000    0.000    0.000    0.000    0.000 
#
# Total GULP energy -272546.523373 kJ/mol
# GULP energy per Si atom -12388.478335 kJ/mol
# Density = 2.168305 g / cm^3
# Si number density = 21.732516 Si / 1000 Ang^3
#
#
#
# Elastic Constant Matrix: (Units=GPa)
#
#
# Indices 1 2 3 4 5 6 
#
# 1 100.0773 54.5007 67.0456 0.0000 2.7546 0.0000
# 2 54.5007 101.1917 48.2455 0.0000 -7.5235 0.0000
# 3 67.0456 48.2455 119.7619 0.0000 5.0812 0.0000
# 4 0.0000 0.0000 0.0000 34.7938 0.0000 -1.1961
# 5 2.7546 -7.5235 5.0812 0.0000 41.2067 0.0000
# 6 0.0000 0.0000 0.0000 -1.1961 0.0000 42.7649
#
#
#
# Elastic Compliance Matrix: (Units=1/GPa)
#
#
# Indices 1 2 3 4 5 6 
#
# 1 0.018849 -0.006511 -0.007866 0.000000 -0.001479 0.000000
# 2 -0.006511 0.014825 -0.002473 0.000000 0.003447 0.000000
# 3 -0.007866 -0.002473 0.013819 0.000000 -0.001630 0.000000
# 4 0.000000 0.000000 0.000000 0.028768 0.000000 0.000805
# 5 -0.001479 0.003447 -0.001630 0.000000 0.025197 0.000000
# 6 0.000000 0.000000 0.000000 0.000805 0.000000 0.023406
#
#
# Mechanical properties :
#
#
# Convention : Reuss Voigt Hill
#
# Bulk Modulus (GPa) = 72.51012 73.40161 72.95586
# Shear Modulus (GPa) = 30.64435 33.83568 32.24002
#
# Velocity S-wave (km/s) = 3.75916 3.95006 3.85579
# Velocity P-wave (km/s) = 7.23042 7.39272 7.31202
#
# Compressibility (1/GPa) = 0.01379118
#
# Stress axis : x y z
#
# Youngs Moduli (GPa) = 53.05360 67.45586 72.36412
#
# Poissons Ratio (x) = 0.43923 0.56923
# Poissons Ratio (y) = 0.34545 0.17896
# Poissons Ratio (z) = 0.41733 0.16682
#
# Static dielectric constant tensor:
#      x y z
#    x 4.314780 0.000000 -0.326900 
#    y 0.000000 3.952320 0.000000 
#    z -0.326900 0.000000 4.074910 
# 
# 
# High freq. dielectric constant tensor:
#      x y z
#    x 1.864180 0.000000 -0.009990 
#    y 0.000000 1.847690 0.000000 
#    z -0.009990 0.000000 1.857770 
# 
# From -- ./inp_files/95093.got.cif
#   From: 2010.06.25/outbox.cif.g09.slc.cpg/sg15_48_cif.got.tgz:95093.got - 2010.06.28 07:06:18.
