data_PCOD8150721
_publ_section_title
;
Structure prediction by ZEFSAII (Michael W. Deem and Ramdas Pophale) SiO2 
 PCOD8150721
Probable space group: C 2/C
;
_chemical_formula_sum "Si O2"
_cell_formula_units_Z 52
_cell_length_a 16.356848
_cell_length_b 10.985148
_cell_length_c 16.918652
_cell_angle_alpha 90.000000
_cell_angle_beta 53.708737
_cell_angle_gamma 90.000000
_cell_volume 2450.283435
_symmetry_space_group_name_H-M "C 2/C"
_symmetry_group_IT_number 15
_symmetry_cell_setting 'monoclinic'
loop_
_space_group_symop_operation_xyz
x,y,z
-x,y,1/2-z
-x,-y,-z
x,-y,1/2+z
1/2+x,1/2+y,z
1/2-x,1/2+y,1/2-z
1/2-x,1/2-y,-z
1/2+x,1/2-y,1/2+z
loop_
_atom_site_type_symbol
_atom_site_label
_atom_site_fract_x
_atom_site_fract_y
_atom_site_fract_z
Si Si1 0.961837 0.748583 0.924618
Si Si2 0.791857 0.997715 0.876721
Si Si3 0.224323 0.232616 0.870071
Si Si4 0.251388 0.871447 0.950231
Si Si5 0.000000 0.086543 0.250000
Si Si6 0.106864 0.432524 0.149086
Si Si7 0.309511 0.779466 0.153362
O O1 0.904425 0.624162 0.931806
O O2 0.966787 0.832921 0.844104
O O3 0.073111 0.714481 0.890945
O O4 0.889916 0.804112 0.035450
O O5 0.721765 0.097144 0.873807
O O6 0.749322 0.863697 0.890579
O O7 0.802306 0.024940 0.965242
O O8 0.906513 0.999123 0.777140
O O9 0.304925 0.133173 0.851991
O O10 0.232688 0.237112 0.770437
O O11 0.200383 0.841757 0.895312
O O12 0.365201 0.924090 0.871334
O O13 0.250000 0.750000 0.000000
O O14 0.000000 0.413547 0.250000
#
# Coordination Sequence:
#
# PCOD8150721 Si02
#       7
#     8   8   8   8   4   8   8
#     4  12  22  42  73 104 134 181 237 289 350 408
#     4  11  23  45  69  94 146 182 226 291 349 415
#     4  12  24  41  72 107 135 181 237 298 345 414
#     4  10  25  48  65  96 142 185 225 283 351 423
#     4  12  22  44  72 100 140 182 234 290 348 428
#     4  12  21  42  74  98 133 185 236 279 346 420
#     4  11  26  45  64 105 145 173 238 295 344 416
#
# _framework density 21.222035000000002
#
# number of rings (size 3 to 8) (size 9 to 14) (size 15 to 20)
#    0.000    0.615    6.923    1.385    2.154    1.846 
#   11.077    2.308    0.000    0.000    0.000    0.000 
#    0.000    0.000    0.000    0.000    0.000    0.000 
#
# Total GULP energy -322182.499974 kJ/mol
# GULP energy per Si atom -12391.634614 kJ/mol
# Density = 2.117373 g / cm^3
# Si number density = 21.222035 Si / 1000 Ang^3
#
#
#
# Elastic Constant Matrix: (Units=GPa)
#
#
# Indices 1 2 3 4 5 6 
#
# 1 108.8617 34.2177 50.6470 0.0000 -3.6972 0.0000
# 2 34.2177 93.3943 32.4877 0.0000 2.7783 0.0000
# 3 50.6470 32.4877 155.4700 0.0000 -1.5783 0.0000
# 4 0.0000 0.0000 0.0000 29.8824 0.0000 -8.3898
# 5 -3.6972 2.7783 -1.5783 0.0000 40.3726 0.0000
# 6 0.0000 0.0000 0.0000 -8.3898 0.0000 30.3161
#
#
#
# Elastic Compliance Matrix: (Units=1/GPa)
#
#
# Indices 1 2 3 4 5 6 
#
# 1 0.011695 -0.003233 -0.003122 0.000000 0.001171 0.000000
# 2 -0.003233 0.012473 -0.001565 0.000000 -0.001216 0.000000
# 3 -0.003122 -0.001565 0.007778 0.000000 0.000126 0.000000
# 4 0.000000 0.000000 0.000000 0.036284 0.000000 0.010041
# 5 0.001171 -0.001216 0.000126 0.000000 0.024965 0.000000
# 6 0.000000 0.000000 0.000000 0.010041 0.000000 0.035765
#
#
# Mechanical properties :
#
#
# Convention : Reuss Voigt Hill
#
# Bulk Modulus (GPa) = 62.10030 65.82563 63.96297
# Shear Modulus (GPa) = 33.29604 36.13912 34.71758
#
# Velocity S-wave (km/s) = 3.96528 4.13110 4.04904
# Velocity P-wave (km/s) = 7.09156 7.33755 7.21560
#
# Compressibility (1/GPa) = 0.01610298
#
# Stress axis : x y z
#
# Youngs Moduli (GPa) = 85.50911 80.17555 128.57461
#
# Poissons Ratio (x) = 0.25924 0.40143
# Poissons Ratio (y) = 0.27649 0.20126
# Poissons Ratio (z) = 0.26697 0.12550
#
# Static dielectric constant tensor:
#      x y z
#    x 4.071370 0.000000 0.175180 
#    y 0.000000 4.266800 0.000000 
#    z 0.175180 0.000000 4.425920 
# 
# 
# High freq. dielectric constant tensor:
#      x y z
#    x 1.818890 0.000000 -0.002670 
#    y 0.000000 1.828270 0.000000 
#    z -0.002670 0.000000 1.855050 
# 
# From -- ./inp_files/203880.got.cif
#   From: 2010.06.25/outbox.cif.g09.slc.cpg/sg15_102_cif.got.tgz:203880.got - 2010.06.28 07:06:18.
