data_PCOD8150577
_publ_section_title
;
Structure prediction by ZEFSAII (Michael W. Deem and Ramdas Pophale) SiO2 
 PCOD8150577
Probable space group: C 2/C
;
_chemical_formula_sum "Si O2"
_cell_formula_units_Z 44
_cell_length_a 7.138212
_cell_length_b 25.271975
_cell_length_c 17.977260
_cell_angle_alpha 90.000000
_cell_angle_beta 139.717447
_cell_angle_gamma 90.000000
_cell_volume 2096.811000
_symmetry_space_group_name_H-M "C 2/C"
_symmetry_group_IT_number 15
_symmetry_cell_setting 'monoclinic'
loop_
_space_group_symop_operation_xyz
x,y,z
-x,y,1/2-z
-x,-y,-z
x,-y,1/2+z
1/2+x,1/2+y,z
1/2-x,1/2+y,1/2-z
1/2-x,1/2-y,-z
1/2+x,1/2-y,1/2+z
loop_
_atom_site_type_symbol
_atom_site_label
_atom_site_fract_x
_atom_site_fract_y
_atom_site_fract_z
Si Si1 0.625271 0.535025 0.364729
Si Si2 0.477160 0.284327 0.523627
Si Si3 0.322053 0.663766 0.830791
Si Si4 0.752094 0.067809 0.512270
Si Si5 0.500000 0.273616 0.250000
Si Si6 0.300334 0.609355 0.366639
O O1 0.500000 0.511755 0.250000
O O2 0.620835 0.488085 0.423292
O O3 0.399777 0.577164 0.325742
O O4 0.926498 0.566821 0.446233
O O5 0.406721 0.289081 0.414506
O O6 0.795063 0.260740 0.634053
O O7 0.466347 0.344993 0.547783
O O8 0.250000 0.250000 0.500000
O O9 0.561323 0.617136 0.900090
O O10 0.304671 0.690007 0.744361
O O11 0.000000 0.640847 0.750000
O O12 0.758102 0.071128 0.424936
O O13 0.000000 0.635852 0.250000
#
# Coordination Sequence:
#
# PCOD8150577 Si02
#       6
#     8   8   8   8   4   8
#     4  11  23  43  67  98 129 173 215 265 336 392
#     4  11  24  45  66  98 132 177 222 269 330 392
#     4  11  25  44  69 101 130 175 223 273 335 392
#     4  10  25  43  65  96 134 167 220 269 326 400
#     4  12  24  44  68  96 136 174 220 274 328 396
#     4  11  22  43  67  95 130 172 217 270 326 387
#
# _framework density 20.984247
#
# number of rings (size 3 to 8) (size 9 to 14) (size 15 to 20)
#    0.000    1.091    4.545    1.091    3.818    0.727 
#    9.818    0.000    0.000    0.000    0.000    0.000 
#    0.000    0.000    0.000    0.000    0.000    0.000 
#
# Total GULP energy -272722.845523 kJ/mol
# GULP energy per Si atom -12396.492978 kJ/mol
# Density = 2.093649 g / cm^3
# Si number density = 20.984247 Si / 1000 Ang^3
#
#
#
# Elastic Constant Matrix: (Units=GPa)
#
#
# Indices 1 2 3 4 5 6 
#
# 1 100.1420 63.3078 38.5994 0.0000 -4.2781 0.0002
# 2 63.3078 92.2869 35.5001 -0.0004 1.0146 0.0000
# 3 38.5994 35.5001 106.1203 -0.0008 1.2839 -0.0007
# 4 0.0000 -0.0004 -0.0008 31.8040 0.0002 3.7445
# 5 -4.2781 1.0146 1.2839 0.0002 37.1399 -0.0001
# 6 0.0002 0.0000 -0.0007 3.7445 -0.0001 40.7244
#
#
#
# Elastic Compliance Matrix: (Units=1/GPa)
#
#
# Indices 1 2 3 4 5 6 
#
# 1 0.018582 -0.011665 -0.002888 0.000000 0.002559 0.000000
# 2 -0.011665 0.019760 -0.002346 0.000000 -0.001802 0.000000
# 3 -0.002888 -0.002346 0.011266 0.000000 -0.000658 0.000000
# 4 0.000000 0.000000 0.000000 0.031787 0.000000 -0.002923
# 5 0.002559 -0.001802 -0.000658 0.000000 0.027292 0.000000
# 6 0.000000 0.000000 0.000000 -0.002923 0.000000 0.024824
#
#
# Mechanical properties :
#
#
# Convention : Reuss Voigt Hill
#
# Bulk Modulus (GPa) = 63.24171 63.70708 63.47440
# Shear Modulus (GPa) = 28.97248 32.67645 30.82446
#
# Velocity S-wave (km/s) = 3.71978 3.95041 3.83682
# Velocity P-wave (km/s) = 6.97511 7.15772 7.06700
#
# Compressibility (1/GPa) = 0.01581235
#
# Stress axis : x y z
#
# Youngs Moduli (GPa) = 53.81453 50.60830 88.76039
#
# Poissons Ratio (x) = 0.59032 0.25633
# Poissons Ratio (y) = 0.62772 0.20819
# Poissons Ratio (z) = 0.15541 0.11870
#
# Static dielectric constant tensor:
#      x y z
#    x 3.706510 0.000000 -0.008310 
#    y 0.000000 3.636880 0.000000 
#    z -0.008310 0.000000 3.953250 
# 
# 
# High freq. dielectric constant tensor:
#      x y z
#    x 1.825260 0.000000 -0.000920 
#    y 0.000000 1.812180 0.000000 
#    z -0.000920 0.000000 1.838100 
# 
# From -- ./inp_files/130136.got.cif
#   From: 2010.06.25/outbox.cif.g09.slc.cpg/sg15_66_cif.got.tgz:130136.got - 2010.06.28 07:06:18.
