data_PCOD8150738
_publ_section_title
;
Structure prediction by ZEFSAII (Michael W. Deem and Ramdas Pophale) SiO2 
 PCOD8150738
Probable space group: C 2/C
;
_chemical_formula_sum "Si O2"
_cell_formula_units_Z 56
_cell_length_a 18.837228
_cell_length_b 14.503405
_cell_length_c 12.934964
_cell_angle_alpha 90.000000
_cell_angle_beta 45.639271
_cell_angle_gamma 90.000000
_cell_volume 2526.557109
_symmetry_space_group_name_H-M "C 2/C"
_symmetry_group_IT_number 15
_symmetry_cell_setting 'monoclinic'
loop_
_space_group_symop_operation_xyz
x,y,z
-x,y,1/2-z
-x,-y,-z
x,-y,1/2+z
1/2+x,1/2+y,z
1/2-x,1/2+y,1/2-z
1/2-x,1/2-y,-z
1/2+x,1/2-y,1/2+z
loop_
_atom_site_type_symbol
_atom_site_label
_atom_site_fract_x
_atom_site_fract_y
_atom_site_fract_z
Si Si1 0.427858 0.277346 0.480058
Si Si2 0.000000 0.222530 0.250000
Si Si3 0.400258 0.460742 0.411863
Si Si4 0.431134 0.623814 0.512866
Si Si5 0.500000 0.134938 0.250000
Si Si6 0.726361 0.861305 0.286754
Si Si7 0.809832 0.483351 0.987998
Si Si8 0.822095 0.669728 0.888731
O O1 0.396440 0.350610 0.425901
O O2 0.472860 0.339629 0.526097
O O3 0.496048 0.198562 0.357498
O O4 0.328790 0.231448 0.624913
O O5 0.070103 0.164059 0.102396
O O6 0.071735 0.285968 0.245479
O O7 0.500000 0.490676 0.250000
O O8 0.413393 0.514086 0.509667
O O9 0.297803 0.480420 0.457040
O O10 0.343237 0.659801 0.676667
O O11 0.399259 0.073867 0.341467
O O12 0.696754 0.948365 0.387341
O O13 0.709694 0.884205 0.182816
O O14 0.836113 0.591933 0.963175
O O15 0.750000 0.750000 0.000000
#
# Coordination Sequence:
#
# PCOD8150738 Si02
#       8
#     8   4   8   8   4   8   8   8
#     4  11  25  43  71 104 141 189 241 292 362 441
#     4  12  23  43  72  92 138 182 232 307 339 430
#     4  12  24  43  71 101 146 190 233 303 367 426
#     4  12  24  44  68 105 143 181 244 300 360 427
#     4  10  25  49  70 102 148 198 234 301 363 442
#     4  11  25  44  71 106 137 187 237 292 362 428
#     4  11  26  48  71 103 148 186 246 301 361 433
#     4  12  24  48  70 103 140 186 244 292 365 423
#
# _framework density 22.164549999999998
#
# number of rings (size 3 to 8) (size 9 to 14) (size 15 to 20)
#    0.000    0.571    5.714    1.714    2.000    2.286 
#    2.571    2.143    0.000    0.000    0.000    0.000 
#    0.000    0.000    0.000    0.000    0.000    0.000 
#
# Total GULP energy -346960.211745 kJ/mol
# GULP energy per Si atom -12391.436134 kJ/mol
# Density = 2.211410 g / cm^3
# Si number density = 22.164550 Si / 1000 Ang^3
#
#
#
# Elastic Constant Matrix: (Units=GPa)
#
#
# Indices 1 2 3 4 5 6 
#
# 1 56.6550 40.1912 31.0844 0.0000 -2.2582 0.0000
# 2 40.1912 147.0492 63.1564 0.0000 -0.0227 0.0000
# 3 31.0844 63.1564 145.3233 0.0000 -11.7790 0.0000
# 4 0.0000 0.0000 0.0000 28.8589 0.0000 3.4138
# 5 -2.2582 -0.0227 -11.7790 0.0000 38.7346 0.0000
# 6 0.0000 0.0000 0.0000 3.4138 0.0000 38.7707
#
#
#
# Elastic Compliance Matrix: (Units=1/GPa)
#
#
# Indices 1 2 3 4 5 6 
#
# 1 0.022710 -0.005089 -0.002603 0.000000 0.000529 0.000000
# 2 -0.005089 0.009550 -0.003163 0.000000 -0.001253 0.000000
# 3 -0.002603 -0.003163 0.009023 0.000000 0.002590 0.000000
# 4 0.000000 0.000000 0.000000 0.035016 0.000000 -0.003083
# 5 0.000529 -0.001253 0.002590 0.000000 0.026634 0.000000
# 6 0.000000 0.000000 0.000000 -0.003083 0.000000 0.026064
#
#
# Mechanical properties :
#
#
# Convention : Reuss Voigt Hill
#
# Bulk Modulus (GPa) = 51.09387 68.65462 59.87425
# Shear Modulus (GPa) = 31.80014 35.57923 33.68968
#
# Velocity S-wave (km/s) = 3.79189 4.01088 3.90292
# Velocity P-wave (km/s) = 6.50180 7.24512 6.88350
#
# Compressibility (1/GPa) = 0.01957182
#
# Stress axis : x y z
#
# Youngs Moduli (GPa) = 44.03315 104.71458 110.83160
#
# Poissons Ratio (x) = 0.53289 0.28851
# Poissons Ratio (y) = 0.22408 0.35059
# Poissons Ratio (z) = 0.11462 0.33124
#
# Static dielectric constant tensor:
#      x y z
#    x 3.885690 0.000000 -0.143850 
#    y 0.000000 4.154680 0.000000 
#    z -0.143850 0.000000 4.193750 
# 
# 
# High freq. dielectric constant tensor:
#      x y z
#    x 1.858230 0.000000 -0.010150 
#    y 0.000000 1.880630 0.000000 
#    z -0.010150 0.000000 1.886640 
# 
# From -- ./inp_files/168482.got.cif
#   From: 2010.06.25/outbox.cif.g09.slc.cpg/sg15_85_cif.got.tgz:168482.got - 2010.06.28 07:06:18.
