data_PCOD8150063
_publ_section_title
;
Structure prediction by ZEFSAII (Michael W. Deem and Ramdas Pophale) SiO2 
 PCOD8150063
Probable space group: C 2/C
;
_chemical_formula_sum "Si O2"
_cell_formula_units_Z 36
_cell_length_a 11.660464
_cell_length_b 7.261014
_cell_length_c 20.174094
_cell_angle_alpha 90.000000
_cell_angle_beta 83.186008
_cell_angle_gamma 90.000000
_cell_volume 1696.010942
_symmetry_space_group_name_H-M "C 2/C"
_symmetry_group_IT_number 15
_symmetry_cell_setting 'monoclinic'
loop_
_space_group_symop_operation_xyz
x,y,z
-x,y,1/2-z
-x,-y,-z
x,-y,1/2+z
1/2+x,1/2+y,z
1/2-x,1/2+y,1/2-z
1/2-x,1/2-y,-z
1/2+x,1/2-y,1/2+z
loop_
_atom_site_type_symbol
_atom_site_label
_atom_site_fract_x
_atom_site_fract_y
_atom_site_fract_z
Si Si1 0.500000 0.359775 0.250000
Si Si2 0.076429 0.507180 0.186015
Si Si3 0.559419 0.164061 0.923223
Si Si4 0.160434 0.011520 0.848549
Si Si5 0.636132 0.791299 0.966403
O O1 0.415523 0.487554 0.212988
O O2 0.569612 0.229641 0.193392
O O3 0.028139 0.437164 0.120234
O O4 0.209345 0.452848 0.183452
O O5 0.000000 0.414174 0.250000
O O6 0.642458 0.315462 0.885090
O O7 0.641336 0.008927 0.949516
O O8 0.478706 0.258684 0.984090
O O9 0.127310 0.176553 0.899635
O O10 0.750000 0.750000 0.000000
#
# Coordination Sequence:
#
# PCOD8150063 Si02
#       5
#     4   8   8   8   8
#     4  10  26  42  66 100 138 174 236 274 334 410
#     4  10  24  44  63 100 138 173 233 280 328 405
#     4  11  25  43  72  99 138 178 225 283 343 400
#     4  12  25  45  71  99 135 187 226 280 349 408
#     4  11  23  47  70 103 138 173 231 286 338 411
#
# _framework density 21.226279000000002
#
# number of rings (size 3 to 8) (size 9 to 14) (size 15 to 20)
#    0.667    0.444    4.444    0.667    4.667    2.667 
#    0.000    0.000    0.000    0.000    0.000    0.000 
#    0.000    0.000    0.000    0.000    0.000    0.000 
#
# Total GULP energy -223198.294053 kJ/mol
# GULP energy per Si atom -12399.905225 kJ/mol
# Density = 2.117797 g / cm^3
# Si number density = 21.226279 Si / 1000 Ang^3
#
#
#
# Elastic Constant Matrix: (Units=GPa)
#
#
# Indices 1 2 3 4 5 6 
#
# 1 147.7786 50.2290 78.1318 0.0000 -0.8264 0.0000
# 2 50.2290 87.0179 36.8336 0.0000 -11.6730 0.0000
# 3 78.1318 36.8336 103.7619 0.0000 -7.8573 0.0000
# 4 0.0000 0.0000 0.0000 41.0431 0.0000 -0.0685
# 5 -0.8264 -11.6730 -7.8573 0.0000 40.6434 0.0000
# 6 0.0000 0.0000 0.0000 -0.0685 0.0000 24.9486
#
#
#
# Elastic Compliance Matrix: (Units=1/GPa)
#
#
# Indices 1 2 3 4 5 6 
#
# 1 0.012415 -0.004075 -0.008090 0.000000 -0.002482 0.000000
# 2 -0.004075 0.015232 -0.002044 0.000000 0.003897 0.000000
# 3 -0.008090 -0.002044 0.016641 0.000000 0.002466 0.000000
# 4 0.000000 0.000000 0.000000 0.024365 0.000000 0.000067
# 5 -0.002482 0.003897 0.002466 0.000000 0.026150 0.000000
# 6 0.000000 0.000000 0.000000 0.000067 0.000000 0.040083
#
#
# Mechanical properties :
#
#
# Convention : Reuss Voigt Hill
#
# Bulk Modulus (GPa) = 63.00651 74.32748 68.66699
# Shear Modulus (GPa) = 29.65726 32.88464 31.27095
#
# Velocity S-wave (km/s) = 3.74196 3.94031 3.84242
# Velocity P-wave (km/s) = 6.95826 7.46955 7.21843
#
# Compressibility (1/GPa) = 0.01587138
#
# Stress axis : x y z
#
# Youngs Moduli (GPa) = 80.54559 65.65219 60.09150
#
# Poissons Ratio (x) = 0.26753 0.48614
# Poissons Ratio (y) = 0.32822 0.12280
# Poissons Ratio (z) = 0.65162 0.13416
#
# Static dielectric constant tensor:
#      x y z
#    x 3.647220 0.000000 -0.051560 
#    y 0.000000 3.706330 0.000000 
#    z -0.051560 0.000000 3.923640 
# 
# 
# High freq. dielectric constant tensor:
#      x y z
#    x 1.829550 0.000000 0.002120 
#    y 0.000000 1.827080 0.000000 
#    z 0.002120 0.000000 1.844730 
# 
# From -- ./inp_files/267087.got.cif
#   From: 2010.06.25/outbox.cif.g09.slc.cpg/sg15_134_cif.got.tgz:267087.got - 2010.06.28 07:06:18.
