data_PCOD8150978
_publ_section_title
;
Structure prediction by ZEFSAII (Michael W. Deem and Ramdas Pophale) SiO2 
 PCOD8150978
Probable space group: C 2/C
;
_chemical_formula_sum "Si O2"
_cell_formula_units_Z 48
_cell_length_a 25.364011
_cell_length_b 14.526354
_cell_length_c 19.929256
_cell_angle_alpha 90.000000
_cell_angle_beta 158.072184
_cell_angle_gamma 90.000000
_cell_volume 2742.106803
_symmetry_space_group_name_H-M "C 2/C"
_symmetry_group_IT_number 15
_symmetry_cell_setting 'monoclinic'
loop_
_space_group_symop_operation_xyz
x,y,z
-x,y,1/2-z
-x,-y,-z
x,-y,1/2+z
1/2+x,1/2+y,z
1/2-x,1/2+y,1/2-z
1/2-x,1/2-y,-z
1/2+x,1/2-y,1/2+z
loop_
_atom_site_type_symbol
_atom_site_label
_atom_site_fract_x
_atom_site_fract_y
_atom_site_fract_z
Si Si1 0.620114 0.521422 0.590165
Si Si2 0.870840 0.774572 0.365396
Si Si3 0.903280 0.414857 0.944699
Si Si4 0.556893 0.251625 0.456353
Si Si5 0.590938 0.426949 0.419210
Si Si6 0.082729 0.430696 0.694926
O O1 0.500000 0.500000 0.500000
O O2 0.651845 0.629698 0.623558
O O3 0.752894 0.463912 0.773432
O O4 0.571856 0.494897 0.459009
O O5 0.902674 0.695137 0.459460
O O6 0.990254 0.783026 0.448810
O O7 0.725505 0.746613 0.158429
O O8 0.948621 0.414368 0.920397
O O9 0.012666 0.467915 0.123865
O O10 0.526286 0.327472 0.363012
O O11 0.498749 0.152229 0.363096
O O12 0.500000 0.465253 0.250000
O O13 0.755319 0.427041 0.591796
#
# Coordination Sequence:
#
# PCOD8150978 Si02
#       6
#     8   8   8   8   8   8
#     4  11  19  33  55  82 107 137 185 236 268 315
#     4  11  19  31  55  85 108 135 180 237 279 309
#     4   9  17  30  52  79 105 135 177 233 274 310
#     4  11  18  33  53  81 109 140 179 224 275 325
#     4  11  23  36  51  79 116 149 180 218 278 341
#     4   9  18  32  50  75 108 144 178 218 271 330
#
# _framework density 17.504788999999999
#
# number of rings (size 3 to 8) (size 9 to 14) (size 15 to 20)
#    0.000    1.667    8.333    0.000    2.333    0.667 
#    0.000    0.000    0.000    1.000    0.000    0.000 
#    0.000    0.000    0.000    0.000    0.000    0.000 
#
# Total GULP energy -297416.831913 kJ/mol
# GULP energy per Si atom -12392.367996 kJ/mol
# Density = 1.746495 g / cm^3
# Si number density = 17.504789 Si / 1000 Ang^3
#
#
#
# Elastic Constant Matrix: (Units=GPa)
#
#
# Indices 1 2 3 4 5 6 
#
# 1 41.7097 20.4715 31.3999 -0.0002 7.6234 -0.0001
# 2 20.4715 112.1855 30.4875 0.0003 5.7149 0.0003
# 3 31.3999 30.4875 85.5581 -0.0002 2.4661 -0.0002
# 4 -0.0002 0.0003 -0.0002 21.6087 0.0000 7.0804
# 5 7.6234 5.7149 2.4661 0.0000 22.2283 0.0000
# 6 -0.0001 0.0003 -0.0002 7.0804 0.0000 21.5448
#
#
#
# Elastic Compliance Matrix: (Units=1/GPa)
#
#
# Indices 1 2 3 4 5 6 
#
# 1 0.036311 -0.002831 -0.012018 0.000000 -0.010392 0.000000
# 2 -0.002831 0.010194 -0.002554 0.000000 -0.001367 0.000000
# 3 -0.012018 -0.002554 0.016925 0.000000 0.002901 0.000000
# 4 0.000000 0.000000 0.000000 0.051862 0.000000 -0.017044
# 5 -0.010392 -0.001367 0.002901 0.000000 0.048581 0.000000
# 6 0.000000 0.000000 0.000000 -0.017044 0.000000 0.052016
#
#
# Mechanical properties :
#
#
# Convention : Reuss Voigt Hill
#
# Bulk Modulus (GPa) = 34.93494 44.90790 39.92142
# Shear Modulus (GPa) = 19.21316 23.54932 21.38124
#
# Velocity S-wave (km/s) = 3.31659 3.67182 3.49872
# Velocity P-wave (km/s) = 5.88787 6.60959 6.25914
#
# Compressibility (1/GPa) = 0.02862463
#
# Stress axis : x y z
#
# Youngs Moduli (GPa) = 27.53953 98.09570 59.08339
#
# Poissons Ratio (x) = 0.27767 0.71007
# Poissons Ratio (y) = 0.07795 0.15092
# Poissons Ratio (z) = 0.33097 0.25057
#
# Static dielectric constant tensor:
#      x y z
#    x 2.929290 0.000000 0.320850 
#    y 0.000000 4.133940 0.000000 
#    z 0.320850 0.000000 3.060570 
# 
# 
# High freq. dielectric constant tensor:
#      x y z
#    x 1.631420 0.000000 0.042920 
#    y 0.000000 1.696460 0.000000 
#    z 0.042920 0.000000 1.662700 
# 
# From -- ./inp_files/69834.got.cif
#   From: 2010.06.25/outbox.cif.g09.slc.cpg/sg15_35_cif.got.tgz:69834.got - 2010.06.28 07:06:18.
