data_PCOD8150046
_publ_section_title
;
Structure prediction by ZEFSAII (Michael W. Deem and Ramdas Pophale) SiO2 
 PCOD8150046
Probable space group: C 2/C
;
_chemical_formula_sum "Si O2"
_cell_formula_units_Z 36
_cell_length_a 16.265017
_cell_length_b 8.924587
_cell_length_c 20.478275
_cell_angle_alpha 90.000000
_cell_angle_beta 149.255407
_cell_angle_gamma 90.000000
_cell_volume 1519.627150
_symmetry_space_group_name_H-M "C 2/C"
_symmetry_group_IT_number 15
_symmetry_cell_setting 'monoclinic'
loop_
_space_group_symop_operation_xyz
x,y,z
-x,y,1/2-z
-x,-y,-z
x,-y,1/2+z
1/2+x,1/2+y,z
1/2-x,1/2+y,1/2-z
1/2-x,1/2-y,-z
1/2+x,1/2-y,1/2+z
loop_
_atom_site_type_symbol
_atom_site_label
_atom_site_fract_x
_atom_site_fract_y
_atom_site_fract_z
Si Si1 0.770056 0.443402 0.928882
Si Si2 0.334464 0.386560 0.503804
Si Si3 0.352847 0.467662 0.294539
Si Si4 0.000000 0.523735 0.250000
Si Si5 0.933546 0.371128 0.839713
O O1 0.865427 0.287897 0.008778
O O2 0.674437 0.458431 0.795911
O O3 0.652720 0.448041 0.912047
O O4 0.903805 0.575511 0.012893
O O5 0.476147 0.471095 0.562377
O O6 0.155286 0.418234 0.356593
O O7 0.209021 0.511987 0.244195
O O8 0.367358 0.290520 0.312445
O O9 0.984076 0.635374 0.299064
#
# Coordination Sequence:
#
# PCOD8150046 Si02
#       5
#     8   8   8   4   8
#     4  10  24  45  70 105 140 184 234 288 341 428
#     4  10  24  43  76 100 139 185 236 281 357 405
#     4  12  26  44  73 101 145 183 234 293 345 411
#     4  10  26  46  70 102 142 182 238 286 344 428
#     4  11  27  45  70 105 143 183 235 285 354 408
#
# _framework density 23.690021999999999
#
# number of rings (size 3 to 8) (size 9 to 14) (size 15 to 20)
#    0.000    1.333    0.000    2.667   18.667    2.667 
#    0.000    0.000    0.000    0.000    0.000    0.000 
#    0.000    0.000    0.000    0.000    0.000    0.000 
#
# Total GULP energy -223022.639270 kJ/mol
# GULP energy per Si atom -12390.146626 kJ/mol
# Density = 2.363610 g / cm^3
# Si number density = 23.690022 Si / 1000 Ang^3
#
#
#
# Elastic Constant Matrix: (Units=GPa)
#
#
# Indices 1 2 3 4 5 6 
#
# 1 71.1929 31.4336 39.8780 -0.0001 24.7075 0.0000
# 2 31.4336 127.7294 19.5976 0.0000 17.5021 0.0000
# 3 39.8780 19.5976 91.2894 0.0001 19.6981 0.0001
# 4 -0.0001 0.0000 0.0001 24.8812 0.0000 9.2197
# 5 24.7075 17.5021 19.6981 0.0000 29.3766 0.0000
# 6 0.0000 0.0000 0.0001 9.2197 0.0000 37.9090
#
#
#
# Elastic Compliance Matrix: (Units=1/GPa)
#
#
# Indices 1 2 3 4 5 6 
#
# 1 0.023991 -0.002958 -0.006865 0.000000 -0.013813 0.000000
# 2 -0.002958 0.008948 -0.000018 0.000000 -0.002831 0.000000
# 3 -0.006865 -0.000018 0.014858 0.000000 -0.004179 0.000000
# 4 0.000000 0.000000 0.000000 0.044172 0.000000 -0.010743
# 5 -0.013813 -0.002831 -0.004179 0.000000 0.050147 0.000000
# 6 0.000000 0.000000 0.000000 -0.010743 0.000000 0.028992
#
#
# Mechanical properties :
#
#
# Convention : Reuss Voigt Hill
#
# Bulk Modulus (GPa) = 35.56671 52.44779 44.00725
# Shear Modulus (GPa) = 24.97990 31.72019 28.35005
#
# Velocity S-wave (km/s) = 3.25075 3.66316 3.46310
# Velocity P-wave (km/s) = 5.39776 6.33079 5.88280
#
# Compressibility (1/GPa) = 0.02811618
#
# Stress axis : x y z
#
# Youngs Moduli (GPa) = 41.68169 111.76072 67.30205
#
# Poissons Ratio (x) = 0.33061 0.46200
# Poissons Ratio (y) = 0.12330 0.00120
# Poissons Ratio (z) = 0.28613 0.00198
#
# Static dielectric constant tensor:
#      x y z
#    x 4.373000 0.000000 0.051720 
#    y 0.000000 4.018860 0.000000 
#    z 0.051720 0.000000 4.243040 
# 
# 
# High freq. dielectric constant tensor:
#      x y z
#    x 1.948250 0.000000 0.014680 
#    y 0.000000 1.932550 0.000000 
#    z 0.014680 0.000000 1.940840 
# 
# From -- ./inp_files/121727.got.cif
#   From: 2010.06.25/outbox.cif.g09.slc.cpg/sg15_61_cif.got.tgz:121727.got - 2010.06.28 07:06:18.
