data_PCOD8150711
_publ_section_title
;
Structure prediction by ZEFSAII (Michael W. Deem and Ramdas Pophale) SiO2 
 PCOD8150711
Probable space group: C 2/C
;
_chemical_formula_sum "Si O2"
_cell_formula_units_Z 64
_cell_length_a 8.559416
_cell_length_b 28.043131
_cell_length_c 14.535637
_cell_angle_alpha 90.000000
_cell_angle_beta 49.791730
_cell_angle_gamma 90.000000
_cell_volume 2664.582176
_symmetry_space_group_name_H-M "C 2/C"
_symmetry_group_IT_number 15
_symmetry_cell_setting 'monoclinic'
loop_
_space_group_symop_operation_xyz
x,y,z
-x,y,1/2-z
-x,-y,-z
x,-y,1/2+z
1/2+x,1/2+y,z
1/2-x,1/2+y,1/2-z
1/2-x,1/2-y,-z
1/2+x,1/2-y,1/2+z
loop_
_atom_site_type_symbol
_atom_site_label
_atom_site_fract_x
_atom_site_fract_y
_atom_site_fract_z
Si Si1 0.360670 0.182738 0.634893
Si Si2 0.184574 0.931336 0.629817
Si Si3 0.046858 0.968482 0.128519
Si Si4 0.544710 0.936674 0.629678
Si Si5 0.231754 0.604789 0.690240
Si Si6 0.906279 0.672399 0.410826
Si Si7 0.206574 0.211955 0.309965
Si Si8 0.699551 0.657802 0.009351
O O1 0.268129 0.135066 0.715502
O O2 0.305312 0.178034 0.548632
O O3 0.275352 0.231340 0.710403
O O4 0.601243 0.190303 0.561784
O O5 0.355875 0.951006 0.634965
O O6 0.275215 0.891390 0.529506
O O7 0.000000 0.903611 0.750000
O O8 0.065588 0.974151 0.621516
O O9 0.000000 0.950251 0.250000
O O10 0.855595 0.945264 0.146474
O O11 0.255104 0.954419 0.998813
O O12 0.500000 0.957875 0.750000
O O13 0.577843 0.881114 0.629763
O O14 0.347535 0.640549 0.576156
O O15 0.000000 0.592128 0.750000
O O16 0.773468 0.701689 0.388987
O O17 0.140574 0.690861 0.324328
O O18 0.986113 0.187778 0.377115
#
# Coordination Sequence:
#
# PCOD8150711 Si02
#       8
#     8   8   8   8   8   8   8   8
#     4  11  24  45  69 100 144 194 234 302 363 425
#     4  11  26  47  74 108 144 188 246 305 375 439
#     4  11  26  49  76 108 145 193 248 300 379 442
#     4  12  24  49  77 108 147 190 247 307 368 441
#     4  10  25  47  72 104 148 190 244 298 367 440
#     4  11  23  43  69  99 142 184 241 300 363 425
#     4  11  24  41  67 105 137 186 249 293 354 443
#     4  11  24  45  70  98 144 187 239 295 362 432
#
# _framework density 24.018774000000001
#
# number of rings (size 3 to 8) (size 9 to 14) (size 15 to 20)
#    0.000    1.000    2.500    3.375    5.250    0.500 
#   11.250    0.000    2.750    0.000    0.000    0.000 
#    0.000    0.000    0.000    0.000    0.000    0.000 
#
# Total GULP energy -396562.037408 kJ/mol
# GULP energy per Si atom -12392.563669 kJ/mol
# Density = 2.396411 g / cm^3
# Si number density = 24.018774 Si / 1000 Ang^3
#
#
#
# Elastic Constant Matrix: (Units=GPa)
#
#
# Indices 1 2 3 4 5 6 
#
# 1 60.8243 10.1437 8.6786 0.0000 0.0695 0.0000
# 2 10.1437 74.5177 3.2849 0.0000 3.1062 0.0000
# 3 8.6786 3.2849 121.6655 0.0000 7.5953 0.0000
# 4 0.0000 0.0000 0.0000 22.6344 0.0000 2.7739
# 5 0.0695 3.1062 7.5953 0.0000 39.4229 0.0000
# 6 0.0000 0.0000 0.0000 2.7739 0.0000 44.3123
#
#
#
# Elastic Compliance Matrix: (Units=1/GPa)
#
#
# Indices 1 2 3 4 5 6 
#
# 1 0.016987 -0.002276 -0.001174 0.000000 0.000376 0.000000
# 2 -0.002276 0.013780 -0.000144 0.000000 -0.001054 0.000000
# 3 -0.001174 -0.000144 0.008407 0.000000 -0.001606 0.000000
# 4 0.000000 0.000000 0.000000 0.044522 0.000000 -0.002787
# 5 0.000376 -0.001054 -0.001606 0.000000 0.025758 0.000000
# 6 0.000000 0.000000 0.000000 -0.002787 0.000000 0.022742
#
#
# Mechanical properties :
#
#
# Convention : Reuss Voigt Hill
#
# Bulk Modulus (GPa) = 31.26319 33.46912 32.36615
# Shear Modulus (GPa) = 33.32315 36.93395 35.12855
#
# Velocity S-wave (km/s) = 3.72879 3.92562 3.82847
# Velocity P-wave (km/s) = 5.61987 5.87470 5.74870
#
# Compressibility (1/GPa) = 0.03198650
#
# Stress axis : x y z
#
# Youngs Moduli (GPa) = 58.86694 72.57015 118.94643
#
# Poissons Ratio (x) = 0.16519 0.13961
# Poissons Ratio (y) = 0.13400 0.01711
# Poissons Ratio (z) = 0.06909 0.01044
#
# Static dielectric constant tensor:
#      x y z
#    x 4.359430 0.000000 0.331720 
#    y 0.000000 4.176600 0.000000 
#    z 0.331720 0.000000 5.172810 
# 
# 
# High freq. dielectric constant tensor:
#      x y z
#    x 1.945070 0.000000 -0.003110 
#    y 0.000000 1.949990 0.000000 
#    z -0.003110 0.000000 1.969930 
# 
# From -- ./inp_files/139817.got.cif
#   From: 2010.06.25/outbox.cif.g09.slc.cpg/sg15_70_cif.got.tgz:139817.got - 2010.06.28 07:06:18.
