data_PCOD8150220
_publ_section_title
;
Structure prediction by ZEFSAII (Michael W. Deem and Ramdas Pophale) SiO2 
 PCOD8150220
Probable space group: C 2/C
;
_chemical_formula_sum "Si O2"
_cell_formula_units_Z 44
_cell_length_a 8.243544
_cell_length_b 29.287328
_cell_length_c 9.040024
_cell_angle_alpha 90.000000
_cell_angle_beta 61.694597
_cell_angle_gamma 90.000000
_cell_volume 1921.584252
_symmetry_space_group_name_H-M "C 2/C"
_symmetry_group_IT_number 15
_symmetry_cell_setting 'monoclinic'
loop_
_space_group_symop_operation_xyz
x,y,z
-x,y,1/2-z
-x,-y,-z
x,-y,1/2+z
1/2+x,1/2+y,z
1/2-x,1/2+y,1/2-z
1/2-x,1/2-y,-z
1/2+x,1/2-y,1/2+z
loop_
_atom_site_type_symbol
_atom_site_label
_atom_site_fract_x
_atom_site_fract_y
_atom_site_fract_z
Si Si1 0.185637 0.393844 0.596985
Si Si2 0.000000 0.008252 0.250000
Si Si3 0.856422 0.811098 0.697191
Si Si4 0.567500 0.561427 0.950691
Si Si5 0.181413 0.360892 0.267782
Si Si6 0.890595 0.768132 0.151083
O O1 0.241654 0.349634 0.666105
O O2 0.346048 0.431600 0.535846
O O3 0.144892 0.379789 0.446456
O O4 0.000000 0.414421 0.750000
O O5 0.880105 0.040941 0.410682
O O6 0.874117 0.975578 0.199901
O O7 0.721612 0.777331 0.847368
O O8 0.000000 0.834037 0.750000
O O9 0.963520 0.779000 0.537356
O O10 0.662982 0.609581 0.882675
O O11 0.253297 0.309720 0.243977
O O12 0.000000 0.364546 0.250000
O O13 0.000000 0.755142 0.250000
#
# Coordination Sequence:
#
# PCOD8150220 Si02
#       6
#     8   4   8   8   8   8
#     4  12  27  44  71 105 143 185 237 286 350 419
#     4  10  24  44  84 100 138 186 226 294 354 432
#     4  12  27  43  69 100 142 187 239 289 344 407
#     4  11  23  51  72 106 142 182 233 286 363 410
#     4  12  26  46  72 101 143 192 232 288 351 414
#     4  12  24  46  67  98 144 187 235 295 338 406
#
# _framework density 22.897774999999999
#
# number of rings (size 3 to 8) (size 9 to 14) (size 15 to 20)
#    0.000    0.364    5.455    2.182    8.909    0.000 
#    0.000    5.455    0.000    0.000    0.000    0.000 
#    0.000    0.000    0.000    0.000    0.000    0.000 
#
# Total GULP energy -272860.151132 kJ/mol
# GULP energy per Si atom -12402.734142 kJ/mol
# Density = 2.284566 g / cm^3
# Si number density = 22.897775 Si / 1000 Ang^3
#
#
#
# Elastic Constant Matrix: (Units=GPa)
#
#
# Indices 1 2 3 4 5 6 
#
# 1 117.5937 27.0791 26.1081 0.0000 -3.8781 0.0000
# 2 27.0791 85.6203 18.0588 0.0000 5.4613 0.0000
# 3 26.1081 18.0588 79.5734 0.0000 0.2861 0.0000
# 4 0.0000 0.0000 0.0000 35.7810 0.0000 6.3384
# 5 -3.8781 5.4613 0.2861 0.0000 38.4403 0.0000
# 6 0.0000 0.0000 0.0000 6.3384 0.0000 6.7616
#
#
#
# Elastic Compliance Matrix: (Units=1/GPa)
#
#
# Indices 1 2 3 4 5 6 
#
# 1 0.009729 -0.002616 -0.002604 0.000000 0.001373 0.000000
# 2 -0.002616 0.013085 -0.002104 0.000000 -0.002107 0.000000
# 3 -0.002604 -0.002104 0.013899 0.000000 -0.000067 0.000000
# 4 0.000000 0.000000 0.000000 0.033513 0.000000 -0.031415
# 5 0.001373 -0.002107 -0.000067 0.000000 0.026453 0.000000
# 6 0.000000 0.000000 0.000000 -0.031415 0.000000 0.177343
#
#
# Mechanical properties :
#
#
# Convention : Reuss Voigt Hill
#
# Bulk Modulus (GPa) = 45.31577 47.25325 46.28451
# Shear Modulus (GPa) = 16.89058 30.29935 23.59497
#
# Velocity S-wave (km/s) = 2.71892 3.64159 3.21354
# Velocity P-wave (km/s) = 5.44887 6.19378 5.83323
#
# Compressibility (1/GPa) = 0.02206737
#
# Stress axis : x y z
#
# Youngs Moduli (GPa) = 102.78057 76.42441 71.94795
#
# Poissons Ratio (x) = 0.19989 0.18732
# Poissons Ratio (y) = 0.26883 0.15136
# Poissons Ratio (z) = 0.26760 0.16078
#
# Static dielectric constant tensor:
#      x y z
#    x 4.153110 0.000000 0.115160 
#    y 0.000000 4.105780 0.000000 
#    z 0.115160 0.000000 4.452180 
# 
# 
# High freq. dielectric constant tensor:
#      x y z
#    x 1.893510 0.000000 0.016290 
#    y 0.000000 1.907190 0.000000 
#    z 0.016290 0.000000 1.918950 
# 
# From -- ./inp_files/25990.got.cif
#   From: 2010.06.25/outbox.cif.g09.slc.cpg/sg15_13_cif.got.tgz:25990.got - 2010.06.28 07:06:18.
