data_PCOD8150789
_publ_section_title
;
Structure prediction by ZEFSAII (Michael W. Deem and Ramdas Pophale) SiO2 
 PCOD8150789
Probable space group: C 2/C
;
_chemical_formula_sum "Si O2"
_cell_formula_units_Z 52
_cell_length_a 16.534663
_cell_length_b 15.028281
_cell_length_c 27.381979
_cell_angle_alpha 90.000000
_cell_angle_beta 159.934326
_cell_angle_gamma 90.000000
_cell_volume 2334.459983
_symmetry_space_group_name_H-M "C 2/C"
_symmetry_group_IT_number 15
_symmetry_cell_setting 'monoclinic'
loop_
_space_group_symop_operation_xyz
x,y,z
-x,y,1/2-z
-x,-y,-z
x,-y,1/2+z
1/2+x,1/2+y,z
1/2-x,1/2+y,1/2-z
1/2-x,1/2-y,-z
1/2+x,1/2-y,1/2+z
loop_
_atom_site_type_symbol
_atom_site_label
_atom_site_fract_x
_atom_site_fract_y
_atom_site_fract_z
Si Si1 0.500000 0.765668 0.750000
Si Si2 0.293324 0.595051 0.663686
Si Si3 0.061592 0.735164 0.728641
Si Si4 0.588216 0.544491 0.120517
Si Si5 0.957818 0.487207 0.902793
Si Si6 0.465288 0.357111 0.007454
Si Si7 0.773584 0.112825 0.023262
O O1 0.375110 0.698606 0.718982
O O2 0.717705 0.826629 0.892564
O O3 0.500000 0.546279 0.750000
O O4 0.249579 0.547187 0.690205
O O5 0.054282 0.586409 0.495566
O O6 0.000000 0.712834 0.750000
O O7 0.985400 0.834614 0.670640
O O8 0.929430 0.673287 0.614794
O O9 0.342031 0.721630 0.880503
O O10 0.838742 0.560357 0.289099
O O11 0.585922 0.619433 0.077842
O O12 0.372255 0.555934 0.034602
O O13 0.574230 0.444252 0.093523
O O14 0.168348 0.550249 0.005130
#
# Coordination Sequence:
#
# PCOD8150789 Si02
#       7
#     4   8   8   8   8   8   8
#     4  10  26  44  66  98 134 184 216 274 348 396
#     4   9  23  44  64  97 137 178 223 273 345 403
#     4  11  24  44  66 100 139 177 223 285 336 400
#     4  11  25  42  71 100 131 183 226 277 332 409
#     4  11  22  42  68 100 135 176 232 276 330 413
#     4  11  25  47  68  95 143 179 226 277 340 408
#     4  11  25  40  70 103 130 177 232 277 339 401
#
# _framework density 22.274958999999999
#
# number of rings (size 3 to 8) (size 9 to 14) (size 15 to 20)
#    0.462    0.923    3.077    0.923    6.462    1.846 
#    0.000    1.538    0.000    0.000    0.000    0.000 
#    0.000    0.000    0.000    0.000    0.000    0.000 
#
# Total GULP energy -322246.181023 kJ/mol
# GULP energy per Si atom -12394.083886 kJ/mol
# Density = 2.222426 g / cm^3
# Si number density = 22.274959 Si / 1000 Ang^3
#
#
#
# Elastic Constant Matrix: (Units=GPa)
#
#
# Indices 1 2 3 4 5 6 
#
# 1 87.4532 25.1309 32.7635 0.0141 5.0850 0.0314
# 2 25.1309 57.8834 30.7193 0.0834 2.8903 0.0160
# 3 32.7635 30.7193 135.7453 0.0810 0.7542 0.1350
# 4 0.0141 0.0834 0.0810 33.6373 -0.0120 13.4656
# 5 5.0850 2.8903 0.7542 -0.0120 42.7926 -0.0244
# 6 0.0314 0.0160 0.1350 13.4656 -0.0244 27.0672
#
#
#
# Elastic Compliance Matrix: (Units=1/GPa)
#
#
# Indices 1 2 3 4 5 6 
#
# 1 0.013696 -0.004696 -0.002236 0.000015 -0.001271 -0.000011
# 2 -0.004696 0.021311 -0.003685 -0.000058 -0.000816 0.000039
# 3 -0.002236 -0.003685 0.008738 0.000006 0.000361 -0.000041
# 4 0.000015 -0.000058 0.000006 0.037122 0.000002 -0.018468
# 5 -0.001271 -0.000816 0.000361 0.000002 0.023568 0.000021
# 6 -0.000011 0.000039 -0.000041 -0.018468 0.000021 0.046133
#
#
# Mechanical properties :
#
#
# Convention : Reuss Voigt Hill
#
# Bulk Modulus (GPa) = 44.42103 50.92328 47.67215
# Shear Modulus (GPa) = 27.88527 33.53063 30.70795
#
# Velocity S-wave (km/s) = 3.54201 3.88404 3.71696
# Velocity P-wave (km/s) = 6.05914 6.55936 6.31421
#
# Compressibility (1/GPa) = 0.02251186
#
# Stress axis : x y z
#
# Youngs Moduli (GPa) = 73.01557 46.92319 114.43907
#
# Poissons Ratio (x) = 0.22036 0.25586
# Poissons Ratio (y) = 0.34290 0.42168
# Poissons Ratio (z) = 0.16325 0.17290
#
# Static dielectric constant tensor:
#      x y z
#    x 3.868520 0.000010 0.033970 
#    y 0.000010 3.860040 -0.000060 
#    z 0.033970 -0.000060 4.095630 
# 
# 
# High freq. dielectric constant tensor:
#      x y z
#    x 1.864920 0.000000 0.004870 
#    y 0.000000 1.867650 -0.000010 
#    z 0.004870 -0.000010 1.890920 
# 
# From -- ./inp_files/316456.got.cif
#   From: 2010.06.25/outbox.cif.g09.slc.cpg/sg15_159_cif.got.tgz:316456.got - 2010.06.28 07:06:18.
