data_PCOD8150378
_publ_section_title
;
Structure prediction by ZEFSAII (Michael W. Deem and Ramdas Pophale) SiO2 
 PCOD8150378
Probable space group: C 2/C
;
_chemical_formula_sum "Si O2"
_cell_formula_units_Z 36
_cell_length_a 21.344771
_cell_length_b 5.370048
_cell_length_c 19.762361
_cell_angle_alpha 90.000000
_cell_angle_beta 138.614841
_cell_angle_gamma 90.000000
_cell_volume 1497.570165
_symmetry_space_group_name_H-M "C 2/C"
_symmetry_group_IT_number 15
_symmetry_cell_setting 'monoclinic'
loop_
_space_group_symop_operation_xyz
x,y,z
-x,y,1/2-z
-x,-y,-z
x,-y,1/2+z
1/2+x,1/2+y,z
1/2-x,1/2+y,1/2-z
1/2-x,1/2-y,-z
1/2+x,1/2-y,1/2+z
loop_
_atom_site_type_symbol
_atom_site_label
_atom_site_fract_x
_atom_site_fract_y
_atom_site_fract_z
Si Si1 0.529675 0.566399 0.633417
Si Si2 0.220047 0.777230 0.325245
Si Si3 0.699116 0.786163 0.388899
Si Si4 0.000000 0.152302 0.250000
Si Si5 0.918283 0.299524 0.428794
O O1 0.619069 0.762733 0.703877
O O2 0.488346 0.525407 0.674808
O O3 0.442803 0.624960 0.513116
O O4 0.575599 0.313942 0.640986
O O5 0.242642 0.519576 0.382998
O O6 0.307074 0.862453 0.347564
O O7 0.204244 0.015829 0.359197
O O8 0.750000 0.750000 0.500000
O O9 0.588591 0.838275 0.314313
O O10 0.000000 0.500000 0.500000
#
# Coordination Sequence:
#
# PCOD8150378 Si02
#       5
#     8   8   8   4   8
#     4  10  26  47  70 108 143 193 241 306 361 446
#     4  11  27  44  74 105 145 189 250 293 367 431
#     4  11  25  44  72 107 147 194 232 305 356 443
#     4  10  24  46  72 102 146 186 244 288 374 428
#     4  11  27  45  75 103 145 194 244 307 368 434
#
# _framework density 24.038941000000001
#
# number of rings (size 3 to 8) (size 9 to 14) (size 15 to 20)
#    0.000    1.333    0.000    2.000   18.667    5.333 
#    0.000    0.000    0.000    0.000    0.000    0.000 
#    0.000    0.000    0.000    0.000    0.000    0.000 
#
# Total GULP energy -223013.014062 kJ/mol
# GULP energy per Si atom -12389.611892 kJ/mol
# Density = 2.398423 g / cm^3
# Si number density = 24.038941 Si / 1000 Ang^3
#
#
#
# Elastic Constant Matrix: (Units=GPa)
#
#
# Indices 1 2 3 4 5 6 
#
# 1 123.4988 6.1246 13.3318 -0.0035 10.6716 -0.0048
# 2 6.1246 84.1808 -10.7319 0.0056 2.2180 0.0067
# 3 13.3318 -10.7319 61.7038 -0.0022 3.3425 -0.0031
# 4 -0.0035 0.0056 -0.0022 28.1803 0.0007 5.9017
# 5 10.6716 2.2180 3.3425 0.0007 51.5858 0.0010
# 6 -0.0048 0.0067 -0.0031 5.9017 0.0010 30.7203
#
#
#
# Elastic Compliance Matrix: (Units=1/GPa)
#
#
# Indices 1 2 3 4 5 6 
#
# 1 0.008479 -0.000815 -0.001887 0.000001 -0.001597 0.000001
# 2 -0.000815 0.012250 0.002334 -0.000002 -0.000509 -0.000002
# 3 -0.001887 0.002334 0.017064 0.000000 -0.000816 0.000001
# 4 0.000001 -0.000002 0.000000 0.036973 0.000000 -0.007103
# 5 -0.001597 -0.000509 -0.000816 0.000000 0.019790 -0.000001
# 6 0.000001 -0.000002 0.000001 -0.007103 -0.000001 0.033916
#
#
# Mechanical properties :
#
#
# Convention : Reuss Voigt Hill
#
# Bulk Modulus (GPa) = 26.98603 31.87025 29.42814
# Shear Modulus (GPa) = 35.32011 39.47455 37.39733
#
# Velocity S-wave (km/s) = 3.83729 4.05669 3.94851
# Velocity P-wave (km/s) = 5.55728 5.93539 5.74944
#
# Compressibility (1/GPa) = 0.03705621
#
# Stress axis : x y z
#
# Youngs Moduli (GPa) = 117.93275 81.63578 58.60147
#
# Poissons Ratio (x) = 0.06657 0.11060
# Poissons Ratio (y) = 0.09617 -0.13679
# Poissons Ratio (z) = 0.22259 -0.19056
#
# Static dielectric constant tensor:
#      x y z
#    x 4.372160 0.000090 0.015490 
#    y 0.000090 4.023630 0.000350 
#    z 0.015490 0.000350 4.535880 
# 
# 
# High freq. dielectric constant tensor:
#      x y z
#    x 1.961690 0.000000 0.003770 
#    y 0.000000 1.937570 0.000000 
#    z 0.003770 0.000000 1.978980 
# 
# From -- ./inp_files/179930.got.cif
#   From: 2010.06.25/outbox.cif.g09.slc.cpg/sg15_90_cif.got.tgz:179930.got - 2010.06.28 07:06:18.
