data_PCOD8150739
_publ_section_title
;
Structure prediction by ZEFSAII (Michael W. Deem and Ramdas Pophale) SiO2 
 PCOD8150739
Probable space group: C 2/C
;
_chemical_formula_sum "Si O2"
_cell_formula_units_Z 40
_cell_length_a 18.573367
_cell_length_b 17.764579
_cell_length_c 14.174301
_cell_angle_alpha 90.000000
_cell_angle_beta 159.491205
_cell_angle_gamma 90.000000
_cell_volume 1638.516308
_symmetry_space_group_name_H-M "C 2/C"
_symmetry_group_IT_number 15
_symmetry_cell_setting 'monoclinic'
loop_
_space_group_symop_operation_xyz
x,y,z
-x,y,1/2-z
-x,-y,-z
x,-y,1/2+z
1/2+x,1/2+y,z
1/2-x,1/2+y,1/2-z
1/2-x,1/2-y,-z
1/2+x,1/2-y,1/2+z
loop_
_atom_site_type_symbol
_atom_site_label
_atom_site_fract_x
_atom_site_fract_y
_atom_site_fract_z
Si Si1 0.721362 0.171692 0.409004
Si Si2 0.033580 0.920219 0.937981
Si Si3 0.810126 0.318819 0.954619
Si Si4 0.918024 0.329394 0.378034
Si Si5 0.965148 0.091248 0.839784
O O1 0.750000 0.250000 0.500000
O O2 0.744854 0.106091 0.517703
O O3 0.887379 0.153798 0.529023
O O4 0.498342 0.169647 0.084921
O O5 0.816483 0.882168 0.641930
O O6 0.039320 0.006220 0.913281
O O7 0.229598 0.884872 0.128276
O O8 0.055145 0.898802 0.074296
O O9 0.648444 0.253975 0.732544
O O10 0.000000 0.288520 0.250000
O O11 0.897706 0.354736 0.965372
#
# Coordination Sequence:
#
# PCOD8150739 Si02
#       5
#     8   8   8   8   8
#     4  11  25  44  79 111 149 197 256 314 392 459
#     4  11  25  49  74 106 160 195 256 316 372 476
#     4  12  26  46  74 112 148 205 259 311 383 450
#     4  12  26  45  79 111 151 201 256 324 379 454
#     4  10  25  49  70 111 155 199 246 319 390 456
#
# _framework density 24.412330999999998
#
# number of rings (size 3 to 8) (size 9 to 14) (size 15 to 20)
#    0.000    0.800    4.000    1.800    2.800    4.800 
#    7.200    0.000    0.000    0.000    0.000    0.000 
#    0.000    0.000    0.000    0.000    0.000    0.000 
#
# Total GULP energy -247833.483904 kJ/mol
# GULP energy per Si atom -12391.674195 kJ/mol
# Density = 2.435677 g / cm^3
# Si number density = 24.412331 Si / 1000 Ang^3
#
#
#
# Elastic Constant Matrix: (Units=GPa)
#
#
# Indices 1 2 3 4 5 6 
#
# 1 93.7031 47.4293 28.1546 0.0000 -2.1436 0.0000
# 2 47.4293 121.5381 37.6128 0.0000 9.7999 0.0000
# 3 28.1546 37.6128 137.3253 -0.0001 -13.4308 0.0000
# 4 0.0000 0.0000 -0.0001 31.8051 -0.0001 -3.4336
# 5 -2.1436 9.7999 -13.4308 -0.0001 50.7182 0.0000
# 6 0.0000 0.0000 0.0000 -3.4336 0.0000 38.1426
#
#
#
# Elastic Compliance Matrix: (Units=1/GPa)
#
#
# Indices 1 2 3 4 5 6 
#
# 1 0.013628 -0.005011 -0.001304 0.000000 0.001199 0.000000
# 2 -0.005011 0.011140 -0.002315 0.000000 -0.002977 0.000000
# 3 -0.001304 -0.002315 0.008440 0.000000 0.002627 0.000000
# 4 0.000000 0.000000 0.000000 0.031750 0.000000 0.002858
# 5 0.001199 -0.002977 0.002627 0.000000 0.021038 0.000000
# 6 0.000000 0.000000 0.000000 0.002858 0.000000 0.026475
#
#
# Mechanical properties :
#
#
# Convention : Reuss Voigt Hill
#
# Bulk Modulus (GPa) = 62.70612 64.32889 63.51751
# Shear Modulus (GPa) = 37.02391 40.09117 38.55754
#
# Velocity S-wave (km/s) = 3.89859 4.05687 3.97851
# Velocity P-wave (km/s) = 6.78287 6.95359 6.86876
#
# Compressibility (1/GPa) = 0.01594741
#
# Stress axis : x y z
#
# Youngs Moduli (GPa) = 73.37946 89.76708 118.47804
#
# Poissons Ratio (x) = 0.44984 0.15452
# Poissons Ratio (y) = 0.36772 0.27427
# Poissons Ratio (z) = 0.09570 0.20781
#
# Static dielectric constant tensor:
#      x y z
#    x 4.540920 0.000000 -0.233220 
#    y 0.000000 4.232380 0.000000 
#    z -0.233220 0.000000 4.813010 
# 
# 
# High freq. dielectric constant tensor:
#      x y z
#    x 1.977970 0.000000 -0.013850 
#    y 0.000000 1.952200 0.000000 
#    z -0.013850 0.000000 1.986330 
# 
# From -- ./inp_files/169501.got.cif
#   From: 2010.06.25/outbox.cif.g09.slc.cpg/sg15_85_cif.got.tgz:169501.got - 2010.06.28 07:06:18.
