data_PCOD8150421
_publ_section_title
;
Structure prediction by ZEFSAII (Michael W. Deem and Ramdas Pophale) SiO2 
 PCOD8150421
Probable space group: C 2/C
;
_chemical_formula_sum "Si O2"
_cell_formula_units_Z 56
_cell_length_a 30.158094
_cell_length_b 9.055426
_cell_length_c 11.588303
_cell_angle_alpha 90.000000
_cell_angle_beta 59.523017
_cell_angle_gamma 90.000000
_cell_volume 2727.443283
_symmetry_space_group_name_H-M "C 2/C"
_symmetry_group_IT_number 15
_symmetry_cell_setting 'monoclinic'
loop_
_space_group_symop_operation_xyz
x,y,z
-x,y,1/2-z
-x,-y,-z
x,-y,1/2+z
1/2+x,1/2+y,z
1/2-x,1/2+y,1/2-z
1/2-x,1/2-y,-z
1/2+x,1/2-y,1/2+z
loop_
_atom_site_type_symbol
_atom_site_label
_atom_site_fract_x
_atom_site_fract_y
_atom_site_fract_z
Si Si1 0.557473 0.218467 0.698962
Si Si2 0.309357 0.607305 0.397997
Si Si3 0.266354 0.863886 0.073634
Si Si4 0.383426 0.472782 0.984659
Si Si5 0.699386 0.734390 0.855288
Si Si6 0.864090 0.497039 0.018003
Si Si7 0.392615 0.260699 0.633326
O O1 0.500000 0.164338 0.750000
O O2 0.569068 0.363645 0.607216
O O3 0.563556 0.257331 0.826277
O O4 0.596666 0.086621 0.614532
O O5 0.263118 0.518424 0.401762
O O6 0.351448 0.498898 0.406862
O O7 0.212695 0.781305 0.474290
O O8 0.337381 0.704548 0.263273
O O9 0.251235 0.789254 0.215280
O O10 0.250000 0.750000 0.000000
O O11 0.327732 0.889307 0.988839
O O12 0.343856 0.388223 0.123885
O O13 0.405321 0.618439 0.017154
O O14 0.675139 0.894856 0.862431
O O15 0.893947 0.399643 0.072258
#
# Coordination Sequence:
#
# PCOD8150421 Si02
#       7
#     8   8   8   8   8   8   8
#     4  10  24  47  65  90 126 165 214 272 329 371
#     4   9  19  39  59  85 129 176 192 258 311 371
#     4  12  25  34  62  94 131 170 211 255 308 379
#     4   8  18  40  64  94 115 161 209 253 313 389
#     4   9  22  38  55  88 127 167 209 246 304 387
#     4  11  26  39  60  97 126 169 218 246 315 387
#     4  11  20  41  67  87 129 161 206 273 316 369
#
# _framework density 20.532049000000001
#
# number of rings (size 3 to 8) (size 9 to 14) (size 15 to 20)
#    0.857    1.143    2.857    0.857    6.000    1.714 
#    0.000    0.714    0.000    0.000    0.000    0.000 
#    0.000    0.000    0.000    0.000    0.000    0.000 
#
# Total GULP energy -347050.794357 kJ/mol
# GULP energy per Si atom -12394.671227 kJ/mol
# Density = 2.048532 g / cm^3
# Si number density = 20.532049 Si / 1000 Ang^3
#
#
#
# Elastic Constant Matrix: (Units=GPa)
#
#
# Indices 1 2 3 4 5 6 
#
# 1 108.2152 30.3789 36.0365 0.0000 -2.6654 0.0000
# 2 30.3789 94.9326 33.0803 0.0000 11.1627 0.0000
# 3 36.0365 33.0803 69.2399 0.0000 1.1346 0.0000
# 4 0.0000 0.0000 0.0000 25.1090 0.0000 6.9468
# 5 -2.6654 11.1627 1.1346 0.0000 25.7894 0.0000
# 6 0.0000 0.0000 0.0000 6.9468 0.0000 28.8623
#
#
#
# Elastic Compliance Matrix: (Units=1/GPa)
#
#
# Indices 1 2 3 4 5 6 
#
# 1 0.011596 -0.002250 -0.005000 0.000000 0.002392 0.000000
# 2 -0.002250 0.013814 -0.005331 0.000000 -0.005977 0.000000
# 3 -0.005000 -0.005331 0.019576 0.000000 0.000929 0.000000
# 4 0.000000 0.000000 0.000000 0.042668 0.000000 -0.010270
# 5 0.002392 -0.005977 0.000929 0.000000 0.041569 0.000000
# 6 0.000000 0.000000 0.000000 -0.010270 0.000000 0.037119
#
#
# Mechanical properties :
#
#
# Convention : Reuss Voigt Hill
#
# Bulk Modulus (GPa) = 50.43952 52.37547 51.40749
# Shear Modulus (GPa) = 25.23816 27.47827 26.35822
#
# Velocity S-wave (km/s) = 3.50981 3.66226 3.58685
# Velocity P-wave (km/s) = 6.40661 6.59146 6.49969
#
# Compressibility (1/GPa) = 0.01982572
#
# Stress axis : x y z
#
# Youngs Moduli (GPa) = 86.23425 72.38877 51.08200
#
# Poissons Ratio (x) = 0.16288 0.25539
# Poissons Ratio (y) = 0.19403 0.27232
# Poissons Ratio (z) = 0.43114 0.38590
#
# Static dielectric constant tensor:
#      x y z
#    x 3.498240 0.000000 0.151420 
#    y 0.000000 3.880730 0.000000 
#    z 0.151420 0.000000 3.540970 
# 
# 
# High freq. dielectric constant tensor:
#      x y z
#    x 1.784310 0.000000 0.015870 
#    y 0.000000 1.803840 0.000000 
#    z 0.015870 0.000000 1.782340 
# 
# From -- ./inp_files/125833.got.cif
#   From: 2010.06.25/outbox.cif.g09.slc.cpg/sg15_63_cif.got.tgz:125833.got - 2010.06.28 07:06:18.
