data_PCOD8150201
_publ_section_title
;
Structure prediction by ZEFSAII (Michael W. Deem and Ramdas Pophale) SiO2 
 PCOD8150201
Probable space group: C 2/C
;
_chemical_formula_sum "Si O2"
_cell_formula_units_Z 40
_cell_length_a 16.584608
_cell_length_b 11.479572
_cell_length_c 9.370608
_cell_angle_alpha 90.000000
_cell_angle_beta 93.876105
_cell_angle_gamma 90.000000
_cell_volume 1779.934890
_symmetry_space_group_name_H-M "C 2/C"
_symmetry_group_IT_number 15
_symmetry_cell_setting 'monoclinic'
loop_
_space_group_symop_operation_xyz
x,y,z
-x,y,1/2-z
-x,-y,-z
x,-y,1/2+z
1/2+x,1/2+y,z
1/2-x,1/2+y,1/2-z
1/2-x,1/2-y,-z
1/2+x,1/2-y,1/2+z
loop_
_atom_site_type_symbol
_atom_site_label
_atom_site_fract_x
_atom_site_fract_y
_atom_site_fract_z
Si Si1 0.946940 0.065803 0.608607
Si Si2 0.152348 0.621710 0.997478
Si Si3 0.589761 0.041726 0.707048
Si Si4 0.835867 0.243026 0.435167
Si Si5 0.328391 0.360162 0.630252
O O1 0.901737 0.176807 0.538578
O O2 0.000000 0.107035 0.750000
O O3 0.881886 0.973231 0.652547
O O4 0.000000 0.000000 0.500000
O O5 0.095551 0.581326 0.123170
O O6 0.245090 0.604797 0.047876
O O7 0.143356 0.541238 0.856032
O O8 0.130013 0.756172 0.957795
O O9 0.500000 0.070940 0.750000
O O10 0.622944 0.133636 0.595301
O O11 0.750000 0.250000 0.500000
O O12 0.813515 0.179334 0.287696
#
# Coordination Sequence:
#
# PCOD8150201 Si02
#       5
#     8   8   8   8   8
#     4  12  26  46  77 107 145 192 239 307 369 429
#     4  10  24  44  73 100 143 193 237 294 365 437
#     4  11  25  46  71 102 145 187 239 309 361 428
#     4  11  26  47  75 105 145 193 245 298 363 445
#     4  10  24  46  71 102 147 188 243 300 359 438
#
# _framework density 22.472731
#
# number of rings (size 3 to 8) (size 9 to 14) (size 15 to 20)
#    0.000    1.200    2.000    1.800   11.200    4.800 
#    0.000    0.000    0.000    0.000    0.000    0.000 
#    0.000    0.000    0.000    0.000    0.000    0.000 
#
# Total GULP energy -248002.475245 kJ/mol
# GULP energy per Si atom -12400.123762 kJ/mol
# Density = 2.242158 g / cm^3
# Si number density = 22.472731 Si / 1000 Ang^3
#
#
#
# Elastic Constant Matrix: (Units=GPa)
#
#
# Indices 1 2 3 4 5 6 
#
# 1 122.9850 36.2148 62.9082 0.0000 4.8125 0.0000
# 2 36.2148 59.4863 52.9791 0.0000 8.3152 0.0000
# 3 62.9082 52.9791 159.1842 0.0000 26.7046 0.0000
# 4 0.0000 0.0000 0.0000 43.2786 0.0000 2.3559
# 5 4.8125 8.3152 26.7046 0.0000 47.9331 0.0000
# 6 0.0000 0.0000 0.0000 2.3559 0.0000 35.0903
#
#
#
# Elastic Compliance Matrix: (Units=1/GPa)
#
#
# Indices 1 2 3 4 5 6 
#
# 1 0.010888 -0.003956 -0.003219 0.000000 0.001386 0.000000
# 2 -0.003956 0.025334 -0.006837 0.000000 -0.000189 0.000000
# 3 -0.003219 -0.006837 0.010564 0.000000 -0.004376 0.000000
# 4 0.000000 0.000000 0.000000 0.023191 0.000000 -0.001557
# 5 0.001386 -0.000189 -0.004376 0.000000 0.023194 0.000000
# 6 0.000000 0.000000 0.000000 -0.001557 0.000000 0.028602
#
#
# Mechanical properties :
#
#
# Convention : Reuss Voigt Hill
#
# Bulk Modulus (GPa) = 53.29566 71.76218 62.52892
# Shear Modulus (GPa) = 32.04105 37.89730 34.96917
#
# Velocity S-wave (km/s) = 3.78004 4.11100 3.94899
# Velocity P-wave (km/s) = 6.54361 7.38485 6.97692
#
# Compressibility (1/GPa) = 0.01876325
#
# Stress axis : x y z
#
# Youngs Moduli (GPa) = 91.84297 39.47279 94.66432
#
# Poissons Ratio (x) = 0.15614 0.30473
# Poissons Ratio (y) = 0.36329 0.64719
# Poissons Ratio (z) = 0.29564 0.26986
#
# Static dielectric constant tensor:
#      x y z
#    x 4.007940 0.000000 0.082670 
#    y 0.000000 4.828770 0.000000 
#    z 0.082670 0.000000 4.303390 
# 
# 
# High freq. dielectric constant tensor:
#      x y z
#    x 1.888010 0.000000 0.007470 
#    y 0.000000 1.884600 0.000000 
#    z 0.007470 0.000000 1.909410 
# 
# From -- ./inp_files/46237.got.cif
#   From: 2010.06.25/outbox.cif.g09.slc.cpg/sg15_24_cif.got.tgz:46237.got - 2010.06.28 07:06:18.
