data_PCOD8150529
_publ_section_title
;
Structure prediction by ZEFSAII (Michael W. Deem and Ramdas Pophale) SiO2 
 PCOD8150529
Probable space group: C 2/C
;
_chemical_formula_sum "Si O2"
_cell_formula_units_Z 64
_cell_length_a 23.330595
_cell_length_b 17.690589
_cell_length_c 14.667036
_cell_angle_alpha 90.000000
_cell_angle_beta 27.309433
_cell_angle_gamma 90.000000
_cell_volume 2777.345723
_symmetry_space_group_name_H-M "C 2/C"
_symmetry_group_IT_number 15
_symmetry_cell_setting 'monoclinic'
loop_
_space_group_symop_operation_xyz
x,y,z
-x,y,1/2-z
-x,-y,-z
x,-y,1/2+z
1/2+x,1/2+y,z
1/2-x,1/2+y,1/2-z
1/2-x,1/2-y,-z
1/2+x,1/2-y,1/2+z
loop_
_atom_site_type_symbol
_atom_site_label
_atom_site_fract_x
_atom_site_fract_y
_atom_site_fract_z
Si Si1 0.098250 0.161580 0.377699
Si Si2 0.663736 0.353701 0.282751
Si Si3 0.202278 0.309066 0.769071
Si Si4 0.134000 0.526705 0.044538
Si Si5 0.973491 0.740670 0.693249
Si Si6 0.638326 0.973741 0.837552
Si Si7 0.781995 0.611597 0.987360
Si Si8 0.137317 0.912673 0.523086
O O1 0.157609 0.193115 0.386747
O O2 0.080226 0.223351 0.322667
O O3 0.963992 0.124674 0.589992
O O4 0.193971 0.101131 0.201148
O O5 0.695104 0.265992 0.216080
O O6 0.633622 0.363896 0.434370
O O7 0.770214 0.404820 0.092067
O O8 0.167716 0.386929 0.765012
O O9 0.102859 0.300998 0.990243
O O10 0.155975 0.471971 0.101682
O O11 0.000000 0.565190 0.250000
O O12 0.137726 0.478064 0.947468
O O13 0.882178 0.676235 0.858010
O O14 0.000000 0.792541 0.750000
O O15 0.757755 0.021663 0.634734
O O16 0.500000 0.000000 0.000000
O O17 0.696010 0.635916 0.022922
O O18 0.000000 0.943817 0.750000
#
# Coordination Sequence:
#
# PCOD8150529 Si02
#       8
#     8   8   8   8   8   8   8   8
#     4  11  22  34  58  90 130 160 195 251 318 387
#     4  10  25  40  61  92 131 166 204 260 318 374
#     4  11  22  40  59  90 125 167 208 253 312 370
#     4  11  23  42  64  89 118 167 221 261 305 368
#     4  11  21  31  54  90 126 160 199 249 313 380
#     4  11  23  42  66  89 122 164 213 263 311 373
#     4  12  21  36  61  90 125 163 208 254 312 377
#     4  11  23  38  60  92 128 162 202 257 324 380
#
# _framework density 23.043583000000002
#
# number of rings (size 3 to 8) (size 9 to 14) (size 15 to 20)
#    0.000    1.000    3.750    3.750    3.500    4.500 
#    0.000    0.625    0.000    3.750    0.000    0.000 
#    0.000    0.000    0.000    0.000    0.000    0.000 
#
# Total GULP energy -396428.776354 kJ/mol
# GULP energy per Si atom -12388.399261 kJ/mol
# Density = 2.299113 g / cm^3
# Si number density = 23.043583 Si / 1000 Ang^3
#
#
#
# Elastic Constant Matrix: (Units=GPa)
#
#
# Indices 1 2 3 4 5 6 
#
# 1 89.3690 19.9280 24.9713 -0.0001 -35.1458 0.0001
# 2 19.9280 104.0329 27.7647 -0.0002 -23.7432 0.0001
# 3 24.9713 27.7647 122.5074 -0.0002 -42.3048 0.0002
# 4 -0.0001 -0.0002 -0.0002 19.1222 0.0001 -10.7783
# 5 -35.1458 -23.7432 -42.3048 0.0001 39.5021 -0.0001
# 6 0.0001 0.0001 0.0002 -10.7783 -0.0001 24.2478
#
#
#
# Elastic Compliance Matrix: (Units=1/GPa)
#
#
# Indices 1 2 3 4 5 6 
#
# 1 0.017853 0.000162 0.002925 0.000000 0.019114 0.000000
# 2 0.000162 0.011151 -0.000311 0.000000 0.006513 0.000000
# 3 0.002925 -0.000311 0.013443 0.000000 0.016811 0.000000
# 4 0.000000 0.000000 0.000000 0.069778 0.000000 0.031017
# 5 0.019114 0.006513 0.016811 0.000000 0.064240 0.000000
# 6 0.000000 0.000000 0.000000 0.031017 0.000000 0.055028
#
#
# Mechanical properties :
#
#
# Convention : Reuss Voigt Hill
#
# Bulk Modulus (GPa) = 20.83441 51.24860 36.04150
# Shear Modulus (GPa) = 20.66623 32.79078 26.72850
#
# Velocity S-wave (km/s) = 2.99796 3.77635 3.40944
# Velocity P-wave (km/s) = 4.58745 6.42670 5.58333
#
# Compressibility (1/GPa) = 0.04799752
#
# Stress axis : x y z
#
# Youngs Moduli (GPa) = 56.01294 89.67922 74.39092
#
# Poissons Ratio (x) = -0.01452 -0.21757
# Poissons Ratio (y) = -0.00907 0.02313
# Poissons Ratio (z) = -0.16382 0.02789
#
# Static dielectric constant tensor:
#      x y z
#    x 4.211580 0.000000 -0.436310 
#    y 0.000000 3.942370 0.000000 
#    z -0.436310 0.000000 4.392850 
# 
# 
# High freq. dielectric constant tensor:
#      x y z
#    x 1.911020 0.000000 -0.036280 
#    y 0.000000 1.897640 0.000000 
#    z -0.036280 0.000000 1.912250 
# 
# From -- ./inp_files/174208.got.cif
#   From: 2010.06.25/outbox.cif.g09.slc.cpg/sg15_88_cif.got.tgz:174208.got - 2010.06.28 07:06:18.
