data_PCOD8150418
_publ_section_title
;
Structure prediction by ZEFSAII (Michael W. Deem and Ramdas Pophale) SiO2 
 PCOD8150418
Probable space group: C 2/C
;
_chemical_formula_sum "Si O2"
_cell_formula_units_Z 48
_cell_length_a 13.778825
_cell_length_b 5.800061
_cell_length_c 30.607803
_cell_angle_alpha 90.000000
_cell_angle_beta 54.582272
_cell_angle_gamma 90.000000
_cell_volume 1993.457947
_symmetry_space_group_name_H-M "C 2/C"
_symmetry_group_IT_number 15
_symmetry_cell_setting 'monoclinic'
loop_
_space_group_symop_operation_xyz
x,y,z
-x,y,1/2-z
-x,-y,-z
x,-y,1/2+z
1/2+x,1/2+y,z
1/2-x,1/2+y,1/2-z
1/2-x,1/2-y,-z
1/2+x,1/2-y,1/2+z
loop_
_atom_site_type_symbol
_atom_site_label
_atom_site_fract_x
_atom_site_fract_y
_atom_site_fract_z
Si Si1 0.316895 0.757353 0.738395
Si Si2 0.323026 0.510765 0.068709
Si Si3 0.434768 0.640496 0.953898
Si Si4 0.633725 0.652246 0.108767
Si Si5 0.701270 0.665452 0.663297
Si Si6 0.549697 0.015711 0.366951
O O1 0.252046 0.508834 0.747045
O O2 0.366412 0.749318 0.775195
O O3 0.423023 0.777424 0.675165
O O4 0.443296 0.488265 0.064996
O O5 0.264124 0.269072 0.070825
O O6 0.220975 0.628390 0.124203
O O7 0.349067 0.659809 0.018233
O O8 0.368418 0.507588 0.932912
O O9 0.465701 0.894226 0.927991
O O10 0.624696 0.524557 0.157835
O O11 0.519093 0.815865 0.140188
O O12 0.829609 0.570939 0.643510
#
# Coordination Sequence:
#
# PCOD8150418 Si02
#       6
#     8   8   8   8   8   8
#     4  10  24  46  83 107 148 198 244 311 376 441
#     4  11  24  44  71 104 146 194 243 302 369 440
#     4  11  24  44  71 104 146 194 243 302 369 440
#     4  12  25  44  73 104 142 192 246 300 370 446
#     4  11  24  46  75 103 146 190 246 302 375 436
#     4  11  24  46  75 103 146 190 246 302 375 436
#
# _framework density 24.078761
#
# number of rings (size 3 to 8) (size 9 to 14) (size 15 to 20)
#    0.000    1.000    3.333    2.500    4.667    4.667 
#    0.000    5.000    0.000    0.000    0.000    0.000 
#    0.000    0.000    0.000    0.000    0.000    0.000 
#
# Total GULP energy -297475.344881 kJ/mol
# GULP energy per Si atom -12394.806037 kJ/mol
# Density = 2.402396 g / cm^3
# Si number density = 24.078761 Si / 1000 Ang^3
#
#
#
# Elastic Constant Matrix: (Units=GPa)
#
#
# Indices 1 2 3 4 5 6 
#
# 1 109.3493 33.7407 24.2013 0.0022 31.0991 0.0025
# 2 33.7407 84.2788 6.7475 0.0088 18.5023 0.0089
# 3 24.2013 6.7475 79.4361 -0.0079 39.8434 -0.0022
# 4 0.0022 0.0088 -0.0079 32.8156 -0.0057 0.2218
# 5 31.0991 18.5023 39.8434 -0.0057 30.3151 -0.0036
# 6 0.0025 0.0089 -0.0022 0.2218 -0.0036 40.3436
#
#
#
# Elastic Compliance Matrix: (Units=1/GPa)
#
#
# Indices 1 2 3 4 5 6 
#
# 1 0.014942 -0.000955 0.008583 -0.000003 -0.026026 -0.000003
# 2 -0.000955 0.016300 0.009991 -0.000006 -0.022100 -0.000005
# 3 0.008583 0.009991 0.048714 -0.000005 -0.078928 -0.000007
# 4 -0.000003 -0.000006 -0.000005 0.030474 0.000019 -0.000168
# 5 -0.026026 -0.022100 -0.078928 0.000019 0.176910 0.000018
# 6 -0.000003 -0.000005 -0.000007 -0.000168 0.000018 0.024788
#
#
# Mechanical properties :
#
#
# Convention : Reuss Voigt Hill
#
# Bulk Modulus (GPa) = 8.68109 44.71589 26.69849
# Shear Modulus (GPa) = 15.85853 34.58651 25.22252
#
# Velocity S-wave (km/s) = 2.56913 3.79409 3.24002
# Velocity P-wave (km/s) = 3.52330 6.14853 5.01089
#
# Compressibility (1/GPa) = 0.11519294
#
# Stress axis : x y z
#
# Youngs Moduli (GPa) = 66.92500 61.35086 20.52815
#
# Poissons Ratio (x) = 0.05862 -0.17619
# Poissons Ratio (y) = 0.06395 -0.20510
# Poissons Ratio (z) = -0.57441 -0.61298
#
# Static dielectric constant tensor:
#      x y z
#    x 4.362520 -0.000010 0.374350 
#    y -0.000010 4.395940 -0.000040 
#    z 0.374350 -0.000040 4.733090 
# 
# 
# High freq. dielectric constant tensor:
#      x y z
#    x 1.963970 0.000000 0.018740 
#    y 0.000000 1.954300 0.000000 
#    z 0.018740 0.000000 1.959750 
# 
# From -- ./inp_files/294430.got.cif
#   From: 2010.06.25/outbox.cif.g09.slc.cpg/sg15_148_cif.got.tgz:294430.got - 2010.06.28 07:06:18.
