data_PCOD8150252
_publ_section_title
;
Structure prediction by ZEFSAII (Michael W. Deem and Ramdas Pophale) SiO2 
 PCOD8150252
Probable space group: C 2/C
;
_chemical_formula_sum "Si O2"
_cell_formula_units_Z 44
_cell_length_a 11.205009
_cell_length_b 16.318193
_cell_length_c 14.030602
_cell_angle_alpha 90.000000
_cell_angle_beta 129.197206
_cell_angle_gamma 90.000000
_cell_volume 1988.146789
_symmetry_space_group_name_H-M "C 2/C"
_symmetry_group_IT_number 15
_symmetry_cell_setting 'monoclinic'
loop_
_space_group_symop_operation_xyz
x,y,z
-x,y,1/2-z
-x,-y,-z
x,-y,1/2+z
1/2+x,1/2+y,z
1/2-x,1/2+y,1/2-z
1/2-x,1/2-y,-z
1/2+x,1/2-y,1/2+z
loop_
_atom_site_type_symbol
_atom_site_label
_atom_site_fract_x
_atom_site_fract_y
_atom_site_fract_z
Si Si1 0.562943 0.269628 0.496778
Si Si2 0.998488 0.322175 0.355869
Si Si3 0.500000 0.505610 0.250000
Si Si4 0.357747 0.131957 0.106933
Si Si5 0.736131 0.546987 0.517555
Si Si6 0.829665 0.896022 0.311915
O O1 0.487545 0.252122 0.562221
O O2 0.598227 0.183674 0.463922
O O3 0.716323 0.323572 0.589044
O O4 0.439111 0.316834 0.370375
O O5 0.842677 0.370525 0.298773
O O6 0.000000 0.285103 0.250000
O O7 0.137588 0.384741 0.439061
O O8 0.602870 0.560774 0.372143
O O9 0.384413 0.451263 0.253249
O O10 0.500000 0.123388 0.250000
O O11 0.309136 0.042926 0.045454
O O12 0.661180 0.555200 0.584071
#
# Coordination Sequence:
#
# PCOD8150252 Si02
#       6
#     8   8   4   8   8   8
#     4  11  24  41  66 103 134 172 221 269 336 390
#     4  10  24  45  68  96 137 175 216 275 331 392
#     4  12  24  42  72  94 136 174 218 280 326 384
#     4  11  23  40  68 100 133 174 222 273 323 394
#     4  11  25  46  67  98 132 177 223 268 331 393
#     4  11  24  45  68  99 136 171 218 277 328 391
#
# _framework density 22.131163999999998
#
# number of rings (size 3 to 8) (size 9 to 14) (size 15 to 20)
#    0.000    1.091    1.818    4.364    3.818    7.273 
#    4.909    0.000    0.000    0.000    0.000    0.000 
#    0.000    0.000    0.000    0.000    0.000    0.000 
#
# Total GULP energy -272922.309466 kJ/mol
# GULP energy per Si atom -12405.559521 kJ/mol
# Density = 2.208079 g / cm^3
# Si number density = 22.131164 Si / 1000 Ang^3
#
#
#
# Elastic Constant Matrix: (Units=GPa)
#
#
# Indices 1 2 3 4 5 6 
#
# 1 98.8497 -0.8727 8.5482 0.0000 -3.5636 0.0000
# 2 -0.8727 42.7427 -2.1670 0.0000 -5.3060 0.0000
# 3 8.5482 -2.1670 97.7580 0.0000 8.0852 0.0000
# 4 0.0000 0.0000 0.0000 42.1036 0.0000 -11.2291
# 5 -3.5636 -5.3060 8.0852 0.0000 33.5927 0.0000
# 6 0.0000 0.0000 0.0000 -11.2291 0.0000 33.0539
#
#
#
# Elastic Compliance Matrix: (Units=1/GPa)
#
#
# Indices 1 2 3 4 5 6 
#
# 1 0.010256 0.000330 -0.001004 0.000000 0.001382 0.000000
# 2 0.000330 0.023879 0.000189 0.000000 0.003761 0.000000
# 3 -0.001004 0.000189 0.010537 0.000000 -0.002613 0.000000
# 4 0.000000 0.000000 0.000000 0.026117 0.000000 0.008873
# 5 0.001382 0.003761 -0.002613 0.000000 0.031138 0.000000
# 6 0.000000 0.000000 0.000000 0.008873 0.000000 0.033268
#
#
# Mechanical properties :
#
#
# Convention : Reuss Voigt Hill
#
# Bulk Modulus (GPa) = 22.88136 27.81860 25.34998
# Shear Modulus (GPa) = 33.17149 37.33950 35.25550
#
# Velocity S-wave (km/s) = 3.87571 4.11200 3.99560
# Velocity P-wave (km/s) = 5.51268 5.92806 5.72414
#
# Compressibility (1/GPa) = 0.04370370
#
# Stress axis : x y z
#
# Youngs Moduli (GPa) = 97.50491 41.87769 94.90004
#
# Poissons Ratio (x) = -0.01382 0.09526
# Poissons Ratio (y) = -0.03218 -0.01798
# Poissons Ratio (z) = 0.09787 -0.00793
#
# Static dielectric constant tensor:
#      x y z
#    x 4.371310 0.000000 -0.103740 
#    y 0.000000 3.853950 0.000000 
#    z -0.103740 0.000000 4.270350 
# 
# 
# High freq. dielectric constant tensor:
#      x y z
#    x 1.886010 0.000000 0.004230 
#    y 0.000000 1.863450 0.000000 
#    z 0.004230 0.000000 1.884170 
# 
# From -- ./inp_files/145836.got.cif
#   From: 2010.06.25/outbox.cif.g09.slc.cpg/sg15_73_cif.got.tgz:145836.got - 2010.06.28 07:06:18.
