data_PCOD8150846
_publ_section_title
;
Structure prediction by ZEFSAII (Michael W. Deem and Ramdas Pophale) SiO2 
 PCOD8150846
Probable space group: C 2/C
;
_chemical_formula_sum "Si O2"
_cell_formula_units_Z 60
_cell_length_a 17.840997
_cell_length_b 16.459160
_cell_length_c 17.563223
_cell_angle_alpha 90.000000
_cell_angle_beta 151.514594
_cell_angle_gamma 90.000000
_cell_volume 2459.745103
_symmetry_space_group_name_H-M "C 2/C"
_symmetry_group_IT_number 15
_symmetry_cell_setting 'monoclinic'
loop_
_space_group_symop_operation_xyz
x,y,z
-x,y,1/2-z
-x,-y,-z
x,-y,1/2+z
1/2+x,1/2+y,z
1/2-x,1/2+y,1/2-z
1/2-x,1/2-y,-z
1/2+x,1/2-y,1/2+z
loop_
_atom_site_type_symbol
_atom_site_label
_atom_site_fract_x
_atom_site_fract_y
_atom_site_fract_z
Si Si1 0.222943 0.077011 0.106742
Si Si2 0.456198 0.315242 0.389083
Si Si3 0.000000 0.605021 0.250000
Si Si4 0.089528 0.095497 0.499054
Si Si5 0.576376 0.866441 0.581203
Si Si6 0.278466 0.571461 0.135038
Si Si7 0.687604 0.165402 0.915185
Si Si8 0.698885 0.111727 0.569461
O O1 0.362911 0.056391 0.171520
O O2 0.285693 0.094596 0.246560
O O3 0.119833 0.157852 0.993629
O O4 0.113168 0.999941 0.013139
O O5 0.428891 0.382911 0.429276
O O6 0.452978 0.228747 0.427357
O O7 0.323406 0.319390 0.204750
O O8 0.095495 0.649043 0.405305
O O9 0.239155 0.147732 0.602650
O O10 0.930877 0.112673 0.309486
O O11 0.623243 0.888677 0.536837
O O12 0.412879 0.908251 0.458094
O O13 0.284198 0.473934 0.132392
O O14 0.265682 0.596295 0.036462
O O15 0.500000 0.161593 0.750000
O O16 0.750000 0.250000 0.000000
#
# Coordination Sequence:
#
# PCOD8150846 Si02
#       8
#     8   8   4   8   8   8   8   8
#     4  11  23  47  69 102 140 183 239 297 363 430
#     4  12  24  45  72 105 141 191 238 303 367 424
#     4  10  26  46  70  98 140 174 238 308 346 434
#     4  12  25  44  74 104 149 190 238 293 356 439
#     4  11  25  42  71 102 147 178 247 298 362 428
#     4  12  24  45  71 106 146 194 236 295 359 434
#     4  12  29  47  73 109 151 191 237 287 358 432
#     4  11  25  43  70 107 138 191 240 297 368 431
#
# _framework density 24.392771
#
# number of rings (size 3 to 8) (size 9 to 14) (size 15 to 20)
#    0.000    0.533    2.667    5.200    7.467    0.533 
#    0.000   10.667    0.000    0.000    0.000    0.000 
#    0.000    0.000    0.000    0.000    0.000    0.000 
#
# Total GULP energy -371762.280315 kJ/mol
# GULP energy per Si atom -12392.076011 kJ/mol
# Density = 2.433725 g / cm^3
# Si number density = 24.392771 Si / 1000 Ang^3
#
#
#
# Elastic Constant Matrix: (Units=GPa)
#
#
# Indices 1 2 3 4 5 6 
#
# 1 95.9839 9.8128 16.4603 -0.0080 8.8467 -0.0042
# 2 9.8128 79.9262 5.3589 -0.0038 -0.6052 0.0001
# 3 16.4603 5.3589 120.1072 -0.0243 2.3132 -0.0156
# 4 -0.0080 -0.0038 -0.0243 30.7335 -0.0102 0.5813
# 5 8.8467 -0.6052 2.3132 -0.0102 34.3977 -0.0065
# 6 -0.0042 0.0001 -0.0156 0.5813 -0.0065 27.0623
#
#
#
# Elastic Compliance Matrix: (Units=1/GPa)
#
#
# Indices 1 2 3 4 5 6 
#
# 1 0.011045 -0.001283 -0.001403 0.000001 -0.002769 0.000000
# 2 -0.001283 0.012700 -0.000402 0.000001 0.000580 0.000000
# 3 -0.001403 -0.000402 0.008540 0.000006 -0.000221 0.000005
# 4 0.000001 0.000001 0.000006 0.032551 0.000009 -0.000699
# 5 -0.002769 0.000580 -0.000221 0.000009 0.029809 0.000006
# 6 0.000000 0.000000 0.000005 -0.000699 0.000006 0.036967
#
#
# Mechanical properties :
#
#
# Convention : Reuss Voigt Hill
#
# Bulk Modulus (GPa) = 38.29966 39.92016 39.10991
# Shear Modulus (GPa) = 34.13145 36.06439 35.09792
#
# Velocity S-wave (km/s) = 3.74471 3.84928 3.79735
# Velocity P-wave (km/s) = 5.86791 6.01307 5.94094
#
# Compressibility (1/GPa) = 0.02610989
#
# Stress axis : x y z
#
# Youngs Moduli (GPa) = 90.53524 78.73767 117.09078
#
# Poissons Ratio (x) = 0.10102 0.16430
# Poissons Ratio (y) = 0.11615 0.04707
# Poissons Ratio (z) = 0.12704 0.03165
#
# Static dielectric constant tensor:
#      x y z
#    x 4.816630 0.000010 0.073380 
#    y 0.000010 4.042820 -0.000010 
#    z 0.073380 -0.000010 4.557960 
# 
# 
# High freq. dielectric constant tensor:
#      x y z
#    x 1.977790 0.000000 0.010860 
#    y 0.000000 1.954440 0.000000 
#    z 0.010860 0.000000 1.979390 
# 
# From -- ./inp_files/211779.got.cif
#   From: 2010.06.25/outbox.cif.g09.slc.cpg/sg15_106_cif.got.tgz:211779.got - 2010.06.28 07:06:18.
