data_PCOD8150439
_publ_section_title
;
Structure prediction by ZEFSAII (Michael W. Deem and Ramdas Pophale) SiO2 
 PCOD8150439
Probable space group: C 2/C
;
_chemical_formula_sum "Si O2"
_cell_formula_units_Z 48
_cell_length_a 26.026282
_cell_length_b 5.116582
_cell_length_c 14.407645
_cell_angle_alpha 90.000000
_cell_angle_beta 68.348725
_cell_angle_gamma 90.000000
_cell_volume 1783.238967
_symmetry_space_group_name_H-M "C 2/C"
_symmetry_group_IT_number 15
_symmetry_cell_setting 'monoclinic'
loop_
_space_group_symop_operation_xyz
x,y,z
-x,y,1/2-z
-x,-y,-z
x,-y,1/2+z
1/2+x,1/2+y,z
1/2-x,1/2+y,1/2-z
1/2-x,1/2-y,-z
1/2+x,1/2-y,1/2+z
loop_
_atom_site_type_symbol
_atom_site_label
_atom_site_fract_x
_atom_site_fract_y
_atom_site_fract_z
Si Si1 0.334752 0.358719 0.995709
Si Si2 0.578482 0.016503 0.135673
Si Si3 0.537376 0.053770 0.858324
Si Si4 0.757804 0.528091 0.802995
Si Si5 0.407452 0.531814 0.608515
Si Si6 0.344612 0.658251 0.818480
O O1 0.281870 0.327875 0.096489
O O2 0.382177 0.513424 0.023019
O O3 0.365585 0.089935 0.949246
O O4 0.311126 0.490637 0.916905
O O5 0.527277 0.027747 0.098787
O O6 0.559026 0.864091 0.241728
O O7 0.596688 0.296139 0.166528
O O8 0.544516 0.317613 0.913108
O O9 0.429363 0.176136 0.112918
O O10 0.768433 0.756432 0.720384
O O11 0.814425 0.433812 0.814764
O O12 0.356443 0.495865 0.716472
#
# Coordination Sequence:
#
# PCOD8150439 Si02
#       6
#     8   8   8   8   8   8
#     4  12  27  46  78 113 144 200 252 305 368 445
#     4  10  25  43  76 107 150 198 251 296 372 435
#     4  10  24  47  71 106 156 201 240 303 364 437
#     4  12  30  51  79 109 152 196 244 310 384 440
#     4  11  25  45  74 106 155 196 245 304 368 432
#     4  11  26  49  76 109 149 194 251 310 370 440
#
# _framework density 26.917311000000002
#
# number of rings (size 3 to 8) (size 9 to 14) (size 15 to 20)
#    0.000    1.000    3.333    0.500   14.000    3.333 
#    0.000    0.000    0.000    0.000    0.000    0.000 
#    0.000    0.000    0.000    0.000    0.000    0.000 
#
# Total GULP energy -297337.371621 kJ/mol
# GULP energy per Si atom -12389.057151 kJ/mol
# Density = 2.685605 g / cm^3
# Si number density = 26.917311 Si / 1000 Ang^3
#
#
#
# Elastic Constant Matrix: (Units=GPa)
#
#
# Indices 1 2 3 4 5 6 
#
# 1 104.6739 22.7456 16.9037 0.0000 6.8023 0.0000
# 2 22.7456 99.4773 16.4425 -0.0001 8.8434 0.0000
# 3 16.9037 16.4425 110.7899 0.0000 11.0408 0.0000
# 4 0.0000 -0.0001 0.0000 20.8247 0.0000 10.4442
# 5 6.8023 8.8434 11.0408 0.0000 38.7891 0.0000
# 6 0.0000 0.0000 0.0000 10.4442 0.0000 52.8240
#
#
#
# Elastic Compliance Matrix: (Units=1/GPa)
#
#
# Indices 1 2 3 4 5 6 
#
# 1 0.010254 -0.002064 -0.001159 0.000000 -0.000998 0.000000
# 2 -0.002064 0.010869 -0.001119 0.000000 -0.001798 0.000000
# 3 -0.001159 -0.001119 0.009595 0.000000 -0.002273 0.000000
# 4 0.000000 0.000000 0.000000 0.053306 0.000000 -0.010539
# 5 -0.000998 -0.001798 -0.002273 0.000000 0.027012 0.000000
# 6 0.000000 0.000000 0.000000 -0.010539 0.000000 0.021015
#
#
# Mechanical properties :
#
#
# Convention : Reuss Voigt Hill
#
# Bulk Modulus (GPa) = 45.38314 47.45831 46.42073
# Shear Modulus (GPa) = 33.76544 39.74418 36.75481
#
# Velocity S-wave (km/s) = 3.54561 3.84673 3.69924
# Velocity P-wave (km/s) = 5.80161 6.11549 5.96061
#
# Compressibility (1/GPa) = 0.02203461
#
# Stress axis : x y z
#
# Youngs Moduli (GPa) = 97.52267 92.00203 104.21595
#
# Poissons Ratio (x) = 0.18993 0.12075
# Poissons Ratio (y) = 0.20132 0.11662
# Poissons Ratio (z) = 0.11300 0.10295
#
# Static dielectric constant tensor:
#      x y z
#    x 4.995860 0.000000 0.268340 
#    y 0.000000 4.332700 0.000000 
#    z 0.268340 0.000000 5.162070 
# 
# 
# High freq. dielectric constant tensor:
#      x y z
#    x 2.091600 0.000000 0.019160 
#    y 0.000000 2.058590 0.000000 
#    z 0.019160 0.000000 2.092930 
# 
# From -- ./inp_files/180006.got.cif
#   From: 2010.06.25/outbox.cif.g09.slc.cpg/sg15_91_cif.got.tgz:180006.got - 2010.06.28 07:06:18.
