data_PCOD8150034
_publ_section_title
;
Structure prediction by ZEFSAII (Michael W. Deem and Ramdas Pophale) SiO2 
 PCOD8150034
Probable space group: C 2/C
;
_chemical_formula_sum "Si O2"
_cell_formula_units_Z 48
_cell_length_a 14.972923
_cell_length_b 25.643216
_cell_length_c 9.097801
_cell_angle_alpha 90.000000
_cell_angle_beta 38.571166
_cell_angle_gamma 90.000000
_cell_volume 2177.922258
_symmetry_space_group_name_H-M "C 2/C"
_symmetry_group_IT_number 15
_symmetry_cell_setting 'monoclinic'
loop_
_space_group_symop_operation_xyz
x,y,z
-x,y,1/2-z
-x,-y,-z
x,-y,1/2+z
1/2+x,1/2+y,z
1/2-x,1/2+y,1/2-z
1/2-x,1/2-y,-z
1/2+x,1/2-y,1/2+z
loop_
_atom_site_type_symbol
_atom_site_label
_atom_site_fract_x
_atom_site_fract_y
_atom_site_fract_z
Si Si1 0.256161 0.931511 0.954157
Si Si2 0.228706 0.968991 0.668000
Si Si3 0.500000 0.900440 0.250000
Si Si4 0.330912 0.640116 0.707563
Si Si5 0.595723 0.742923 0.759474
Si Si6 0.489745 0.855787 0.964596
Si Si7 0.500000 0.579058 0.250000
O O1 0.196422 0.961708 0.885012
O O2 0.403432 0.901097 0.728339
O O3 0.139444 0.891704 0.177387
O O4 0.279267 0.973100 0.057674
O O5 0.361575 0.933279 0.462959
O O6 0.087319 0.955111 0.755973
O O7 0.547071 0.863350 0.319717
O O8 0.403673 0.697137 0.618983
O O9 0.389009 0.613708 0.485281
O O10 0.157415 0.642698 0.936146
O O11 0.500000 0.722899 0.750000
O O12 0.750000 0.750000 0.500000
O O13 0.549755 0.797767 0.883418
#
# Coordination Sequence:
#
# PCOD8150034 Si02
#       7
#     8   8   4   8   8   8   4
#     4  11  25  44  76 101 143 186 236 289 351 418
#     4  11  26  44  70 109 142 185 237 288 352 419
#     4  10  24  43  72 104 142 183 234 290 346 426
#     4  12  26  46  73 103 145 188 232 292 359 416
#     4  12  24  44  72 110 140 180 239 293 353 421
#     4  11  23  47  73 105 141 185 235 295 351 422
#     4  12  28  49  68 106 150 185 230 294 354 422
#
# _framework density 22.039352999999998
#
# number of rings (size 3 to 8) (size 9 to 14) (size 15 to 20)
#    0.000    0.667    5.000    1.500    4.667    4.667 
#    0.000    1.667    0.000    0.000    0.000    0.000 
#    0.000    0.000    0.000    0.000    0.000    0.000 
#
# Total GULP energy -297426.194340 kJ/mol
# GULP energy per Si atom -12392.758097 kJ/mol
# Density = 2.198919 g / cm^3
# Si number density = 22.039353 Si / 1000 Ang^3
#
#
#
# Elastic Constant Matrix: (Units=GPa)
#
#
# Indices 1 2 3 4 5 6 
#
# 1 105.9482 44.5617 25.5592 0.0000 7.5165 0.0000
# 2 44.5617 146.1693 43.1504 0.0000 17.5661 0.0000
# 3 25.5592 43.1504 79.0875 0.0000 16.1883 0.0000
# 4 0.0000 0.0000 0.0000 19.4898 0.0000 5.0913
# 5 7.5165 17.5661 16.1883 0.0000 43.1956 0.0000
# 6 0.0000 0.0000 0.0000 5.0913 0.0000 36.7997
#
#
#
# Elastic Compliance Matrix: (Units=1/GPa)
#
#
# Indices 1 2 3 4 5 6 
#
# 1 0.011106 -0.002771 -0.002071 0.000000 -0.000029 0.000000
# 2 -0.002771 0.008975 -0.003632 0.000000 -0.001807 0.000000
# 3 -0.002071 -0.003632 0.016159 0.000000 -0.004218 0.000000
# 4 0.000000 0.000000 0.000000 0.053233 0.000000 -0.007365
# 5 -0.000029 -0.001807 -0.004218 0.000000 0.025471 0.000000
# 6 0.000000 0.000000 0.000000 -0.007365 0.000000 0.028193
#
#
# Mechanical properties :
#
#
# Convention : Reuss Voigt Hill
#
# Bulk Modulus (GPa) = 51.83482 61.97197 56.90340
# Shear Modulus (GPa) = 30.02731 34.42593 32.22662
#
# Velocity S-wave (km/s) = 3.69513 3.95653 3.82806
# Velocity P-wave (km/s) = 6.46340 7.00371 6.73897
#
# Compressibility (1/GPa) = 0.01929205
#
# Stress axis : x y z
#
# Youngs Moduli (GPa) = 90.04365 111.41678 61.88662
#
# Poissons Ratio (x) = 0.30870 0.12819
# Poissons Ratio (y) = 0.24948 0.22475
# Poissons Ratio (z) = 0.18651 0.40463
#
# Static dielectric constant tensor:
#      x y z
#    x 3.427280 0.000000 1.135410 
#    y 0.000000 3.445840 0.000000 
#    z 1.135410 0.000000 3.157360 
# 
# 
# High freq. dielectric constant tensor:
#      x y z
#    x 1.871160 0.000000 0.006150 
#    y 0.000000 1.877480 0.000000 
#    z 0.006150 0.000000 1.874830 
# 
# From -- ./inp_files/43851.got.cif
#   From: 2010.06.25/outbox.cif.g09.slc.cpg/sg15_22_cif.got.tgz:43851.got - 2010.06.28 07:06:18.
