data_PCOD8150312
_publ_section_title
;
Structure prediction by ZEFSAII (Michael W. Deem and Ramdas Pophale) SiO2 
 PCOD8150312
Probable space group: C 2/C
;
_chemical_formula_sum "Si O2"
_cell_formula_units_Z 52
_cell_length_a 10.084043
_cell_length_b 12.133489
_cell_length_c 21.262314
_cell_angle_alpha 90.000000
_cell_angle_beta 60.771217
_cell_angle_gamma 90.000000
_cell_volume 2270.305968
_symmetry_space_group_name_H-M "C 2/C"
_symmetry_group_IT_number 15
_symmetry_cell_setting 'monoclinic'
loop_
_space_group_symop_operation_xyz
x,y,z
-x,y,1/2-z
-x,-y,-z
x,-y,1/2+z
1/2+x,1/2+y,z
1/2-x,1/2+y,1/2-z
1/2-x,1/2-y,-z
1/2+x,1/2-y,1/2+z
loop_
_atom_site_type_symbol
_atom_site_label
_atom_site_fract_x
_atom_site_fract_y
_atom_site_fract_z
Si Si1 0.951912 0.226106 0.688768
Si Si2 0.500000 0.684485 0.250000
Si Si3 0.360717 0.167786 0.691013
Si Si4 0.136749 0.150713 0.533888
Si Si5 0.737802 0.922374 0.966972
Si Si6 0.515055 0.267951 0.552235
Si Si7 0.180748 0.428686 0.838374
O O1 0.781118 0.183280 0.730239
O O2 0.947071 0.342802 0.654532
O O3 0.000000 0.233230 0.750000
O O4 0.057421 0.146799 0.621606
O O5 0.496382 0.769935 0.309675
O O6 0.647250 0.605439 0.219635
O O7 0.356763 0.229636 0.623023
O O8 0.376440 0.037961 0.682433
O O9 0.250000 0.250000 0.500000
O O10 0.011362 0.172100 0.508572
O O11 0.230624 0.037150 0.503402
O O12 0.897545 0.858124 0.925750
O O13 0.670097 0.948878 0.914707
O O14 0.614438 0.844597 0.029169
#
# Coordination Sequence:
#
# PCOD8150312 Si02
#       7
#     8   4   8   8   8   8   8
#     4  11  25  44  63 104 137 176 239 279 340 418
#     4  10  24  46  62 106 136 174 232 276 342 414
#     4  11  25  42  74  94 140 182 228 282 347 406
#     4  12  26  43  69 101 140 180 233 281 345 409
#     4  11  24  43  73  95 141 181 225 290 337 413
#     4  11  24  47  66 108 133 180 236 278 346 408
#     4  11  23  43  71  97 137 188 217 290 342 404
#
# _framework density 22.904402999999999
#
# number of rings (size 3 to 8) (size 9 to 14) (size 15 to 20)
#    0.000    0.923    3.077    3.231    6.462    1.231 
#    0.000    1.538    0.000    0.000    0.000    0.000 
#    0.000    0.000    0.000    0.000    0.000    0.000 
#
# Total GULP energy -322202.819958 kJ/mol
# GULP energy per Si atom -12392.416152 kJ/mol
# Density = 2.285227 g / cm^3
# Si number density = 22.904403 Si / 1000 Ang^3
#
#
#
# Elastic Constant Matrix: (Units=GPa)
#
#
# Indices 1 2 3 4 5 6 
#
# 1 44.8235 17.3595 17.8241 0.0000 21.0483 0.0000
# 2 17.3595 144.9336 32.3037 0.0000 16.6796 0.0000
# 3 17.8241 32.3037 97.4503 0.0000 6.4255 0.0000
# 4 0.0000 0.0000 0.0000 30.2298 0.0000 5.0286
# 5 21.0483 16.6796 6.4255 0.0000 31.8418 0.0000
# 6 0.0000 0.0000 0.0000 5.0286 0.0000 32.3979
#
#
#
# Elastic Compliance Matrix: (Units=1/GPa)
#
#
# Indices 1 2 3 4 5 6 
#
# 1 0.034538 -0.000609 -0.004693 0.000000 -0.021565 0.000000
# 2 -0.000609 0.007855 -0.002278 0.000000 -0.003252 0.000000
# 3 -0.004693 -0.002278 0.011748 0.000000 0.001925 0.000000
# 4 0.000000 0.000000 0.000000 0.033957 0.000000 -0.005270
# 5 -0.021565 -0.003252 0.001925 0.000000 0.046975 0.000000
# 6 0.000000 0.000000 0.000000 -0.005270 0.000000 0.031684
#
#
# Mechanical properties :
#
#
# Convention : Reuss Voigt Hill
#
# Bulk Modulus (GPa) = 25.65388 46.90912 36.28150
# Shear Modulus (GPa) = 25.65270 33.54191 29.59730
#
# Velocity S-wave (km/s) = 3.35026 3.83094 3.59863
# Velocity P-wave (km/s) = 5.11765 6.33190 5.75688
#
# Compressibility (1/GPa) = 0.03898045
#
# Stress axis : x y z
#
# Youngs Moduli (GPa) = 28.95344 127.31312 85.11898
#
# Poissons Ratio (x) = 0.07753 0.39950
# Poissons Ratio (y) = 0.01763 0.19389
# Poissons Ratio (z) = 0.13589 0.29001
#
# Static dielectric constant tensor:
#      x y z
#    x 4.302270 0.000000 0.174750 
#    y 0.000000 4.277930 0.000000 
#    z 0.174750 0.000000 4.290480 
# 
# 
# High freq. dielectric constant tensor:
#      x y z
#    x 1.900320 0.000000 0.005070 
#    y 0.000000 1.911490 0.000000 
#    z 0.005070 0.000000 1.907830 
# 
# From -- ./inp_files/236879.got.cif
#   From: 2010.06.25/outbox.cif.g09.slc.cpg/sg15_119_cif.got.tgz:236879.got - 2010.06.28 07:06:18.
