data_PCOD8150791
_publ_section_title
;
Structure prediction by ZEFSAII (Michael W. Deem and Ramdas Pophale) SiO2 
 PCOD8150791
Probable space group: C 2/C
;
_chemical_formula_sum "Si O2"
_cell_formula_units_Z 52
_cell_length_a 8.756590
_cell_length_b 15.018569
_cell_length_c 27.061449
_cell_angle_alpha 90.000000
_cell_angle_beta 38.337224
_cell_angle_gamma 90.000000
_cell_volume 2207.539714
_symmetry_space_group_name_H-M "C 2/C"
_symmetry_group_IT_number 15
_symmetry_cell_setting 'monoclinic'
loop_
_space_group_symop_operation_xyz
x,y,z
-x,y,1/2-z
-x,-y,-z
x,-y,1/2+z
1/2+x,1/2+y,z
1/2-x,1/2+y,1/2-z
1/2-x,1/2-y,-z
1/2+x,1/2-y,1/2+z
loop_
_atom_site_type_symbol
_atom_site_label
_atom_site_fract_x
_atom_site_fract_y
_atom_site_fract_z
Si Si1 0.938840 0.398358 0.683894
Si Si2 0.172976 0.581226 0.017888
Si Si3 0.697363 0.113088 0.474166
Si Si4 0.000000 0.462840 0.250000
Si Si5 0.514259 0.785519 0.109058
Si Si6 0.500000 0.317308 0.750000
Si Si7 0.174974 0.829269 0.380687
Si Si8 0.000000 0.736044 0.250000
O O1 0.647706 0.377983 0.750990
O O2 0.089168 0.417287 0.595921
O O3 0.935107 0.486080 0.717067
O O4 0.065457 0.320685 0.684270
O O5 0.938041 0.603735 0.043939
O O6 0.276322 0.483071 0.976474
O O7 0.380406 0.658170 0.958626
O O8 0.510192 0.164275 0.557978
O O9 0.930481 0.179068 0.409303
O O10 0.761115 0.404419 0.321256
O O11 0.709153 0.837115 0.094086
O O12 0.239737 0.795620 0.200965
O O13 0.724663 0.263795 0.666805
#
# Coordination Sequence:
#
# PCOD8150791 Si02
#       8
#     8   8   8   4   8   4   8   4
#     4  11  25  44  70  99 137 187 229 288 352 413
#     4  11  26  45  71 103 144 181 230 291 356 409
#     4  10  26  45  69 105 138 180 229 288 351 415
#     4  10  26  44  68 101 139 184 232 286 354 420
#     4  11  24  45  71 100 138 181 235 285 343 418
#     4  11  24  45  69 103 140 180 238 287 348 417
#     4  11  25  44  70 104 138 182 235 289 345 423
#     4  11  26  43  69 100 137 182 232 287 344 413
#
# _framework density 23.555633
#
# number of rings (size 3 to 8) (size 9 to 14) (size 15 to 20)
#    0.000    1.231    1.538    1.846   10.769    3.692 
#    0.000    1.538    0.000    0.000    0.000    0.000 
#    0.000    0.000    0.000    0.000    0.000    0.000 
#
# Total GULP energy -322318.825927 kJ/mol
# GULP energy per Si atom -12396.877920 kJ/mol
# Density = 2.350202 g / cm^3
# Si number density = 23.555633 Si / 1000 Ang^3
#
#
#
# Elastic Constant Matrix: (Units=GPa)
#
#
# Indices 1 2 3 4 5 6 
#
# 1 101.9833 18.8109 44.9630 -0.0097 9.5693 0.0134
# 2 18.8109 70.1245 32.6441 -0.0041 -5.6668 0.0120
# 3 44.9630 32.6441 115.4137 -0.0261 3.6013 0.0265
# 4 -0.0097 -0.0041 -0.0261 13.7526 0.0061 15.7844
# 5 9.5693 -5.6668 3.6013 0.0061 49.7724 -0.0008
# 6 0.0134 0.0120 0.0265 15.7844 -0.0008 16.0917
#
#
#
# Elastic Compliance Matrix: (Units=1/GPa)
#
#
# Indices 1 2 3 4 5 6 
#
# 1 0.012156 -0.001458 -0.004255 -0.000027 -0.002195 0.000024
# 2 -0.001458 0.016844 -0.004275 0.000004 0.002507 -0.000008
# 3 -0.004255 -0.004275 0.011547 -0.000255 -0.000504 0.000238
# 4 -0.000027 0.000004 -0.000255 -0.577902 0.000104 0.566867
# 5 -0.002195 0.002507 -0.000504 0.000104 0.020835 -0.000101
# 6 0.000024 -0.000008 0.000238 0.566867 -0.000101 -0.493898
#
#
# Mechanical properties :
#
#
# Convention : Reuss Voigt Hill
#
# Bulk Modulus (GPa) = 48.60841 53.37304 50.99073
# Shear Modulus (GPa) = -5.08344 28.66357 11.79006
#
# Velocity S-wave (km/s) = -1.47063 3.49212 2.23966
# Velocity P-wave (km/s) = 4.21862 6.24238 5.32748
#
# Compressibility (1/GPa) = 0.02057257
#
# Stress axis : x y z
#
# Youngs Moduli (GPa) = 82.26129 59.36888 86.60351
#
# Poissons Ratio (x) = 0.08653 0.36851
# Poissons Ratio (y) = 0.11990 0.37020
# Poissons Ratio (z) = 0.35004 0.25378
#
# Static dielectric constant tensor:
#      x y z
#    x 4.285430 0.000000 0.186890 
#    y 0.000000 4.304370 0.000000 
#    z 0.186890 0.000000 4.163670 
# 
# 
# High freq. dielectric constant tensor:
#      x y z
#    x 1.941090 0.000000 0.014530 
#    y 0.000000 1.927880 0.000000 
#    z 0.014530 0.000000 1.935290 
# 
# From -- ./inp_files/308207.got.cif
#   From: 2010.06.25/outbox.cif.g09.slc.cpg/sg15_155_cif.got.tgz:308207.got - 2010.06.28 07:06:18.
