data_PCOD8150959
_publ_section_title
;
Structure prediction by ZEFSAII (Michael W. Deem and Ramdas Pophale) SiO2 
 PCOD8150959
Probable space group: C 2/C
;
_chemical_formula_sum "Si O2"
_cell_formula_units_Z 56
_cell_length_a 8.148673
_cell_length_b 24.861239
_cell_length_c 18.138058
_cell_angle_alpha 90.000000
_cell_angle_beta 49.753627
_cell_angle_gamma 90.000000
_cell_volume 2804.662163
_symmetry_space_group_name_H-M "C 2/C"
_symmetry_group_IT_number 15
_symmetry_cell_setting 'monoclinic'
loop_
_space_group_symop_operation_xyz
x,y,z
-x,y,1/2-z
-x,-y,-z
x,-y,1/2+z
1/2+x,1/2+y,z
1/2-x,1/2+y,1/2-z
1/2-x,1/2-y,-z
1/2+x,1/2-y,1/2+z
loop_
_atom_site_type_symbol
_atom_site_label
_atom_site_fract_x
_atom_site_fract_y
_atom_site_fract_z
Si Si1 0.230252 0.673212 0.206756
Si Si2 0.251297 0.023280 0.836569
Si Si3 0.324743 0.880667 0.234641
Si Si4 0.601697 0.707561 0.999950
Si Si5 0.250405 0.269503 0.197102
Si Si6 0.799968 0.408299 0.460491
Si Si7 0.993426 0.069981 0.167921
O O1 0.169983 0.717279 0.284461
O O2 0.369495 0.626396 0.203435
O O3 0.000000 0.648945 0.250000
O O4 0.363365 0.703523 0.103573
O O5 0.500000 0.009511 0.750000
O O6 0.118999 0.970247 0.856466
O O7 0.167553 0.070792 0.804934
O O8 0.218474 0.043427 0.930296
O O9 0.500000 0.877755 0.250000
O O10 0.212059 0.822615 0.262241
O O11 0.443701 0.898016 0.123716
O O12 0.594068 0.727726 0.918458
O O13 0.694332 0.647896 0.969170
O O14 0.750000 0.750000 0.000000
O O15 0.000000 0.263192 0.250000
O O16 0.734288 0.422448 0.563990
O O17 0.000000 0.048561 0.250000
#
# Coordination Sequence:
#
# PCOD8150959 Si02
#       7
#     8   8   8   8   8   8   8
#     4  11  25  38  52  83 124 156 185 234 302 349
#     4   9  17  35  59  79 106 145 188 237 286 339
#     4   8  14  30  57  84 100 136 188 241 269 326
#     4  11  19  32  63  90 111 150 196 234 279 346
#     4  11  17  35  61  86 112 145 200 241 275 337
#     4   9  17  32  56  85 106 146 194 228 285 341
#     4  11  23  36  54  81 113 151 193 238 285 350
#
# _framework density 19.966753000000001
#
# number of rings (size 3 to 8) (size 9 to 14) (size 15 to 20)
#    0.000    2.286    5.714    1.286    2.000    0.571 
#    0.000    3.571    0.000    0.000    0.000    0.000 
#    0.000    0.000    0.000    0.000    0.000    0.000 
#
# Total GULP energy -346877.100198 kJ/mol
# GULP energy per Si atom -12388.467864 kJ/mol
# Density = 1.992131 g / cm^3
# Si number density = 19.966753 Si / 1000 Ang^3
#
#
#
# Elastic Constant Matrix: (Units=GPa)
#
#
# Indices 1 2 3 4 5 6 
#
# 1 27.6711 6.5776 24.2040 0.0000 -0.7249 0.0000
# 2 6.5776 93.1908 26.3466 0.0000 11.4846 0.0000
# 3 24.2040 26.3466 139.8724 0.0000 17.7462 0.0000
# 4 0.0000 0.0000 0.0000 27.2542 0.0000 5.7590
# 5 -0.7249 11.4846 17.7462 0.0000 22.2966 0.0000
# 6 0.0000 0.0000 0.0000 5.7590 0.0000 18.1303
#
#
#
# Elastic Compliance Matrix: (Units=1/GPa)
#
#
# Indices 1 2 3 4 5 6 
#
# 1 0.044219 -0.001854 -0.008461 0.000000 0.009126 0.000000
# 2 -0.001854 0.011853 -0.001257 0.000000 -0.005166 0.000000
# 3 -0.008461 -0.001257 0.009792 0.000000 -0.007421 0.000000
# 4 0.000000 0.000000 0.000000 0.039332 0.000000 -0.012494
# 5 0.009126 -0.005166 -0.007421 0.000000 0.053714 0.000000
# 6 0.000000 0.000000 0.000000 -0.012494 0.000000 0.059125
#
#
# Mechanical properties :
#
#
# Convention : Reuss Voigt Hill
#
# Bulk Modulus (GPa) = 23.40702 41.66562 32.53632
# Shear Modulus (GPa) = 19.57586 27.10997 23.34291
#
# Velocity S-wave (km/s) = 3.13457 3.68877 3.42290
# Velocity P-wave (km/s) = 4.98489 6.24944 5.65264
#
# Compressibility (1/GPa) = 0.04272224
#
# Stress axis : x y z
#
# Youngs Moduli (GPa) = 22.61473 84.36423 102.12792
#
# Poissons Ratio (x) = 0.15640 0.86405
# Poissons Ratio (y) = 0.04192 0.12833
# Poissons Ratio (z) = 0.19133 0.10601
#
# Static dielectric constant tensor:
#      x y z
#    x 2.949220 0.000000 -0.010270 
#    y 0.000000 4.025470 0.000000 
#    z -0.010270 0.000000 4.141110 
# 
# 
# High freq. dielectric constant tensor:
#      x y z
#    x 1.699840 0.000000 0.000180 
#    y 0.000000 1.797080 0.000000 
#    z 0.000180 0.000000 1.799500 
# 
# From -- ./inp_files/193578.got.cif
#   From: 2010.06.25/outbox.cif.g09.slc.cpg/sg15_97_cif.got.tgz:193578.got - 2010.06.28 07:06:18.
