data_PCOD8150943
_publ_section_title
;
Structure prediction by ZEFSAII (Michael W. Deem and Ramdas Pophale) SiO2 
 PCOD8150943
Probable space group: C 2/C
;
_chemical_formula_sum "Si O2"
_cell_formula_units_Z 48
_cell_length_a 10.066951
_cell_length_b 15.512807
_cell_length_c 17.659572
_cell_angle_alpha 90.000000
_cell_angle_beta 104.099907
_cell_angle_gamma 90.000000
_cell_volume 2674.749551
_symmetry_space_group_name_H-M "C 2/C"
_symmetry_group_IT_number 15
_symmetry_cell_setting 'monoclinic'
loop_
_space_group_symop_operation_xyz
x,y,z
-x,y,1/2-z
-x,-y,-z
x,-y,1/2+z
1/2+x,1/2+y,z
1/2-x,1/2+y,1/2-z
1/2-x,1/2-y,-z
1/2+x,1/2-y,1/2+z
loop_
_atom_site_type_symbol
_atom_site_label
_atom_site_fract_x
_atom_site_fract_y
_atom_site_fract_z
Si Si1 0.117665 0.762179 0.707745
Si Si2 0.911599 0.255659 0.811444
Si Si3 0.278834 0.165680 0.908627
Si Si4 0.129365 0.345388 0.922025
Si Si5 0.492232 0.403299 0.088687
Si Si6 0.392082 0.414043 0.906872
O O1 0.258495 0.784116 0.770580
O O2 0.141176 0.676274 0.659428
O O3 0.069533 0.843274 0.650815
O O4 0.000000 0.738434 0.750000
O O5 0.000000 0.230837 0.750000
O O6 0.980718 0.339201 0.862264
O O7 0.911117 0.173534 0.867553
O O8 0.208064 0.256397 0.917323
O O9 0.155449 0.096301 0.888975
O O10 0.386136 0.140279 0.989810
O O11 0.227502 0.418193 0.898919
O O12 0.563583 0.493318 0.117877
O O13 0.470764 0.389955 0.995628
#
# Coordination Sequence:
#
# PCOD8150943 Si02
#       6
#     8   8   8   8   8   8
#     4  11  21  32  48  77 116 140 176 226 269 309
#     4  11  17  30  53  77 102 141 184 210 261 329
#     4   8  14  29  47  72 100 138 176 211 257 314
#     4   8  14  27  51  72  97 133 180 217 252 315
#     4   9  17  30  56  79 101 138 182 220 263 328
#     4   9  17  32  51  81 108 131 175 232 269 303
#
# _framework density 17.945605
#
# number of rings (size 3 to 8) (size 9 to 14) (size 15 to 20)
#    0.000    2.667    5.000    3.000    0.000    0.667 
#    0.000    3.333    3.667    0.000    0.000    7.000 
#    0.000    0.000    0.000    0.000    0.000    0.000 
#
# Total GULP energy -297404.894058 kJ/mol
# GULP energy per Si atom -12391.870586 kJ/mol
# Density = 1.790476 g / cm^3
# Si number density = 17.945605 Si / 1000 Ang^3
#
#
#
# Elastic Constant Matrix: (Units=GPa)
#
#
# Indices 1 2 3 4 5 6 
#
# 1 109.9098 41.6419 59.2524 0.0000 -7.8617 0.0000
# 2 41.6419 77.1003 35.3675 0.0000 1.6170 0.0000
# 3 59.2524 35.3675 103.0124 0.0000 2.3172 0.0000
# 4 0.0000 0.0000 0.0000 16.7598 0.0000 -0.0041
# 5 -7.8617 1.6170 2.3172 0.0000 27.1133 0.0000
# 6 0.0000 0.0000 0.0000 -0.0041 0.0000 30.2678
#
#
#
# Elastic Compliance Matrix: (Units=1/GPa)
#
#
# Indices 1 2 3 4 5 6 
#
# 1 0.015259 -0.005071 -0.007156 0.000000 0.005339 0.000000
# 2 -0.005071 0.017086 -0.002899 0.000000 -0.002242 0.000000
# 3 -0.007156 -0.002899 0.014891 0.000000 -0.003175 0.000000
# 4 0.000000 0.000000 0.000000 0.059667 0.000000 0.000008
# 5 0.005339 -0.002242 -0.003175 0.000000 0.038835 0.000000
# 6 0.000000 0.000000 0.000000 0.000008 0.000000 0.033038
#
#
# Mechanical properties :
#
#
# Convention : Reuss Voigt Hill
#
# Bulk Modulus (GPa) = 58.88040 62.50511 60.69275
# Shear Modulus (GPa) = 23.28947 25.07887 24.18417
#
# Velocity S-wave (km/s) = 3.60638 3.74236 3.67500
# Velocity P-wave (km/s) = 7.08682 7.31981 7.20426
#
# Compressibility (1/GPa) = 0.01698358
#
# Stress axis : x y z
#
# Youngs Moduli (GPa) = 65.53347 58.52854 67.15679
#
# Poissons Ratio (x) = 0.29679 0.48059
# Poissons Ratio (y) = 0.33231 0.19468
# Poissons Ratio (z) = 0.46897 0.16967
#
# Static dielectric constant tensor:
#      x y z
#    x 3.303610 0.000000 0.098130 
#    y 0.000000 3.150380 0.000000 
#    z 0.098130 0.000000 3.764310 
# 
# 
# High freq. dielectric constant tensor:
#      x y z
#    x 1.664350 0.000000 0.007840 
#    y 0.000000 1.652030 0.000000 
#    z 0.007840 0.000000 1.713140 
# 
# From -- ./inp_files/197376.got.cif
#   From: 2010.06.25/outbox.cif.g09.slc.cpg/sg15_99_cif.got.tgz:197376.got - 2010.06.28 07:06:18.
