data_PCOD8150295
_publ_section_title
;
Structure prediction by ZEFSAII (Michael W. Deem and Ramdas Pophale) SiO2 
 PCOD8150295
Probable space group: C 2/C
;
_chemical_formula_sum "Si O2"
_cell_formula_units_Z 48
_cell_length_a 11.146390
_cell_length_b 14.248480
_cell_length_c 25.951538
_cell_angle_alpha 90.000000
_cell_angle_beta 148.655751
_cell_angle_gamma 90.000000
_cell_volume 2143.969293
_symmetry_space_group_name_H-M "C 2/C"
_symmetry_group_IT_number 15
_symmetry_cell_setting 'monoclinic'
loop_
_space_group_symop_operation_xyz
x,y,z
-x,y,1/2-z
-x,-y,-z
x,-y,1/2+z
1/2+x,1/2+y,z
1/2-x,1/2+y,1/2-z
1/2-x,1/2-y,-z
1/2+x,1/2-y,1/2+z
loop_
_atom_site_type_symbol
_atom_site_label
_atom_site_fract_x
_atom_site_fract_y
_atom_site_fract_z
Si Si1 0.729048 0.571487 0.856507
Si Si2 0.011105 0.390670 0.313556
Si Si3 0.082027 0.397908 0.855795
Si Si4 0.192437 0.537414 0.499897
Si Si5 0.219468 0.740676 0.693595
Si Si6 0.042354 0.117483 0.459322
O O1 0.500000 0.518388 0.750000
O O2 0.716952 0.677697 0.832231
O O3 0.958479 0.520996 0.922035
O O4 0.719274 0.581410 0.914690
O O5 0.821516 0.326601 0.272614
O O6 0.000000 0.364210 0.250000
O O7 0.956972 0.500571 0.303775
O O8 0.260672 0.361167 0.426856
O O9 0.144553 0.382912 0.939204
O O10 0.306135 0.402907 0.902387
O O11 0.920519 0.314395 0.778786
O O12 0.393491 0.471973 0.551558
O O13 0.989272 0.796792 0.592300
#
# Coordination Sequence:
#
# PCOD8150295 Si02
#       6
#     8   8   8   8   8   8
#     4  11  24  43  68 105 144 179 227 289 349 418
#     4  11  24  44  69 101 141 184 236 286 353 425
#     4  11  24  46  72 105 135 188 235 287 354 420
#     4  10  24  45  72 102 137 190 234 279 359 417
#     4  12  25  45  69 106 144 179 235 295 356 418
#     4  11  23  45  71 101 139 185 234 292 349 426
#
# _framework density 22.388380999999999
#
# number of rings (size 3 to 8) (size 9 to 14) (size 15 to 20)
#    0.000    1.000    3.333    5.000    2.333    4.000 
#    3.000    2.500    0.000    0.000    0.000    0.000 
#    0.000    0.000    0.000    0.000    0.000    0.000 
#
# Total GULP energy -297560.620037 kJ/mol
# GULP energy per Si atom -12398.359168 kJ/mol
# Density = 2.233742 g / cm^3
# Si number density = 22.388381 Si / 1000 Ang^3
#
#
#
# Elastic Constant Matrix: (Units=GPa)
#
#
# Indices 1 2 3 4 5 6 
#
# 1 164.2730 74.1783 89.3116 0.0001 -28.2658 0.0001
# 2 74.1783 108.0208 70.4888 -0.0001 -4.3312 -0.0002
# 3 89.3116 70.4888 140.8892 0.0013 -16.8145 0.0010
# 4 0.0001 -0.0001 0.0013 38.1406 0.0002 -8.8460
# 5 -28.2658 -4.3312 -16.8145 0.0002 52.7819 0.0002
# 6 0.0001 -0.0002 0.0010 -8.8460 0.0002 25.3662
#
#
#
# Elastic Compliance Matrix: (Units=1/GPa)
#
#
# Indices 1 2 3 4 5 6 
#
# 1 0.011317 -0.004830 -0.004243 0.000000 0.004313 0.000000
# 2 -0.004830 0.015868 -0.005230 0.000000 -0.002950 0.000000
# 3 -0.004243 -0.005230 0.012559 -0.000001 0.001300 -0.000001
# 4 0.000000 0.000000 -0.000001 0.028526 0.000000 0.009948
# 5 0.004313 -0.002950 0.001300 0.000000 0.021427 0.000000
# 6 0.000000 0.000000 -0.000001 0.009948 0.000000 0.042892
#
#
# Mechanical properties :
#
#
# Convention : Reuss Voigt Hill
#
# Bulk Modulus (GPa) = 89.76876 97.90448 93.83662
# Shear Modulus (GPa) = 30.31994 35.20468 32.76231
#
# Velocity S-wave (km/s) = 3.68403 3.96972 3.82954
# Velocity P-wave (km/s) = 7.63409 8.05211 7.84589
#
# Compressibility (1/GPa) = 0.01113973
#
# Stress axis : x y z
#
# Youngs Moduli (GPa) = 88.36025 63.01817 79.62424
#
# Poissons Ratio (x) = 0.30437 0.33785
# Poissons Ratio (y) = 0.42677 0.41640
# Poissons Ratio (z) = 0.37491 0.32956
#
# Static dielectric constant tensor:
#      x y z
#    x 4.263250 0.000000 -0.243770 
#    y 0.000000 4.025250 0.000000 
#    z -0.243770 0.000000 4.412640 
# 
# 
# High freq. dielectric constant tensor:
#      x y z
#    x 1.898720 0.000000 -0.003800 
#    y 0.000000 1.865500 0.000000 
#    z -0.003800 0.000000 1.898580 
# 
# From -- ./inp_files/293122.got.cif
#   From: 2010.06.25/outbox.cif.g09.slc.cpg/sg15_147_cif.got.tgz:293122.got - 2010.06.28 07:06:18.
