data_PCOD8150344
_publ_section_title
;
Structure prediction by ZEFSAII (Michael W. Deem and Ramdas Pophale) SiO2 
 PCOD8150344
Probable space group: C 2/C
;
_chemical_formula_sum "Si O2"
_cell_formula_units_Z 44
_cell_length_a 11.381326
_cell_length_b 24.086596
_cell_length_c 11.289294
_cell_angle_alpha 90.000000
_cell_angle_beta 140.601497
_cell_angle_gamma 90.000000
_cell_volume 1964.312756
_symmetry_space_group_name_H-M "C 2/C"
_symmetry_group_IT_number 15
_symmetry_cell_setting 'monoclinic'
loop_
_space_group_symop_operation_xyz
x,y,z
-x,y,1/2-z
-x,-y,-z
x,-y,1/2+z
1/2+x,1/2+y,z
1/2-x,1/2+y,1/2-z
1/2-x,1/2-y,-z
1/2+x,1/2-y,1/2+z
loop_
_atom_site_type_symbol
_atom_site_label
_atom_site_fract_x
_atom_site_fract_y
_atom_site_fract_z
Si Si1 0.306122 0.327343 0.845827
Si Si2 0.795490 0.097468 0.125910
Si Si3 0.783307 0.790940 0.292750
Si Si4 0.500000 0.164757 0.750000
Si Si5 0.784465 0.870249 0.081164
Si Si6 0.895218 0.488337 0.542130
O O1 0.261028 0.381312 0.732269
O O2 0.189537 0.274021 0.713166
O O3 0.524156 0.314327 0.008384
O O4 0.230076 0.343003 0.914802
O O5 0.000000 0.116198 0.250000
O O6 0.643667 0.125216 0.925630
O O7 0.776094 0.031253 0.096592
O O8 0.616011 0.795290 0.255051
O O9 0.725737 0.825240 0.132206
O O10 0.000000 0.884857 0.250000
O O11 0.673551 0.925888 0.019271
O O12 0.000000 0.497541 0.750000
O O13 0.000000 0.500000 0.500000
#
# Coordination Sequence:
#
# PCOD8150344 Si02
#       6
#     8   8   8   4   8   8
#     4  11  24  44  69 103 141 190 239 294 362 424
#     4  12  25  44  70 104 141 188 234 294 358 426
#     4  11  24  42  71 103 145 188 239 299 356 429
#     4  12  24  44  68 104 146 180 242 292 356 428
#     4  10  24  46  69 102 141 191 240 295 359 430
#     4  12  26  45  73 106 144 188 242 301 364 430
#
# _framework density 22.399691000000001
#
# number of rings (size 3 to 8) (size 9 to 14) (size 15 to 20)
#    0.000    0.727    2.727    4.364    1.273    2.909 
#    0.000    4.545    0.000    0.000    0.000    0.000 
#    0.000    0.000    0.000    0.000    0.000    0.000 
#
# Total GULP energy -272822.800095 kJ/mol
# GULP energy per Si atom -12401.036368 kJ/mol
# Density = 2.234871 g / cm^3
# Si number density = 22.399691 Si / 1000 Ang^3
#
#
#
# Elastic Constant Matrix: (Units=GPa)
#
#
# Indices 1 2 3 4 5 6 
#
# 1 133.7067 28.3063 39.4942 0.0000 -15.6227 0.0000
# 2 28.3063 89.8918 7.2125 0.0000 -1.7792 0.0000
# 3 39.4942 7.2125 83.6873 0.0000 -13.5173 0.0000
# 4 0.0000 0.0000 0.0000 31.3178 0.0000 -3.0557
# 5 -15.6227 -1.7792 -13.5173 0.0000 35.5019 0.0000
# 6 0.0000 0.0000 0.0000 -3.0557 0.0000 39.5112
#
#
#
# Elastic Compliance Matrix: (Units=1/GPa)
#
#
# Indices 1 2 3 4 5 6 
#
# 1 0.009465 -0.002623 -0.003824 0.000000 0.002578 0.000000
# 2 -0.002623 0.011930 0.000128 0.000000 -0.000508 0.000000
# 3 -0.003824 0.000128 0.014355 0.000000 0.003789 0.000000
# 4 0.000000 0.000000 0.000000 0.032173 0.000000 0.002488
# 5 0.002578 -0.000508 0.003789 0.000000 0.030719 0.000000
# 6 0.000000 0.000000 0.000000 0.002488 0.000000 0.025502
#
#
# Mechanical properties :
#
#
# Convention : Reuss Voigt Hill
#
# Bulk Modulus (GPa) = 43.26917 50.81241 47.04079
# Shear Modulus (GPa) = 34.60509 36.75105 35.67807
#
# Velocity S-wave (km/s) = 3.93477 4.05494 3.99531
# Velocity P-wave (km/s) = 6.32472 6.68260 6.50612
#
# Compressibility (1/GPa) = 0.02311115
#
# Stress axis : x y z
#
# Youngs Moduli (GPa) = 105.65109 83.82192 69.66138
#
# Poissons Ratio (x) = 0.21983 0.26642
# Poissons Ratio (y) = 0.27708 -0.00888
# Poissons Ratio (z) = 0.40406 -0.01069
#
# Static dielectric constant tensor:
#      x y z
#    x 4.246090 0.000000 -0.114430 
#    y 0.000000 4.136600 0.000000 
#    z -0.114430 0.000000 4.225700 
# 
# 
# High freq. dielectric constant tensor:
#      x y z
#    x 1.892900 0.000000 -0.004740 
#    y 0.000000 1.892660 0.000000 
#    z -0.004740 0.000000 1.895450 
# 
# From -- ./inp_files/91354.got.cif
#   From: 2010.06.25/outbox.cif.g09.slc.cpg/sg15_46_cif.got.tgz:91354.got - 2010.06.28 07:06:18.
