data_PCOD8150350
_publ_section_title
;
Structure prediction by ZEFSAII (Michael W. Deem and Ramdas Pophale) SiO2 
 PCOD8150350
Probable space group: C 2/C
;
_chemical_formula_sum "Si O2"
_cell_formula_units_Z 60
_cell_length_a 18.648457
_cell_length_b 6.658542
_cell_length_c 23.844480
_cell_angle_alpha 90.000000
_cell_angle_beta 82.095754
_cell_angle_gamma 90.000000
_cell_volume 2932.675863
_symmetry_space_group_name_H-M "C 2/C"
_symmetry_group_IT_number 15
_symmetry_cell_setting 'monoclinic'
loop_
_space_group_symop_operation_xyz
x,y,z
-x,y,1/2-z
-x,-y,-z
x,-y,1/2+z
1/2+x,1/2+y,z
1/2-x,1/2+y,1/2-z
1/2-x,1/2-y,-z
1/2+x,1/2-y,1/2+z
loop_
_atom_site_type_symbol
_atom_site_label
_atom_site_fract_x
_atom_site_fract_y
_atom_site_fract_z
Si Si1 0.192383 0.313411 0.865526
Si Si2 0.378255 0.069079 0.718294
Si Si3 0.170449 0.345441 0.445492
Si Si4 0.500000 0.198893 0.250000
Si Si5 0.848052 0.329998 0.343877
Si Si6 0.332514 0.201496 0.423992
Si Si7 0.443957 0.531681 0.852017
Si Si8 0.901057 0.921814 0.633474
O O1 0.179326 0.453638 0.813529
O O2 0.162251 0.425774 0.924281
O O3 0.277680 0.298221 0.865655
O O4 0.158104 0.096727 0.859891
O O5 0.340620 0.083080 0.782422
O O6 0.393811 0.288355 0.690557
O O7 0.452061 0.940930 0.714635
O O8 0.249383 0.257664 0.421340
O O9 0.154664 0.345950 0.512495
O O10 0.110263 0.210524 0.420929
O O11 0.550431 0.336226 0.205150
O O12 0.856808 0.507612 0.387075
O O13 0.919459 0.192354 0.338332
O O14 0.384755 0.382075 0.401040
O O15 0.520099 0.521866 0.876163
#
# Coordination Sequence:
#
# PCOD8150350 Si02
#       8
#     8   8   8   4   8   8   8   8
#     4  11  24  42  66  98 133 178 219 276 333 392
#     4  11  25  39  66  96 135 177 217 271 331 404
#     4  10  24  46  69  96 133 175 226 280 327 391
#     4  12  22  44  66  94 142 174 216 274 336 408
#     4  12  25  40  67 100 134 171 230 270 330 400
#     4  11  24  44  70  99 131 174 229 276 327 392
#     4  12  25  42  67 100 132 178 217 273 334 399
#     4  11  24  44  66  96 138 175 216 271 342 391
#
# _framework density 20.459130999999999
#
# number of rings (size 3 to 8) (size 9 to 14) (size 15 to 20)
#    0.000    0.800    5.333    1.600    1.867    2.133 
#    0.000    1.333    0.000    0.000    0.000    0.000 
#    0.000    0.000    0.000    0.000    0.000    0.000 
#
# Total GULP energy -372178.221984 kJ/mol
# GULP energy per Si atom -12405.940733 kJ/mol
# Density = 2.041256 g / cm^3
# Si number density = 20.459131 Si / 1000 Ang^3
#
#
#
# Elastic Constant Matrix: (Units=GPa)
#
#
# Indices 1 2 3 4 5 6 
#
# 1 75.4763 24.0107 25.3521 0.0000 6.0198 0.0000
# 2 24.0107 112.5822 51.7364 0.0000 -1.0504 0.0000
# 3 25.3521 51.7364 133.6511 0.0000 2.8017 0.0000
# 4 0.0000 0.0000 0.0000 27.1628 0.0000 3.1201
# 5 6.0198 -1.0504 2.8017 0.0000 26.3667 0.0000
# 6 0.0000 0.0000 0.0000 3.1201 0.0000 46.3944
#
#
#
# Elastic Compliance Matrix: (Units=1/GPa)
#
#
# Indices 1 2 3 4 5 6 
#
# 1 0.014881 -0.002359 -0.001841 0.000000 -0.003296 0.000000
# 2 -0.002359 0.011198 -0.003917 0.000000 0.001401 0.000000
# 3 -0.001841 -0.003917 0.009363 0.000000 -0.000731 0.000000
# 4 0.000000 0.000000 0.000000 0.037102 0.000000 -0.002495
# 5 -0.003296 0.001401 -0.000731 0.000000 0.038813 0.000000
# 6 0.000000 0.000000 0.000000 -0.002495 0.000000 0.021722
#
#
# Mechanical properties :
#
#
# Convention : Reuss Voigt Hill
#
# Bulk Modulus (GPa) = 52.05664 58.21198 55.13431
# Shear Modulus (GPa) = 32.11022 34.69214 33.40118
#
# Velocity S-wave (km/s) = 3.96597 4.12233 4.04490
# Velocity P-wave (km/s) = 6.81699 7.15351 6.98727
#
# Compressibility (1/GPa) = 0.01920985
#
# Stress axis : x y z
#
# Youngs Moduli (GPa) = 67.20156 89.29791 106.80494
#
# Poissons Ratio (x) = 0.21061 0.19659
# Poissons Ratio (y) = 0.15850 0.41834
# Poissons Ratio (z) = 0.12369 0.34977
#
# Static dielectric constant tensor:
#      x y z
#    x 3.684100 0.000000 0.125110 
#    y 0.000000 3.862040 0.000000 
#    z 0.125110 0.000000 3.614350 
# 
# 
# High freq. dielectric constant tensor:
#      x y z
#    x 1.801230 0.000000 0.010670 
#    y 0.000000 1.816660 0.000000 
#    z 0.010670 0.000000 1.795340 
# 
# From -- ./inp_files/278951.got.cif
#   From: 2010.06.25/outbox.cif.g09.slc.cpg/sg15_140_cif.got.tgz:278951.got - 2010.06.28 07:06:18.
