data_PCOD8150417
_publ_section_title
;
Structure prediction by ZEFSAII (Michael W. Deem and Ramdas Pophale) SiO2 
 PCOD8150417
Probable space group: C 2/C
;
_chemical_formula_sum "Si O2"
_cell_formula_units_Z 44
_cell_length_a 28.539720
_cell_length_b 7.507828
_cell_length_c 9.419955
_cell_angle_alpha 90.000000
_cell_angle_beta 95.982376
_cell_angle_gamma 90.000000
_cell_volume 2007.433741
_symmetry_space_group_name_H-M "C 2/C"
_symmetry_group_IT_number 15
_symmetry_cell_setting 'monoclinic'
loop_
_space_group_symop_operation_xyz
x,y,z
-x,y,1/2-z
-x,-y,-z
x,-y,1/2+z
1/2+x,1/2+y,z
1/2-x,1/2+y,1/2-z
1/2-x,1/2-y,-z
1/2+x,1/2-y,1/2+z
loop_
_atom_site_type_symbol
_atom_site_label
_atom_site_fract_x
_atom_site_fract_y
_atom_site_fract_z
Si Si1 0.062600 0.061900 0.015890
Si Si2 0.787769 0.195146 0.898738
Si Si3 0.275132 0.292404 0.864916
Si Si4 0.500000 0.521229 0.750000
Si Si5 0.125345 0.649235 0.651335
Si Si6 0.610821 0.191164 0.976073
O O1 0.108906 0.176550 0.058771
O O2 0.028185 0.093867 0.140410
O O3 0.037567 0.129852 0.860487
O O4 0.075711 0.852403 0.004389
O O5 0.769556 0.287663 0.751932
O O6 0.796211 0.988110 0.874052
O O7 0.750000 0.250000 0.000000
O O8 0.836530 0.267563 0.966064
O O9 0.317365 0.153383 0.840529
O O10 0.250000 0.250000 0.000000
O O11 0.108004 0.650509 0.807952
O O12 0.099581 0.483223 0.566404
#
# Coordination Sequence:
#
# PCOD8150417 Si02
#       6
#     8   8   8   4   8   8
#     4  11  24  50  77 105 144 183 233 294 370 422
#     4  12  24  43  62  97 140 184 240 288 336 405
#     4  12  26  41  66  97 140 188 237 293 343 403
#     4  10  24  46  82 108 136 180 232 302 362 440
#     4  12  27  46  70 105 142 193 239 287 356 420
#     4  12  27  45  71 103 145 191 239 289 352 424
#
# _framework density 21.918530000000001
#
# number of rings (size 3 to 8) (size 9 to 14) (size 15 to 20)
#    0.000    0.364    5.455    3.273    5.091    0.000 
#    0.000    5.455    0.000    0.000    0.000    0.000 
#    0.000    0.000    0.000    0.000    0.000    0.000 
#
# Total GULP energy -272648.008603 kJ/mol
# GULP energy per Si atom -12393.091300 kJ/mol
# Density = 2.186864 g / cm^3
# Si number density = 21.918530 Si / 1000 Ang^3
#
#
#
# Elastic Constant Matrix: (Units=GPa)
#
#
# Indices 1 2 3 4 5 6 
#
# 1 86.9238 19.9079 45.6599 0.0000 6.0251 0.0000
# 2 19.9079 117.4156 48.7365 0.0000 1.2902 0.0000
# 3 45.6599 48.7365 194.2707 0.0000 12.1911 0.0000
# 4 0.0000 0.0000 0.0000 27.7792 0.0000 3.5153
# 5 6.0251 1.2902 12.1911 0.0000 43.4229 0.0000
# 6 0.0000 0.0000 0.0000 3.5153 0.0000 15.0740
#
#
#
# Elastic Compliance Matrix: (Units=1/GPa)
#
#
# Indices 1 2 3 4 5 6 
#
# 1 0.013288 -0.001085 -0.002786 0.000000 -0.001029 0.000000
# 2 -0.001085 0.009602 -0.002184 0.000000 0.000478 0.000000
# 3 -0.002786 -0.002184 0.006435 0.000000 -0.001355 0.000000
# 4 0.000000 0.000000 0.000000 0.037093 0.000000 -0.008650
# 5 -0.001029 0.000478 -0.001355 0.000000 0.023538 0.000000
# 6 0.000000 0.000000 0.000000 -0.008650 0.000000 0.068357
#
#
# Mechanical properties :
#
#
# Convention : Reuss Voigt Hill
#
# Bulk Modulus (GPa) = 58.09040 69.69095 63.89068
# Shear Modulus (GPa) = 28.38306 36.20894 32.29600
#
# Velocity S-wave (km/s) = 3.60242 4.06886 3.84273
# Velocity P-wave (km/s) = 6.62297 7.34430 6.99294
#
# Compressibility (1/GPa) = 0.01721455
#
# Stress axis : x y z
#
# Youngs Moduli (GPa) = 75.25717 104.14577 155.39526
#
# Poissons Ratio (x) = 0.11301 0.43297
# Poissons Ratio (y) = 0.08166 0.33935
# Poissons Ratio (z) = 0.20968 0.22743
#
# Static dielectric constant tensor:
#      x y z
#    x 3.762860 0.000000 0.104330 
#    y 0.000000 3.967120 0.000000 
#    z 0.104330 0.000000 4.173550 
# 
# 
# High freq. dielectric constant tensor:
#      x y z
#    x 1.864130 0.000000 0.011200 
#    y 0.000000 1.845660 0.000000 
#    z 0.011200 0.000000 1.888680 
# 
# From -- ./inp_files/68384.got.cif
#   From: 2010.06.25/outbox.cif.g09.slc.cpg/sg15_35_cif.got.tgz:68384.got - 2010.06.28 07:06:18.
