data_PCOD8150486
_publ_section_title
;
Structure prediction by ZEFSAII (Michael W. Deem and Ramdas Pophale) SiO2 
 PCOD8150486
Probable space group: C 2/C
;
_chemical_formula_sum "Si O2"
_cell_formula_units_Z 44
_cell_length_a 11.385358
_cell_length_b 28.175826
_cell_length_c 8.796989
_cell_angle_alpha 90.000000
_cell_angle_beta 46.684053
_cell_angle_gamma 90.000000
_cell_volume 2053.237804
_symmetry_space_group_name_H-M "C 2/C"
_symmetry_group_IT_number 15
_symmetry_cell_setting 'monoclinic'
loop_
_space_group_symop_operation_xyz
x,y,z
-x,y,1/2-z
-x,-y,-z
x,-y,1/2+z
1/2+x,1/2+y,z
1/2-x,1/2+y,1/2-z
1/2-x,1/2-y,-z
1/2+x,1/2-y,1/2+z
loop_
_atom_site_type_symbol
_atom_site_label
_atom_site_fract_x
_atom_site_fract_y
_atom_site_fract_z
Si Si1 0.834091 0.809461 0.656599
Si Si2 0.279244 0.123237 0.706928
Si Si3 0.833216 0.895451 0.862350
Si Si4 0.466144 0.050395 0.957473
Si Si5 0.000000 0.859343 0.250000
Si Si6 0.524106 0.786553 0.551286
O O1 0.897230 0.848965 0.716457
O O2 0.645190 0.805130 0.860723
O O3 0.925217 0.759356 0.592196
O O4 0.871122 0.827207 0.453870
O O5 0.417298 0.084887 0.549666
O O6 0.337708 0.174741 0.600365
O O7 0.112416 0.109948 0.765962
O O8 0.256837 0.122454 0.907475
O O9 0.000000 0.923991 0.750000
O O10 0.717029 0.929308 0.863540
O O11 0.500000 0.046815 0.750000
O O12 0.500000 0.000000 0.000000
O O13 0.500000 0.774086 0.750000
#
# Coordination Sequence:
#
# PCOD8150486 Si02
#       6
#     8   8   8   8   4   8
#     4  12  24  39  63  93 137 183 230 275 325 385
#     4  11  24  43  66  98 134 176 222 280 335 392
#     4  11  24  45  67  98 139 173 217 280 334 395
#     4  10  24  48  72  98 133 167 216 277 339 407
#     4  12  22  40  64  96 134 180 230 274 330 390
#     4  12  23  39  62  95 138 181 234 278 319 384
#
# _framework density 21.429568
#
# number of rings (size 3 to 8) (size 9 to 14) (size 15 to 20)
#    0.000    0.727    6.364    1.636    0.000    2.909 
#    1.636    1.818    0.000    0.000    0.000    0.000 
#    0.000    0.000    0.000    0.000    0.000    0.000 
#
# Total GULP energy -272693.672867 kJ/mol
# GULP energy per Si atom -12395.166949 kJ/mol
# Density = 2.138079 g / cm^3
# Si number density = 21.429568 Si / 1000 Ang^3
#
#
#
# Elastic Constant Matrix: (Units=GPa)
#
#
# Indices 1 2 3 4 5 6 
#
# 1 147.7290 66.1310 33.0775 0.0000 -28.1059 0.0000
# 2 66.1310 131.8257 33.5920 0.0000 -7.8202 0.0000
# 3 33.0775 33.5920 72.8085 0.0000 -10.6622 0.0000
# 4 0.0000 0.0000 0.0000 27.1256 0.0000 4.8725
# 5 -28.1059 -7.8202 -10.6622 0.0000 37.8952 0.0000
# 6 0.0000 0.0000 0.0000 4.8725 0.0000 23.6824
#
#
#
# Elastic Compliance Matrix: (Units=1/GPa)
#
#
# Indices 1 2 3 4 5 6 
#
# 1 0.010297 -0.004347 -0.001758 0.000000 0.006245 0.000000
# 2 -0.004347 0.010449 -0.003131 0.000000 -0.001949 0.000000
# 3 -0.001758 -0.003131 0.016367 0.000000 0.002655 0.000000
# 4 0.000000 0.000000 0.000000 0.038280 0.000000 -0.007876
# 5 0.006245 -0.001949 0.002655 0.000000 0.031365 0.000000
# 6 0.000000 0.000000 0.000000 -0.007876 0.000000 0.043846
#
#
# Mechanical properties :
#
#
# Convention : Reuss Voigt Hill
#
# Bulk Modulus (GPa) = 53.64759 68.66268 61.15514
# Shear Modulus (GPa) = 28.52422 32.37816 30.45119
#
# Velocity S-wave (km/s) = 3.65234 3.89126 3.77369
# Velocity P-wave (km/s) = 6.54789 7.23186 6.89836
#
# Compressibility (1/GPa) = 0.01864017
#
# Stress axis : x y z
#
# Youngs Moduli (GPa) = 97.11667 95.70452 61.09954
#
# Poissons Ratio (x) = 0.41604 0.10740
# Poissons Ratio (y) = 0.42218 0.19132
# Poissons Ratio (z) = 0.17071 0.29968
#
# Static dielectric constant tensor:
#      x y z
#    x 4.129130 0.000000 -0.273740 
#    y 0.000000 3.675820 0.000000 
#    z -0.273740 0.000000 3.962630 
# 
# 
# High freq. dielectric constant tensor:
#      x y z
#    x 1.855270 0.000000 -0.014060 
#    y 0.000000 1.811590 0.000000 
#    z -0.014060 0.000000 1.846940 
# 
# From -- ./inp_files/33998.got.cif
#   From: 2010.06.25/outbox.cif.g09.slc.cpg/sg15_17_cif.got.tgz:33998.got - 2010.06.28 07:06:18.
