data_PCOD8150279
_publ_section_title
;
Structure prediction by ZEFSAII (Michael W. Deem and Ramdas Pophale) SiO2 
 PCOD8150279
Probable space group: C 2/C
;
_chemical_formula_sum "Si O2"
_cell_formula_units_Z 40
_cell_length_a 8.467374
_cell_length_b 23.892648
_cell_length_c 8.490950
_cell_angle_alpha 90.000000
_cell_angle_beta 87.555971
_cell_angle_gamma 90.000000
_cell_volume 1716.224423
_symmetry_space_group_name_H-M "C 2/C"
_symmetry_group_IT_number 15
_symmetry_cell_setting 'monoclinic'
loop_
_space_group_symop_operation_xyz
x,y,z
-x,y,1/2-z
-x,-y,-z
x,-y,1/2+z
1/2+x,1/2+y,z
1/2-x,1/2+y,1/2-z
1/2-x,1/2-y,-z
1/2+x,1/2-y,1/2+z
loop_
_atom_site_type_symbol
_atom_site_label
_atom_site_fract_x
_atom_site_fract_y
_atom_site_fract_z
Si Si1 0.814002 0.692568 0.939353
Si Si2 0.320079 0.192845 0.569460
Si Si3 0.814832 0.925479 0.447575
Si Si4 0.813508 0.507859 0.263309
Si Si5 0.614524 0.404504 0.597832
O O1 0.787695 0.690082 0.755232
O O2 0.996342 0.687324 0.979762
O O3 0.750000 0.750000 0.000000
O O4 0.709860 0.648426 0.036165
O O5 0.250000 0.250000 0.500000
O O6 0.237268 0.137536 0.502881
O O7 0.732807 0.971070 0.563549
O O8 0.004122 0.928119 0.461004
O O9 0.760546 0.945940 0.274799
O O10 0.744421 0.549753 0.135579
O O11 0.000000 0.503366 0.250000
O O12 0.500000 0.389498 0.750000
#
# Coordination Sequence:
#
# PCOD8150279 Si02
#       5
#     8   8   8   8   8
#     4  11  26  45  77 101 142 188 238 293 354 427
#     4  11  27  48  72 108 141 184 241 293 362 418
#     4  11  25  44  70 102 145 184 237 293 349 429
#     4  11  24  42  71 100 140 188 238 291 354 413
#     4  10  24  45  70 106 144 185 236 292 355 424
#
# _framework density 23.306975999999999
#
# number of rings (size 3 to 8) (size 9 to 14) (size 15 to 20)
#    0.000    1.200    0.000    3.600   14.000    3.200 
#    0.000    0.000    0.000    0.000    0.000    0.000 
#    0.000    0.000    0.000    0.000    0.000    0.000 
#
# Total GULP energy -247969.065776 kJ/mol
# GULP energy per Si atom -12398.453289 kJ/mol
# Density = 2.325393 g / cm^3
# Si number density = 23.306976 Si / 1000 Ang^3
#
#
#
# Elastic Constant Matrix: (Units=GPa)
#
#
# Indices 1 2 3 4 5 6 
#
# 1 165.7880 62.1669 61.4179 0.0000 12.1608 0.0000
# 2 62.1669 152.4987 56.1640 0.0000 -7.4954 0.0000
# 3 61.4179 56.1640 53.2944 0.0000 6.8778 0.0000
# 4 0.0000 0.0000 0.0000 43.5471 0.0000 3.7032
# 5 12.1608 -7.4954 6.8778 0.0000 35.6667 0.0000
# 6 0.0000 0.0000 0.0000 3.7032 0.0000 43.8827
#
#
#
# Elastic Compliance Matrix: (Units=1/GPa)
#
#
# Indices 1 2 3 4 5 6 
#
# 1 0.010584 0.000093 -0.012133 0.000000 -0.001249 0.000000
# 2 0.000093 0.011487 -0.012839 0.000000 0.004858 0.000000
# 3 -0.012133 -0.012839 0.047268 0.000000 -0.007676 0.000000
# 4 0.000000 0.000000 0.000000 0.023130 0.000000 -0.001952
# 5 -0.001249 0.004858 -0.007676 0.000000 0.030965 0.000000
# 6 0.000000 0.000000 0.000000 -0.001952 0.000000 0.022953
#
#
# Mechanical properties :
#
#
# Convention : Reuss Voigt Hill
#
# Bulk Modulus (GPa) = 51.07642 81.23098 66.15370
# Shear Modulus (GPa) = 24.67042 37.40811 31.03926
#
# Velocity S-wave (km/s) = 3.25699 4.01061 3.65329
# Velocity P-wave (km/s) = 6.00884 7.50833 6.80004
#
# Compressibility (1/GPa) = 0.01957851
#
# Stress axis : x y z
#
# Youngs Moduli (GPa) = 94.48595 87.05428 21.15598
#
# Poissons Ratio (x) = -0.00807 0.25669
# Poissons Ratio (y) = -0.00876 0.27163
# Poissons Ratio (z) = 1.14643 1.11773
#
# Static dielectric constant tensor:
#      x y z
#    x 4.417900 0.000000 0.114900 
#    y 0.000000 4.254810 0.000000 
#    z 0.114900 0.000000 4.327590 
# 
# 
# High freq. dielectric constant tensor:
#      x y z
#    x 1.938700 0.000000 0.004980 
#    y 0.000000 1.936300 0.000000 
#    z 0.004980 0.000000 1.930290 
# 
# From -- ./inp_files/23665.got.cif
#   From: 2010.06.25/outbox.cif.g09.slc.cpg/sg15_12_cif.got.tgz:23665.got - 2010.06.28 07:06:18.
