data_PCOD8150103
_publ_section_title
;
Structure prediction by ZEFSAII (Michael W. Deem and Ramdas Pophale) SiO2 
 PCOD8150103
Probable space group: C 2/C
;
_chemical_formula_sum "Si O2"
_cell_formula_units_Z 44
_cell_length_a 9.717908
_cell_length_b 19.606403
_cell_length_c 13.272729
_cell_angle_alpha 90.000000
_cell_angle_beta 54.610192
_cell_angle_gamma 90.000000
_cell_volume 2061.633818
_symmetry_space_group_name_H-M "C 2/C"
_symmetry_group_IT_number 15
_symmetry_cell_setting 'monoclinic'
loop_
_space_group_symop_operation_xyz
x,y,z
-x,y,1/2-z
-x,-y,-z
x,-y,1/2+z
1/2+x,1/2+y,z
1/2-x,1/2+y,1/2-z
1/2-x,1/2-y,-z
1/2+x,1/2-y,1/2+z
loop_
_atom_site_type_symbol
_atom_site_label
_atom_site_fract_x
_atom_site_fract_y
_atom_site_fract_z
Si Si1 0.772135 0.827176 0.513471
Si Si2 0.500000 0.898062 0.750000
Si Si3 0.651186 0.691027 0.907074
Si Si4 0.351720 0.030595 0.128635
Si Si5 0.312104 0.668730 0.374889
Si Si6 0.810613 0.891909 0.297678
O O1 0.750000 0.750000 0.500000
O O2 0.652798 0.849250 0.654586
O O3 0.709649 0.868665 0.440726
O O4 0.962080 0.835550 0.471039
O O5 0.564846 0.950059 0.803639
O O6 0.691690 0.771965 0.878251
O O7 0.751237 0.650355 0.775420
O O8 0.700798 0.670349 0.998743
O O9 0.258464 0.094893 0.120462
O O10 0.212978 0.972219 0.209755
O O11 0.500000 0.000000 0.000000
O O12 0.500000 0.679068 0.250000
O O13 0.000000 0.873666 0.250000
#
# Coordination Sequence:
#
# PCOD8150103 Si02
#       6
#     8   4   8   8   8   8
#     4  11  24  41  68 102 138 176 233 278 342 407
#     4  12  26  44  70 100 140 190 222 290 346 404
#     4  10  25  43  72 100 134 183 224 294 341 400
#     4  12  26  44  66 101 137 182 231 278 343 417
#     4  11  25  46  69 101 137 178 234 282 346 411
#     4  10  24  44  66  98 135 178 228 284 340 408
#
# _framework density 21.342296999999999
#
# number of rings (size 3 to 8) (size 9 to 14) (size 15 to 20)
#    0.000    1.091    1.818    2.727   11.455    1.455 
#    0.000    4.545    0.000    0.000    0.000    0.000 
#    0.000    0.000    0.000    0.000    0.000    0.000 
#
# Total GULP energy -272696.161685 kJ/mol
# GULP energy per Si atom -12395.280077 kJ/mol
# Density = 2.129372 g / cm^3
# Si number density = 21.342297 Si / 1000 Ang^3
#
#
#
# Elastic Constant Matrix: (Units=GPa)
#
#
# Indices 1 2 3 4 5 6 
#
# 1 91.7895 56.8478 47.5868 0.0000 19.8198 0.0000
# 2 56.8478 178.5559 58.0058 0.0000 18.5494 0.0000
# 3 47.5868 58.0058 126.8177 0.0000 11.2198 0.0000
# 4 0.0000 0.0000 0.0000 42.3187 0.0000 1.1616
# 5 19.8198 18.5494 11.2198 0.0000 34.6508 0.0000
# 6 0.0000 0.0000 0.0000 1.1616 0.0000 47.0037
#
#
#
# Elastic Compliance Matrix: (Units=1/GPa)
#
#
# Indices 1 2 3 4 5 6 
#
# 1 0.016389 -0.003225 -0.004116 0.000000 -0.006315 0.000000
# 2 -0.003225 0.007452 -0.002068 0.000000 -0.001475 0.000000
# 3 -0.004116 -0.002068 0.010367 0.000000 0.000105 0.000000
# 4 0.000000 0.000000 0.000000 0.023646 0.000000 -0.000584
# 5 -0.006315 -0.001475 0.000105 0.000000 0.033227 0.000000
# 6 0.000000 0.000000 0.000000 -0.000584 0.000000 0.021289
#
#
# Mechanical properties :
#
#
# Convention : Reuss Voigt Hill
#
# Bulk Modulus (GPa) = 64.97659 80.22710 72.60185
# Shear Modulus (GPa) = 36.67866 40.44281 38.56074
#
# Velocity S-wave (km/s) = 4.15009 4.35784 4.25523
# Velocity P-wave (km/s) = 7.31268 7.93683 7.63114
#
# Compressibility (1/GPa) = 0.01539016
#
# Stress axis : x y z
#
# Youngs Moduli (GPa) = 61.01562 134.18787 96.46430
#
# Poissons Ratio (x) = 0.43271 0.39706
# Poissons Ratio (y) = 0.19676 0.19950
# Poissons Ratio (z) = 0.25115 0.27751
#
# Static dielectric constant tensor:
#      x y z
#    x 3.825220 0.000000 0.274960 
#    y 0.000000 3.984260 0.000000 
#    z 0.274960 0.000000 4.199170 
# 
# 
# High freq. dielectric constant tensor:
#      x y z
#    x 1.840540 0.000000 0.009900 
#    y 0.000000 1.848160 0.000000 
#    z 0.009900 0.000000 1.852100 
# 
# From -- ./inp_files/134747.got.cif
#   From: 2010.06.25/outbox.cif.g09.slc.cpg/sg15_68_cif.got.tgz:134747.got - 2010.06.28 07:06:18.
