data_PCOD8150986
_publ_section_title
;
Structure prediction by ZEFSAII (Michael W. Deem and Ramdas Pophale) SiO2 
 PCOD8150986
Probable space group: C 2/C
;
_chemical_formula_sum "Si O2"
_cell_formula_units_Z 52
_cell_length_a 20.655405
_cell_length_b 19.676660
_cell_length_c 10.262959
_cell_angle_alpha 90.000000
_cell_angle_beta 139.538746
_cell_angle_gamma 90.000000
_cell_volume 2706.811446
_symmetry_space_group_name_H-M "C 2/C"
_symmetry_group_IT_number 15
_symmetry_cell_setting 'monoclinic'
loop_
_space_group_symop_operation_xyz
x,y,z
-x,y,1/2-z
-x,-y,-z
x,-y,1/2+z
1/2+x,1/2+y,z
1/2-x,1/2+y,1/2-z
1/2-x,1/2-y,-z
1/2+x,1/2-y,1/2+z
loop_
_atom_site_type_symbol
_atom_site_label
_atom_site_fract_x
_atom_site_fract_y
_atom_site_fract_z
Si Si1 0.022365 0.191625 0.020603
Si Si2 0.332455 0.499224 0.450189
Si Si3 0.062397 0.695085 0.964679
Si Si4 0.256474 0.693506 0.121352
Si Si5 0.500000 0.065930 0.750000
Si Si6 0.500000 0.606749 0.750000
Si Si7 0.714457 0.037406 0.015652
Si Si8 0.000000 0.890359 0.750000
O O1 0.136105 0.198929 0.147964
O O2 0.022569 0.152955 0.157563
O O3 0.970819 0.265796 0.955337
O O4 0.965439 0.151315 0.820602
O O5 0.403203 0.564172 0.564670
O O6 0.274990 0.502946 0.225822
O O7 0.251138 0.499279 0.440757
O O8 0.401743 0.433328 0.566055
O O9 0.000000 0.728809 0.750000
O O10 0.035868 0.614460 0.926541
O O11 0.178878 0.709191 0.118109
O O12 0.231735 0.618381 0.028197
O O13 0.250000 0.750000 0.000000
O O14 0.404403 0.021793 0.648569
#
# Coordination Sequence:
#
# PCOD8150986 Si02
#       8
#     8   8   8   8   4   4   8   4
#     4  12  19  36  56  84 112 150 179 234 280 342
#     4  11  22  36  53  87 118 152 184 230 277 344
#     4   9  18  31  56  84 100 131 192 238 264 315
#     4  11  18  34  59  82 104 144 193 236 267 321
#     4   8  19  38  59  82 105 147 196 250 262 324
#     4  11  24  34  53  84 127 148 172 225 296 339
#     4  11  21  37  59  81 117 147 190 238 280 327
#     4  11  19  32  58  82 112 149 196 219 268 347
#
# _framework density 19.210794
#
# number of rings (size 3 to 8) (size 9 to 14) (size 15 to 20)
#    0.462    0.923    5.385    0.923    0.000    3.077 
#    0.000    0.769    0.000    0.000    0.000    0.000 
#    0.000    0.000    0.000    0.000    0.000    0.000 
#
# Total GULP energy -322248.734382 kJ/mol
# GULP energy per Si atom -12394.182092 kJ/mol
# Density = 1.916707 g / cm^3
# Si number density = 19.210794 Si / 1000 Ang^3
#
#
#
# Elastic Constant Matrix: (Units=GPa)
#
#
# Indices 1 2 3 4 5 6 
#
# 1 111.5963 21.5976 37.5745 0.0000 20.6678 0.0000
# 2 21.5976 35.0818 13.3167 0.0000 -9.1705 0.0000
# 3 37.5745 13.3167 59.4346 0.0000 2.4152 0.0000
# 4 0.0000 0.0000 0.0000 4.5386 0.0000 -4.8667
# 5 20.6678 -9.1705 2.4152 0.0000 37.4501 0.0000
# 6 0.0000 0.0000 0.0000 -4.8667 0.0000 21.1514
#
#
#
# Elastic Compliance Matrix: (Units=1/GPa)
#
#
# Indices 1 2 3 4 5 6 
#
# 1 0.014951 -0.009179 -0.006987 0.000000 -0.010048 0.000000
# 2 -0.009179 0.039450 -0.003644 0.000000 0.014961 0.000000
# 3 -0.006987 -0.003644 0.021996 0.000000 0.001545 0.000000
# 4 0.000000 0.000000 0.000000 0.292503 0.000000 0.067302
# 5 -0.010048 0.014961 0.001545 0.000000 0.035811 0.000000
# 6 0.000000 0.000000 0.000000 0.067302 0.000000 0.062764
#
#
# Mechanical properties :
#
#
# Convention : Reuss Voigt Hill
#
# Bulk Modulus (GPa) = 27.19102 39.01004 33.10053
# Shear Modulus (GPa) = 9.62738 21.53628 15.58183
#
# Velocity S-wave (km/s) = 2.24105 3.35184 2.85107
# Velocity P-wave (km/s) = 4.56959 5.94392 5.30148
#
# Compressibility (1/GPa) = 0.03677685
#
# Stress axis : x y z
#
# Youngs Moduli (GPa) = 66.88695 25.34886 45.46267
#
# Poissons Ratio (x) = 0.23266 0.31764
# Poissons Ratio (y) = 0.61392 0.16568
# Poissons Ratio (z) = 0.46734 0.09238
#
# Static dielectric constant tensor:
#      x y z
#    x 3.761820 0.000000 0.306200 
#    y 0.000000 3.444510 0.000000 
#    z 0.306200 0.000000 3.362920 
# 
# 
# High freq. dielectric constant tensor:
#      x y z
#    x 1.754030 0.000000 0.023030 
#    y 0.000000 1.735080 0.000000 
#    z 0.023030 0.000000 1.721520 
# 
# From -- ./inp_files/50742.got.cif
#   From: 2010.06.25/outbox.cif.g09.slc.cpg/sg15_26_cif.got.tgz:50742.got - 2010.06.28 07:06:18.
