data_PCOD8150387
_publ_section_title
;
Structure prediction by ZEFSAII (Michael W. Deem and Ramdas Pophale) SiO2 
 PCOD8150387
Probable space group: C 2/C
;
_chemical_formula_sum "Si O2"
_cell_formula_units_Z 36
_cell_length_a 8.063204
_cell_length_b 30.562755
_cell_length_c 8.426182
_cell_angle_alpha 90.000000
_cell_angle_beta 57.107302
_cell_angle_gamma 90.000000
_cell_volume 1743.610555
_symmetry_space_group_name_H-M "C 2/C"
_symmetry_group_IT_number 15
_symmetry_cell_setting 'monoclinic'
loop_
_space_group_symop_operation_xyz
x,y,z
-x,y,1/2-z
-x,-y,-z
x,-y,1/2+z
1/2+x,1/2+y,z
1/2-x,1/2+y,1/2-z
1/2-x,1/2-y,-z
1/2+x,1/2-y,1/2+z
loop_
_atom_site_type_symbol
_atom_site_label
_atom_site_fract_x
_atom_site_fract_y
_atom_site_fract_z
Si Si1 0.000000 0.510137 0.250000
Si Si2 0.551431 0.698109 0.905483
Si Si3 0.179195 0.636066 0.553952
Si Si4 0.728643 0.545022 0.123019
Si Si5 0.660460 0.206964 0.302020
O O1 0.145403 0.540029 0.280628
O O2 0.847486 0.480923 0.427602
O O3 0.500000 0.691015 0.750000
O O4 0.678698 0.657033 0.890151
O O5 0.663494 0.744099 0.871335
O O6 0.368502 0.696935 0.117868
O O7 0.283492 0.596289 0.410173
O O8 0.108993 0.672825 0.466295
O O9 0.000000 0.617048 0.750000
O O10 0.500000 0.527944 0.250000
O O11 0.500000 0.202780 0.250000
#
# Coordination Sequence:
#
# PCOD8150387 Si02
#       5
#     4   8   8   8   8
#     4  10  24  46  72  98 136 168 216 268 338 396
#     4  11  22  40  59  91 124 174 214 267 324 383
#     4  12  24  41  61  93 129 166 219 270 320 385
#     4  11  23  45  70 102 131 174 215 268 334 399
#     4  11  22  38  62  87 127 170 217 267 324 381
#
# _framework density 20.646813999999999
#
# number of rings (size 3 to 8) (size 9 to 14) (size 15 to 20)
#    0.000    0.889    1.111    8.667    1.556    0.000 
#    4.000    1.111    0.000    0.000    0.000    0.000 
#    0.000    0.000    0.000    0.000    0.000    0.000 
#
# Total GULP energy -223200.926548 kJ/mol
# GULP energy per Si atom -12400.051475 kJ/mol
# Density = 2.059982 g / cm^3
# Si number density = 20.646814 Si / 1000 Ang^3
#
#
#
# Elastic Constant Matrix: (Units=GPa)
#
#
# Indices 1 2 3 4 5 6 
#
# 1 107.7665 45.5767 51.5691 0.0000 -3.3651 0.0000
# 2 45.5767 107.2378 31.5463 0.0000 11.4747 0.0000
# 3 51.5691 31.5463 114.6830 0.0000 -9.6814 0.0000
# 4 0.0000 0.0000 0.0000 29.1344 0.0000 3.8280
# 5 -3.3651 11.4747 -9.6814 0.0000 44.8817 0.0000
# 6 0.0000 0.0000 0.0000 3.8280 0.0000 51.3026
#
#
#
# Elastic Compliance Matrix: (Units=1/GPa)
#
#
# Indices 1 2 3 4 5 6 
#
# 1 0.013462 -0.004449 -0.004734 0.000000 0.001125 0.000000
# 2 -0.004449 0.012106 -0.001649 0.000000 -0.003784 0.000000
# 3 -0.004734 -0.001649 0.011518 0.000000 0.002551 0.000000
# 4 0.000000 0.000000 0.000000 0.034664 0.000000 -0.002586
# 5 0.001125 -0.003784 0.002551 0.000000 0.023883 0.000000
# 6 0.000000 0.000000 0.000000 -0.002586 0.000000 0.019685
#
#
# Mechanical properties :
#
#
# Convention : Reuss Voigt Hill
#
# Bulk Modulus (GPa) = 64.84921 65.23019 65.03970
# Shear Modulus (GPa) = 35.18116 38.46340 36.82228
#
# Velocity S-wave (km/s) = 4.13237 4.32084 4.22766
# Velocity P-wave (km/s) = 7.36517 7.52029 7.44313
#
# Compressibility (1/GPa) = 0.01542039
#
# Stress axis : x y z
#
# Youngs Moduli (GPa) = 74.28560 82.60425 86.82413
#
# Poissons Ratio (x) = 0.36750 0.41106
# Poissons Ratio (y) = 0.33049 0.14317
# Poissons Ratio (z) = 0.35170 0.13621
#
# Static dielectric constant tensor:
#      x y z
#    x 3.773600 0.000000 0.029960 
#    y 0.000000 3.631440 0.000000 
#    z 0.029960 0.000000 3.964100 
# 
# 
# High freq. dielectric constant tensor:
#      x y z
#    x 1.817690 0.000000 -0.001060 
#    y 0.000000 1.799980 0.000000 
#    z -0.001060 0.000000 1.831320 
# 
# From -- ./inp_files/24314.got.cif
#   From: 2010.06.25/outbox.cif.g09.slc.cpg/sg15_13_cif.got.tgz:24314.got - 2010.06.28 07:06:18.
