data_PCOD8150276
_publ_section_title
;
Structure prediction by ZEFSAII (Michael W. Deem and Ramdas Pophale) SiO2 
 PCOD8150276
Probable space group: C 2/C
;
_chemical_formula_sum "Si O2"
_cell_formula_units_Z 52
_cell_length_a 21.024815
_cell_length_b 11.688053
_cell_length_c 11.817293
_cell_angle_alpha 90.000000
_cell_angle_beta 122.572092
_cell_angle_gamma 90.000000
_cell_volume 2447.219596
_symmetry_space_group_name_H-M "C 2/C"
_symmetry_group_IT_number 15
_symmetry_cell_setting 'monoclinic'
loop_
_space_group_symop_operation_xyz
x,y,z
-x,y,1/2-z
-x,-y,-z
x,-y,1/2+z
1/2+x,1/2+y,z
1/2-x,1/2+y,1/2-z
1/2-x,1/2-y,-z
1/2+x,1/2-y,1/2+z
loop_
_atom_site_type_symbol
_atom_site_label
_atom_site_fract_x
_atom_site_fract_y
_atom_site_fract_z
Si Si1 0.857633 0.732300 0.709260
Si Si2 0.000000 0.850340 0.750000
Si Si3 0.926853 0.007839 0.505769
Si Si4 0.416642 0.269604 0.137542
Si Si5 0.797391 0.651574 0.418115
Si Si6 0.669765 0.106089 0.594932
Si Si7 0.835149 0.160203 0.784105
O O1 0.827138 0.661438 0.573935
O O2 0.793947 0.830040 0.674654
O O3 0.866077 0.644094 0.820576
O O4 0.943226 0.777899 0.774857
O O5 0.059072 0.928162 0.873420
O O6 0.856663 0.959568 0.365965
O O7 0.909488 0.136352 0.530124
O O8 0.000000 0.000000 0.500000
O O9 0.500000 0.234383 0.250000
O O10 0.385477 0.319812 0.223548
O O11 0.377457 0.153913 0.056687
O O12 0.822939 0.529359 0.397867
O O13 0.843559 0.740727 0.385420
O O14 0.751432 0.159985 0.657423
#
# Coordination Sequence:
#
# PCOD8150276 Si02
#       7
#     8   4   8   8   8   8   8
#     4  10  24  45  70 102 132 181 236 284 352 418
#     4  12  22  42  70 100 134 176 232 290 350 406
#     4  12  23  41  70 103 137 178 227 294 351 402
#     4  12  26  44  67 107 143 179 229 286 356 413
#     4  10  24  46  67  98 134 180 234 282 344 418
#     4  11  27  43  71  97 141 187 226 287 345 428
#     4  11  25  44  68 101 136 181 233 288 343 413
#
# _framework density 21.248602999999999
#
# number of rings (size 3 to 8) (size 9 to 14) (size 15 to 20)
#    0.000    0.923    3.846    1.385   10.769    0.000 
#    1.385    1.538    0.000    0.000    0.000    0.000 
#    0.000    0.000    0.000    0.000    0.000    0.000 
#
# Total GULP energy -322404.986142 kJ/mol
# GULP energy per Si atom -12400.191775 kJ/mol
# Density = 2.120024 g / cm^3
# Si number density = 21.248603 Si / 1000 Ang^3
#
#
#
# Elastic Constant Matrix: (Units=GPa)
#
#
# Indices 1 2 3 4 5 6 
#
# 1 99.7098 28.7003 23.1977 0.0000 4.5532 0.0000
# 2 28.7003 113.7134 38.3098 0.0000 6.9896 0.0000
# 3 23.1977 38.3098 104.6213 0.0000 1.6497 0.0000
# 4 0.0000 0.0000 0.0000 28.8868 0.0000 -0.1629
# 5 4.5532 6.9896 1.6497 0.0000 29.8013 0.0000
# 6 0.0000 0.0000 0.0000 -0.1629 0.0000 32.2795
#
#
#
# Elastic Compliance Matrix: (Units=1/GPa)
#
#
# Indices 1 2 3 4 5 6 
#
# 1 0.011088 -0.002178 -0.001644 0.000000 -0.001092 0.000000
# 2 -0.002178 0.010599 -0.003367 0.000000 -0.001967 0.000000
# 3 -0.001644 -0.003367 0.011149 0.000000 0.000424 0.000000
# 4 0.000000 0.000000 0.000000 0.034619 0.000000 0.000175
# 5 -0.001092 -0.001967 0.000424 0.000000 0.034160 0.000000
# 6 0.000000 0.000000 0.000000 0.000175 0.000000 0.030980
#
#
# Mechanical properties :
#
#
# Convention : Reuss Voigt Hill
#
# Bulk Modulus (GPa) = 54.17498 55.38446 54.77972
# Shear Modulus (GPa) = 32.65277 33.38263 33.01770
#
# Velocity S-wave (km/s) = 3.92433 3.96795 3.94620
# Velocity P-wave (km/s) = 6.78859 6.86399 6.82640
#
# Compressibility (1/GPa) = 0.01845871
#
# Stress axis : x y z
#
# Youngs Moduli (GPa) = 90.18552 94.34905 89.69318
#
# Poissons Ratio (x) = 0.20545 0.14746
# Poissons Ratio (y) = 0.19639 0.30202
# Poissons Ratio (z) = 0.14827 0.31769
#
# Static dielectric constant tensor:
#      x y z
#    x 3.643200 0.000000 -0.300440 
#    y 0.000000 3.796040 0.000000 
#    z -0.300440 0.000000 3.977340 
# 
# 
# High freq. dielectric constant tensor:
#      x y z
#    x 1.840810 0.000000 -0.008370 
#    y 0.000000 1.821910 0.000000 
#    z -0.008370 0.000000 1.847420 
# 
# From -- ./inp_files/117921.got.cif
#   From: 2010.06.25/outbox.cif.g09.slc.cpg/sg15_59_cif.got.tgz:117921.got - 2010.06.28 07:06:18.
