data_PCOD8150356
_publ_section_title
;
Structure prediction by ZEFSAII (Michael W. Deem and Ramdas Pophale) SiO2 
 PCOD8150356
Probable space group: C 2/C
;
_chemical_formula_sum "Si O2"
_cell_formula_units_Z 28
_cell_length_a 12.071881
_cell_length_b 19.269006
_cell_length_c 8.143723
_cell_angle_alpha 90.000000
_cell_angle_beta 142.440716
_cell_angle_gamma 90.000000
_cell_volume 1154.753735
_symmetry_space_group_name_H-M "C 2/C"
_symmetry_group_IT_number 15
_symmetry_cell_setting 'monoclinic'
loop_
_space_group_symop_operation_xyz
x,y,z
-x,y,1/2-z
-x,-y,-z
x,-y,1/2+z
1/2+x,1/2+y,z
1/2-x,1/2+y,1/2-z
1/2-x,1/2-y,-z
1/2+x,1/2-y,1/2+z
loop_
_atom_site_type_symbol
_atom_site_label
_atom_site_fract_x
_atom_site_fract_y
_atom_site_fract_z
Si Si1 0.500000 0.467586 0.750000
Si Si2 0.307948 0.696273 0.710945
Si Si3 0.378775 0.593412 0.423963
Si Si4 0.029586 0.323912 0.470907
O O1 0.363940 0.517555 0.488529
O O2 0.611908 0.417347 0.761397
O O3 0.250000 0.750000 0.500000
O O4 0.140915 0.661583 0.611252
O O5 0.436023 0.633601 0.797324
O O6 0.427256 0.741611 0.979498
O O7 0.198151 0.636065 0.253608
O O8 0.000000 0.349232 0.250000
#
# Coordination Sequence:
#
# PCOD8150356 Si02
#       4
#     4   8   8   8
#     4  10  24  46  70  92 134 204 220 278 332 408
#     4  12  25  41  70 107 140 176 227 289 359 411
#     4  11  24  46  69  97 143 176 239 276 339 412
#     4  12  25  41  69 107 140 177 224 290 360 408
#
# _framework density 24.247596000000001
#
# number of rings (size 3 to 8) (size 9 to 14) (size 15 to 20)
#    0.000    0.571    2.857    5.143    2.000    0.000 
#    0.000   15.714    0.000    0.000    0.000    0.000 
#    0.000    0.000    0.000    0.000    0.000    0.000 
#
# Total GULP energy -173624.499349 kJ/mol
# GULP energy per Si atom -12401.749953 kJ/mol
# Density = 2.419241 g / cm^3
# Si number density = 24.247596 Si / 1000 Ang^3
#
#
#
# Elastic Constant Matrix: (Units=GPa)
#
#
# Indices 1 2 3 4 5 6 
#
# 1 182.4269 37.8920 52.4523 0.0000 20.3664 0.0000
# 2 37.8920 84.4140 18.5620 0.0000 15.2491 0.0000
# 3 52.4523 18.5620 97.1165 0.0000 18.7103 0.0000
# 4 0.0000 0.0000 0.0000 29.7277 0.0000 -7.5601
# 5 20.3664 15.2491 18.7103 0.0000 48.4567 0.0000
# 6 0.0000 0.0000 0.0000 -7.5601 0.0000 39.4727
#
#
#
# Elastic Compliance Matrix: (Units=1/GPa)
#
#
# Indices 1 2 3 4 5 6 
#
# 1 0.006964 -0.002255 -0.003136 0.000000 -0.001006 0.000000
# 2 -0.002255 0.013579 -0.000796 0.000000 -0.003018 0.000000
# 3 -0.003136 -0.000796 0.012792 0.000000 -0.003371 0.000000
# 4 0.000000 0.000000 0.000000 0.035361 0.000000 0.006773
# 5 -0.001006 -0.003018 -0.003371 0.000000 0.023311 0.000000
# 6 0.000000 0.000000 0.000000 0.006773 0.000000 0.026631
#
#
# Mechanical properties :
#
#
# Convention : Reuss Voigt Hill
#
# Bulk Modulus (GPa) = 47.70790 64.64111 56.17450
# Shear Modulus (GPa) = 36.23187 40.53484 38.38336
#
# Velocity S-wave (km/s) = 3.86974 4.09309 3.98298
# Velocity P-wave (km/s) = 6.29957 7.00389 6.66104
#
# Compressibility (1/GPa) = 0.02096089
#
# Stress axis : x y z
#
# Youngs Moduli (GPa) = 143.59310 73.64473 78.17100
#
# Poissons Ratio (x) = 0.16604 0.24518
# Poissons Ratio (y) = 0.32374 0.06224
# Poissons Ratio (z) = 0.45038 0.05863
#
# Static dielectric constant tensor:
#      x y z
#    x 4.495950 0.000000 -0.224930 
#    y 0.000000 4.306660 0.000000 
#    z -0.224930 0.000000 4.330570 
# 
# 
# High freq. dielectric constant tensor:
#      x y z
#    x 1.984020 0.000000 -0.022000 
#    y 0.000000 1.954310 0.000000 
#    z -0.022000 0.000000 1.957180 
# 
# From -- ./inp_files/29990.got.cif
#   From: 2010.06.25/outbox.cif.g09.slc.cpg/sg15_15_cif.got.tgz:29990.got - 2010.06.28 07:06:18.
