data_PCOD8150553
_publ_section_title
;
Structure prediction by ZEFSAII (Michael W. Deem and Ramdas Pophale) SiO2 
 PCOD8150553
Probable space group: C 2/C
;
_chemical_formula_sum "Si O2"
_cell_formula_units_Z 40
_cell_length_a 7.595217
_cell_length_b 25.774855
_cell_length_c 9.488254
_cell_angle_alpha 90.000000
_cell_angle_beta 89.618090
_cell_angle_gamma 90.000000
_cell_volume 1857.432634
_symmetry_space_group_name_H-M "C 2/C"
_symmetry_group_IT_number 15
_symmetry_cell_setting 'monoclinic'
loop_
_space_group_symop_operation_xyz
x,y,z
-x,y,1/2-z
-x,-y,-z
x,-y,1/2+z
1/2+x,1/2+y,z
1/2-x,1/2+y,1/2-z
1/2-x,1/2-y,-z
1/2+x,1/2-y,1/2+z
loop_
_atom_site_type_symbol
_atom_site_label
_atom_site_fract_x
_atom_site_fract_y
_atom_site_fract_z
Si Si1 0.310200 0.424074 0.208943
Si Si2 0.000000 0.504061 0.250000
Si Si3 0.146204 0.590974 0.438361
Si Si4 0.198394 0.681104 0.231434
Si Si5 0.845612 0.345151 0.074427
Si Si6 0.000000 0.256176 0.250000
O O1 0.500000 0.446412 0.250000
O O2 0.274189 0.372731 0.305728
O O3 0.168132 0.469205 0.219804
O O4 0.315244 0.412942 0.040559
O O5 0.942242 0.538261 0.116079
O O6 0.203839 0.625507 0.306491
O O7 0.001868 0.615812 0.541401
O O8 0.336762 0.720311 0.301470
O O9 0.000000 0.704157 0.250000
O O10 0.255805 0.669914 0.069144
O O11 0.930629 0.291367 0.124023
#
# Coordination Sequence:
#
# PCOD8150553 Si02
#       6
#     8   4   8   8   8   4
#     4  12  27  43  72 104 134 182 227 280 342 410
#     4  12  23  48  74  96 140 178 229 278 348 398
#     4  11  22  47  71  95 141 180 220 286 340 395
#     4  10  25  42  67 101 131 181 225 278 334 399
#     4  11  22  48  65  99 141 176 223 286 337 394
#     4  12  23  42  72  98 136 180 231 268 342 404
#
# _framework density 21.5351
#
# number of rings (size 3 to 8) (size 9 to 14) (size 15 to 20)
#    0.000    0.800    7.000    1.200    2.800    4.800 
#    1.800    0.000    0.000    0.000    0.000    0.000 
#    0.000    0.000    0.000    0.000    0.000    0.000 
#
# Total GULP energy -247896.359493 kJ/mol
# GULP energy per Si atom -12394.817975 kJ/mol
# Density = 2.148609 g / cm^3
# Si number density = 21.535100 Si / 1000 Ang^3
#
#
#
# Elastic Constant Matrix: (Units=GPa)
#
#
# Indices 1 2 3 4 5 6 
#
# 1 126.1360 58.6164 54.0097 0.0000 26.8217 0.0000
# 2 58.6164 120.4824 50.1308 0.0000 8.1761 0.0000
# 3 54.0097 50.1308 129.7822 0.0000 17.3741 0.0000
# 4 0.0000 0.0000 0.0000 25.2452 0.0000 5.9837
# 5 26.8217 8.1761 17.3741 0.0000 25.6238 0.0000
# 6 0.0000 0.0000 0.0000 5.9837 0.0000 4.3477
#
#
#
# Elastic Compliance Matrix: (Units=1/GPa)
#
#
# Indices 1 2 3 4 5 6 
#
# 1 0.013517 -0.004887 -0.002257 0.000000 -0.011059 0.000000
# 2 -0.004887 0.011665 -0.002924 0.000000 0.003376 0.000000
# 3 -0.002257 -0.002924 0.010265 0.000000 -0.003664 0.000000
# 4 0.000000 0.000000 0.000000 0.058789 0.000000 -0.080909
# 5 -0.011059 0.003376 -0.003664 0.000000 0.052010 0.000000
# 6 0.000000 0.000000 0.000000 -0.080909 0.000000 0.341359
#
#
# Mechanical properties :
#
#
# Convention : Reuss Voigt Hill
#
# Bulk Modulus (GPa) = 65.31334 77.99050 71.65192
# Shear Modulus (GPa) = 9.74958 25.28627 17.51792
#
# Velocity S-wave (km/s) = 2.13005 3.43036 2.85521
# Velocity P-wave (km/s) = 6.03690 7.20999 6.64936
#
# Compressibility (1/GPa) = 0.01531081
#
# Stress axis : x y z
#
# Youngs Moduli (GPa) = 73.98182 85.72695 97.42251
#
# Poissons Ratio (x) = 0.41890 0.21989
# Poissons Ratio (y) = 0.36151 0.28488
# Poissons Ratio (z) = 0.16699 0.25068
#
# Static dielectric constant tensor:
#      x y z
#    x 3.792540 0.000000 0.384970 
#    y 0.000000 4.082690 0.000000 
#    z 0.384970 0.000000 4.381170 
# 
# 
# High freq. dielectric constant tensor:
#      x y z
#    x 1.826290 0.000000 0.021540 
#    y 0.000000 1.849860 0.000000 
#    z 0.021540 0.000000 1.862140 
# 
# From -- ./inp_files/23680.got.cif
#   From: 2010.06.25/outbox.cif.g09.slc.cpg/sg15_12_cif.got.tgz:23680.got - 2010.06.28 07:06:18.
