data_PCOD8150114
_publ_section_title
;
Structure prediction by ZEFSAII (Michael W. Deem and Ramdas Pophale) SiO2 
 PCOD8150114
Probable space group: C 2/C
;
_chemical_formula_sum "Si O2"
_cell_formula_units_Z 48
_cell_length_a 24.297948
_cell_length_b 6.151925
_cell_length_c 20.665650
_cell_angle_alpha 90.000000
_cell_angle_beta 137.593136
_cell_angle_gamma 90.000000
_cell_volume 2083.249897
_symmetry_space_group_name_H-M "C 2/C"
_symmetry_group_IT_number 15
_symmetry_cell_setting 'monoclinic'
loop_
_space_group_symop_operation_xyz
x,y,z
-x,y,1/2-z
-x,-y,-z
x,-y,1/2+z
1/2+x,1/2+y,z
1/2-x,1/2+y,1/2-z
1/2-x,1/2-y,-z
1/2+x,1/2-y,1/2+z
loop_
_atom_site_type_symbol
_atom_site_label
_atom_site_fract_x
_atom_site_fract_y
_atom_site_fract_z
Si Si1 0.456626 0.178939 0.149369
Si Si2 0.185595 0.626996 0.988775
Si Si3 0.067212 0.074552 0.463114
Si Si4 0.143840 0.236545 0.654952
Si Si5 0.787122 0.100294 0.198257
Si Si6 0.069501 0.397114 0.166720
O O1 0.500000 0.290649 0.250000
O O2 0.447911 0.338072 0.080299
O O3 0.367796 0.070430 0.088892
O O4 0.520429 0.993695 0.184507
O O5 0.122220 0.804230 0.958564
O O6 0.250000 0.750000 0.000000
O O7 0.236249 0.525285 0.091910
O O8 0.111881 0.072530 0.571389
O O9 0.981966 0.192998 0.404235
O O10 0.228166 0.344761 0.706487
O O11 0.081176 0.430020 0.618499
O O12 0.157547 0.102746 0.732608
O O13 0.843724 0.309056 0.231585
#
# Coordination Sequence:
#
# PCOD8150114 Si02
#       6
#     8   8   8   8   8   8
#     4  11  25  44  69  96 133 180 231 278 334 398
#     4  10  24  44  67  98 133 174 228 283 336 400
#     4  10  25  42  65  97 133 176 223 276 339 403
#     4  11  23  40  65  97 135 173 218 274 341 407
#     4  11  23  38  67  98 134 173 218 276 337 405
#     4  11  23  42  65  96 135 176 222 274 338 398
#
# _framework density 23.040924
#
# number of rings (size 3 to 8) (size 9 to 14) (size 15 to 20)
#    0.000    1.333    1.667    2.500    2.333   10.000 
#    0.000    0.000    0.000    0.000    0.000    0.000 
#    0.000    0.000    0.000    0.000    0.000    0.000 
#
# Total GULP energy -297542.621725 kJ/mol
# GULP energy per Si atom -12397.609239 kJ/mol
# Density = 2.298848 g / cm^3
# Si number density = 23.040924 Si / 1000 Ang^3
#
#
#
# Elastic Constant Matrix: (Units=GPa)
#
#
# Indices 1 2 3 4 5 6 
#
# 1 111.5028 41.5623 37.0134 -0.0001 22.0156 -0.0005
# 2 41.5623 98.9242 58.5787 -0.0008 4.9937 -0.0062
# 3 37.0134 58.5787 130.6021 0.0008 6.7606 0.0011
# 4 -0.0001 -0.0008 0.0008 34.8646 0.0000 0.2005
# 5 22.0156 4.9937 6.7606 0.0000 26.4695 0.0000
# 6 -0.0005 -0.0062 0.0011 0.2005 0.0000 36.6998
#
#
#
# Elastic Compliance Matrix: (Units=1/GPa)
#
#
# Indices 1 2 3 4 5 6 
#
# 1 0.012827 -0.004149 -0.001280 0.000000 -0.009559 0.000000
# 2 -0.004149 0.015135 -0.005719 0.000000 0.002056 0.000003
# 3 -0.001280 -0.005719 0.010614 0.000000 -0.000568 -0.000001
# 4 0.000000 0.000000 0.000000 0.028683 0.000000 -0.000157
# 5 -0.009559 0.002056 -0.000568 0.000000 0.045487 0.000000
# 6 0.000000 0.000003 -0.000001 -0.000157 0.000000 0.027249
#
#
# Mechanical properties :
#
#
# Convention : Reuss Voigt Hill
#
# Bulk Modulus (GPa) = 61.42193 68.37090 64.89642
# Shear Modulus (GPa) = 29.81220 33.19842 31.50531
#
# Velocity S-wave (km/s) = 3.60096 3.79997 3.70180
# Velocity P-wave (km/s) = 6.63361 6.99936 6.81894
#
# Compressibility (1/GPa) = 0.01628083
#
# Stress axis : x y z
#
# Youngs Moduli (GPa) = 77.96043 66.07379 94.21571
#
# Poissons Ratio (x) = 0.27414 0.12055
# Poissons Ratio (y) = 0.32346 0.53881
# Poissons Ratio (z) = 0.09975 0.37787
#
# Static dielectric constant tensor:
#      x y z
#    x 4.191500 -0.000010 0.328780 
#    y -0.000010 3.981290 0.000000 
#    z 0.328780 0.000000 4.162410 
# 
# 
# High freq. dielectric constant tensor:
#      x y z
#    x 1.918160 0.000000 0.019390 
#    y 0.000000 1.898790 0.000000 
#    z 0.019390 0.000000 1.911710 
# 
# From -- ./inp_files/254460.got.cif
#   From: 2010.06.25/outbox.cif.g09.slc.cpg/sg15_128_cif.got.tgz:254460.got - 2010.06.28 07:06:18.
