data_PCOD8150598
_publ_section_title
;
Structure prediction by ZEFSAII (Michael W. Deem and Ramdas Pophale) SiO2 
 PCOD8150598
Probable space group: C 2/C
;
_chemical_formula_sum "Si O2"
_cell_formula_units_Z 40
_cell_length_a 9.296925
_cell_length_b 24.278350
_cell_length_c 14.802933
_cell_angle_alpha 90.000000
_cell_angle_beta 148.207855
_cell_angle_gamma 90.000000
_cell_volume 1760.290769
_symmetry_space_group_name_H-M "C 2/C"
_symmetry_group_IT_number 15
_symmetry_cell_setting 'monoclinic'
loop_
_space_group_symop_operation_xyz
x,y,z
-x,y,1/2-z
-x,-y,-z
x,-y,1/2+z
1/2+x,1/2+y,z
1/2-x,1/2+y,1/2-z
1/2-x,1/2-y,-z
1/2+x,1/2-y,1/2+z
loop_
_atom_site_type_symbol
_atom_site_label
_atom_site_fract_x
_atom_site_fract_y
_atom_site_fract_z
Si Si1 0.425950 0.356338 0.954521
Si Si2 0.328602 0.660338 0.738756
Si Si3 0.500000 0.765396 0.750000
Si Si4 0.723621 0.633331 0.438603
Si Si5 0.764621 0.505299 0.446451
Si Si6 0.500000 0.055288 0.250000
O O1 0.611595 0.373507 0.138533
O O2 0.260642 0.303860 0.903678
O O3 0.633714 0.340459 0.985989
O O4 0.225629 0.406515 0.820438
O O5 0.500000 0.630375 0.750000
O O6 0.427919 0.724670 0.795824
O O7 0.005950 0.656672 0.550212
O O8 0.500000 0.654444 0.250000
O O9 0.719590 0.568154 0.448930
O O10 0.500000 0.481877 0.250000
O O11 0.000000 0.500000 0.500000
O O12 0.848047 0.477462 0.587628
#
# Coordination Sequence:
#
# PCOD8150598 Si02
#       6
#     8   8   4   8   8   4
#     4  11  24  44  71 104 141 176 238 297 342 421
#     4  10  25  43  74 100 135 185 233 281 363 419
#     4   9  24  44  74 100 140 180 232 283 366 424
#     4  11  26  44  67 105 142 180 232 293 347 412
#     4  11  27  45  69 101 146 190 238 289 352 419
#     4  11  26  42  74 104 140 192 240 289 356 422
#
# _framework density 22.723519
#
# number of rings (size 3 to 8) (size 9 to 14) (size 15 to 20)
#    0.600    0.800    0.000    3.600   14.000    2.400 
#    0.000    0.000    0.000    0.000    0.000    0.000 
#    0.000    0.000    0.000    0.000    0.000    0.000 
#
# Total GULP energy -247764.552396 kJ/mol
# GULP energy per Si atom -12388.227620 kJ/mol
# Density = 2.267180 g / cm^3
# Si number density = 22.723519 Si / 1000 Ang^3
#
#
#
# Elastic Constant Matrix: (Units=GPa)
#
#
# Indices 1 2 3 4 5 6 
#
# 1 174.0867 22.0467 100.2591 -0.0001 9.9917 -0.0001
# 2 22.0467 71.1224 39.4007 0.0000 -0.7837 0.0000
# 3 100.2591 39.4007 171.9281 -0.0002 2.4154 -0.0001
# 4 -0.0001 0.0000 -0.0002 12.2656 -0.0001 -4.2692
# 5 9.9917 -0.7837 2.4154 -0.0001 54.1990 -0.0001
# 6 -0.0001 0.0000 -0.0001 -4.2692 -0.0001 30.6934
#
#
#
# Elastic Compliance Matrix: (Units=1/GPa)
#
#
# Indices 1 2 3 4 5 6 
#
# 1 0.008753 0.000101 -0.005108 0.000000 -0.001384 0.000000
# 2 0.000101 0.016115 -0.003757 0.000000 0.000382 0.000000
# 3 -0.005108 -0.003757 0.009650 0.000000 0.000457 0.000000
# 4 0.000000 0.000000 0.000000 0.085677 0.000000 0.011917
# 5 -0.001384 0.000382 0.000457 0.000000 0.018691 0.000000
# 6 0.000000 0.000000 0.000000 0.011917 0.000000 0.034238
#
#
# Mechanical properties :
#
#
# Convention : Reuss Voigt Hill
#
# Bulk Modulus (GPa) = 58.86173 82.28334 70.57253
# Shear Modulus (GPa) = 25.46952 36.46031 30.96491
#
# Velocity S-wave (km/s) = 3.35153 4.00999 3.69546
# Velocity P-wave (km/s) = 6.39818 7.59798 7.02374
#
# Compressibility (1/GPa) = 0.01698897
#
# Stress axis : x y z
#
# Youngs Moduli (GPa) = 114.25259 62.05542 103.63122
#
# Poissons Ratio (x) = -0.00628 0.52932
# Poissons Ratio (y) = -0.01157 0.38938
# Poissons Ratio (z) = 0.58357 0.23317
#
# Static dielectric constant tensor:
#      x y z
#    x 4.033540 0.000000 0.051800 
#    y 0.000000 3.990020 0.000000 
#    z 0.051800 0.000000 4.381690 
# 
# 
# High freq. dielectric constant tensor:
#      x y z
#    x 1.900590 0.000000 0.004350 
#    y 0.000000 1.881290 0.000000 
#    z 0.004350 0.000000 1.911590 
# 
# From -- ./inp_files/139955.got.cif
#   From: 2010.06.25/outbox.cif.g09.slc.cpg/sg15_70_cif.got.tgz:139955.got - 2010.06.28 07:06:18.
