data_PCOD8150014
_publ_section_title
;
Structure prediction by ZEFSAII (Michael W. Deem and Ramdas Pophale) SiO2 
 PCOD8150014
Probable space group: C 2/C
;
_chemical_formula_sum "Si O2"
_cell_formula_units_Z 44
_cell_length_a 15.642270
_cell_length_b 15.361639
_cell_length_c 8.610015
_cell_angle_alpha 90.000000
_cell_angle_beta 63.289412
_cell_angle_gamma 90.000000
_cell_volume 1848.131659
_symmetry_space_group_name_H-M "C 2/C"
_symmetry_group_IT_number 15
_symmetry_cell_setting 'monoclinic'
loop_
_space_group_symop_operation_xyz
x,y,z
-x,y,1/2-z
-x,-y,-z
x,-y,1/2+z
1/2+x,1/2+y,z
1/2-x,1/2+y,1/2-z
1/2-x,1/2-y,-z
1/2+x,1/2-y,1/2+z
loop_
_atom_site_type_symbol
_atom_site_label
_atom_site_fract_x
_atom_site_fract_y
_atom_site_fract_z
Si Si1 0.344374 0.546541 0.424285
Si Si2 0.500000 0.400313 0.250000
Si Si3 0.481065 0.752768 0.004138
Si Si4 0.209080 0.523341 0.271774
Si Si5 0.410634 0.081639 0.400744
Si Si6 0.862530 0.234289 0.396927
O O1 0.407484 0.463566 0.322413
O O2 0.260671 0.573079 0.369472
O O3 0.292397 0.535465 0.630887
O O4 0.402000 0.635758 0.393148
O O5 0.493769 0.341042 0.409426
O O6 0.394809 0.757035 0.197674
O O7 0.578893 0.783982 0.013247
O O8 0.449388 0.821936 0.901576
O O9 0.171895 0.586442 0.164322
O O10 0.124225 0.464643 0.413590
O O11 0.500000 0.029164 0.250000
O O12 0.750000 0.250000 0.500000
#
# Coordination Sequence:
#
# PCOD8150014 Si02
#       6
#     8   4   8   8   8   8
#     4  11  23  43  70 102 137 184 234 283 340 415
#     4  12  24  44  72 104 144 182 236 290 344 412
#     4  11  25  44  70 105 140 188 230 291 357 415
#     4  10  24  43  70 102 132 177 231 287 348 417
#     4  11  23  46  69 100 136 176 226 287 355 417
#     4  11  25  44  69  99 144 188 235 285 349 417
#
# _framework density 23.807828000000001
#
# number of rings (size 3 to 8) (size 9 to 14) (size 15 to 20)
#    0.000    1.091    0.909    4.909    2.545    3.636 
#    6.545    5.455    0.000    0.000    0.000    0.000 
#    0.000    0.000    0.000    0.000    0.000    0.000 
#
# Total GULP energy -272593.480731 kJ/mol
# GULP energy per Si atom -12390.612760 kJ/mol
# Density = 2.375364 g / cm^3
# Si number density = 23.807828 Si / 1000 Ang^3
#
#
#
# Elastic Constant Matrix: (Units=GPa)
#
#
# Indices 1 2 3 4 5 6 
#
# 1 116.0847 36.0516 55.0792 0.0000 -14.7338 0.0000
# 2 36.0516 92.3495 37.4124 0.0000 2.6558 0.0000
# 3 55.0792 37.4124 145.7452 0.0000 -16.6907 0.0000
# 4 0.0000 0.0000 0.0000 12.3044 0.0000 3.7877
# 5 -14.7338 2.6558 -16.6907 0.0000 42.0951 0.0000
# 6 0.0000 0.0000 0.0000 3.7877 0.0000 29.6155
#
#
#
# Elastic Compliance Matrix: (Units=1/GPa)
#
#
# Indices 1 2 3 4 5 6 
#
# 1 0.011520 -0.003301 -0.003164 0.000000 0.002986 0.000000
# 2 -0.003301 0.013209 -0.002484 0.000000 -0.002974 0.000000
# 3 -0.003164 -0.002484 0.008994 0.000000 0.002615 0.000000
# 4 0.000000 0.000000 0.000000 0.084602 0.000000 -0.010820
# 5 0.002986 -0.002974 0.002615 0.000000 0.026025 0.000000
# 6 0.000000 0.000000 0.000000 -0.010820 0.000000 0.035150
#
#
# Mechanical properties :
#
#
# Convention : Reuss Voigt Hill
#
# Bulk Modulus (GPa) = 63.19172 67.91842 65.55507
# Shear Modulus (GPa) = 24.67019 31.84540 28.25779
#
# Velocity S-wave (km/s) = 3.22253 3.66129 3.44890
# Velocity P-wave (km/s) = 6.35974 6.81639 6.59202
#
# Compressibility (1/GPa) = 0.01582486
#
# Stress axis : x y z
#
# Youngs Moduli (GPa) = 86.80610 75.70691 111.18333
#
# Poissons Ratio (x) = 0.24992 0.35181
# Poissons Ratio (y) = 0.28656 0.27614
# Poissons Ratio (z) = 0.27467 0.18803
#
# Static dielectric constant tensor:
#      x y z
#    x 4.265330 0.000000 -0.026310 
#    y 0.000000 3.999800 0.000000 
#    z -0.026310 0.000000 4.573520 
# 
# 
# High freq. dielectric constant tensor:
#      x y z
#    x 1.951860 0.000000 0.002610 
#    y 0.000000 1.920320 0.000000 
#    z 0.002610 0.000000 1.973560 
# 
# From -- ./inp_files/47380.got.cif
#   From: 2010.06.25/outbox.cif.g09.slc.cpg/sg15_24_cif.got.tgz:47380.got - 2010.06.28 07:06:18.
