data_PCOD8150979
_publ_section_title
;
Structure prediction by ZEFSAII (Michael W. Deem and Ramdas Pophale) SiO2 
 PCOD8150979
Probable space group: C 2/C
;
_chemical_formula_sum "Si O2"
_cell_formula_units_Z 56
_cell_length_a 14.531642
_cell_length_b 16.618048
_cell_length_c 15.120390
_cell_angle_alpha 90.000000
_cell_angle_beta 127.949581
_cell_angle_gamma 90.000000
_cell_volume 2879.308167
_symmetry_space_group_name_H-M "C 2/C"
_symmetry_group_IT_number 15
_symmetry_cell_setting 'monoclinic'
loop_
_space_group_symop_operation_xyz
x,y,z
-x,y,1/2-z
-x,-y,-z
x,-y,1/2+z
1/2+x,1/2+y,z
1/2-x,1/2+y,1/2-z
1/2-x,1/2-y,-z
1/2+x,1/2-y,1/2+z
loop_
_atom_site_type_symbol
_atom_site_label
_atom_site_fract_x
_atom_site_fract_y
_atom_site_fract_z
Si Si1 0.719918 0.719445 0.706747
Si Si2 0.023482 0.131966 0.489759
Si Si3 0.519750 0.216484 0.659221
Si Si4 0.126987 0.280654 0.836916
Si Si5 0.601978 0.538128 0.380709
Si Si6 0.839385 0.869364 0.027240
Si Si7 0.211924 0.675291 0.038909
O O1 0.631617 0.652037 0.618490
O O2 0.850888 0.682048 0.783145
O O3 0.687004 0.746160 0.785069
O O4 0.718165 0.798954 0.644791
O O5 0.000866 0.201936 0.406285
O O6 0.907933 0.116216 0.477029
O O7 0.052398 0.052459 0.450185
O O8 0.500000 0.237170 0.750000
O O9 0.421672 0.152808 0.567576
O O10 0.105657 0.207002 0.891186
O O11 0.000000 0.320219 0.750000
O O12 0.204750 0.350765 0.925741
O O13 0.500000 0.550017 0.250000
O O14 0.652209 0.447667 0.405590
O O15 0.708142 0.598265 0.425708
O O16 0.250000 0.750000 0.000000
#
# Coordination Sequence:
#
# PCOD8150979 Si02
#       7
#     8   8   8   8   8   8   8
#     4  11  20  35  65  91 121 161 211 252 309 366
#     4  11  20  36  60  95 123 155 211 252 307 374
#     4  11  18  33  59  94 122 158 198 251 307 366
#     4  11  23  43  66  87 122 169 220 259 305 365
#     4  12  24  40  62  93 136 161 201 263 319 372
#     4  11  25  40  63  93 123 166 217 260 305 371
#     4  11  21  34  59  92 122 160 204 247 309 379
#
# _framework density 19.449116
#
# number of rings (size 3 to 8) (size 9 to 14) (size 15 to 20)
#    0.000    0.857    7.143    2.143    0.000    0.000 
#    0.000    2.143    0.000    1.714    0.000    0.000 
#    0.000    0.000    0.000    0.000    0.000    0.000 
#
# Total GULP energy -347225.966221 kJ/mol
# GULP energy per Si atom -12400.927365 kJ/mol
# Density = 1.940485 g / cm^3
# Si number density = 19.449116 Si / 1000 Ang^3
#
#
#
# Elastic Constant Matrix: (Units=GPa)
#
#
# Indices 1 2 3 4 5 6 
#
# 1 99.1533 21.3651 39.2641 0.0000 16.3869 0.0000
# 2 21.3651 76.9591 31.7558 0.0000 18.6008 0.0000
# 3 39.2641 31.7558 114.3054 0.0000 24.7742 0.0000
# 4 0.0000 0.0000 0.0000 19.3769 0.0000 2.0973
# 5 16.3869 18.6008 24.7742 0.0000 48.1293 0.0000
# 6 0.0000 0.0000 0.0000 2.0973 0.0000 13.5570
#
#
#
# Elastic Compliance Matrix: (Units=1/GPa)
#
#
# Indices 1 2 3 4 5 6 
#
# 1 0.012026 -0.001537 -0.003315 0.000000 -0.001794 0.000000
# 2 -0.001537 0.015599 -0.002940 0.000000 -0.003992 0.000000
# 3 -0.003315 -0.002940 0.011496 0.000000 -0.003652 0.000000
# 4 0.000000 0.000000 0.000000 0.052487 0.000000 -0.008120
# 5 -0.001794 -0.003992 -0.003652 0.000000 0.024811 0.000000
# 6 0.000000 0.000000 0.000000 -0.008120 0.000000 0.075019
#
#
# Mechanical properties :
#
#
# Convention : Reuss Voigt Hill
#
# Bulk Modulus (GPa) = 42.48963 52.79865 47.64414
# Shear Modulus (GPa) = 23.27026 29.41484 26.34255
#
# Velocity S-wave (km/s) = 3.46275 3.89318 3.68426
# Velocity P-wave (km/s) = 6.15480 6.88586 6.53057
#
# Compressibility (1/GPa) = 0.02353516
#
# Stress axis : x y z
#
# Youngs Moduli (GPa) = 83.15432 64.10786 86.98920
#
# Poissons Ratio (x) = 0.09854 0.28837
# Poissons Ratio (y) = 0.12781 0.25579
# Poissons Ratio (z) = 0.27566 0.18851
#
# Static dielectric constant tensor:
#      x y z
#    x 3.847080 0.000000 0.194590 
#    y 0.000000 3.245810 0.000000 
#    z 0.194590 0.000000 3.991290 
# 
# 
# High freq. dielectric constant tensor:
#      x y z
#    x 1.769350 0.000000 0.002680 
#    y 0.000000 1.711680 0.000000 
#    z 0.002680 0.000000 1.780570 
# 
# From -- ./inp_files/155250.got.cif
#   From: 2010.06.25/outbox.cif.g09.slc.cpg/sg15_78_cif.got.tgz:155250.got - 2010.06.28 07:06:18.
