data_PCOD8150323
_publ_section_title
;
Structure prediction by ZEFSAII (Michael W. Deem and Ramdas Pophale) SiO2 
 PCOD8150323
Probable space group: C 2/C
;
_chemical_formula_sum "Si O2"
_cell_formula_units_Z 44
_cell_length_a 10.346258
_cell_length_b 12.211307
_cell_length_c 14.569252
_cell_angle_alpha 90.000000
_cell_angle_beta 99.487004
_cell_angle_gamma 90.000000
_cell_volume 1815.523502
_symmetry_space_group_name_H-M "C 2/C"
_symmetry_group_IT_number 15
_symmetry_cell_setting 'monoclinic'
loop_
_space_group_symop_operation_xyz
x,y,z
-x,y,1/2-z
-x,-y,-z
x,-y,1/2+z
1/2+x,1/2+y,z
1/2-x,1/2+y,1/2-z
1/2-x,1/2-y,-z
1/2+x,1/2-y,1/2+z
loop_
_atom_site_type_symbol
_atom_site_label
_atom_site_fract_x
_atom_site_fract_y
_atom_site_fract_z
Si Si1 0.105764 0.552200 0.576591
Si Si2 0.500000 0.015047 0.250000
Si Si3 0.954357 0.794196 0.961971
Si Si4 0.725128 0.434391 0.676490
Si Si5 0.644908 0.412863 0.864877
Si Si6 0.542370 0.614162 0.659580
O O1 0.119640 0.678831 0.552284
O O2 0.233177 0.476580 0.574744
O O3 0.000000 0.500000 0.500000
O O4 0.067443 0.556034 0.678877
O O5 0.617808 0.084521 0.311125
O O6 0.841285 0.880270 0.920698
O O7 0.087757 0.809195 0.916089
O O8 0.003986 0.807736 0.072112
O O9 0.677859 0.374312 0.765323
O O10 0.692554 0.567286 0.675867
O O11 0.527699 0.497623 0.852975
O O12 0.500000 0.674223 0.750000
#
# Coordination Sequence:
#
# PCOD8150323 Si02
#       6
#     8   4   8   8   8   8
#     4  11  27  44  63 103 141 178 232 287 351 418
#     4  10  24  46  66  92 150 172 208 318 340 396
#     4  11  22  40  77  95 130 193 231 279 347 433
#     4   9  19  40  70 100 134 176 230 281 351 418
#     4   9  20  41  66 101 133 174 232 287 339 419
#     4   9  19  38  66 101 134 176 232 285 341 411
#
# _framework density 24.235434000000001
#
# number of rings (size 3 to 8) (size 9 to 14) (size 15 to 20)
#    0.000    2.182    0.000    3.818    7.636    1.455 
#    1.636    3.636    8.000    0.000    0.000    0.000 
#    0.000    0.000    0.000    0.000    0.000    0.000 
#
# Total GULP energy -272552.282697 kJ/mol
# GULP energy per Si atom -12388.740123 kJ/mol
# Density = 2.418027 g / cm^3
# Si number density = 24.235434 Si / 1000 Ang^3
#
#
#
# Elastic Constant Matrix: (Units=GPa)
#
#
# Indices 1 2 3 4 5 6 
#
# 1 121.3430 19.5466 34.0717 0.0000 28.1067 0.0000
# 2 19.5466 53.7384 23.1486 0.0000 9.5993 0.0000
# 3 34.0717 23.1486 143.0364 0.0000 14.0523 0.0000
# 4 0.0000 0.0000 0.0000 17.7145 0.0000 -5.0021
# 5 28.1067 9.5993 14.0523 0.0000 36.0207 0.0000
# 6 0.0000 0.0000 0.0000 -5.0021 0.0000 15.5602
#
#
#
# Elastic Compliance Matrix: (Units=1/GPa)
#
#
# Indices 1 2 3 4 5 6 
#
# 1 0.010646 -0.001933 -0.001516 0.000000 -0.007200 0.000000
# 2 -0.001933 0.020994 -0.002637 0.000000 -0.003058 0.000000
# 3 -0.001516 -0.002637 0.007896 0.000000 -0.001195 0.000000
# 4 0.000000 0.000000 0.000000 0.062087 0.000000 0.019959
# 5 -0.007200 -0.003058 -0.001195 0.000000 0.034661 0.000000
# 6 0.000000 0.000000 0.000000 0.019959 0.000000 0.070683
#
#
# Mechanical properties :
#
#
# Convention : Reuss Voigt Hill
#
# Bulk Modulus (GPa) = 36.54292 52.40575 44.47434
# Shear Modulus (GPa) = 21.90486 29.94915 25.92700
#
# Velocity S-wave (km/s) = 3.00965 3.51915 3.27432
# Velocity P-wave (km/s) = 5.21424 6.17925 5.71714
#
# Compressibility (1/GPa) = 0.02736508
#
# Stress axis : x y z
#
# Youngs Moduli (GPa) = 93.93255 47.63308 126.64019
#
# Poissons Ratio (x) = 0.09208 0.19194
# Poissons Ratio (y) = 0.18159 0.33391
# Poissons Ratio (z) = 0.14237 0.12559
#
# Static dielectric constant tensor:
#      x y z
#    x 5.460500 0.000000 0.375510 
#    y 0.000000 4.304440 0.000000 
#    z 0.375510 0.000000 5.111130 
# 
# 
# High freq. dielectric constant tensor:
#      x y z
#    x 1.972240 0.000000 0.009000 
#    y 0.000000 1.908680 0.000000 
#    z 0.009000 0.000000 1.981460 
# 
# From -- ./inp_files/142297.got.cif
#   From: 2010.06.25/outbox.cif.g09.slc.cpg/sg15_72_cif.got.tgz:142297.got - 2010.06.28 07:06:18.
