data_PCOD8150124
_publ_section_title
;
Structure prediction by ZEFSAII (Michael W. Deem and Ramdas Pophale) SiO2 
 PCOD8150124
Probable space group: C 2/C
;
_chemical_formula_sum "Si O2"
_cell_formula_units_Z 44
_cell_length_a 7.688936
_cell_length_b 24.206055
_cell_length_c 15.959794
_cell_angle_alpha 90.000000
_cell_angle_beta 136.305357
_cell_angle_gamma 90.000000
_cell_volume 2052.008637
_symmetry_space_group_name_H-M "C 2/C"
_symmetry_group_IT_number 15
_symmetry_cell_setting 'monoclinic'
loop_
_space_group_symop_operation_xyz
x,y,z
-x,y,1/2-z
-x,-y,-z
x,-y,1/2+z
1/2+x,1/2+y,z
1/2-x,1/2+y,1/2-z
1/2-x,1/2-y,-z
1/2+x,1/2-y,1/2+z
loop_
_atom_site_type_symbol
_atom_site_label
_atom_site_fract_x
_atom_site_fract_y
_atom_site_fract_z
Si Si1 0.000000 0.501890 0.750000
Si Si2 0.870851 0.911674 0.937703
Si Si3 0.005389 0.228363 0.627704
Si Si4 0.060200 0.592668 0.902098
Si Si5 0.500000 0.817295 0.250000
Si Si6 0.844664 0.109300 0.619073
Si Si7 0.500000 0.180950 0.250000
O O1 0.243685 0.464267 0.850634
O O2 0.957000 0.538710 0.817539
O O3 0.717352 0.855794 0.867345
O O4 0.899674 0.919100 0.048297
O O5 0.140063 0.906651 0.988169
O O6 0.240005 0.216873 0.646401
O O7 0.750000 0.250000 0.500000
O O8 0.919590 0.173302 0.645234
O O9 0.120410 0.277450 0.724501
O O10 0.953755 0.645711 0.815735
O O11 0.947884 0.597731 0.957194
O O12 0.000000 0.081040 0.750000
#
# Coordination Sequence:
#
# PCOD8150124 Si02
#       7
#     4   8   8   8   4   8   4
#     4  10  24  44  68  94 132 168 216 276 340 396
#     4  11  24  44  64  95 133 171 214 277 329 387
#     4  12  22  39  64  98 133 176 219 269 322 392
#     4  11  21  41  67  92 124 172 217 267 329 396
#     4  11  20  39  64  94 126 175 218 263 330 386
#     4  12  22  39  67  94 129 166 219 266 321 386
#     4  11  22  41  62  92 140 173 212 273 320 382
#
# _framework density 21.442405000000001
#
# number of rings (size 3 to 8) (size 9 to 14) (size 15 to 20)
#    0.000    0.727    6.364    1.636    0.000    2.182 
#    0.000    8.182    0.000    0.000    0.000    0.000 
#    0.000    0.000    0.000    0.000    0.000    0.000 
#
# Total GULP energy -272653.366128 kJ/mol
# GULP energy per Si atom -12393.334824 kJ/mol
# Density = 2.139360 g / cm^3
# Si number density = 21.442405 Si / 1000 Ang^3
#
#
#
# Elastic Constant Matrix: (Units=GPa)
#
#
# Indices 1 2 3 4 5 6 
#
# 1 135.5357 37.6617 38.0783 0.0000 32.3715 0.0000
# 2 37.6617 100.6313 29.0484 0.0000 12.5214 0.0000
# 3 38.0783 29.0484 102.9442 0.0001 23.5807 0.0000
# 4 0.0000 0.0000 0.0001 22.6795 0.0000 1.9306
# 5 32.3715 12.5214 23.5807 0.0000 34.9268 0.0000
# 6 0.0000 0.0000 0.0000 1.9306 0.0000 12.9341
#
#
#
# Elastic Compliance Matrix: (Units=1/GPa)
#
#
# Indices 1 2 3 4 5 6 
#
# 1 0.010299 -0.002507 -0.001327 0.000000 -0.007751 0.000000
# 2 -0.002507 0.011567 -0.002270 0.000000 -0.000291 0.000000
# 3 -0.001327 -0.002270 0.012276 0.000000 -0.006245 0.000000
# 4 0.000000 0.000000 0.000000 0.044660 0.000000 -0.006666
# 5 -0.007751 -0.000291 -0.006245 0.000000 0.040135 0.000000
# 6 0.000000 0.000000 0.000000 -0.006666 0.000000 0.078310
#
#
# Mechanical properties :
#
#
# Convention : Reuss Voigt Hill
#
# Bulk Modulus (GPa) = 45.59114 60.96535 53.27824
# Shear Modulus (GPa) = 23.06642 29.72959 26.39801
#
# Velocity S-wave (km/s) = 3.28340 3.72759 3.51253
# Velocity P-wave (km/s) = 5.97349 6.85715 6.43052
#
# Compressibility (1/GPa) = 0.02193409
#
# Stress axis : x y z
#
# Youngs Moduli (GPa) = 97.10000 86.45324 81.46223
#
# Poissons Ratio (x) = 0.21674 0.10807
# Poissons Ratio (y) = 0.24343 0.18492
# Poissons Ratio (z) = 0.12881 0.19625
#
# Static dielectric constant tensor:
#      x y z
#    x 4.087530 0.000000 -0.004060 
#    y 0.000000 4.082860 0.000000 
#    z -0.004060 0.000000 3.987150 
# 
# 
# High freq. dielectric constant tensor:
#      x y z
#    x 1.834250 0.000000 0.016140 
#    y 0.000000 1.843310 0.000000 
#    z 0.016140 0.000000 1.843600 
# 
# From -- ./inp_files/79068.got.cif
#   From: 2010.06.25/outbox.cif.g09.slc.cpg/sg15_40_cif.got.tgz:79068.got - 2010.06.28 07:06:18.
