data_PCOD8150212
_publ_section_title
;
Structure prediction by ZEFSAII (Michael W. Deem and Ramdas Pophale) SiO2 
 PCOD8150212
Probable space group: C 2/C
;
_chemical_formula_sum "Si O2"
_cell_formula_units_Z 44
_cell_length_a 8.396396
_cell_length_b 32.322716
_cell_length_c 9.659794
_cell_angle_alpha 90.000000
_cell_angle_beta 48.873795
_cell_angle_gamma 90.000000
_cell_volume 1974.763359
_symmetry_space_group_name_H-M "C 2/C"
_symmetry_group_IT_number 15
_symmetry_cell_setting 'monoclinic'
loop_
_space_group_symop_operation_xyz
x,y,z
-x,y,1/2-z
-x,-y,-z
x,-y,1/2+z
1/2+x,1/2+y,z
1/2-x,1/2+y,1/2-z
1/2-x,1/2-y,-z
1/2+x,1/2-y,1/2+z
loop_
_atom_site_type_symbol
_atom_site_label
_atom_site_fract_x
_atom_site_fract_y
_atom_site_fract_z
Si Si1 0.948968 0.460879 0.937104
Si Si2 0.179464 0.868750 0.373562
Si Si3 0.439355 0.201482 0.127078
Si Si4 0.121401 0.381840 0.968198
Si Si5 0.000000 0.922724 0.250000
Si Si6 0.796605 0.716405 0.771120
O O1 0.000000 0.472421 0.750000
O O2 0.704414 0.450823 0.108051
O O3 0.000000 0.500000 0.000000
O O4 0.104935 0.423308 0.887906
O O5 0.403211 0.873357 0.170036
O O6 0.193151 0.886544 0.522580
O O7 0.009089 0.894146 0.382519
O O8 0.126091 0.819349 0.411290
O O9 0.500000 0.206746 0.250000
O O10 0.286169 0.237605 0.159925
O O11 0.330383 0.156866 0.161628
O O12 0.653569 0.207595 0.918089
O O13 0.000000 0.709256 0.750000
#
# Coordination Sequence:
#
# PCOD8150212 Si02
#       6
#     8   8   8   8   4   8
#     4  11  26  47  74 104 139 175 222 284 340 413
#     4   9  18  38  66  91 126 179 217 268 332 403
#     4  11  22  37  58  88 130 171 223 274 325 387
#     4   9  19  41  64  89 133 174 215 278 342 389
#     4  10  24  44  76 100 138 176 228 270 346 412
#     4  11  21  38  58  88 125 175 223 271 331 386
#
# _framework density 22.28115
#
# number of rings (size 3 to 8) (size 9 to 14) (size 15 to 20)
#    0.000    1.818    3.636    1.636    6.364    0.727 
#    6.545    0.000    0.000    0.000    0.000    0.000 
#    0.000    0.000    0.000    0.000    0.000    0.000 
#
# Total GULP energy -272755.938690 kJ/mol
# GULP energy per Si atom -12397.997213 kJ/mol
# Density = 2.223044 g / cm^3
# Si number density = 22.281150 Si / 1000 Ang^3
#
#
#
# Elastic Constant Matrix: (Units=GPa)
#
#
# Indices 1 2 3 4 5 6 
#
# 1 109.0260 71.5472 34.5574 0.0000 22.8913 0.0000
# 2 71.5472 195.2646 46.6947 0.0000 13.0167 0.0000
# 3 34.5574 46.6947 83.7077 0.0000 25.7657 0.0000
# 4 0.0000 0.0000 0.0000 33.2126 0.0000 5.1844
# 5 22.8913 13.0167 25.7657 0.0000 27.7676 0.0000
# 6 0.0000 0.0000 0.0000 5.1844 0.0000 45.3115
#
#
#
# Elastic Compliance Matrix: (Units=1/GPa)
#
#
# Indices 1 2 3 4 5 6 
#
# 1 0.014182 -0.004453 -0.000580 0.000000 -0.009065 0.000000
# 2 -0.004453 0.007311 -0.003241 0.000000 0.003251 0.000000
# 3 -0.000580 -0.003241 0.018728 0.000000 -0.015380 0.000000
# 4 0.000000 0.000000 0.000000 0.030657 0.000000 -0.003508
# 5 -0.009065 0.003251 -0.015380 0.000000 0.056234 0.000000
# 6 0.000000 0.000000 0.000000 -0.003508 0.000000 0.022471
#
#
# Mechanical properties :
#
#
# Convention : Reuss Voigt Hill
#
# Bulk Modulus (GPa) = 42.24309 77.06632 59.65470
# Shear Modulus (GPa) = 28.73218 36.93830 32.83524
#
# Velocity S-wave (km/s) = 3.59490 4.07606 3.84302
# Velocity P-wave (km/s) = 6.01925 7.53761 6.82081
#
# Compressibility (1/GPa) = 0.02367251
#
# Stress axis : x y z
#
# Youngs Moduli (GPa) = 70.51262 136.77576 53.39704
#
# Poissons Ratio (x) = 0.60911 0.03098
# Poissons Ratio (y) = 0.31402 0.17304
# Poissons Ratio (z) = 0.04091 0.44324
#
# Static dielectric constant tensor:
#      x y z
#    x 3.999930 0.000000 0.343900 
#    y 0.000000 4.271610 0.000000 
#    z 0.343900 0.000000 3.969770 
# 
# 
# High freq. dielectric constant tensor:
#      x y z
#    x 1.866910 0.000000 0.028210 
#    y 0.000000 1.884010 0.000000 
#    z 0.028210 0.000000 1.870160 
# 
# From -- ./inp_files/25954.got.cif
#   From: 2010.06.25/outbox.cif.g09.slc.cpg/sg15_13_cif.got.tgz:25954.got - 2010.06.28 07:06:18.
