data_PCOD8150487
_publ_section_title
;
Structure prediction by ZEFSAII (Michael W. Deem and Ramdas Pophale) SiO2 
 PCOD8150487
Probable space group: C 2/C
;
_chemical_formula_sum "Si O2"
_cell_formula_units_Z 44
_cell_length_a 26.603122
_cell_length_b 11.253913
_cell_length_c 8.813913
_cell_angle_alpha 90.000000
_cell_angle_beta 131.117340
_cell_angle_gamma 90.000000
_cell_volume 1987.970880
_symmetry_space_group_name_H-M "C 2/C"
_symmetry_group_IT_number 15
_symmetry_cell_setting 'monoclinic'
loop_
_space_group_symop_operation_xyz
x,y,z
-x,y,1/2-z
-x,-y,-z
x,-y,1/2+z
1/2+x,1/2+y,z
1/2-x,1/2+y,1/2-z
1/2-x,1/2-y,-z
1/2+x,1/2-y,1/2+z
loop_
_atom_site_type_symbol
_atom_site_label
_atom_site_fract_x
_atom_site_fract_y
_atom_site_fract_z
Si Si1 0.661484 0.859184 0.984340
Si Si2 0.714947 0.723182 0.589367
Si Si3 0.000000 0.274526 0.250000
Si Si4 0.630778 0.088250 0.088745
Si Si5 0.587265 0.597423 0.243509
Si Si6 0.072342 0.143301 0.874389
O O1 0.662460 0.912538 0.818411
O O2 0.621459 0.736946 0.897951
O O3 0.735806 0.830405 0.187442
O O4 0.625807 0.951533 0.026917
O O5 0.750000 0.750000 0.500000
O O6 0.682140 0.845633 0.579721
O O7 0.657599 0.624610 0.461954
O O8 0.056790 0.355944 0.439316
O O9 0.031049 0.193123 0.179216
O O10 0.563426 0.466922 0.242592
O O11 0.600439 0.600004 0.090861
O O12 0.000000 0.202998 0.750000
#
# Coordination Sequence:
#
# PCOD8150487 Si02
#       6
#     8   8   4   8   8   8
#     4  12  27  45  71 106 140 185 236 287 353 416
#     4  11  24  48  71  99 140 185 232 286 353 412
#     4  10  24  48  72  98 142 186 238 286 358 402
#     4  11  27  46  72 101 143 186 235 293 346 421
#     4  11  25  44  71  99 139 180 228 292 341 421
#     4  12  26  43  72 104 139 178 234 286 353 411
#
# _framework density 22.133120999999999
#
# number of rings (size 3 to 8) (size 9 to 14) (size 15 to 20)
#    0.000    0.727    2.727    3.273   11.455    2.182 
#    0.000    0.000    0.000    0.000    0.000    0.000 
#    0.000    0.000    0.000    0.000    0.000    0.000 
#
# Total GULP energy -272973.948442 kJ/mol
# GULP energy per Si atom -12407.906747 kJ/mol
# Density = 2.208275 g / cm^3
# Si number density = 22.133121 Si / 1000 Ang^3
#
#
#
# Elastic Constant Matrix: (Units=GPa)
#
#
# Indices 1 2 3 4 5 6 
#
# 1 92.4861 23.3668 33.9866 0.0000 8.4180 0.0000
# 2 23.3668 92.2111 25.4754 0.0000 9.9436 0.0000
# 3 33.9866 25.4754 119.9764 0.0000 5.4283 0.0000
# 4 0.0000 0.0000 0.0000 31.5323 0.0000 -3.9542
# 5 8.4180 9.9436 5.4283 0.0000 46.8175 0.0000
# 6 0.0000 0.0000 0.0000 -3.9542 0.0000 22.6540
#
#
#
# Elastic Compliance Matrix: (Units=1/GPa)
#
#
# Indices 1 2 3 4 5 6 
#
# 1 0.012618 -0.002201 -0.003042 0.000000 -0.001449 0.000000
# 2 -0.002201 0.012129 -0.001863 0.000000 -0.001964 0.000000
# 3 -0.003042 -0.001863 0.009600 0.000000 -0.000170 0.000000
# 4 0.000000 0.000000 0.000000 0.032423 0.000000 0.005659
# 5 -0.001449 -0.001964 -0.000170 0.000000 0.022057 0.000000
# 6 0.000000 0.000000 0.000000 0.005659 0.000000 0.045130
#
#
# Mechanical properties :
#
#
# Convention : Reuss Voigt Hill
#
# Bulk Modulus (GPa) = 49.66285 52.25901 50.96093
# Shear Modulus (GPa) = 32.28299 34.99041 33.63670
#
# Velocity S-wave (km/s) = 3.82328 3.98038 3.90262
# Velocity P-wave (km/s) = 6.47896 6.69231 6.58650
#
# Compressibility (1/GPa) = 0.02013578
#
# Stress axis : x y z
#
# Youngs Moduli (GPa) = 79.25144 82.44736 104.16803
#
# Poissons Ratio (x) = 0.18147 0.31683
# Poissons Ratio (y) = 0.17443 0.19407
# Poissons Ratio (z) = 0.24104 0.15360
#
# Static dielectric constant tensor:
#      x y z
#    x 3.954170 0.000000 0.100690 
#    y 0.000000 3.932940 0.000000 
#    z 0.100690 0.000000 4.171170 
# 
# 
# High freq. dielectric constant tensor:
#      x y z
#    x 1.874250 0.000000 0.002210 
#    y 0.000000 1.871230 0.000000 
#    z 0.002210 0.000000 1.890480 
# 
# From -- ./inp_files/54485.got.cif
#   From: 2010.06.25/outbox.cif.g09.slc.cpg/sg15_28_cif.got.tgz:54485.got - 2010.06.28 07:06:18.
