data_PCOD8150952
_publ_section_title
;
Structure prediction by ZEFSAII (Michael W. Deem and Ramdas Pophale) SiO2 
 PCOD8150952
Probable space group: C 2/C
;
_chemical_formula_sum "Si O2"
_cell_formula_units_Z 48
_cell_length_a 20.640042
_cell_length_b 9.218719
_cell_length_c 15.810072
_cell_angle_alpha 90.000000
_cell_angle_beta 113.408764
_cell_angle_gamma 90.000000
_cell_volume 2760.659417
_symmetry_space_group_name_H-M "C 2/C"
_symmetry_group_IT_number 15
_symmetry_cell_setting 'monoclinic'
loop_
_space_group_symop_operation_xyz
x,y,z
-x,y,1/2-z
-x,-y,-z
x,-y,1/2+z
1/2+x,1/2+y,z
1/2-x,1/2+y,1/2-z
1/2-x,1/2-y,-z
1/2+x,1/2-y,1/2+z
loop_
_atom_site_type_symbol
_atom_site_label
_atom_site_fract_x
_atom_site_fract_y
_atom_site_fract_z
Si Si1 0.577378 0.178619 0.259080
Si Si2 0.921269 0.165191 0.912912
Si Si3 0.100967 0.425446 0.497535
Si Si4 0.920184 0.838898 0.942082
Si Si5 0.048051 0.579335 0.638313
Si Si6 0.827713 0.688869 0.031618
O O1 0.500000 0.223254 0.250000
O O2 0.597087 0.278580 0.189626
O O3 0.634400 0.212494 0.359618
O O4 0.580511 0.007660 0.234380
O O5 0.879534 0.261176 0.962844
O O6 0.896561 0.000084 0.906036
O O7 0.004760 0.175516 0.972743
O O8 0.070180 0.500915 0.564181
O O9 0.166430 0.517517 0.492415
O O10 0.037330 0.424389 0.395762
O O11 0.923061 0.744462 0.856112
O O12 0.862482 0.783067 0.976761
O O13 0.750000 0.750000 0.000000
#
# Coordination Sequence:
#
# PCOD8150952 Si02
#       6
#     8   8   8   8   8   8
#     4  11  17  31  52  78  98 129 179 219 253 298
#     4   9  17  31  56  76 101 135 171 214 255 309
#     4   8  14  29  49  73  96 132 167 198 253 307
#     4   9  17  33  51  78 105 133 167 209 266 308
#     4   8  14  27  52  73  95 125 171 211 239 303
#     4  11  21  33  50  74 106 135 170 217 263 307
#
# _framework density 17.387150999999999
#
# number of rings (size 3 to 8) (size 9 to 14) (size 15 to 20)
#    0.000    2.667    3.333    2.000    0.000    0.000 
#    0.000    8.333    0.000    0.000    0.000    0.000 
#    0.000    0.000    0.000    0.000    0.000    0.000 
#
# Total GULP energy -297352.261261 kJ/mol
# GULP energy per Si atom -12389.677553 kJ/mol
# Density = 1.734758 g / cm^3
# Si number density = 17.387151 Si / 1000 Ang^3
#
#
#
# Elastic Constant Matrix: (Units=GPa)
#
#
# Indices 1 2 3 4 5 6 
#
# 1 84.5173 47.6023 41.3592 0.0000 4.2818 0.0000
# 2 47.6023 149.6858 37.4767 0.0000 -1.1308 0.0000
# 3 41.3592 37.4767 80.3713 0.0000 3.0105 0.0000
# 4 0.0000 0.0000 0.0000 15.2447 0.0000 -3.3816
# 5 4.2818 -1.1308 3.0105 0.0000 16.8151 0.0000
# 6 0.0000 0.0000 0.0000 -3.3816 0.0000 26.1763
#
#
#
# Elastic Compliance Matrix: (Units=1/GPa)
#
#
# Indices 1 2 3 4 5 6 
#
# 1 0.017691 -0.003856 -0.007176 0.000000 -0.003480 0.000000
# 2 -0.003856 0.008426 -0.002016 0.000000 0.001910 0.000000
# 3 -0.007176 -0.002016 0.017127 0.000000 -0.001375 0.000000
# 4 0.000000 0.000000 0.000000 0.067532 0.000000 0.008724
# 5 -0.003480 0.001910 -0.001375 0.000000 0.060731 0.000000
# 6 0.000000 0.000000 0.000000 0.008724 0.000000 0.039330
#
#
# Mechanical properties :
#
#
# Convention : Reuss Voigt Hill
#
# Bulk Modulus (GPa) = 58.31491 63.05010 60.68250
# Shear Modulus (GPa) = 20.60597 24.18964 22.39780
#
# Velocity S-wave (km/s) = 3.44630 3.73397 3.59302
# Velocity P-wave (km/s) = 7.03192 7.41156 7.22424
#
# Compressibility (1/GPa) = 0.01714827
#
# Stress axis : x y z
#
# Youngs Moduli (GPa) = 56.52477 118.67843 58.38869
#
# Poissons Ratio (x) = 0.45760 0.41898
# Poissons Ratio (y) = 0.21795 0.11773
# Poissons Ratio (z) = 0.40561 0.23930
#
# Static dielectric constant tensor:
#      x y z
#    x 2.966660 0.000000 -0.278960 
#    y 0.000000 3.809850 0.000000 
#    z -0.278960 0.000000 3.225240 
# 
# 
# High freq. dielectric constant tensor:
#      x y z
#    x 1.635460 0.000000 -0.022410 
#    y 0.000000 1.677900 0.000000 
#    z -0.022410 0.000000 1.650840 
# 
# From -- ./inp_files/166380.got.cif
#   From: 2010.06.25/outbox.cif.g09.slc.cpg/sg15_84_cif.got.tgz:166380.got - 2010.06.28 07:06:18.
