data_PCOD8150261
_publ_section_title
;
Structure prediction by ZEFSAII (Michael W. Deem and Ramdas Pophale) SiO2 
 PCOD8150261
Probable space group: C 2/C
;
_chemical_formula_sum "Si O2"
_cell_formula_units_Z 44
_cell_length_a 15.494791
_cell_length_b 22.221743
_cell_length_c 9.540303
_cell_angle_alpha 90.000000
_cell_angle_beta 36.847291
_cell_angle_gamma 90.000000
_cell_volume 1969.920474
_symmetry_space_group_name_H-M "C 2/C"
_symmetry_group_IT_number 15
_symmetry_cell_setting 'monoclinic'
loop_
_space_group_symop_operation_xyz
x,y,z
-x,y,1/2-z
-x,-y,-z
x,-y,1/2+z
1/2+x,1/2+y,z
1/2-x,1/2+y,1/2-z
1/2-x,1/2-y,-z
1/2+x,1/2-y,1/2+z
loop_
_atom_site_type_symbol
_atom_site_label
_atom_site_fract_x
_atom_site_fract_y
_atom_site_fract_z
Si Si1 0.301280 0.875772 0.030601
Si Si2 0.508068 0.338190 0.037025
Si Si3 0.000000 0.116481 0.250000
Si Si4 0.000000 0.267887 0.750000
Si Si5 0.213377 0.408515 0.748569
Si Si6 0.719532 0.957187 0.190552
Si Si7 0.000000 0.428312 0.250000
O O1 0.128798 0.879179 0.248581
O O2 0.351962 0.915898 0.095978
O O3 0.360235 0.807956 0.966311
O O4 0.362307 0.900901 0.804352
O O5 0.480168 0.272062 0.135843
O O6 0.523551 0.338119 0.848977
O O7 0.647140 0.366589 0.928512
O O8 0.861885 0.073462 0.442429
O O9 0.257321 0.478505 0.710282
O O10 0.103605 0.388310 0.015090
O O11 0.601236 0.967609 0.221793
#
# Coordination Sequence:
#
# PCOD8150261 Si02
#       7
#     8   8   4   4   8   8   4
#     4  11  25  44  73 109 139 191 238 295 358 424
#     4  11  24  44  72 104 142 186 245 299 352 421
#     4  10  24  45  69 108 141 185 236 300 368 422
#     4  12  24  48  72 102 141 189 250 298 344 424
#     4  12  24  43  72 107 144 189 237 293 363 429
#     4  11  25  43  73 105 152 183 239 291 367 436
#     4  12  24  43  63 104 152 190 222 294 352 434
#
# _framework density 22.335926000000001
#
# number of rings (size 3 to 8) (size 9 to 14) (size 15 to 20)
#    0.000    0.727    3.636    3.273    2.545    2.909 
#    0.000    7.273    0.000    0.000    0.000    0.000 
#    0.000    0.000    0.000    0.000    0.000    0.000 
#
# Total GULP energy -272730.187398 kJ/mol
# GULP energy per Si atom -12396.826700 kJ/mol
# Density = 2.228509 g / cm^3
# Si number density = 22.335926 Si / 1000 Ang^3
#
#
#
# Elastic Constant Matrix: (Units=GPa)
#
#
# Indices 1 2 3 4 5 6 
#
# 1 118.1058 35.8675 50.5570 0.0001 24.5519 -0.0001
# 2 35.8675 112.2832 30.1401 0.0000 18.8962 0.0000
# 3 50.5570 30.1401 126.5298 0.0001 20.4866 -0.0001
# 4 0.0001 0.0000 0.0001 33.0886 -0.0001 6.9036
# 5 24.5519 18.8962 20.4866 -0.0001 51.7655 0.0001
# 6 -0.0001 0.0000 -0.0001 6.9036 0.0001 25.5282
#
#
#
# Elastic Compliance Matrix: (Units=1/GPa)
#
#
# Indices 1 2 3 4 5 6 
#
# 1 0.011265 -0.002128 -0.003478 0.000000 -0.003190 0.000000
# 2 -0.002128 0.010298 -0.001237 0.000000 -0.002260 0.000000
# 3 -0.003478 -0.001237 0.009880 0.000000 -0.001809 0.000000
# 4 0.000000 0.000000 0.000000 0.032029 0.000000 -0.008662
# 5 -0.003190 -0.002260 -0.001809 0.000000 0.022372 0.000000
# 6 0.000000 0.000000 0.000000 -0.008662 0.000000 0.041515
#
#
# Mechanical properties :
#
#
# Convention : Reuss Voigt Hill
#
# Bulk Modulus (GPa) = 56.31148 65.56091 60.93619
# Shear Modulus (GPa) = 34.02185 38.10007 36.06096
#
# Velocity S-wave (km/s) = 3.90704 4.13458 4.02242
# Velocity P-wave (km/s) = 6.75420 7.22558 6.99386
#
# Compressibility (1/GPa) = 0.01775837
#
# Stress axis : x y z
#
# Youngs Moduli (GPa) = 88.76997 97.10383 101.21024
#
# Poissons Ratio (x) = 0.20665 0.35198
# Poissons Ratio (y) = 0.18892 0.12517
# Poissons Ratio (z) = 0.30872 0.12010
#
# Static dielectric constant tensor:
#      x y z
#    x 4.174220 0.000000 0.156540 
#    y 0.000000 3.651770 0.000000 
#    z 0.156540 0.000000 4.354320 
# 
# 
# High freq. dielectric constant tensor:
#      x y z
#    x 1.896530 0.000000 0.004310 
#    y 0.000000 1.846550 0.000000 
#    z 0.004310 0.000000 1.904690 
# 
# From -- ./inp_files/43368.got.cif
#   From: 2010.06.25/outbox.cif.g09.slc.cpg/sg15_22_cif.got.tgz:43368.got - 2010.06.28 07:06:18.
