data_PCOD8150110
_publ_section_title
;
Structure prediction by ZEFSAII (Michael W. Deem and Ramdas Pophale) SiO2 
 PCOD8150110
Probable space group: C 2/C
;
_chemical_formula_sum "Si O2"
_cell_formula_units_Z 48
_cell_length_a 8.036254
_cell_length_b 11.976395
_cell_length_c 25.517971
_cell_angle_alpha 90.000000
_cell_angle_beta 119.226448
_cell_angle_gamma 90.000000
_cell_volume 2143.331182
_symmetry_space_group_name_H-M "C 2/C"
_symmetry_group_IT_number 15
_symmetry_cell_setting 'monoclinic'
loop_
_space_group_symop_operation_xyz
x,y,z
-x,y,1/2-z
-x,-y,-z
x,-y,1/2+z
1/2+x,1/2+y,z
1/2-x,1/2+y,1/2-z
1/2-x,1/2-y,-z
1/2+x,1/2-y,1/2+z
loop_
_atom_site_type_symbol
_atom_site_label
_atom_site_fract_x
_atom_site_fract_y
_atom_site_fract_z
Si Si1 0.472380 0.659964 0.862243
Si Si2 0.279691 0.665827 0.227584
Si Si3 0.827667 0.919797 0.847745
Si Si4 0.005384 0.478006 0.624066
Si Si5 0.915129 0.704357 0.912805
Si Si6 0.960042 0.296707 0.534826
O O1 0.333370 0.717796 0.798535
O O2 0.459447 0.527036 0.857460
O O3 0.687486 0.696686 0.883892
O O4 0.415898 0.708909 0.911387
O O5 0.500000 0.687112 0.250000
O O6 0.242436 0.627980 0.281086
O O7 0.204630 0.569098 0.177146
O O8 0.655508 0.954480 0.858281
O O9 0.960765 0.825453 0.895050
O O10 0.960183 0.418242 0.561894
O O11 0.015225 0.609822 0.616423
O O12 0.030485 0.693492 0.985522
O O13 0.750000 0.250000 0.500000
#
# Coordination Sequence:
#
# PCOD8150110 Si02
#       6
#     8   8   8   8   8   8
#     4  10  24  44  67  95 137 173 226 274 331 402
#     4  11  25  44  67  94 134 178 223 280 340 398
#     4  12  25  42  67 101 131 172 227 275 334 399
#     4  11  23  43  70  98 134 178 224 275 339 391
#     4  11  23  44  70  97 137 178 219 271 342 389
#     4   9  18  44  68  96 137 179 216 273 329 398
#
# _framework density 22.395047000000002
#
# number of rings (size 3 to 8) (size 9 to 14) (size 15 to 20)
#    0.000    1.333    5.000    2.000    4.667    0.667 
#    0.000    0.833    0.000    0.000    0.000    0.000 
#    0.000    0.000    0.000    0.000    0.000    0.000 
#
# Total GULP energy -297608.033314 kJ/mol
# GULP energy per Si atom -12400.334721 kJ/mol
# Density = 2.234407 g / cm^3
# Si number density = 22.395047 Si / 1000 Ang^3
#
#
#
# Elastic Constant Matrix: (Units=GPa)
#
#
# Indices 1 2 3 4 5 6 
#
# 1 33.7847 30.6040 27.2089 0.0000 -13.6597 0.0000
# 2 30.6040 168.8543 47.9559 0.0000 -22.2585 0.0000
# 3 27.2089 47.9559 121.3137 0.0000 -27.4392 0.0000
# 4 0.0000 0.0000 0.0000 28.8274 0.0000 -7.1319
# 5 -13.6597 -22.2585 -27.4392 0.0000 29.5514 0.0000
# 6 0.0000 0.0000 0.0000 -7.1319 0.0000 29.1719
#
#
#
# Elastic Compliance Matrix: (Units=1/GPa)
#
#
# Indices 1 2 3 4 5 6 
#
# 1 0.042634 -0.004780 -0.005101 0.000000 0.011371 0.000000
# 2 -0.004780 0.007465 -0.001401 0.000000 0.002112 0.000000
# 3 -0.005101 -0.001401 0.011607 0.000000 0.007364 0.000000
# 4 0.000000 0.000000 0.000000 0.036922 0.000000 0.009027
# 5 0.011371 0.002112 0.007364 0.000000 0.047524 0.000000
# 6 0.000000 0.000000 0.000000 0.009027 0.000000 0.036486
#
#
# Mechanical properties :
#
#
# Convention : Reuss Voigt Hill
#
# Bulk Modulus (GPa) = 25.54776 59.49892 42.52334
# Shear Modulus (GPa) = 22.90955 32.05572 27.48264
#
# Velocity S-wave (km/s) = 3.20187 3.78746 3.50691
# Velocity P-wave (km/s) = 5.01017 6.76402 5.95205
#
# Compressibility (1/GPa) = 0.03914237
#
# Stress axis : x y z
#
# Youngs Moduli (GPa) = 23.45529 133.95947 86.15767
#
# Poissons Ratio (x) = 0.64028 0.43949
# Poissons Ratio (y) = 0.11211 0.12072
# Poissons Ratio (z) = 0.11964 0.18770
#
# Static dielectric constant tensor:
#      x y z
#    x 3.697650 0.000000 -0.254410 
#    y 0.000000 5.023230 0.000000 
#    z -0.254410 0.000000 4.925890 
# 
# 
# High freq. dielectric constant tensor:
#      x y z
#    x 1.862400 0.000000 -0.009140 
#    y 0.000000 1.888900 0.000000 
#    z -0.009140 0.000000 1.895790 
# 
# From -- ./inp_files/287769.got.cif
#   From: 2010.06.25/outbox.cif.g09.slc.cpg/sg15_144_cif.got.tgz:287769.got - 2010.06.28 07:06:18.
