data_PCOD8150615
_publ_section_title
;
Structure prediction by ZEFSAII (Michael W. Deem and Ramdas Pophale) SiO2 
 PCOD8150615
Probable space group: C 2/C
;
_chemical_formula_sum "Si O2"
_cell_formula_units_Z 60
_cell_length_a 20.806120
_cell_length_b 17.195445
_cell_length_c 12.061233
_cell_angle_alpha 90.000000
_cell_angle_beta 39.014228
_cell_angle_gamma 90.000000
_cell_volume 2716.446617
_symmetry_space_group_name_H-M "C 2/C"
_symmetry_group_IT_number 15
_symmetry_cell_setting 'monoclinic'
loop_
_space_group_symop_operation_xyz
x,y,z
-x,y,1/2-z
-x,-y,-z
x,-y,1/2+z
1/2+x,1/2+y,z
1/2-x,1/2+y,1/2-z
1/2-x,1/2-y,-z
1/2+x,1/2-y,1/2+z
loop_
_atom_site_type_symbol
_atom_site_label
_atom_site_fract_x
_atom_site_fract_y
_atom_site_fract_z
Si Si1 0.542881 0.195618 0.956445
Si Si2 0.793879 0.180850 0.196375
Si Si3 0.385362 0.278849 0.038063
Si Si4 0.000000 0.111173 0.250000
Si Si5 0.679578 0.943209 0.212303
Si Si6 0.227564 0.100314 0.680979
Si Si7 0.343455 0.117522 0.309517
Si Si8 0.653851 0.445831 0.698134
O O1 0.623570 0.247637 0.920029
O O2 0.592826 0.122655 0.826772
O O3 0.497668 0.248089 0.918280
O O4 0.446428 0.167750 0.158876
O O5 0.693017 0.212180 0.396080
O O6 0.753796 0.152354 0.129244
O O7 0.838214 0.108580 0.204721
O O8 0.335234 0.321425 0.211809
O O9 0.401192 0.338467 0.916977
O O10 0.959499 0.061198 0.201636
O O11 0.729456 0.938243 0.265806
O O12 0.632783 0.029385 0.261291
O O13 0.757934 0.926068 0.008201
O O14 0.317910 0.120476 0.474024
O O15 0.153906 0.036156 0.727607
#
# Coordination Sequence:
#
# PCOD8150615 Si02
#       8
#     8   8   8   4   8   8   8   8
#     4  11  23  42  68  98 131 170 219 271 325 394
#     4  11  22  43  67  98 134 168 215 270 331 384
#     4  11  25  41  65  99 135 169 212 276 324 392
#     4  12  22  40  64 100 128 172 222 264 332 378
#     4  11  22  45  68  97 127 171 219 276 326 378
#     4  11  23  47  65  91 138 172 216 267 324 385
#     4  10  25  44  68  95 132 176 219 266 321 395
#     4  11  24  41  72  93 129 174 215 277 322 381
#
# _framework density 22.087679999999999
#
# number of rings (size 3 to 8) (size 9 to 14) (size 15 to 20)
#    0.000    1.067    5.333    0.400    1.867    4.267 
#    7.200    0.000    0.000    0.000    0.000    0.000 
#    0.000    0.000    0.000    0.000    0.000    0.000 
#
# Total GULP energy -371885.278272 kJ/mol
# GULP energy per Si atom -12396.175942 kJ/mol
# Density = 2.203741 g / cm^3
# Si number density = 22.087680 Si / 1000 Ang^3
#
#
#
# Elastic Constant Matrix: (Units=GPa)
#
#
# Indices 1 2 3 4 5 6 
#
# 1 73.1436 27.1557 22.3960 0.0000 -8.7107 0.0000
# 2 27.1557 90.4642 22.7511 0.0000 -10.8605 0.0000
# 3 22.3960 22.7511 55.7212 0.0000 3.8577 0.0000
# 4 0.0000 0.0000 0.0000 31.8909 0.0000 -10.4649
# 5 -8.7107 -10.8605 3.8577 0.0000 33.6087 0.0000
# 6 0.0000 0.0000 0.0000 -10.4649 0.0000 24.5377
#
#
#
# Elastic Compliance Matrix: (Units=1/GPa)
#
#
# Indices 1 2 3 4 5 6 
#
# 1 0.017136 -0.003176 -0.005874 0.000000 0.004089 0.000000
# 2 -0.003176 0.013654 -0.004583 0.000000 0.004115 0.000000
# 3 -0.005874 -0.004583 0.022566 0.000000 -0.005594 0.000000
# 4 0.000000 0.000000 0.000000 0.036459 0.000000 0.015549
# 5 0.004089 0.004115 -0.005594 0.000000 0.032786 0.000000
# 6 0.000000 0.000000 0.000000 0.015549 0.000000 0.047385
#
#
# Mechanical properties :
#
#
# Convention : Reuss Voigt Hill
#
# Bulk Modulus (GPa) = 38.32879 40.43717 39.38298
# Shear Modulus (GPa) = 24.27765 27.80922 26.04343
#
# Velocity S-wave (km/s) = 3.31894 3.55214 3.43752
# Velocity P-wave (km/s) = 5.66373 5.93051 5.79865
#
# Compressibility (1/GPa) = 0.02609005
#
# Stress axis : x y z
#
# Youngs Moduli (GPa) = 58.35529 73.23769 44.31409
#
# Poissons Ratio (x) = 0.23259 0.26030
# Poissons Ratio (y) = 0.18532 0.20311
# Poissons Ratio (z) = 0.34278 0.33568
#
# Static dielectric constant tensor:
#      x y z
#    x 3.931470 0.000000 -0.033260 
#    y 0.000000 4.232780 0.000000 
#    z -0.033260 0.000000 3.853270 
# 
# 
# High freq. dielectric constant tensor:
#      x y z
#    x 1.864330 0.000000 -0.005240 
#    y 0.000000 1.887980 0.000000 
#    z -0.005240 0.000000 1.859280 
# 
# From -- ./inp_files/113779.got.cif
#   From: 2010.06.25/outbox.cif.g09.slc.cpg/sg15_57_cif.got.tgz:113779.got - 2010.06.28 07:06:18.
