data_PCOD8150848
_publ_section_title
;
Structure prediction by ZEFSAII (Michael W. Deem and Ramdas Pophale) SiO2 
 PCOD8150848
Probable space group: C 2/C
;
_chemical_formula_sum "Si O2"
_cell_formula_units_Z 40
_cell_length_a 13.640788
_cell_length_b 11.539751
_cell_length_c 11.500356
_cell_angle_alpha 90.000000
_cell_angle_beta 70.658750
_cell_angle_gamma 90.000000
_cell_volume 1708.118399
_symmetry_space_group_name_H-M "C 2/C"
_symmetry_group_IT_number 15
_symmetry_cell_setting 'monoclinic'
loop_
_space_group_symop_operation_xyz
x,y,z
-x,y,1/2-z
-x,-y,-z
x,-y,1/2+z
1/2+x,1/2+y,z
1/2-x,1/2+y,1/2-z
1/2-x,1/2-y,-z
1/2+x,1/2-y,1/2+z
loop_
_atom_site_type_symbol
_atom_site_label
_atom_site_fract_x
_atom_site_fract_y
_atom_site_fract_z
Si Si1 0.197483 0.635916 0.064180
Si Si2 0.136617 0.233598 0.995770
Si Si3 0.500000 0.627564 0.250000
Si Si4 0.500000 0.075737 0.250000
Si Si5 0.868927 0.482178 0.608092
Si Si6 0.164787 0.989353 0.334302
O O1 0.104740 0.656008 0.194581
O O2 0.294868 0.562076 0.070923
O O3 0.250000 0.750000 0.000000
O O4 0.126818 0.572020 0.997643
O O5 0.065228 0.207518 0.136150
O O6 0.250000 0.250000 0.000000
O O7 0.108366 0.352396 0.943964
O O8 0.131270 0.134850 0.898225
O O9 0.568222 0.546611 0.307102
O O10 0.535516 0.990183 0.341394
O O11 0.757596 0.512208 0.706367
#
# Coordination Sequence:
#
# PCOD8150848 Si02
#       6
#     8   8   4   4   8   8
#     4  11  25  46  70 103 146 189 239 300 363 437
#     4  12  25  49  73 107 151 194 250 306 371 444
#     4  12  26  46  78 112 148 204 248 308 374 442
#     4  10  26  46  72 108 140 194 240 298 364 438
#     4  11  25  48  74 108 148 193 243 306 370 442
#     4  11  25  46  72 106 146 193 245 302 366 435
#
# _framework density 23.417579
#
# number of rings (size 3 to 8) (size 9 to 14) (size 15 to 20)
#    0.000    0.800    4.000    1.200    8.400    1.600 
#    0.000    0.000    0.000    0.000    0.000    0.000 
#    0.000    0.000    0.000    0.000    0.000    0.000 
#
# Total GULP energy -247798.256559 kJ/mol
# GULP energy per Si atom -12389.912828 kJ/mol
# Density = 2.336428 g / cm^3
# Si number density = 23.417579 Si / 1000 Ang^3
#
#
#
# Elastic Constant Matrix: (Units=GPa)
#
#
# Indices 1 2 3 4 5 6 
#
# 1 166.9001 40.5769 56.4042 0.0000 17.9502 0.0000
# 2 40.5769 139.0428 72.4946 0.0000 0.9400 0.0000
# 3 56.4042 72.4946 130.8362 0.0000 -4.0042 0.0000
# 4 0.0000 0.0000 0.0000 17.3485 0.0000 -14.5606
# 5 17.9502 0.9400 -4.0042 0.0000 58.9877 0.0000
# 6 0.0000 0.0000 0.0000 -14.5606 0.0000 -2.4572
#
#
#
# Elastic Compliance Matrix: (Units=1/GPa)
#
#
# Indices 1 2 3 4 5 6 
#
# 1 0.007390 -0.000619 -0.002918 0.000000 -0.002437 0.000000
# 2 -0.000619 0.010183 -0.005386 0.000000 -0.000339 0.000000
# 3 -0.002918 -0.005386 0.011940 0.000000 0.001784 0.000000
# 4 0.000000 0.000000 0.000000 0.009650 0.000000 -0.057181
# 5 -0.002437 -0.000339 0.001784 0.000000 0.017821 0.000000
# 6 0.000000 0.000000 0.000000 -0.057181 0.000000 -0.068129
#
#
# Mechanical properties :
#
#
# Convention : Reuss Voigt Hill
#
# Bulk Modulus (GPa) = 85.70313 86.19227 85.94770
# Shear Modulus (GPa) = 472.21051 32.59603 252.40327
#
# Velocity S-wave (km/s) = 14.21568 3.73493 10.39315
# Velocity P-wave (km/s) = 17.49642 7.44890 13.44639
#
# Compressibility (1/GPa) = 0.01166819
#
# Stress axis : x y z
#
# Youngs Moduli (GPa) = 135.31427 98.20244 83.75418
#
# Poissons Ratio (x) = 0.06079 0.24436
# Poissons Ratio (y) = 0.08377 0.45108
# Poissons Ratio (z) = 0.39478 0.52890
#
# Static dielectric constant tensor:
#      x y z
#    x 4.180180 0.000000 0.098160 
#    y 0.000000 4.019200 0.000000 
#    z 0.098160 0.000000 4.528090 
# 
# 
# High freq. dielectric constant tensor:
#      x y z
#    x 1.951230 0.000000 0.001440 
#    y 0.000000 1.903410 0.000000 
#    z 0.001440 0.000000 1.958620 
# 
# From -- ./inp_files/94924.got.cif
#   From: 2010.06.25/outbox.cif.g09.slc.cpg/sg15_48_cif.got.tgz:94924.got - 2010.06.28 07:06:18.
