data_PCOD8150333
_publ_section_title
;
Structure prediction by ZEFSAII (Michael W. Deem and Ramdas Pophale) SiO2 
 PCOD8150333
Probable space group: C 2/C
;
_chemical_formula_sum "Si O2"
_cell_formula_units_Z 56
_cell_length_a 12.291880
_cell_length_b 23.111666
_cell_length_c 9.546709
_cell_angle_alpha 90.000000
_cell_angle_beta 113.870689
_cell_angle_gamma 90.000000
_cell_volume 2480.095948
_symmetry_space_group_name_H-M "C 2/C"
_symmetry_group_IT_number 15
_symmetry_cell_setting 'monoclinic'
loop_
_space_group_symop_operation_xyz
x,y,z
-x,y,1/2-z
-x,-y,-z
x,-y,1/2+z
1/2+x,1/2+y,z
1/2-x,1/2+y,1/2-z
1/2-x,1/2-y,-z
1/2+x,1/2-y,1/2+z
loop_
_atom_site_type_symbol
_atom_site_label
_atom_site_fract_x
_atom_site_fract_y
_atom_site_fract_z
Si Si1 0.542845 0.139988 0.413161
Si Si2 0.735702 0.519233 0.603975
Si Si3 0.654832 0.637951 0.668326
Si Si4 0.895012 0.705841 0.793889
Si Si5 0.302749 0.599603 0.507988
Si Si6 0.053599 0.834945 0.634988
Si Si7 0.387141 0.038975 0.425740
O O1 0.500000 0.171409 0.250000
O O2 0.570644 0.191914 0.530169
O O3 0.660018 0.100407 0.452229
O O4 0.431075 0.101603 0.400894
O O5 0.653560 0.572213 0.610118
O O6 0.661590 0.468442 0.485159
O O7 0.829657 0.547335 0.547384
O O8 0.797852 0.490275 0.769957
O O9 0.772851 0.673966 0.689908
O O10 0.636720 0.631981 0.827451
O O11 0.547863 0.671921 0.537163
O O12 0.886551 0.775032 0.782785
O O13 0.000000 0.682014 0.750000
O O14 0.340731 0.628497 0.380346
O O15 0.000000 0.864167 0.750000
O O16 0.500000 0.000000 0.500000
#
# Coordination Sequence:
#
# PCOD8150333 Si02
#       7
#     8   8   8   8   8   8   8
#     4  11  21  36  65 103 137 175 221 278 346 402
#     4  12  23  39  66 100 144 185 220 276 337 417
#     4  11  25  46  70 101 137 183 223 284 346 404
#     4  10  24  46  68 102 134 176 228 290 350 406
#     4  11  24  43  64 100 138 181 230 275 336 413
#     4  11  28  47  71  95 132 183 239 286 339 406
#     4  12  20  36  60 101 142 179 216 274 337 407
#
# _framework density 22.579771000000001
#
# number of rings (size 3 to 8) (size 9 to 14) (size 15 to 20)
#    0.000    0.857    4.286    2.571    2.000    8.571 
#    0.000    0.000    0.000    0.000    0.000    0.000 
#    0.000    0.000    0.000    0.000    0.000    0.000 
#
# Total GULP energy -347104.852898 kJ/mol
# GULP energy per Si atom -12396.601889 kJ/mol
# Density = 2.252838 g / cm^3
# Si number density = 22.579771 Si / 1000 Ang^3
#
#
#
# Elastic Constant Matrix: (Units=GPa)
#
#
# Indices 1 2 3 4 5 6 
#
# 1 61.6938 38.6871 8.3404 0.0000 -18.4347 0.0000
# 2 38.6871 81.8499 9.8460 0.0000 -7.0094 0.0000
# 3 8.3404 9.8460 77.6171 0.0000 -7.3307 0.0000
# 4 0.0000 0.0000 0.0000 31.7916 0.0000 -3.5057
# 5 -18.4347 -7.0094 -7.3307 0.0000 45.9866 0.0000
# 6 0.0000 0.0000 0.0000 -3.5057 0.0000 29.1574
#
#
#
# Elastic Compliance Matrix: (Units=1/GPa)
#
#
# Indices 1 2 3 4 5 6 
#
# 1 0.026083 -0.011527 -0.000527 0.000000 0.008615 0.000000
# 2 -0.011527 0.017628 -0.001198 0.000000 -0.002125 0.000000
# 3 -0.000527 -0.001198 0.013255 0.000000 0.001719 0.000000
# 4 0.000000 0.000000 0.000000 0.031877 0.000000 0.003833
# 5 0.008615 -0.002125 0.001719 0.000000 0.025149 0.000000
# 6 0.000000 0.000000 0.000000 0.003833 0.000000 0.034757
#
#
# Mechanical properties :
#
#
# Convention : Reuss Voigt Hill
#
# Bulk Modulus (GPa) = 32.82858 37.21197 35.02027
# Shear Modulus (GPa) = 26.96748 32.33958 29.65353
#
# Velocity S-wave (km/s) = 3.45964 3.78860 3.62785
# Velocity P-wave (km/s) = 5.52534 5.97109 5.75253
#
# Compressibility (1/GPa) = 0.03046127
#
# Stress axis : x y z
#
# Youngs Moduli (GPa) = 38.33899 56.72753 75.44472
#
# Poissons Ratio (x) = 0.65391 0.03975
# Poissons Ratio (y) = 0.44194 0.09040
# Poissons Ratio (z) = 0.02020 0.06797
#
# Static dielectric constant tensor:
#      x y z
#    x 4.376670 0.000000 -0.211370 
#    y 0.000000 4.245960 0.000000 
#    z -0.211370 0.000000 4.283860 
# 
# 
# High freq. dielectric constant tensor:
#      x y z
#    x 1.887510 0.000000 -0.018270 
#    y 0.000000 1.877140 0.000000 
#    z -0.018270 0.000000 1.901240 
# 
# From -- ./inp_files/34361.got.cif
#   From: 2010.06.25/outbox.cif.g09.slc.cpg/sg15_18_cif.got.tgz:34361.got - 2010.06.28 07:06:18.
