data_PCOD8150951
_publ_section_title
;
Structure prediction by ZEFSAII (Michael W. Deem and Ramdas Pophale) SiO2 
 PCOD8150951
Probable space group: C 2/C
;
_chemical_formula_sum "Si O2"
_cell_formula_units_Z 48
_cell_length_a 15.316313
_cell_length_b 9.159748
_cell_length_c 20.613229
_cell_angle_alpha 90.000000
_cell_angle_beta 110.179023
_cell_angle_gamma 90.000000
_cell_volume 2714.396605
_symmetry_space_group_name_H-M "C 2/C"
_symmetry_group_IT_number 15
_symmetry_cell_setting 'monoclinic'
loop_
_space_group_symop_operation_xyz
x,y,z
-x,y,1/2-z
-x,-y,-z
x,-y,1/2+z
1/2+x,1/2+y,z
1/2-x,1/2+y,1/2-z
1/2-x,1/2-y,-z
1/2+x,1/2-y,1/2+z
loop_
_atom_site_type_symbol
_atom_site_label
_atom_site_fract_x
_atom_site_fract_y
_atom_site_fract_z
Si Si1 0.144470 0.324975 0.905053
Si Si2 0.256681 0.585542 0.926161
Si Si3 0.062515 0.950059 0.575887
Si Si4 0.733041 0.580657 0.418707
Si Si5 0.346387 0.819646 0.448355
Si Si6 0.451665 0.439350 0.169671
O O1 0.161278 0.493672 0.886928
O O2 0.245468 0.252835 0.926224
O O3 0.068685 0.234649 0.844099
O O4 0.106753 0.319235 0.968775
O O5 0.339293 0.530626 0.902273
O O6 0.243746 0.751917 0.903273
O O7 0.284324 0.561607 0.008664
O O8 0.083384 0.773801 0.579112
O O9 0.000000 0.000000 0.500000
O O10 0.016729 0.992123 0.631519
O O11 0.825739 0.487868 0.421073
O O12 0.645363 0.524047 0.356248
O O13 0.500000 0.466089 0.250000
#
# Coordination Sequence:
#
# PCOD8150951 Si02
#       6
#     8   8   8   8   8   8
#     4   8  14  29  49  73  96 132 167 198 250 306
#     4   9  17  31  56  76  99 133 174 215 249 307
#     4  11  17  31  52  78  98 129 179 218 252 298
#     4   9  17  33  51  78 105 133 167 209 266 307
#     4   8  14  27  52  73  97 127 168 209 245 303
#     4  11  21  33  50  74 106 135 168 213 265 310
#
# _framework density 17.683487
#
# number of rings (size 3 to 8) (size 9 to 14) (size 15 to 20)
#    0.000    2.667    3.333    2.000    0.000    0.000 
#    0.000    8.333    0.000    0.000    0.000    0.000 
#    0.000    0.000    0.000    0.000    0.000    0.000 
#
# Total GULP energy -297321.440353 kJ/mol
# GULP energy per Si atom -12388.393348 kJ/mol
# Density = 1.764324 g / cm^3
# Si number density = 17.683487 Si / 1000 Ang^3
#
#
#
# Elastic Constant Matrix: (Units=GPa)
#
#
# Indices 1 2 3 4 5 6 
#
# 1 65.7188 44.7458 37.1304 0.0000 -4.0706 0.0000
# 2 44.7458 164.0381 42.6188 0.0000 3.0709 0.0000
# 3 37.1304 42.6188 98.9330 0.0000 4.4332 0.0000
# 4 0.0000 0.0000 0.0000 14.8473 0.0000 4.0078
# 5 -4.0706 3.0709 4.4332 0.0000 18.4383 0.0000
# 6 0.0000 0.0000 0.0000 4.0078 0.0000 29.9778
#
#
#
# Elastic Compliance Matrix: (Units=1/GPa)
#
#
# Indices 1 2 3 4 5 6 
#
# 1 0.022646 -0.004528 -0.006880 0.000000 0.007408 0.000000
# 2 -0.004528 0.007773 -0.001563 0.000000 -0.001919 0.000000
# 3 -0.006880 -0.001563 0.013566 0.000000 -0.004520 0.000000
# 4 0.000000 0.000000 0.000000 0.069874 0.000000 -0.009342
# 5 0.007408 -0.001919 -0.004520 0.000000 0.057277 0.000000
# 6 0.000000 0.000000 0.000000 -0.009342 0.000000 0.034607
#
#
# Mechanical properties :
#
#
# Convention : Reuss Voigt Hill
#
# Bulk Modulus (GPa) = 55.42781 64.18664 59.80722
# Shear Modulus (GPa) = 21.03489 26.26567 23.65028
#
# Velocity S-wave (km/s) = 3.45269 3.85817 3.66104
# Velocity P-wave (km/s) = 6.87802 7.49824 7.19482
#
# Compressibility (1/GPa) = 0.01804149
#
# Stress axis : x y z
#
# Youngs Moduli (GPa) = 44.15853 128.64366 73.71343
#
# Poissons Ratio (x) = 0.58254 0.50717
# Poissons Ratio (y) = 0.19996 0.11523
# Poissons Ratio (z) = 0.30383 0.20109
#
# Static dielectric constant tensor:
#      x y z
#    x 3.176160 0.000000 0.013330 
#    y 0.000000 3.887260 0.000000 
#    z 0.013330 0.000000 2.922540 
# 
# 
# High freq. dielectric constant tensor:
#      x y z
#    x 1.665270 0.000000 0.006740 
#    y 0.000000 1.699500 0.000000 
#    z 0.006740 0.000000 1.632090 
# 
# From -- ./inp_files/242587.got.cif
#   From: 2010.06.25/outbox.cif.g09.slc.cpg/sg15_122_cif.got.tgz:242587.got - 2010.06.28 07:06:18.
