data_PCOD8150437
_publ_section_title
;
Structure prediction by ZEFSAII (Michael W. Deem and Ramdas Pophale) SiO2 
 PCOD8150437
Probable space group: C 2/C
;
_chemical_formula_sum "Si O2"
_cell_formula_units_Z 40
_cell_length_a 8.207385
_cell_length_b 16.775332
_cell_length_c 12.362688
_cell_angle_alpha 90.000000
_cell_angle_beta 83.287479
_cell_angle_gamma 90.000000
_cell_volume 1690.446989
_symmetry_space_group_name_H-M "C 2/C"
_symmetry_group_IT_number 15
_symmetry_cell_setting 'monoclinic'
loop_
_space_group_symop_operation_xyz
x,y,z
-x,y,1/2-z
-x,-y,-z
x,-y,1/2+z
1/2+x,1/2+y,z
1/2-x,1/2+y,1/2-z
1/2-x,1/2-y,-z
1/2+x,1/2-y,1/2+z
loop_
_atom_site_type_symbol
_atom_site_label
_atom_site_fract_x
_atom_site_fract_y
_atom_site_fract_z
Si Si1 0.753805 0.664134 0.059526
Si Si2 0.500000 0.294448 0.750000
Si Si3 0.434413 0.918787 0.961656
Si Si4 0.500000 0.387460 0.250000
Si Si5 0.268732 0.200747 0.609044
Si Si6 0.659326 0.477796 0.419285
O O1 0.603566 0.654021 0.155340
O O2 0.930009 0.641395 0.103857
O O3 0.750000 0.750000 0.000000
O O4 0.745604 0.596929 0.969434
O O5 0.362222 0.244620 0.698298
O O6 0.279142 0.944146 0.897343
O O7 0.372291 0.876988 0.075101
O O8 0.500000 0.000000 0.000000
O O9 0.409201 0.327927 0.338940
O O10 0.620706 0.447519 0.302495
O O11 0.250000 0.250000 0.500000
O O12 0.500000 0.500000 0.500000
#
# Coordination Sequence:
#
# PCOD8150437 Si02
#       6
#     8   4   8   4   8   8
#     4  11  23  46  75 107 147 190 257 320 372 468
#     4  12  26  43  82 107 148 206 250 314 408 443
#     4  10  24  47  71 103 153 190 241 322 369 446
#     4  12  26  45  80 105 158 212 248 314 406 451
#     4  12  27  48  73 114 152 199 264 320 379 469
#     4  11  24  47  72 106 154 197 249 315 380 464
#
# _framework density 23.662379999999999
#
# number of rings (size 3 to 8) (size 9 to 14) (size 15 to 20)
#    0.000    0.800    4.000    2.400    5.600    0.800 
#    0.000    2.000    0.000    0.000    0.000    0.000 
#    0.000    0.000    0.000    0.000    0.000    0.000 
#
# Total GULP energy -247809.738916 kJ/mol
# GULP energy per Si atom -12390.486946 kJ/mol
# Density = 2.360852 g / cm^3
# Si number density = 23.662380 Si / 1000 Ang^3
#
#
#
# Elastic Constant Matrix: (Units=GPa)
#
#
# Indices 1 2 3 4 5 6 
#
# 1 145.6887 53.4786 39.0723 0.0000 -17.7398 0.0000
# 2 53.4786 115.7609 29.8957 0.0000 -7.9893 0.0000
# 3 39.0723 29.8957 97.8823 0.0000 -8.9084 0.0000
# 4 0.0000 0.0000 0.0000 36.9866 0.0000 1.3202
# 5 -17.7398 -7.9893 -8.9084 0.0000 56.9721 0.0000
# 6 0.0000 0.0000 0.0000 1.3202 0.0000 60.8809
#
#
#
# Elastic Compliance Matrix: (Units=1/GPa)
#
#
# Indices 1 2 3 4 5 6 
#
# 1 0.008987 -0.003405 -0.002370 0.000000 0.001950 0.000000
# 2 -0.003405 0.010712 -0.001899 0.000000 0.000145 0.000000
# 3 -0.002370 -0.001899 0.011819 0.000000 0.000844 0.000000
# 4 0.000000 0.000000 0.000000 0.027058 0.000000 -0.000587
# 5 0.001950 0.000145 0.000844 0.000000 0.018312 0.000000
# 6 0.000000 0.000000 0.000000 -0.000587 0.000000 0.016438
#
#
# Mechanical properties :
#
#
# Convention : Reuss Voigt Hill
#
# Bulk Modulus (GPa) = 61.84414 67.13610 64.49012
# Shear Modulus (GPa) = 43.83478 46.76028 45.29753
#
# Velocity S-wave (km/s) = 4.30875 4.45021 4.38005
# Velocity P-wave (km/s) = 7.13768 7.40540 7.27277
#
# Compressibility (1/GPa) = 0.01616968
#
# Stress axis : x y z
#
# Youngs Moduli (GPa) = 111.27276 93.35260 84.60786
#
# Poissons Ratio (x) = 0.31788 0.20051
# Poissons Ratio (y) = 0.37890 0.16070
# Poissons Ratio (z) = 0.26370 0.17730
#
# Static dielectric constant tensor:
#      x y z
#    x 3.190660 0.000000 -0.282220 
#    y 0.000000 4.758350 0.000000 
#    z -0.282220 0.000000 4.111750 
# 
# 
# High freq. dielectric constant tensor:
#      x y z
#    x 1.964080 0.000000 -0.004870 
#    y 0.000000 1.951590 0.000000 
#    z -0.004870 0.000000 1.913400 
# 
# From -- ./inp_files/76744.got.cif
#   From: 2010.06.25/outbox.cif.g09.slc.cpg/sg15_39_cif.got.tgz:76744.got - 2010.06.28 07:06:18.
