data_PCOD8150472
_publ_section_title
;
Structure prediction by ZEFSAII (Michael W. Deem and Ramdas Pophale) SiO2 
 PCOD8150472
Probable space group: C 2/C
;
_chemical_formula_sum "Si O2"
_cell_formula_units_Z 56
_cell_length_a 8.407984
_cell_length_b 12.420384
_cell_length_c 25.291679
_cell_angle_alpha 90.000000
_cell_angle_beta 114.697122
_cell_angle_gamma 90.000000
_cell_volume 2399.625314
_symmetry_space_group_name_H-M "C 2/C"
_symmetry_group_IT_number 15
_symmetry_cell_setting 'monoclinic'
loop_
_space_group_symop_operation_xyz
x,y,z
-x,y,1/2-z
-x,-y,-z
x,-y,1/2+z
1/2+x,1/2+y,z
1/2-x,1/2+y,1/2-z
1/2-x,1/2-y,-z
1/2+x,1/2-y,1/2+z
loop_
_atom_site_type_symbol
_atom_site_label
_atom_site_fract_x
_atom_site_fract_y
_atom_site_fract_z
Si Si1 0.866947 0.964927 0.026260
Si Si2 0.554434 0.280557 0.823107
Si Si3 0.070119 0.646192 0.420481
Si Si4 0.271977 0.844315 0.238408
Si Si5 0.414021 0.349823 0.135503
Si Si6 0.245595 0.683023 0.051518
Si Si7 0.785765 0.485391 0.825705
O O1 0.756605 0.059679 0.037307
O O2 0.971718 0.908252 0.088663
O O3 0.725849 0.889280 0.979383
O O4 0.000000 0.000000 0.000000
O O5 0.637259 0.172688 0.806665
O O6 0.346373 0.258415 0.783987
O O7 0.587738 0.281470 0.890033
O O8 0.638523 0.389781 0.808486
O O9 0.150551 0.731397 0.390221
O O10 0.927524 0.704188 0.438351
O O11 0.974536 0.554436 0.372475
O O12 0.304063 0.962179 0.269653
O O13 0.065996 0.835793 0.199967
O O14 0.261301 0.416058 0.142132
O O15 0.250000 0.750000 0.000000
#
# Coordination Sequence:
#
# PCOD8150472 Si02
#       7
#     8   8   8   8   8   8   8
#     4  12  27  43  72 111 147 194 246 308 369 445
#     4  10  24  48  68 107 142 190 244 301 366 451
#     4  11  25  49  71 106 150 191 250 306 373 446
#     4  11  25  40  75 101 140 191 240 301 376 440
#     4  12  24  45  70 107 141 189 247 302 367 448
#     4  11  23  45  77 103 148 198 245 303 383 445
#     4  11  25  47  74 101 146 195 244 308 380 435
#
# _framework density 23.336974999999999
#
# number of rings (size 3 to 8) (size 9 to 14) (size 15 to 20)
#    0.000    0.857    5.714    2.143    6.000    2.286 
#    0.000    2.857    0.000    0.000    0.000    0.000 
#    0.000    0.000    0.000    0.000    0.000    0.000 
#
# Total GULP energy -346874.356874 kJ/mol
# GULP energy per Si atom -12388.369888 kJ/mol
# Density = 2.328386 g / cm^3
# Si number density = 23.336975 Si / 1000 Ang^3
#
#
#
# Elastic Constant Matrix: (Units=GPa)
#
#
# Indices 1 2 3 4 5 6 
#
# 1 41.8111 41.7785 27.8493 0.0000 -2.0112 0.0000
# 2 41.7785 133.7227 64.3337 0.0000 -5.8385 0.0000
# 3 27.8493 64.3337 149.9319 0.0000 -2.8730 0.0000
# 4 0.0000 0.0000 0.0000 63.9930 0.0000 -14.7999
# 5 -2.0112 -5.8385 -2.8730 0.0000 36.2389 0.0000
# 6 0.0000 0.0000 0.0000 -14.7999 0.0000 40.6402
#
#
#
# Elastic Compliance Matrix: (Units=1/GPa)
#
#
# Indices 1 2 3 4 5 6 
#
# 1 0.035395 -0.009941 -0.002305 0.000000 0.000180 0.000000
# 2 -0.009941 0.012268 -0.003395 0.000000 0.001156 0.000000
# 3 -0.002305 -0.003395 0.008555 0.000000 0.000003 0.000000
# 4 0.000000 0.000000 0.000000 0.017064 0.000000 0.006214
# 5 0.000180 0.001156 0.000003 0.000000 0.027791 0.000000
# 6 0.000000 0.000000 0.000000 0.006214 0.000000 0.026869
#
#
# Mechanical properties :
#
#
# Convention : Reuss Voigt Hill
#
# Bulk Modulus (GPa) = 40.10630 65.93208 53.01919
# Shear Modulus (GPa) = 29.84413 40.94137 35.39275
#
# Velocity S-wave (km/s) = 3.57996 4.19305 3.89857
# Velocity P-wave (km/s) = 5.85758 7.19415 6.55999
#
# Compressibility (1/GPa) = 0.02493374
#
# Stress axis : x y z
#
# Youngs Moduli (GPa) = 28.25270 81.51252 116.89272
#
# Poissons Ratio (x) = 0.81035 0.26947
# Poissons Ratio (y) = 0.28087 0.39689
# Poissons Ratio (z) = 0.06513 0.27676
#
# Static dielectric constant tensor:
#      x y z
#    x 4.567830 0.000000 0.347760 
#    y 0.000000 4.297170 0.000000 
#    z 0.347760 0.000000 4.925240 
# 
# 
# High freq. dielectric constant tensor:
#      x y z
#    x 1.893470 0.000000 -0.003110 
#    y 0.000000 1.923440 0.000000 
#    z -0.003110 0.000000 1.950740 
# 
# From -- ./inp_files/307537.got.cif
#   From: 2010.06.25/outbox.cif.g09.slc.cpg/sg15_154_cif.got.tgz:307537.got - 2010.06.28 07:06:18.
