data_PCOD8150565
_publ_section_title
;
Structure prediction by ZEFSAII (Michael W. Deem and Ramdas Pophale) SiO2 
 PCOD8150565
Probable space group: C 2/C
;
_chemical_formula_sum "Si O2"
_cell_formula_units_Z 64
_cell_length_a 22.827563
_cell_length_b 5.161876
_cell_length_c 22.283303
_cell_angle_alpha 90.000000
_cell_angle_beta 77.094962
_cell_angle_gamma 90.000000
_cell_volume 2559.388221
_symmetry_space_group_name_H-M "C 2/C"
_symmetry_group_IT_number 15
_symmetry_cell_setting 'monoclinic'
loop_
_space_group_symop_operation_xyz
x,y,z
-x,y,1/2-z
-x,-y,-z
x,-y,1/2+z
1/2+x,1/2+y,z
1/2-x,1/2+y,1/2-z
1/2-x,1/2-y,-z
1/2+x,1/2-y,1/2+z
loop_
_atom_site_type_symbol
_atom_site_label
_atom_site_fract_x
_atom_site_fract_y
_atom_site_fract_z
Si Si1 0.749276 0.967205 0.407712
Si Si2 0.937479 0.460553 0.371622
Si Si3 0.864702 0.737196 0.052602
Si Si4 0.393679 0.846172 0.762638
Si Si5 0.375053 0.536057 0.933923
Si Si6 0.681528 0.650902 0.214208
Si Si7 0.070343 0.475911 0.368274
Si Si8 0.319334 0.595047 0.155991
O O1 0.691975 0.070415 0.459879
O O2 0.804499 0.908437 0.439278
O O3 0.768615 0.161043 0.349273
O O4 0.728525 0.706758 0.379849
O O5 0.941215 0.554657 0.301878
O O6 0.895395 0.206443 0.387872
O O7 0.002360 0.371723 0.380591
O O8 0.911661 0.698774 0.417247
O O9 0.839937 0.826987 0.123106
O O10 0.922322 0.581246 0.064603
O O11 0.884403 0.955626 0.001405
O O12 0.369272 0.566404 0.790350
O O13 0.423074 0.822592 0.689714
O O14 0.340944 0.057160 0.775156
O O15 0.710339 0.558028 0.271534
O O16 0.119074 0.253663 0.347731
#
# Coordination Sequence:
#
# PCOD8150565 Si02
#       8
#     8   8   8   8   8   8   8   8
#     4  11  25  44  69 102 139 183 229 288 345 419
#     4  12  26  47  73 103 138 186 232 295 343 423
#     4  11  26  47  69  99 141 192 233 292 340 416
#     4  11  21  45  70 103 140 173 223 293 348 419
#     4  12  29  47  71 102 142 187 242 282 347 407
#     4  11  23  41  69 104 141 172 225 284 353 412
#     4  10  25  45  71 104 139 180 234 287 363 408
#     4  10  25  42  70 102 141 181 229 286 351 418
#
# _framework density 25.005976
#
# number of rings (size 3 to 8) (size 9 to 14) (size 15 to 20)
#    0.000    1.000    3.750    0.750   10.500    1.500 
#    0.000    2.500    0.000    0.000    0.000    0.000 
#    0.000    0.000    0.000    0.000    0.000    0.000 
#
# Total GULP energy -396597.517426 kJ/mol
# GULP energy per Si atom -12393.672420 kJ/mol
# Density = 2.494906 g / cm^3
# Si number density = 25.005976 Si / 1000 Ang^3
#
#
#
# Elastic Constant Matrix: (Units=GPa)
#
#
# Indices 1 2 3 4 5 6 
#
# 1 129.4265 14.7096 14.5088 0.0000 17.1762 0.0000
# 2 14.7096 73.0475 -13.2007 0.0000 -1.4974 0.0000
# 3 14.5088 -13.2007 56.2214 0.0000 12.7632 0.0000
# 4 0.0000 0.0000 0.0000 34.8726 0.0000 4.3297
# 5 17.1762 -1.4974 12.7632 0.0000 27.4895 0.0000
# 6 0.0000 0.0000 0.0000 4.3297 0.0000 16.4678
#
#
#
# Elastic Compliance Matrix: (Units=1/GPa)
#
#
# Indices 1 2 3 4 5 6 
#
# 1 0.008805 -0.002177 -0.001685 0.000000 -0.004838 0.000000
# 2 -0.002177 0.014853 0.003976 0.000000 0.000323 0.000000
# 3 -0.001685 0.003976 0.021090 0.000000 -0.008523 0.000000
# 4 0.000000 0.000000 0.000000 0.029643 0.000000 -0.007794
# 5 -0.004838 0.000323 -0.008523 0.000000 0.043375 0.000000
# 6 0.000000 0.000000 0.000000 -0.007794 0.000000 0.062774
#
#
# Mechanical properties :
#
#
# Convention : Reuss Voigt Hill
#
# Bulk Modulus (GPa) = 22.23403 32.30342 27.26873
# Shear Modulus (GPa) = 25.60121 31.94451 28.77286
#
# Velocity S-wave (km/s) = 3.20316 3.57806 3.39579
# Velocity P-wave (km/s) = 4.75301 5.47871 5.12872
#
# Compressibility (1/GPa) = 0.04497610
#
# Stress axis : x y z
#
# Youngs Moduli (GPa) = 113.57605 67.32577 47.41590
#
# Poissons Ratio (x) = 0.14655 0.07990
# Poissons Ratio (y) = 0.24722 -0.18852
# Poissons Ratio (z) = 0.19138 -0.26768
#
# Static dielectric constant tensor:
#      x y z
#    x 4.468760 0.000000 0.089170 
#    y 0.000000 4.294570 0.000000 
#    z 0.089170 0.000000 4.664410 
# 
# 
# High freq. dielectric constant tensor:
#      x y z
#    x 1.988380 0.000000 0.015960 
#    y 0.000000 1.990290 0.000000 
#    z 0.015960 0.000000 2.000150 
# 
# From -- ./inp_files/280964.got.cif
#   From: 2010.06.25/outbox.cif.g09.slc.cpg/sg15_141_cif.got.tgz:280964.got - 2010.06.28 07:06:18.
