data_PCOD8150659
_publ_section_title
;
Structure prediction by ZEFSAII (Michael W. Deem and Ramdas Pophale) SiO2 
 PCOD8150659
Probable space group: C 2/C
;
_chemical_formula_sum "Si O2"
_cell_formula_units_Z 32
_cell_length_a 5.150302
_cell_length_b 17.636157
_cell_length_c 14.905049
_cell_angle_alpha 90.000000
_cell_angle_beta 74.770220
_cell_angle_gamma 90.000000
_cell_volume 1306.301437
_symmetry_space_group_name_H-M "C 2/C"
_symmetry_group_IT_number 15
_symmetry_cell_setting 'monoclinic'
loop_
_space_group_symop_operation_xyz
x,y,z
-x,y,1/2-z
-x,-y,-z
x,-y,1/2+z
1/2+x,1/2+y,z
1/2-x,1/2+y,1/2-z
1/2-x,1/2-y,-z
1/2+x,1/2-y,1/2+z
loop_
_atom_site_type_symbol
_atom_site_label
_atom_site_fract_x
_atom_site_fract_y
_atom_site_fract_z
Si Si1 0.667125 0.801606 0.141333
Si Si2 0.479722 0.423554 0.557935
Si Si3 0.492431 0.827435 0.534891
Si Si4 0.700278 0.545344 0.808020
O O1 0.500000 0.793162 0.250000
O O2 0.898009 0.737532 0.113533
O O3 0.814780 0.884851 0.117895
O O4 0.479179 0.793503 0.069309
O O5 0.500000 0.500000 0.500000
O O6 0.772442 0.393527 0.556318
O O7 0.358783 0.459015 0.659917
O O8 0.281478 0.359292 0.537798
O O9 0.500000 0.573264 0.750000
O O10 0.000000 0.547878 0.750000
#
# Coordination Sequence:
#
# PCOD8150659 Si02
#       4
#     8   8   8   8
#     4  10  25  45  71 102 144 185 235 291 349 421
#     4  12  25  45  71 100 141 179 232 292 349 415
#     4  11  26  45  71 105 138 187 235 286 354 415
#     4  11  25  43  69 101 136 184 235 285 351 420
#
# _framework density 24.496642000000001
#
# number of rings (size 3 to 8) (size 9 to 14) (size 15 to 20)
#    0.000    1.000    2.500    2.250    7.000   11.000 
#    0.000    0.000    0.000    0.000    0.000    0.000 
#    0.000    0.000    0.000    0.000    0.000    0.000 
#
# Total GULP energy -198259.645841 kJ/mol
# GULP energy per Si atom -12391.227865 kJ/mol
# Density = 2.444089 g / cm^3
# Si number density = 24.496642 Si / 1000 Ang^3
#
#
#
# Elastic Constant Matrix: (Units=GPa)
#
#
# Indices 1 2 3 4 5 6 
#
# 1 93.9399 18.1463 11.3635 0.0000 -14.0560 0.0000
# 2 18.1463 114.0477 30.7796 0.0000 -24.1458 0.0000
# 3 11.3635 30.7796 97.2672 0.0000 -8.7222 0.0000
# 4 0.0000 0.0000 0.0000 42.7141 0.0000 -0.8573
# 5 -14.0560 -24.1458 -8.7222 0.0000 18.9322 0.0000
# 6 0.0000 0.0000 0.0000 -0.8573 0.0000 51.8278
#
#
#
# Elastic Compliance Matrix: (Units=1/GPa)
#
#
# Indices 1 2 3 4 5 6 
#
# 1 0.012014 0.000123 -0.000656 0.000000 0.008774 0.000000
# 2 0.000123 0.012642 -0.002671 0.000000 0.014984 0.000000
# 3 -0.000656 -0.002671 0.011321 0.000000 0.001322 0.000000
# 4 0.000000 0.000000 0.000000 0.023419 0.000000 0.000387
# 5 0.008774 0.014984 0.001322 0.000000 0.079054 0.000000
# 6 0.000000 0.000000 0.000000 0.000387 0.000000 0.019301
#
#
# Mechanical properties :
#
#
# Convention : Reuss Voigt Hill
#
# Bulk Modulus (GPa) = 33.81877 47.31484 40.56681
# Shear Modulus (GPa) = 28.73318 39.02585 33.87951
#
# Velocity S-wave (km/s) = 3.42854 3.99571 3.72294
# Velocity P-wave (km/s) = 5.43219 6.37529 5.92254
#
# Compressibility (1/GPa) = 0.02956938
#
# Stress axis : x y z
#
# Youngs Moduli (GPa) = 83.23963 79.10178 88.32818
#
# Poissons Ratio (x) = -0.00974 0.05791
# Poissons Ratio (y) = -0.01025 0.23594
# Poissons Ratio (z) = 0.05458 0.21130
#
# Static dielectric constant tensor:
#      x y z
#    x 4.219050 0.000000 -0.343150 
#    y 0.000000 20.925700 0.000000 
#    z -0.343150 0.000000 5.179360 
# 
# 
# High freq. dielectric constant tensor:
#      x y z
#    x 1.975340 0.000000 -0.012310 
#    y 0.000000 1.997690 0.000000 
#    z -0.012310 0.000000 1.977530 
# 
# From -- ./inp_files/71882.got.cif
#   From: 2010.06.25/outbox.cif.g09.slc.cpg/sg15_36_cif.got.tgz:71882.got - 2010.06.28 07:06:18.
