data_PCOD8150674
_publ_section_title
;
Structure prediction by ZEFSAII (Michael W. Deem and Ramdas Pophale) SiO2 
 PCOD8150674
Probable space group: C 2/C
;
_chemical_formula_sum "Si O2"
_cell_formula_units_Z 48
_cell_length_a 8.628590
_cell_length_b 25.530218
_cell_length_c 14.888058
_cell_angle_alpha 90.000000
_cell_angle_beta 139.066634
_cell_angle_gamma 90.000000
_cell_volume 2148.788237
_symmetry_space_group_name_H-M "C 2/C"
_symmetry_group_IT_number 15
_symmetry_cell_setting 'monoclinic'
loop_
_space_group_symop_operation_xyz
x,y,z
-x,y,1/2-z
-x,-y,-z
x,-y,1/2+z
1/2+x,1/2+y,z
1/2-x,1/2+y,1/2-z
1/2-x,1/2-y,-z
1/2+x,1/2-y,1/2+z
loop_
_atom_site_type_symbol
_atom_site_label
_atom_site_fract_x
_atom_site_fract_y
_atom_site_fract_z
Si Si1 0.932920 0.975572 0.618912
Si Si2 0.849797 0.668729 0.873988
Si Si3 0.254299 0.954122 0.600841
Si Si4 0.731874 0.288864 0.630346
Si Si5 0.426084 0.643233 0.578812
Si Si6 0.892077 0.852869 0.609156
O O1 0.868640 0.915095 0.593358
O O2 0.000000 0.995365 0.750000
O O3 0.138597 0.985026 0.634858
O O4 0.721289 0.009736 0.479602
O O5 0.776079 0.729038 0.845739
O O6 0.701535 0.642746 0.727875
O O7 0.762320 0.636548 0.922779
O O8 0.127394 0.667783 0.979362
O O9 0.500000 0.935417 0.750000
O O10 0.108292 0.902471 0.509115
O O11 0.631715 0.299191 0.486738
O O12 0.567018 0.326804 0.616397
O O13 0.000000 0.309590 0.750000
O O14 0.000000 0.834794 0.750000
#
# Coordination Sequence:
#
# PCOD8150674 Si02
#       6
#     8   8   8   8   8   8
#     4  10  25  46  68 104 139 182 236 296 362 418
#     4  11  26  42  66 103 139 185 236 290 356 413
#     4  11  25  46  74 104 137 190 240 292 362 429
#     4  12  23  44  70  97 136 185 234 287 342 426
#     4  11  24  43  69  99 135 185 236 288 349 425
#     4  11  25  43  68 101 138 181 227 292 351 416
#
# _framework density 22.338172
#
# number of rings (size 3 to 8) (size 9 to 14) (size 15 to 20)
#    0.000    1.000    3.333    2.500    9.333    4.000 
#    0.000    0.000    0.000    0.000    0.000    0.000 
#    0.000    0.000    0.000    0.000    0.000    0.000 
#
# Total GULP energy -297383.972475 kJ/mol
# GULP energy per Si atom -12390.998853 kJ/mol
# Density = 2.228733 g / cm^3
# Si number density = 22.338172 Si / 1000 Ang^3
#
#
#
# Elastic Constant Matrix: (Units=GPa)
#
#
# Indices 1 2 3 4 5 6 
#
# 1 102.1272 21.2883 79.0049 0.0000 12.0909 0.0000
# 2 21.2883 81.6380 52.3198 0.0000 -3.6863 0.0000
# 3 79.0049 52.3198 195.7672 0.0000 1.6385 0.0000
# 4 0.0000 0.0000 0.0000 37.9650 0.0000 -2.2617
# 5 12.0909 -3.6863 1.6385 0.0000 46.7231 0.0000
# 6 0.0000 0.0000 0.0000 -2.2617 0.0000 32.7301
#
#
#
# Elastic Compliance Matrix: (Units=1/GPa)
#
#
# Indices 1 2 3 4 5 6 
#
# 1 0.014831 -0.000261 -0.005885 0.000000 -0.003652 0.000000
# 2 -0.000261 0.014865 -0.003879 0.000000 0.001376 0.000000
# 3 -0.005885 -0.003879 0.008512 0.000000 0.000918 0.000000
# 4 0.000000 0.000000 0.000000 0.026449 0.000000 0.001828
# 5 -0.003652 0.001376 0.000918 0.000000 0.022424 0.000000
# 6 0.000000 0.000000 0.000000 0.001828 0.000000 0.030679
#
#
# Mechanical properties :
#
#
# Convention : Reuss Voigt Hill
#
# Bulk Modulus (GPa) = 55.06995 76.08429 65.57712
# Shear Modulus (GPa) = 34.75508 38.61158 36.68333
#
# Velocity S-wave (km/s) = 3.94872 4.16204 4.05678
# Velocity P-wave (km/s) = 6.74509 7.56511 7.16684
#
# Compressibility (1/GPa) = 0.01815872
#
# Stress axis : x y z
#
# Youngs Moduli (GPa) = 67.42592 67.27028 117.47900
#
# Poissons Ratio (x) = 0.01754 0.69137
# Poissons Ratio (y) = 0.01758 0.45572
# Poissons Ratio (z) = 0.39681 0.26095
#
# Static dielectric constant tensor:
#      x y z
#    x 4.110570 0.000000 -0.178070 
#    y 0.000000 3.933920 0.000000 
#    z -0.178070 0.000000 -2.740220 
# 
# 
# High freq. dielectric constant tensor:
#      x y z
#    x 1.873720 0.000000 -0.014900 
#    y 0.000000 1.882870 0.000000 
#    z -0.014900 0.000000 1.895030 
# 
# From -- ./inp_files/139042.got.cif
#   From: 2010.06.25/outbox.cif.g09.slc.cpg/sg15_70_cif.got.tgz:139042.got - 2010.06.28 07:06:18.
