data_PCOD8150198
_publ_section_title
;
Structure prediction by ZEFSAII (Michael W. Deem and Ramdas Pophale) SiO2 
 PCOD8150198
Probable space group: C 2/C
;
_chemical_formula_sum "Si O2"
_cell_formula_units_Z 44
_cell_length_a 14.165267
_cell_length_b 16.523784
_cell_length_c 9.111785
_cell_angle_alpha 90.000000
_cell_angle_beta 69.644639
_cell_angle_gamma 90.000000
_cell_volume 1999.556562
_symmetry_space_group_name_H-M "C 2/C"
_symmetry_group_IT_number 15
_symmetry_cell_setting 'monoclinic'
loop_
_space_group_symop_operation_xyz
x,y,z
-x,y,1/2-z
-x,-y,-z
x,-y,1/2+z
1/2+x,1/2+y,z
1/2-x,1/2+y,1/2-z
1/2-x,1/2-y,-z
1/2+x,1/2-y,1/2+z
loop_
_atom_site_type_symbol
_atom_site_label
_atom_site_fract_x
_atom_site_fract_y
_atom_site_fract_z
Si Si1 0.810659 0.108870 0.505301
Si Si2 0.197046 0.549639 0.061158
Si Si3 0.000000 0.553198 0.750000
Si Si4 0.843725 0.348725 0.189554
Si Si5 0.498465 0.414966 0.077866
Si Si6 0.680457 0.664104 0.327540
O O1 0.709708 0.149781 0.622361
O O2 0.899274 0.130816 0.571280
O O3 0.838731 0.144239 0.331834
O O4 0.790562 0.012555 0.510585
O O5 0.216069 0.619359 0.175291
O O6 0.089717 0.505167 0.143710
O O7 0.206078 0.589398 0.897086
O O8 0.042766 0.615858 0.850239
O O9 0.827627 0.259321 0.137572
O O10 0.500000 0.425292 0.250000
O O11 0.500000 0.500000 0.000000
O O12 0.594300 0.365170 0.980540
#
# Coordination Sequence:
#
# PCOD8150198 Si02
#       6
#     8   8   4   8   8   8
#     4  11  23  43  69  97 138 183 228 273 348 418
#     4  11  23  45  70  97 133 186 232 280 339 420
#     4  10  24  44  72  96 138 184 240 270 350 416
#     4  11  25  44  68 102 138 174 234 291 344 402
#     4  12  25  42  69 100 136 180 228 279 341 423
#     4  12  25  43  70 102 140 174 228 295 349 396
#
# _framework density 22.004878000000001
#
# number of rings (size 3 to 8) (size 9 to 14) (size 15 to 20)
#    0.000    0.727    1.818    6.545    2.545    1.455 
#    4.909    0.000    0.000    0.000    0.000    0.000 
#    0.000    0.000    0.000    0.000    0.000    0.000 
#
# Total GULP energy -272681.806925 kJ/mol
# GULP energy per Si atom -12394.627587 kJ/mol
# Density = 2.195479 g / cm^3
# Si number density = 22.004878 Si / 1000 Ang^3
#
#
#
# Elastic Constant Matrix: (Units=GPa)
#
#
# Indices 1 2 3 4 5 6 
#
# 1 112.7193 30.1273 33.6659 0.0000 4.7163 0.0000
# 2 30.1273 130.1833 27.1051 0.0000 -13.2303 0.0000
# 3 33.6659 27.1051 129.3549 0.0000 6.3628 0.0000
# 4 0.0000 0.0000 0.0000 29.9492 0.0000 6.9968
# 5 4.7163 -13.2303 6.3628 0.0000 35.5409 0.0000
# 6 0.0000 0.0000 0.0000 6.9968 0.0000 33.3128
#
#
#
# Elastic Compliance Matrix: (Units=1/GPa)
#
#
# Indices 1 2 3 4 5 6 
#
# 1 0.010133 -0.002081 -0.002115 0.000000 -0.001741 0.000000
# 2 -0.002081 0.008868 -0.001506 0.000000 0.003847 0.000000
# 3 -0.002115 -0.001506 0.008687 0.000000 -0.001835 0.000000
# 4 0.000000 0.000000 0.000000 0.035113 0.000000 -0.007375
# 5 -0.001741 0.003847 -0.001835 0.000000 0.030128 0.000000
# 6 0.000000 0.000000 0.000000 -0.007375 0.000000 0.031567
#
#
# Mechanical properties :
#
#
# Convention : Reuss Voigt Hill
#
# Bulk Modulus (GPa) = 61.41610 61.56157 61.48883
# Shear Modulus (GPa) = 35.37881 38.51786 36.94833
#
# Velocity S-wave (km/s) = 4.01405 4.18835 4.10212
# Velocity P-wave (km/s) = 7.03238 7.17124 7.10215
#
# Compressibility (1/GPa) = 0.01628237
#
# Stress axis : x y z
#
# Youngs Moduli (GPa) = 98.69212 112.77045 115.11506
#
# Poissons Ratio (x) = 0.23472 0.24351
# Poissons Ratio (y) = 0.20541 0.17332
# Poissons Ratio (z) = 0.20877 0.16979
#
# Static dielectric constant tensor:
#      x y z
#    x 4.548110 0.000000 0.198130 
#    y 0.000000 4.329540 0.000000 
#    z 0.198130 0.000000 4.026660 
# 
# 
# High freq. dielectric constant tensor:
#      x y z
#    x 1.878850 0.000000 0.007190 
#    y 0.000000 1.866290 0.000000 
#    z 0.007190 0.000000 1.863650 
# 
# From -- ./inp_files/39087.got.cif
#   From: 2010.06.25/outbox.cif.g09.slc.cpg/sg15_20_cif.got.tgz:39087.got - 2010.06.28 07:06:18.
