data_PCOD8150728
_publ_section_title
;
Structure prediction by ZEFSAII (Michael W. Deem and Ramdas Pophale) SiO2 
 PCOD8150728
Probable space group: C 2/C
;
_chemical_formula_sum "Si O2"
_cell_formula_units_Z 40
_cell_length_a 13.994548
_cell_length_b 17.160806
_cell_length_c 8.049363
_cell_angle_alpha 90.000000
_cell_angle_beta 69.826484
_cell_angle_gamma 90.000000
_cell_volume 1814.524875
_symmetry_space_group_name_H-M "C 2/C"
_symmetry_group_IT_number 15
_symmetry_cell_setting 'monoclinic'
loop_
_space_group_symop_operation_xyz
x,y,z
-x,y,1/2-z
-x,-y,-z
x,-y,1/2+z
1/2+x,1/2+y,z
1/2-x,1/2+y,1/2-z
1/2-x,1/2-y,-z
1/2+x,1/2-y,1/2+z
loop_
_atom_site_type_symbol
_atom_site_label
_atom_site_fract_x
_atom_site_fract_y
_atom_site_fract_z
Si Si1 0.000000 0.484365 0.750000
Si Si2 0.654420 0.549802 0.845482
Si Si3 0.843983 0.241498 0.068995
Si Si4 0.885813 0.892338 0.775207
Si Si5 0.629753 0.084394 0.911316
Si Si6 0.000000 0.160010 0.750000
O O1 0.044440 0.542932 0.856691
O O2 0.091722 0.430084 0.623723
O O3 0.608096 0.462369 0.864329
O O4 0.760393 0.546966 0.683864
O O5 0.580456 0.608548 0.798495
O O6 0.671042 0.576798 0.025552
O O7 0.823213 0.179403 0.230449
O O8 0.865813 0.324718 0.137590
O O9 0.750000 0.250000 0.000000
O O10 0.944584 0.214963 0.913961
O O11 0.000000 0.865247 0.750000
#
# Coordination Sequence:
#
# PCOD8150728 Si02
#       6
#     4   8   8   8   8   4
#     4  10  25  48  73  94 134 188 234 296 331 430
#     4  12  24  44  75 104 139 190 238 297 355 430
#     4  12  27  45  67 102 147 188 229 295 361 419
#     4  12  25  43  71 106 145 183 236 295 360 419
#     4  11  25  47  71  99 136 183 239 285 355 417
#     4  12  23  46  69 102 148 182 236 296 359 422
#
# _framework density 22.044339000000001
#
# number of rings (size 3 to 8) (size 9 to 14) (size 15 to 20)
#    0.000    0.400    5.000    3.600    4.200    0.800 
#    3.600    0.000    0.000    0.000    0.000    0.000 
#    0.000    0.000    0.000    0.000    0.000    0.000 
#
# Total GULP energy -248063.979699 kJ/mol
# GULP energy per Si atom -12403.198985 kJ/mol
# Density = 2.199416 g / cm^3
# Si number density = 22.044339 Si / 1000 Ang^3
#
#
#
# Elastic Constant Matrix: (Units=GPa)
#
#
# Indices 1 2 3 4 5 6 
#
# 1 110.6425 33.7362 34.2244 0.0000 -0.2055 0.0000
# 2 33.7362 113.4096 24.0094 0.0000 22.0054 0.0000
# 3 34.2244 24.0094 117.2511 0.0000 4.1400 0.0000
# 4 0.0000 0.0000 0.0000 84.8160 0.0000 3.1916
# 5 -0.2055 22.0054 4.1400 0.0000 34.8204 0.0000
# 6 0.0000 0.0000 0.0000 3.1916 0.0000 37.8484
#
#
#
# Elastic Compliance Matrix: (Units=1/GPa)
#
#
# Indices 1 2 3 4 5 6 
#
# 1 0.010796 -0.003116 -0.002596 0.000000 0.002342 0.000000
# 2 -0.003116 0.011362 -0.001168 0.000000 -0.007060 0.000000
# 3 -0.002596 -0.001168 0.009540 0.000000 -0.000412 0.000000
# 4 0.000000 0.000000 0.000000 0.011828 0.000000 -0.000997
# 5 0.002342 -0.007060 -0.000412 0.000000 0.033243 0.000000
# 6 0.000000 0.000000 0.000000 -0.000997 0.000000 0.026505
#
#
# Mechanical properties :
#
#
# Convention : Reuss Voigt Hill
#
# Bulk Modulus (GPa) = 55.74739 58.36034 57.05387
# Shear Modulus (GPa) = 40.64650 48.11919 44.38284
#
# Velocity S-wave (km/s) = 4.29867 4.67715 4.49190
# Velocity P-wave (km/s) = 7.06978 7.46319 7.26915
#
# Compressibility (1/GPa) = 0.01793806
#
# Stress axis : x y z
#
# Youngs Moduli (GPa) = 92.63078 88.01562 104.82188
#
# Poissons Ratio (x) = 0.27428 0.27208
# Poissons Ratio (y) = 0.28866 0.12239
# Poissons Ratio (z) = 0.24044 0.10277
#
# Static dielectric constant tensor:
#      x y z
#    x 4.774890 0.000000 -0.226080 
#    y 0.000000 4.326270 0.000000 
#    z -0.226080 0.000000 4.478410 
# 
# 
# High freq. dielectric constant tensor:
#      x y z
#    x 1.868340 0.000000 -0.000290 
#    y 0.000000 1.872570 0.000000 
#    z -0.000290 0.000000 1.874650 
# 
# From -- ./inp_files/37912.got.cif
#   From: 2010.06.25/outbox.cif.g09.slc.cpg/sg15_19_cif.got.tgz:37912.got - 2010.06.28 07:06:18.
