data_PCOD8150665
_publ_section_title
;
Structure prediction by ZEFSAII (Michael W. Deem and Ramdas Pophale) SiO2 
 PCOD8150665
Probable space group: C 2/C
;
_chemical_formula_sum "Si O2"
_cell_formula_units_Z 36
_cell_length_a 19.827432
_cell_length_b 4.999392
_cell_length_c 13.978912
_cell_angle_alpha 90.000000
_cell_angle_beta 83.370904
_cell_angle_gamma 90.000000
_cell_volume 1376.396963
_symmetry_space_group_name_H-M "C 2/C"
_symmetry_group_IT_number 15
_symmetry_cell_setting 'monoclinic'
loop_
_space_group_symop_operation_xyz
x,y,z
-x,y,1/2-z
-x,-y,-z
x,-y,1/2+z
1/2+x,1/2+y,z
1/2-x,1/2+y,1/2-z
1/2-x,1/2-y,-z
1/2+x,1/2-y,1/2+z
loop_
_atom_site_type_symbol
_atom_site_label
_atom_site_fract_x
_atom_site_fract_y
_atom_site_fract_z
Si Si1 0.338248 0.067534 0.570490
Si Si2 0.500000 0.115833 0.250000
Si Si3 0.814839 0.167569 0.885467
Si Si4 0.536073 0.748408 0.947791
Si Si5 0.866229 0.664270 0.777879
O O1 0.257491 0.020257 0.588580
O O2 0.350978 0.271085 0.480670
O O3 0.363234 0.203765 0.664239
O O4 0.382109 0.794012 0.546765
O O5 0.473770 0.288519 0.164787
O O6 0.560546 0.933133 0.200051
O O7 0.810333 0.445220 0.824560
O O8 0.860720 0.957078 0.822917
O O9 0.500000 0.500000 0.000000
O O10 0.500000 0.000000 0.000000
#
# Coordination Sequence:
#
# PCOD8150665 Si02
#       5
#     8   4   8   8   8
#     4  10  25  45  72 106 143 188 241 299 366 438
#     4  10  26  46  72 104 140 186 240 294 358 432
#     4  11  25  44  72 105 143 187 239 300 366 435
#     4  11  26  46  73 104 142 186 237 295 357 429
#     4  11  25  45  70 103 143 189 240 297 361 434
#
# _framework density 26.155242999999999
#
# number of rings (size 3 to 8) (size 9 to 14) (size 15 to 20)
#    0.000    1.333    0.000    2.667    0.000   23.111 
#    0.000    3.333    0.000    2.667    0.000    0.000 
#    0.000    0.000    0.000    0.000    0.000    0.000 
#
# Total GULP energy -223157.681626 kJ/mol
# GULP energy per Si atom -12397.648979 kJ/mol
# Density = 2.609571 g / cm^3
# Si number density = 26.155243 Si / 1000 Ang^3
#
#
#
# Elastic Constant Matrix: (Units=GPa)
#
#
# Indices 1 2 3 4 5 6 
#
# 1 139.6998 31.5265 43.9392 0.0000 14.4047 0.0000
# 2 31.5265 135.9197 64.9897 0.0000 9.5374 0.0000
# 3 43.9392 64.9897 164.4228 0.0000 12.0751 0.0000
# 4 0.0000 0.0000 0.0000 41.6829 0.0000 -19.0469
# 5 14.4047 9.5374 12.0751 0.0000 32.1049 0.0000
# 6 0.0000 0.0000 0.0000 -19.0469 0.0000 31.9665
#
#
#
# Elastic Compliance Matrix: (Units=1/GPa)
#
#
# Indices 1 2 3 4 5 6 
#
# 1 0.008161 -0.000928 -0.001610 0.000000 -0.002780 0.000000
# 2 -0.000928 0.009238 -0.003324 0.000000 -0.001078 0.000000
# 3 -0.001610 -0.003324 0.007919 0.000000 -0.001269 0.000000
# 4 0.000000 0.000000 0.000000 0.032966 0.000000 0.019643
# 5 -0.002780 -0.001078 -0.001269 0.000000 0.033193 0.000000
# 6 0.000000 0.000000 0.000000 0.019643 0.000000 0.042987
#
#
# Mechanical properties :
#
#
# Convention : Reuss Voigt Hill
#
# Bulk Modulus (GPa) = 73.56471 80.10591 76.83531
# Shear Modulus (GPa) = 33.17455 41.12332 37.14893
#
# Velocity S-wave (km/s) = 3.56528 3.96950 3.77281
# Velocity P-wave (km/s) = 6.71830 7.19047 6.95839
#
# Compressibility (1/GPa) = 0.01359347
#
# Stress axis : x y z
#
# Youngs Moduli (GPa) = 122.53931 108.25359 126.27655
#
# Poissons Ratio (x) = 0.10046 0.20328
# Poissons Ratio (y) = 0.11372 0.41976
# Poissons Ratio (z) = 0.19726 0.35985
#
# Static dielectric constant tensor:
#      x y z
#    x 4.978760 0.000000 -0.209240 
#    y 0.000000 4.187030 0.000000 
#    z -0.209240 0.000000 5.193870 
# 
# 
# High freq. dielectric constant tensor:
#      x y z
#    x 2.053730 0.000000 -0.008890 
#    y 0.000000 2.027430 0.000000 
#    z -0.008890 0.000000 2.075250 
# 
# From -- ./inp_files/165051.got.cif
#   From: 2010.06.25/outbox.cif.g09.slc.cpg/sg15_83_cif.got.tgz:165051.got - 2010.06.28 07:06:18.
