data_PCOD8150240
_publ_section_title
;
Structure prediction by ZEFSAII (Michael W. Deem and Ramdas Pophale) SiO2 
 PCOD8150240
Probable space group: C 2/C
;
_chemical_formula_sum "Si O2"
_cell_formula_units_Z 56
_cell_length_a 8.195768
_cell_length_b 22.054882
_cell_length_c 16.063319
_cell_angle_alpha 90.000000
_cell_angle_beta 62.311574
_cell_angle_gamma 90.000000
_cell_volume 2571.059442
_symmetry_space_group_name_H-M "C 2/C"
_symmetry_group_IT_number 15
_symmetry_cell_setting 'monoclinic'
loop_
_space_group_symop_operation_xyz
x,y,z
-x,y,1/2-z
-x,-y,-z
x,-y,1/2+z
1/2+x,1/2+y,z
1/2-x,1/2+y,1/2-z
1/2-x,1/2-y,-z
1/2+x,1/2-y,1/2+z
loop_
_atom_site_type_symbol
_atom_site_label
_atom_site_fract_x
_atom_site_fract_y
_atom_site_fract_z
Si Si1 0.500000 0.439602 0.250000
Si Si2 0.893364 0.509644 0.612678
Si Si3 0.332437 0.345674 0.163372
Si Si4 0.396716 0.236587 0.395814
Si Si5 0.610208 0.774766 0.337566
Si Si6 0.000000 0.177481 0.250000
Si Si7 0.630337 0.119616 0.365294
Si Si8 0.882403 0.377671 0.441847
O O1 0.329865 0.478820 0.329258
O O2 0.439219 0.397766 0.187334
O O3 0.929809 0.446870 0.654974
O O4 0.000000 0.500000 0.500000
O O5 0.990060 0.568982 0.628271
O O6 0.444666 0.284136 0.126380
O O7 0.151289 0.323188 0.254361
O O8 0.286300 0.369678 0.081878
O O9 0.250000 0.250000 0.500000
O O10 0.300093 0.247277 0.329214
O O11 0.470073 0.167654 0.384060
O O12 0.479922 0.720576 0.335918
O O13 0.495626 0.814916 0.429935
O O14 0.180594 0.138288 0.223137
O O15 0.684930 0.108182 0.449271
#
# Coordination Sequence:
#
# PCOD8150240 Si02
#       8
#     4   8   8   8   8   4   8   8
#     4  12  23  44  74  94 133 178 234 282 332 394
#     4  10  24  45  67  93 132 174 225 276 329 394
#     4  12  23  39  70 101 125 170 230 278 330 395
#     4  12  24  39  65  98 133 170 211 271 345 396
#     4  12  21  39  65  97 131 165 217 275 323 395
#     4  12  25  40  64  92 135 170 218 262 340 408
#     4  11  25  44  63  93 137 176 212 270 338 400
#     4  11  22  43  67  97 127 171 225 279 323 385
#
# _framework density 21.780905000000001
#
# number of rings (size 3 to 8) (size 9 to 14) (size 15 to 20)
#    0.000    0.571    7.143    0.429    4.000    1.143 
#    0.000    7.143    0.000    0.000    0.000    0.000 
#    0.000    0.000    0.000    0.000    0.000    0.000 
#
# Total GULP energy -346943.154820 kJ/mol
# GULP energy per Si atom -12390.826958 kJ/mol
# Density = 2.173133 g / cm^3
# Si number density = 21.780905 Si / 1000 Ang^3
#
#
#
# Elastic Constant Matrix: (Units=GPa)
#
#
# Indices 1 2 3 4 5 6 
#
# 1 103.3009 48.1619 9.4822 0.0000 8.6486 0.0000
# 2 48.1619 167.1760 19.2970 0.0000 -9.2845 0.0000
# 3 9.4822 19.2970 54.8356 0.0000 -8.9728 0.0000
# 4 0.0000 0.0000 0.0000 26.3004 0.0000 -3.5496
# 5 8.6486 -9.2845 -8.9728 0.0000 38.3565 0.0000
# 6 0.0000 0.0000 0.0000 -3.5496 0.0000 21.5167
#
#
#
# Elastic Compliance Matrix: (Units=1/GPa)
#
#
# Indices 1 2 3 4 5 6 
#
# 1 0.011729 -0.003424 -0.001447 0.000000 -0.003812 0.000000
# 2 -0.003424 0.007274 -0.001615 0.000000 0.002155 0.000000
# 3 -0.001447 -0.001615 0.019802 0.000000 0.004568 0.000000
# 4 0.000000 0.000000 0.000000 0.038888 0.000000 0.006415
# 5 -0.003812 0.002155 0.004568 0.000000 0.028521 0.000000
# 6 0.000000 0.000000 0.000000 0.006415 0.000000 0.047534
#
#
# Mechanical properties :
#
#
# Convention : Reuss Voigt Hill
#
# Bulk Modulus (GPa) = 38.70954 53.24386 45.97670
# Shear Modulus (GPa) = 28.51753 33.79281 31.15517
#
# Velocity S-wave (km/s) = 3.62234 3.94317 3.78615
# Velocity P-wave (km/s) = 5.94188 6.72530 6.34569
#
# Compressibility (1/GPa) = 0.02583343
#
# Stress axis : x y z
#
# Youngs Moduli (GPa) = 85.26177 137.47337 50.49900
#
# Poissons Ratio (x) = 0.47065 0.07308
# Poissons Ratio (y) = 0.29190 0.08157
# Poissons Ratio (z) = 0.12338 0.22205
#
# Static dielectric constant tensor:
#      x y z
#    x 3.961840 0.000000 -0.027700 
#    y 0.000000 4.442370 0.000000 
#    z -0.027700 0.000000 3.664950 
# 
# 
# High freq. dielectric constant tensor:
#      x y z
#    x 1.845030 0.000000 -0.011740 
#    y 0.000000 1.871290 0.000000 
#    z -0.011740 0.000000 1.849020 
# 
# From -- ./inp_files/192057.got.cif
#   From: 2010.06.25/outbox.cif.g09.slc.cpg/sg15_97_cif.got.tgz:192057.got - 2010.06.28 07:06:18.
