data_PCOD8150089
_publ_section_title
;
Structure prediction by ZEFSAII (Michael W. Deem and Ramdas Pophale) SiO2 
 PCOD8150089
Probable space group: C 2/C
;
_chemical_formula_sum "Si O2"
_cell_formula_units_Z 52
_cell_length_a 11.089556
_cell_length_b 8.280798
_cell_length_c 30.088160
_cell_angle_alpha 90.000000
_cell_angle_beta 124.301164
_cell_angle_gamma 90.000000
_cell_volume 2282.483705
_symmetry_space_group_name_H-M "C 2/C"
_symmetry_group_IT_number 15
_symmetry_cell_setting 'monoclinic'
loop_
_space_group_symop_operation_xyz
x,y,z
-x,y,1/2-z
-x,-y,-z
x,-y,1/2+z
1/2+x,1/2+y,z
1/2-x,1/2+y,1/2-z
1/2-x,1/2-y,-z
1/2+x,1/2-y,1/2+z
loop_
_atom_site_type_symbol
_atom_site_label
_atom_site_fract_x
_atom_site_fract_y
_atom_site_fract_z
Si Si1 0.400497 0.721353 0.057986
Si Si2 0.500000 0.052981 0.250000
Si Si3 0.688908 0.756682 0.673589
Si Si4 0.922554 0.325618 0.483882
Si Si5 0.781674 0.921980 0.772868
Si Si6 0.084551 0.849690 0.428885
Si Si7 0.059295 0.298834 0.337873
O O1 0.536710 0.751733 0.054643
O O2 0.429438 0.540169 0.079357
O O3 0.407534 0.837715 0.102986
O O4 0.250000 0.750000 0.000000
O O5 0.352422 0.159391 0.225678
O O6 0.508641 0.948345 0.297541
O O7 0.732752 0.914577 0.710945
O O8 0.724678 0.607204 0.713438
O O9 0.517991 0.746348 0.626822
O O10 0.787155 0.764109 0.649812
O O11 0.972446 0.213350 0.535104
O O12 0.749705 0.316287 0.450932
O O13 0.000000 0.500000 0.500000
O O14 0.937077 0.840753 0.812551
#
# Coordination Sequence:
#
# PCOD8150089 Si02
#       7
#     8   4   8   8   8   8   8
#     4  12  24  44  73  99 138 190 224 283 359 413
#     4  10  24  44  66 100 138 172 232 290 336 416
#     4  11  24  44  71  99 139 180 229 288 346 413
#     4  11  25  46  67 105 141 177 240 289 340 423
#     4  11  21  45  66  97 135 175 227 280 344 403
#     4  11  25  46  69 102 142 182 233 288 351 422
#     4  11  22  44  69  96 138 179 228 283 343 412
#
# _framework density 22.782201000000001
#
# number of rings (size 3 to 8) (size 9 to 14) (size 15 to 20)
#    0.000    0.923    6.154    1.385    0.000    2.462 
#    2.769    0.000    0.000    0.000    0.000    0.000 
#    0.000    0.000    0.000    0.000    0.000    0.000 
#
# Total GULP energy -322092.223635 kJ/mol
# GULP energy per Si atom -12388.162447 kJ/mol
# Density = 2.273035 g / cm^3
# Si number density = 22.782201 Si / 1000 Ang^3
#
#
#
# Elastic Constant Matrix: (Units=GPa)
#
#
# Indices 1 2 3 4 5 6 
#
# 1 148.2030 21.9877 60.1595 0.0000 -8.8185 0.0000
# 2 21.9877 36.0499 27.3239 0.0000 0.8194 0.0000
# 3 60.1595 27.3239 171.1808 0.0000 -11.2753 0.0000
# 4 0.0000 0.0000 0.0000 21.2195 0.0000 -6.5941
# 5 -8.8185 0.8194 -11.2753 0.0000 39.5703 0.0000
# 6 0.0000 0.0000 0.0000 -6.5941 0.0000 37.2244
#
#
#
# Elastic Compliance Matrix: (Units=1/GPa)
#
#
# Indices 1 2 3 4 5 6 
#
# 1 0.008242 -0.003325 -0.002283 0.000000 0.001255 0.000000
# 2 -0.003325 0.033076 -0.004285 0.000000 -0.002647 0.000000
# 3 -0.002283 -0.004285 0.007440 0.000000 0.001700 0.000000
# 4 0.000000 0.000000 0.000000 0.049872 0.000000 0.008835
# 5 0.001255 -0.002647 0.001700 0.000000 0.026090 0.000000
# 6 0.000000 0.000000 0.000000 0.008835 0.000000 0.028429
#
#
# Mechanical properties :
#
#
# Convention : Reuss Voigt Hill
#
# Bulk Modulus (GPa) = 34.51756 63.81952 49.16854
# Shear Modulus (GPa) = 27.38319 36.00036 31.69178
#
# Velocity S-wave (km/s) = 3.47068 3.97948 3.73376
# Velocity P-wave (km/s) = 5.58971 7.01347 6.34167
#
# Compressibility (1/GPa) = 0.02897076
#
# Stress axis : x y z
#
# Youngs Moduli (GPa) = 121.32481 30.23377 134.40534
#
# Poissons Ratio (x) = 0.10053 0.30688
# Poissons Ratio (y) = 0.40342 0.57597
# Poissons Ratio (z) = 0.27701 0.12956
#
# Static dielectric constant tensor:
#      x y z
#    x 4.532350 0.000000 -0.138130 
#    y 0.000000 3.752440 0.000000 
#    z -0.138130 0.000000 4.252530 
# 
# 
# High freq. dielectric constant tensor:
#      x y z
#    x 1.927010 0.000000 0.005690 
#    y 0.000000 1.869020 0.000000 
#    z 0.005690 0.000000 1.909150 
# 
# From -- ./inp_files/291680.got.cif
#   From: 2010.06.25/outbox.cif.g09.slc.cpg/sg15_146_cif.got.tgz:291680.got - 2010.06.28 07:06:18.
