data_PCOD8150940
_publ_section_title
;
Structure prediction by ZEFSAII (Michael W. Deem and Ramdas Pophale) SiO2 
 PCOD8150940
Probable space group: C 2/C
;
_chemical_formula_sum "Si O2"
_cell_formula_units_Z 48
_cell_length_a 12.430645
_cell_length_b 13.003924
_cell_length_c 28.864539
_cell_angle_alpha 90.000000
_cell_angle_beta 151.504007
_cell_angle_gamma 90.000000
_cell_volume 2226.074372
_symmetry_space_group_name_H-M "C 2/C"
_symmetry_group_IT_number 15
_symmetry_cell_setting 'monoclinic'
loop_
_space_group_symop_operation_xyz
x,y,z
-x,y,1/2-z
-x,-y,-z
x,-y,1/2+z
1/2+x,1/2+y,z
1/2-x,1/2+y,1/2-z
1/2-x,1/2-y,-z
1/2+x,1/2-y,1/2+z
loop_
_atom_site_type_symbol
_atom_site_label
_atom_site_fract_x
_atom_site_fract_y
_atom_site_fract_z
Si Si1 0.756016 0.503875 0.139205
Si Si2 0.046015 0.014586 0.391438
Si Si3 0.482584 0.124271 0.527059
Si Si4 0.446788 0.329836 0.991395
Si Si5 0.209168 0.016525 0.297536
Si Si6 0.899533 0.357989 0.529058
O O1 0.600801 0.551655 0.120842
O O2 0.754388 0.591973 0.098794
O O3 0.000000 0.480510 0.250000
O O4 0.670130 0.395695 0.086282
O O5 0.226819 0.100945 0.445776
O O6 0.167893 0.911138 0.457202
O O7 0.880971 0.985100 0.286905
O O8 0.501432 0.248805 0.530246
O O9 0.663895 0.082706 0.632903
O O10 0.539274 0.081483 0.496636
O O11 0.367166 0.264654 0.007370
O O12 0.000000 0.051923 0.250000
O O13 0.384092 0.112815 0.357424
#
# Coordination Sequence:
#
# PCOD8150940 Si02
#       6
#     8   8   8   8   8   8
#     4  11  26  43  58  81 122 168 202 238 289 350
#     4  11  21  36  63  96 120 149 195 244 299 356
#     4   9  19  36  63  91 112 153 191 245 302 339
#     4   9  22  45  62  76 124 157 202 247 288 346
#     4  11  15  30  59  97 127 139 176 249 306 352
#     4   9  19  36  63  91 112 153 191 245 302 339
#
# _framework density 21.562622000000001
#
# number of rings (size 3 to 8) (size 9 to 14) (size 15 to 20)
#    1.000    1.000    3.333    1.000    0.000   10.667 
#    0.000    3.333    0.000    0.000    0.000    0.000 
#    0.000    0.000    0.000    0.000    0.000    0.000 
#
# Total GULP energy -297470.316332 kJ/mol
# GULP energy per Si atom -12394.596514 kJ/mol
# Density = 2.151354 g / cm^3
# Si number density = 21.562622 Si / 1000 Ang^3
#
#
#
# Elastic Constant Matrix: (Units=GPa)
#
#
# Indices 1 2 3 4 5 6 
#
# 1 33.8625 -9.2151 -0.2702 0.0003 1.3286 0.0000
# 2 -9.2151 95.1430 36.1820 0.0000 -2.8676 -0.0001
# 3 -0.2702 36.1820 149.2393 0.0006 -3.4033 -0.0002
# 4 0.0003 0.0000 0.0006 15.2837 0.0001 -6.3727
# 5 1.3286 -2.8676 -3.4033 0.0001 17.6427 -0.0002
# 6 0.0000 -0.0001 -0.0002 -6.3727 -0.0002 14.9933
#
#
#
# Elastic Compliance Matrix: (Units=1/GPa)
#
#
# Indices 1 2 3 4 5 6 
#
# 1 0.030467 0.003182 -0.000760 -0.000001 -0.001924 0.000000
# 2 0.003182 0.011942 -0.002863 0.000000 0.001149 0.000000
# 3 -0.000760 -0.002863 0.007417 0.000000 0.001023 0.000000
# 4 -0.000001 0.000000 0.000000 0.079523 0.000000 0.033800
# 5 -0.001924 0.001149 0.001023 0.000000 0.057210 0.000001
# 6 0.000000 0.000000 0.000000 0.033800 0.000001 0.081063
#
#
# Mechanical properties :
#
#
# Convention : Reuss Voigt Hill
#
# Bulk Modulus (GPa) = 20.43216 36.84867 28.64041
# Shear Modulus (GPa) = 17.55509 26.35381 21.95445
#
# Velocity S-wave (km/s) = 2.85642 3.49979 3.19434
# Velocity P-wave (km/s) = 4.51388 5.78425 5.18810
#
# Compressibility (1/GPa) = 0.04894246
#
# Stress axis : x y z
#
# Youngs Moduli (GPa) = 32.82291 83.73656 134.82928
#
# Poissons Ratio (x) = -0.26644 0.10249
# Poissons Ratio (y) = -0.10444 0.38606
# Poissons Ratio (z) = 0.02495 0.23977
#
# Static dielectric constant tensor:
#      x y z
#    x 3.725290 0.000000 -0.103930 
#    y 0.000000 3.688420 0.000000 
#    z -0.103930 0.000000 3.887810 
# 
# 
# High freq. dielectric constant tensor:
#      x y z
#    x 1.842100 0.000000 -0.005430 
#    y 0.000000 1.842290 0.000000 
#    z -0.005430 0.000000 1.844870 
# 
# From -- ./inp_files/293136.got.cif
#   From: 2010.06.25/outbox.cif.g09.slc.cpg/sg15_147_cif.got.tgz:293136.got - 2010.06.28 07:06:18.
