data_PCOD8150494
_publ_section_title
;
Structure prediction by ZEFSAII (Michael W. Deem and Ramdas Pophale) SiO2 
 PCOD8150494
Probable space group: C 2/C
;
_chemical_formula_sum "Si O2"
_cell_formula_units_Z 40
_cell_length_a 4.926222
_cell_length_b 19.385734
_cell_length_c 17.142478
_cell_angle_alpha 90.000000
_cell_angle_beta 76.146463
_cell_angle_gamma 90.000000
_cell_volume 1589.458664
_symmetry_space_group_name_H-M "C 2/C"
_symmetry_group_IT_number 15
_symmetry_cell_setting 'monoclinic'
loop_
_space_group_symop_operation_xyz
x,y,z
-x,y,1/2-z
-x,-y,-z
x,-y,1/2+z
1/2+x,1/2+y,z
1/2-x,1/2+y,1/2-z
1/2-x,1/2-y,-z
1/2+x,1/2-y,1/2+z
loop_
_atom_site_type_symbol
_atom_site_label
_atom_site_fract_x
_atom_site_fract_y
_atom_site_fract_z
Si Si1 0.500000 0.713068 0.750000
Si Si2 0.482033 0.751292 0.917381
Si Si3 0.500000 0.119490 0.750000
Si Si4 0.448235 0.397114 0.046187
Si Si5 0.290134 0.519924 0.834147
Si Si6 0.447682 0.101175 0.058019
O O1 0.375070 0.755333 0.833149
O O2 0.729222 0.666382 0.776684
O O3 0.646465 0.679349 0.918864
O O4 0.666400 0.820656 0.917265
O O5 0.250000 0.750000 0.000000
O O6 0.542242 0.072557 0.824737
O O7 0.517520 0.447160 0.112493
O O8 0.189891 0.427182 0.013123
O O9 0.718452 0.395531 0.970894
O O10 0.500000 0.503686 0.750000
O O11 0.142404 0.448709 0.866396
#
# Coordination Sequence:
#
# PCOD8150494 Si02
#       6
#     4   8   4   8   8   8
#     4  12  26  47  78 105 146 194 254 306 362 442
#     4  10  24  48  76 107 145 194 244 302 370 443
#     4  12  26  45  74 107 140 196 254 300 356 450
#     4  11  24  46  74 103 139 195 245 290 358 447
#     4  12  27  45  75 106 149 189 246 301 370 437
#     4  11  27  45  71 106 148 183 239 305 372 430
#
# _framework density 25.165803
#
# number of rings (size 3 to 8) (size 9 to 14) (size 15 to 20)
#    0.000    0.800    3.000    1.800    8.400    4.000 
#    5.400    0.000    0.000    0.000    0.000    0.000 
#    0.000    0.000    0.000    0.000    0.000    0.000 
#
# Total GULP energy -247874.270085 kJ/mol
# GULP energy per Si atom -12393.713504 kJ/mol
# Density = 2.510852 g / cm^3
# Si number density = 25.165803 Si / 1000 Ang^3
#
#
#
# Elastic Constant Matrix: (Units=GPa)
#
#
# Indices 1 2 3 4 5 6 
#
# 1 92.2653 15.1938 22.1526 0.0000 21.5658 0.0000
# 2 15.1938 130.2717 49.6446 0.0000 -3.0230 0.0000
# 3 22.1526 49.6446 184.3496 0.0000 3.7708 0.0000
# 4 0.0000 0.0000 0.0000 47.6570 0.0000 3.0448
# 5 21.5658 -3.0230 3.7708 0.0000 30.3976 0.0000
# 6 0.0000 0.0000 0.0000 3.0448 0.0000 23.5874
#
#
#
# Elastic Compliance Matrix: (Units=1/GPa)
#
#
# Indices 1 2 3 4 5 6 
#
# 1 0.013577 -0.001405 -0.001056 0.000000 -0.009641 0.000000
# 2 -0.001405 0.008739 -0.002228 0.000000 0.002142 0.000000
# 3 -0.001056 -0.002228 0.006156 0.000000 -0.000236 0.000000
# 4 0.000000 0.000000 0.000000 0.021158 0.000000 -0.002731
# 5 -0.009641 0.002142 -0.000236 0.000000 0.039979 0.000000
# 6 0.000000 0.000000 0.000000 -0.002731 0.000000 0.042748
#
#
# Mechanical properties :
#
#
# Convention : Reuss Voigt Hill
#
# Bulk Modulus (GPa) = 52.37342 64.54095 58.45718
# Shear Modulus (GPa) = 33.76104 41.65480 37.70792
#
# Velocity S-wave (km/s) = 3.66668 4.07285 3.87509
# Velocity P-wave (km/s) = 6.22757 6.91516 6.58035
#
# Compressibility (1/GPa) = 0.01909365
#
# Stress axis : x y z
#
# Youngs Moduli (GPa) = 73.65636 114.42931 162.43549
#
# Poissons Ratio (x) = 0.16075 0.17152
# Poissons Ratio (y) = 0.10347 0.36197
# Poissons Ratio (z) = 0.07778 0.25499
#
# Static dielectric constant tensor:
#      x y z
#    x 4.300970 0.000000 0.024520 
#    y 0.000000 5.008730 0.000000 
#    z 0.024520 0.000000 4.805400 
# 
# 
# High freq. dielectric constant tensor:
#      x y z
#    x 1.985310 0.000000 -0.001850 
#    y 0.000000 2.001920 0.000000 
#    z -0.001850 0.000000 2.027840 
# 
# From -- ./inp_files/185079.got.cif
#   From: 2010.06.25/outbox.cif.g09.slc.cpg/sg15_93_cif.got.tgz:185079.got - 2010.06.28 07:06:18.
