data_PCOD8150730
_publ_section_title
;
Structure prediction by ZEFSAII (Michael W. Deem and Ramdas Pophale) SiO2 
 PCOD8150730
Probable space group: C 2/C
;
_chemical_formula_sum "Si O2"
_cell_formula_units_Z 40
_cell_length_a 17.757519
_cell_length_b 10.488096
_cell_length_c 8.994049
_cell_angle_alpha 90.000000
_cell_angle_beta 82.696449
_cell_angle_gamma 90.000000
_cell_volume 1661.484137
_symmetry_space_group_name_H-M "C 2/C"
_symmetry_group_IT_number 15
_symmetry_cell_setting 'monoclinic'
loop_
_space_group_symop_operation_xyz
x,y,z
-x,y,1/2-z
-x,-y,-z
x,-y,1/2+z
1/2+x,1/2+y,z
1/2-x,1/2+y,1/2-z
1/2-x,1/2-y,-z
1/2+x,1/2-y,1/2+z
loop_
_atom_site_type_symbol
_atom_site_label
_atom_site_fract_x
_atom_site_fract_y
_atom_site_fract_z
Si Si1 0.211367 0.104526 0.812886
Si Si2 0.966252 0.244150 0.109220
Si Si3 0.374531 0.050068 0.775628
Si Si4 0.388857 0.825052 0.575918
Si Si5 0.184543 0.856681 0.001653
O O1 0.298756 0.125800 0.741725
O O2 0.177524 0.219316 0.920781
O O3 0.162409 0.096597 0.673556
O O4 0.217716 0.974151 0.901811
O O5 0.943793 0.384570 0.172187
O O6 0.893945 0.175628 0.059223
O O7 0.000000 0.172645 0.250000
O O8 0.030161 0.255379 0.964769
O O9 0.379319 0.899007 0.735575
O O10 0.379260 0.067039 0.951995
O O11 0.250000 0.750000 0.000000
#
# Coordination Sequence:
#
# PCOD8150730 Si02
#       5
#     8   8   8   8   8
#     4  12  27  45  78 110 153 198 262 311 379 460
#     4  10  25  48  75 108 157 199 254 311 383 448
#     4  11  23  45  75 104 155 197 250 314 374 453
#     4  11  26  46  73 113 151 203 253 316 383 451
#     4  12  27  51  77 114 153 203 253 317 383 455
#
# _framework density 24.074863000000001
#
# number of rings (size 3 to 8) (size 9 to 14) (size 15 to 20)
#    0.000    0.800    2.000    3.600    8.400    1.600 
#    0.000    0.000    0.000    0.000    0.000    0.000 
#    0.000    0.000    0.000    0.000    0.000    0.000 
#
# Total GULP energy -247910.981739 kJ/mol
# GULP energy per Si atom -12395.549087 kJ/mol
# Density = 2.402007 g / cm^3
# Si number density = 24.074863 Si / 1000 Ang^3
#
#
#
# Elastic Constant Matrix: (Units=GPa)
#
#
# Indices 1 2 3 4 5 6 
#
# 1 128.3321 25.7997 37.8043 0.0000 -8.3603 0.0000
# 2 25.7997 97.7518 48.9423 0.0000 -6.4090 0.0000
# 3 37.8043 48.9423 118.7007 0.0000 2.0660 0.0000
# 4 0.0000 0.0000 0.0000 38.5974 0.0000 11.5812
# 5 -8.3603 -6.4090 2.0660 0.0000 50.3616 0.0000
# 6 0.0000 0.0000 0.0000 11.5812 0.0000 26.2125
#
#
#
# Elastic Compliance Matrix: (Units=1/GPa)
#
#
# Indices 1 2 3 4 5 6 
#
# 1 0.008800 -0.001025 -0.002405 0.000000 0.001429 0.000000
# 2 -0.001025 0.013187 -0.005141 0.000000 0.001719 0.000000
# 3 -0.002405 -0.005141 0.011337 0.000000 -0.001519 0.000000
# 4 0.000000 0.000000 0.000000 0.029868 0.000000 -0.013196
# 5 0.001429 0.001719 -0.001519 0.000000 0.020375 0.000000
# 6 0.000000 0.000000 0.000000 -0.013196 0.000000 0.043980
#
#
# Mechanical properties :
#
#
# Convention : Reuss Voigt Hill
#
# Bulk Modulus (GPa) = 61.79533 63.31969 62.55751
# Shear Modulus (GPa) = 33.31526 38.51687 35.91606
#
# Velocity S-wave (km/s) = 3.72401 4.00419 3.86664
# Velocity P-wave (km/s) = 6.64941 6.90915 6.78052
#
# Compressibility (1/GPa) = 0.01618245
#
# Stress axis : x y z
#
# Youngs Moduli (GPa) = 113.63829 75.83204 88.21021
#
# Poissons Ratio (x) = 0.07771 0.21214
# Poissons Ratio (y) = 0.11645 0.45347
# Poissons Ratio (z) = 0.27330 0.38984
#
# Static dielectric constant tensor:
#      x y z
#    x 4.562740 0.000000 0.139110 
#    y 0.000000 3.937750 0.000000 
#    z 0.139110 0.000000 4.551150 
# 
# 
# High freq. dielectric constant tensor:
#      x y z
#    x 1.972440 0.000000 -0.001100 
#    y 0.000000 1.928180 0.000000 
#    z -0.001100 0.000000 1.965840 
# 
# From -- ./inp_files/46111.got.cif
#   From: 2010.06.25/outbox.cif.g09.slc.cpg/sg15_24_cif.got.tgz:46111.got - 2010.06.28 07:06:18.
