data_PCOD8150366
_publ_section_title
;
Structure prediction by ZEFSAII (Michael W. Deem and Ramdas Pophale) SiO2 
 PCOD8150366
Probable space group: C 2/C
;
_chemical_formula_sum "Si O2"
_cell_formula_units_Z 40
_cell_length_a 19.324976
_cell_length_b 9.439722
_cell_length_c 10.023881
_cell_angle_alpha 90.000000
_cell_angle_beta 76.621419
_cell_angle_gamma 90.000000
_cell_volume 1778.957238
_symmetry_space_group_name_H-M "C 2/C"
_symmetry_group_IT_number 15
_symmetry_cell_setting 'monoclinic'
loop_
_space_group_symop_operation_xyz
x,y,z
-x,y,1/2-z
-x,-y,-z
x,-y,1/2+z
1/2+x,1/2+y,z
1/2-x,1/2+y,1/2-z
1/2-x,1/2-y,-z
1/2+x,1/2-y,1/2+z
loop_
_atom_site_type_symbol
_atom_site_label
_atom_site_fract_x
_atom_site_fract_y
_atom_site_fract_z
Si Si1 0.804940 0.557962 0.770326
Si Si2 0.421616 0.492409 0.240590
Si Si3 0.079315 0.671768 0.200190
Si Si4 0.637407 0.293933 0.921344
Si Si5 0.714681 0.501199 0.548924
O O1 0.863878 0.438544 0.768951
O O2 0.840875 0.706999 0.719401
O O3 0.757445 0.511101 0.666818
O O4 0.757326 0.593919 0.922329
O O5 0.500000 0.535456 0.250000
O O6 0.413070 0.322510 0.226708
O O7 0.406980 0.568367 0.106124
O O8 0.365030 0.548864 0.376903
O O9 0.000000 0.608903 0.250000
O O10 0.090276 0.694201 0.037129
O O11 0.706131 0.347349 0.975208
#
# Coordination Sequence:
#
# PCOD8150366 Si02
#       5
#     8   8   8   8   8
#     4  12  24  45  73 101 136 182 228 285 343 401
#     4  10  24  46  70  99 138 181 227 280 341 405
#     4  10  25  46  68  98 139 184 225 283 339 407
#     4  11  24  46  68 100 143 173 233 286 336 401
#     4  11  24  44  70 101 135 179 227 283 341 403
#
# _framework density 22.485081000000001
#
# number of rings (size 3 to 8) (size 9 to 14) (size 15 to 20)
#    0.000    1.200    4.000    0.600    2.800    9.600 
#   10.800    0.000    0.000    0.000    0.000    0.000 
#    0.000    0.000    0.000    0.000    0.000    0.000 
#
# Total GULP energy -247880.425718 kJ/mol
# GULP energy per Si atom -12394.021286 kJ/mol
# Density = 2.243390 g / cm^3
# Si number density = 22.485081 Si / 1000 Ang^3
#
#
#
# Elastic Constant Matrix: (Units=GPa)
#
#
# Indices 1 2 3 4 5 6 
#
# 1 163.3094 55.6050 68.2949 0.0000 -4.1803 0.0000
# 2 55.6050 63.0010 33.6527 0.0000 5.7635 0.0000
# 3 68.2949 33.6527 119.4808 0.0000 6.9893 0.0000
# 4 0.0000 0.0000 0.0000 4.9673 0.0000 -0.8303
# 5 -4.1803 5.7635 6.9893 0.0000 35.5873 0.0000
# 6 0.0000 0.0000 0.0000 -0.8303 0.0000 20.0328
#
#
#
# Elastic Compliance Matrix: (Units=1/GPa)
#
#
# Indices 1 2 3 4 5 6 
#
# 1 0.010390 -0.007287 -0.004074 0.000000 0.003201 0.000000
# 2 -0.007287 0.023939 -0.002327 0.000000 -0.004276 0.000000
# 3 -0.004074 -0.002327 0.011491 0.000000 -0.002359 0.000000
# 4 0.000000 0.000000 0.000000 0.202720 0.000000 0.008402
# 5 0.003201 -0.004276 -0.002359 0.000000 0.029632 0.000000
# 6 0.000000 0.000000 0.000000 0.008402 0.000000 0.050266
#
#
# Mechanical properties :
#
#
# Convention : Reuss Voigt Hill
#
# Bulk Modulus (GPa) = 54.21704 73.43291 63.82497
# Shear Modulus (GPa) = 13.81360 24.66673 19.24017
#
# Velocity S-wave (km/s) = 2.48129 3.31573 2.92838
# Velocity P-wave (km/s) = 5.68980 6.88391 6.31514
#
# Compressibility (1/GPa) = 0.01844439
#
# Stress axis : x y z
#
# Youngs Moduli (GPa) = 96.24601 41.77351 87.02119
#
# Poissons Ratio (x) = 0.30441 0.35450
# Poissons Ratio (y) = 0.70136 0.20250
# Poissons Ratio (z) = 0.39208 0.09721
#
# Static dielectric constant tensor:
#      x y z
#    x 4.239080 0.000000 -0.252870 
#    y 0.000000 3.879690 0.000000 
#    z -0.252870 0.000000 4.304700 
# 
# 
# High freq. dielectric constant tensor:
#      x y z
#    x 1.891840 0.000000 -0.009840 
#    y 0.000000 1.863800 0.000000 
#    z -0.009840 0.000000 1.899180 
# 
# From -- ./inp_files/54123.got.cif
#   From: 2010.06.25/outbox.cif.g09.slc.cpg/sg15_28_cif.got.tgz:54123.got - 2010.06.28 07:06:18.
