data_PCOD8150379
_publ_section_title
;
Structure prediction by ZEFSAII (Michael W. Deem and Ramdas Pophale) SiO2 
 PCOD8150379
Probable space group: C 2/C
;
_chemical_formula_sum "Si O2"
_cell_formula_units_Z 44
_cell_length_a 14.206451
_cell_length_b 8.838760
_cell_length_c 16.602287
_cell_angle_alpha 90.000000
_cell_angle_beta 118.053731
_cell_angle_gamma 90.000000
_cell_volume 1839.767688
_symmetry_space_group_name_H-M "C 2/C"
_symmetry_group_IT_number 15
_symmetry_cell_setting 'monoclinic'
loop_
_space_group_symop_operation_xyz
x,y,z
-x,y,1/2-z
-x,-y,-z
x,-y,1/2+z
1/2+x,1/2+y,z
1/2-x,1/2+y,1/2-z
1/2-x,1/2-y,-z
1/2+x,1/2-y,1/2+z
loop_
_atom_site_type_symbol
_atom_site_label
_atom_site_fract_x
_atom_site_fract_y
_atom_site_fract_z
Si Si1 0.363136 0.694245 0.266371
Si Si2 0.957625 0.332683 0.975749
Si Si3 0.337704 0.967781 0.788909
Si Si4 0.632303 0.323817 0.447434
Si Si5 0.500000 0.812805 0.750000
Si Si6 0.098627 0.845717 0.896443
O O1 0.285255 0.571700 0.276164
O O2 0.343471 0.712792 0.161798
O O3 0.476314 0.619391 0.327498
O O4 0.350788 0.853070 0.309579
O O5 0.868724 0.348514 0.871431
O O6 0.057574 0.223420 0.993083
O O7 0.897033 0.282184 0.032570
O O8 0.000000 0.500000 0.000000
O O9 0.411763 0.929633 0.744371
O O10 0.750000 0.250000 0.500000
O O11 0.563415 0.287191 0.339979
O O12 0.653166 0.503326 0.453743
#
# Coordination Sequence:
#
# PCOD8150379 Si02
#       6
#     8   8   8   8   4   8
#     4  11  26  44  75 103 143 192 244 299 374 437
#     4  11  25  47  70 102 148 187 240 305 363 439
#     4  11  26  44  73 103 141 195 240 301 374 438
#     4  11  27  45  75 109 148 195 245 303 369 439
#     4  10  24  46  72 102 152 188 248 302 362 442
#     4  11  25  47  71 104 149 188 245 303 361 446
#
# _framework density 23.916063999999999
#
# number of rings (size 3 to 8) (size 9 to 14) (size 15 to 20)
#    0.000    1.091    1.818    2.727   15.273    2.182 
#    0.000    0.000    0.000    0.000    0.000    0.000 
#    0.000    0.000    0.000    0.000    0.000    0.000 
#
# Total GULP energy -272713.672052 kJ/mol
# GULP energy per Si atom -12396.076002 kJ/mol
# Density = 2.386163 g / cm^3
# Si number density = 23.916064 Si / 1000 Ang^3
#
#
#
# Elastic Constant Matrix: (Units=GPa)
#
#
# Indices 1 2 3 4 5 6 
#
# 1 120.4246 34.2224 30.5920 0.0000 3.0988 0.0000
# 2 34.2224 128.9979 29.0261 0.0000 1.7618 0.0000
# 3 30.5920 29.0261 64.6970 0.0000 -11.6028 0.0000
# 4 0.0000 0.0000 0.0000 39.2105 0.0000 2.6993
# 5 3.0988 1.7618 -11.6028 0.0000 35.0040 0.0000
# 6 0.0000 0.0000 0.0000 2.6993 0.0000 41.4133
#
#
#
# Elastic Compliance Matrix: (Units=1/GPa)
#
#
# Indices 1 2 3 4 5 6 
#
# 1 0.009933 -0.001621 -0.004373 0.000000 -0.002247 0.000000
# 2 -0.001621 0.008998 -0.003536 0.000000 -0.001482 0.000000
# 3 -0.004373 -0.003536 0.020427 0.000000 0.007336 0.000000
# 4 0.000000 0.000000 0.000000 0.025618 0.000000 -0.001670
# 5 -0.002247 -0.001482 0.007336 0.000000 0.031273 0.000000
# 6 0.000000 0.000000 0.000000 -0.001670 0.000000 0.024256
#
#
# Mechanical properties :
#
#
# Convention : Reuss Voigt Hill
#
# Bulk Modulus (GPa) = 49.26558 55.75563 52.51060
# Shear Modulus (GPa) = 34.16923 37.81084 35.99004
#
# Velocity S-wave (km/s) = 3.78393 3.98047 3.88345
# Velocity P-wave (km/s) = 6.30357 6.67002 6.48938
#
# Compressibility (1/GPa) = 0.02029815
#
# Stress axis : x y z
#
# Youngs Moduli (GPa) = 100.67277 111.13651 48.95590
#
# Poissons Ratio (x) = 0.18010 0.21408
# Poissons Ratio (y) = 0.16315 0.17312
# Poissons Ratio (z) = 0.44023 0.39301
#
# Static dielectric constant tensor:
#      x y z
#    x 4.551960 0.000000 0.345510 
#    y 0.000000 5.520670 0.000000 
#    z 0.345510 0.000000 6.964480 
# 
# 
# High freq. dielectric constant tensor:
#      x y z
#    x 1.960580 0.000000 0.000850 
#    y 0.000000 1.943220 0.000000 
#    z 0.000850 0.000000 1.948770 
# 
# From -- ./inp_files/203080.got.cif
#   From: 2010.06.25/outbox.cif.g09.slc.cpg/sg15_102_cif.got.tgz:203080.got - 2010.06.28 07:06:18.
