data_PCOD8150294
_publ_section_title
;
Structure prediction by ZEFSAII (Michael W. Deem and Ramdas Pophale) SiO2 
 PCOD8150294
Probable space group: C 2/C
;
_chemical_formula_sum "Si O2"
_cell_formula_units_Z 40
_cell_length_a 18.744361
_cell_length_b 8.177104
_cell_length_c 12.031999
_cell_angle_alpha 90.000000
_cell_angle_beta 67.009323
_cell_angle_gamma 90.000000
_cell_volume 1697.712009
_symmetry_space_group_name_H-M "C 2/C"
_symmetry_group_IT_number 15
_symmetry_cell_setting 'monoclinic'
loop_
_space_group_symop_operation_xyz
x,y,z
-x,y,1/2-z
-x,-y,-z
x,-y,1/2+z
1/2+x,1/2+y,z
1/2-x,1/2+y,1/2-z
1/2-x,1/2-y,-z
1/2+x,1/2-y,1/2+z
loop_
_atom_site_type_symbol
_atom_site_label
_atom_site_fract_x
_atom_site_fract_y
_atom_site_fract_z
Si Si1 0.210859 0.184303 0.914510
Si Si2 0.190198 0.408452 0.731676
Si Si3 0.077067 0.226170 0.646400
Si Si4 0.958094 0.901994 0.929060
Si Si5 0.061274 0.371687 0.419637
O O1 0.232319 0.309227 0.803312
O O2 0.241700 0.001781 0.874263
O O3 0.250000 0.250000 0.000000
O O4 0.118330 0.185749 0.977973
O O5 0.150419 0.276825 0.674825
O O6 0.130360 0.544928 0.810986
O O7 0.092962 0.282696 0.511092
O O8 0.000000 0.304803 0.750000
O O9 0.065903 0.027290 0.655042
O O10 0.018623 0.756649 0.861096
O O11 0.000000 0.000000 0.000000
O O12 0.000000 0.500000 0.500000
#
# Coordination Sequence:
#
# PCOD8150294 Si02
#       5
#     8   8   8   8   8
#     4  12  29  48  69 112 148 195 248 303 375 450
#     4  12  27  45  75 103 152 193 241 303 378 434
#     4  11  23  43  72 108 141 189 246 302 365 442
#     4  10  24  45  72 101 144 185 249 305 361 445
#     4  11  21  46  73 103 141 184 244 305 356 443
#
# _framework density 23.561122999999998
#
# number of rings (size 3 to 8) (size 9 to 14) (size 15 to 20)
#    0.000    0.800    4.000    2.400    8.400    2.400 
#    0.000    0.000    0.000    0.000    0.000    0.000 
#    0.000    0.000    0.000    0.000    0.000    0.000 
#
# Total GULP energy -248013.049836 kJ/mol
# GULP energy per Si atom -12400.652492 kJ/mol
# Density = 2.350750 g / cm^3
# Si number density = 23.561123 Si / 1000 Ang^3
#
#
#
# Elastic Constant Matrix: (Units=GPa)
#
#
# Indices 1 2 3 4 5 6 
#
# 1 115.4521 49.5707 31.1855 0.0000 28.9047 0.0000
# 2 49.5707 128.9637 26.7263 0.0000 31.5601 0.0000
# 3 31.1855 26.7263 67.6060 0.0000 27.4466 0.0000
# 4 0.0000 0.0000 0.0000 50.7240 0.0000 4.8738
# 5 28.9047 31.5601 27.4466 0.0000 37.1992 0.0000
# 6 0.0000 0.0000 0.0000 4.8738 0.0000 59.1712
#
#
#
# Elastic Compliance Matrix: (Units=1/GPa)
#
#
# Indices 1 2 3 4 5 6 
#
# 1 0.011746 -0.002804 -0.002242 0.000000 -0.005094 0.000000
# 2 -0.002804 0.010479 -0.000178 0.000000 -0.006581 0.000000
# 3 -0.002242 -0.000178 0.021597 0.000000 -0.014042 0.000000
# 4 0.000000 0.000000 0.000000 0.019872 0.000000 -0.001637
# 5 -0.005094 -0.006581 -0.014042 0.000000 0.046785 0.000000
# 6 0.000000 0.000000 0.000000 -0.001637 0.000000 0.017035
#
#
# Mechanical properties :
#
#
# Convention : Reuss Voigt Hill
#
# Bulk Modulus (GPa) = 29.96174 58.55409 44.25791
# Shear Modulus (GPa) = 33.53787 43.05484 38.29635
#
# Velocity S-wave (km/s) = 3.77694 4.27941 4.03600
# Velocity P-wave (km/s) = 5.63601 7.02309 6.36743
#
# Compressibility (1/GPa) = 0.03337590
#
# Stress axis : x y z
#
# Youngs Moduli (GPa) = 85.13232 95.42796 46.30345
#
# Poissons Ratio (x) = 0.26756 0.10380
# Poissons Ratio (y) = 0.23869 0.00822
# Poissons Ratio (z) = 0.19085 0.01695
#
# Static dielectric constant tensor:
#      x y z
#    x 4.237290 0.000000 -0.021470 
#    y 0.000000 4.791560 0.000000 
#    z -0.021470 0.000000 4.387520 
# 
# 
# High freq. dielectric constant tensor:
#      x y z
#    x 1.934840 0.000000 0.002420 
#    y 0.000000 1.949720 0.000000 
#    z 0.002420 0.000000 1.923020 
# 
# From -- ./inp_files/109561.got.cif
#   From: 2010.06.25/outbox.cif.g09.slc.cpg/sg15_55_cif.got.tgz:109561.got - 2010.06.28 07:06:18.
