data_PCOD8150820
_publ_section_title
;
Structure prediction by ZEFSAII (Michael W. Deem and Ramdas Pophale) SiO2 
 PCOD8150820
Probable space group: C 2/C
;
_chemical_formula_sum "Si O2"
_cell_formula_units_Z 40
_cell_length_a 7.696357
_cell_length_b 23.039910
_cell_length_c 15.991846
_cell_angle_alpha 90.000000
_cell_angle_beta 39.161903
_cell_angle_gamma 90.000000
_cell_volume 1790.801658
_symmetry_space_group_name_H-M "C 2/C"
_symmetry_group_IT_number 15
_symmetry_cell_setting 'monoclinic'
loop_
_space_group_symop_operation_xyz
x,y,z
-x,y,1/2-z
-x,-y,-z
x,-y,1/2+z
1/2+x,1/2+y,z
1/2-x,1/2+y,1/2-z
1/2-x,1/2-y,-z
1/2+x,1/2-y,1/2+z
loop_
_atom_site_type_symbol
_atom_site_label
_atom_site_fract_x
_atom_site_fract_y
_atom_site_fract_z
Si Si1 0.808421 0.184765 0.242781
Si Si2 0.500000 0.725142 0.750000
Si Si3 0.278798 0.401600 0.990697
Si Si4 0.000000 0.434272 0.250000
Si Si5 0.835905 0.634596 0.525480
Si Si6 0.501771 0.478501 0.150783
O O1 0.734762 0.238130 0.210189
O O2 0.526736 0.155044 0.378141
O O3 0.000000 0.204102 0.250000
O O4 0.964025 0.138426 0.127241
O O5 0.640975 0.687111 0.625687
O O6 0.348158 0.468508 0.949421
O O7 0.194246 0.393961 0.119227
O O8 0.013182 0.384301 0.038024
O O9 0.186720 0.475373 0.238551
O O10 0.654149 0.580129 0.565071
O O11 0.500000 0.488669 0.250000
#
# Coordination Sequence:
#
# PCOD8150820 Si02
#       6
#     8   4   8   4   8   8
#     4  10  26  45  71 104 139 187 236 287 348 413
#     4  12  24  47  72 104 140 183 240 292 340 414
#     4  11  25  46  71 104 145 185 229 292 352 417
#     4  12  26  41  66 110 138 187 234 274 352 426
#     4  11  23  48  71 104 136 190 237 277 366 403
#     4  12  24  45  72  99 147 181 231 294 344 427
#
# _framework density 22.336365000000001
#
# number of rings (size 3 to 8) (size 9 to 14) (size 15 to 20)
#    0.000    0.800    3.000    3.600    5.600    4.000 
#   10.800    0.000    0.000    0.000    0.000    0.000 
#    0.000    0.000    0.000    0.000    0.000    0.000 
#
# Total GULP energy -248102.540509 kJ/mol
# GULP energy per Si atom -12405.127025 kJ/mol
# Density = 2.228553 g / cm^3
# Si number density = 22.336365 Si / 1000 Ang^3
#
#
#
# Elastic Constant Matrix: (Units=GPa)
#
#
# Indices 1 2 3 4 5 6 
#
# 1 96.2513 46.5957 39.2737 0.0000 -9.8217 0.0000
# 2 46.5957 151.5557 62.1159 -0.0001 -5.7675 0.0000
# 3 39.2737 62.1159 159.7817 0.0006 7.2935 -0.0001
# 4 0.0000 -0.0001 0.0006 10.6868 -0.0007 -9.6818
# 5 -9.8217 -5.7675 7.2935 -0.0007 27.9352 0.0002
# 6 0.0000 0.0000 -0.0001 -9.6818 0.0002 29.8907
#
#
#
# Elastic Compliance Matrix: (Units=1/GPa)
#
#
# Indices 1 2 3 4 5 6 
#
# 1 0.013235 -0.002940 -0.002323 0.000001 0.004653 0.000000
# 2 -0.002940 0.008671 -0.002715 0.000000 0.001465 0.000000
# 3 -0.002323 -0.002715 0.008044 -0.000001 -0.003477 0.000000
# 4 0.000001 0.000000 -0.000001 0.132436 0.000004 0.042897
# 5 0.004653 0.001465 -0.003477 0.000004 0.038643 0.000001
# 6 0.000000 0.000000 0.000000 0.042897 0.000001 0.047350
#
#
# Mechanical properties :
#
#
# Convention : Reuss Voigt Hill
#
# Bulk Modulus (GPa) = 71.45853 78.17326 74.81590
# Shear Modulus (GPa) = 18.58741 31.00943 24.79842
#
# Velocity S-wave (km/s) = 2.88785 3.73002 3.33562
# Velocity P-wave (km/s) = 6.57123 7.32291 6.95722
#
# Compressibility (1/GPa) = 0.01399413
#
# Stress axis : x y z
#
# Youngs Moduli (GPa) = 75.55560 115.33084 124.32266
#
# Poissons Ratio (x) = 0.33910 0.28874
# Poissons Ratio (y) = 0.22215 0.33753
# Poissons Ratio (z) = 0.17548 0.31312
#
# Static dielectric constant tensor:
#      x y z
#    x 4.100220 0.000000 -0.094980 
#    y 0.000000 4.015870 0.000000 
#    z -0.094980 0.000000 4.219570 
# 
# 
# High freq. dielectric constant tensor:
#      x y z
#    x 1.887790 0.000000 -0.006260 
#    y 0.000000 1.871510 0.000000 
#    z -0.006260 0.000000 1.900130 
# 
# From -- ./inp_files/77972.got.cif
#   From: 2010.06.25/outbox.cif.g09.slc.cpg/sg15_39_cif.got.tgz:77972.got - 2010.06.28 07:06:18.
