data_PCOD8150522
_publ_section_title
;
Structure prediction by ZEFSAII (Michael W. Deem and Ramdas Pophale) SiO2 
 PCOD8150522
Probable space group: C 2/C
;
_chemical_formula_sum "Si O2"
_cell_formula_units_Z 64
_cell_length_a 14.656176
_cell_length_b 30.870000
_cell_length_c 8.017414
_cell_angle_alpha 90.000000
_cell_angle_beta 129.132313
_cell_angle_gamma 90.000000
_cell_volume 2813.715229
_symmetry_space_group_name_H-M "C 2/C"
_symmetry_group_IT_number 15
_symmetry_cell_setting 'monoclinic'
loop_
_space_group_symop_operation_xyz
x,y,z
-x,y,1/2-z
-x,-y,-z
x,-y,1/2+z
1/2+x,1/2+y,z
1/2-x,1/2+y,1/2-z
1/2-x,1/2-y,-z
1/2+x,1/2-y,1/2+z
loop_
_atom_site_type_symbol
_atom_site_label
_atom_site_fract_x
_atom_site_fract_y
_atom_site_fract_z
Si Si1 0.865687 0.763449 0.522076
Si Si2 0.335791 0.884709 0.623878
Si Si3 0.966522 0.302268 0.895315
Si Si4 0.623214 0.522043 0.303641
Si Si5 0.177202 0.419318 0.398562
Si Si6 0.623694 0.563751 0.947571
Si Si7 0.527930 0.050772 0.037411
Si Si8 0.797484 0.336655 0.235370
O O1 0.750000 0.750000 0.500000
O O2 0.875627 0.729637 0.381216
O O3 0.824174 0.809645 0.398889
O O4 0.000000 0.768350 0.750000
O O5 0.405447 0.849170 0.812084
O O6 0.211514 0.895900 0.566011
O O7 0.415648 0.929333 0.726183
O O8 0.309974 0.866803 0.411936
O O9 0.000000 0.284341 0.750000
O O10 0.086761 0.305835 0.143391
O O11 0.500000 0.523986 0.250000
O O12 0.706511 0.553721 0.504643
O O13 0.669197 0.472101 0.365121
O O14 0.610217 0.537110 0.100927
O O15 0.123986 0.437166 0.508062
O O16 0.205616 0.367768 0.431600
O O17 0.091747 0.424974 0.142069
O O18 0.500000 0.584188 0.750000
O O19 0.500000 0.000000 0.000000
#
# Coordination Sequence:
#
# PCOD8150522 Si02
#       8
#     8   8   8   8   8   8   8   8
#     4  12  27  51  85 116 153 196 257 322 389 493
#     4  11  24  46  71 101 149 193 243 311 374 453
#     4  10  24  50  78 109 150 198 243 308 401 470
#     4  11  24  42  66  91 136 196 245 309 368 443
#     4  11  25  40  68  99 144 186 236 312 365 441
#     4  11  24  43  63  96 135 194 255 308 368 439
#     4  11  24  43  68 108 141 195 256 303 368 439
#     4  11  26  46  73 110 148 195 245 305 398 457
#
# _framework density 22.745728
#
# number of rings (size 3 to 8) (size 9 to 14) (size 15 to 20)
#    0.000    1.000    3.750    2.250    5.250    4.500 
#    2.250    0.000    0.000    0.000    0.000    0.000 
#    0.000    0.000    0.000    0.000    0.000    0.000 
#
# Total GULP energy -396476.431955 kJ/mol
# GULP energy per Si atom -12389.888499 kJ/mol
# Density = 2.269396 g / cm^3
# Si number density = 22.745728 Si / 1000 Ang^3
#
#
#
# Elastic Constant Matrix: (Units=GPa)
#
#
# Indices 1 2 3 4 5 6 
#
# 1 113.9955 70.5163 51.0756 0.0000 8.5282 0.0000
# 2 70.5163 139.3745 48.3693 0.0000 12.4050 0.0000
# 3 51.0756 48.3693 113.8061 0.0000 24.7158 0.0000
# 4 0.0000 0.0000 0.0000 49.0452 0.0000 30.2962
# 5 8.5282 12.4050 24.7158 0.0000 34.9586 0.0000
# 6 0.0000 0.0000 0.0000 30.2962 0.0000 77.1668
#
#
#
# Elastic Compliance Matrix: (Units=1/GPa)
#
#
# Indices 1 2 3 4 5 6 
#
# 1 0.014155 -0.005840 -0.004218 0.000000 0.001602 0.000000
# 2 -0.005840 0.010835 -0.001723 0.000000 -0.001202 0.000000
# 3 -0.004218 -0.001723 0.013062 0.000000 -0.007594 0.000000
# 4 0.000000 0.000000 0.000000 0.026917 0.000000 -0.010568
# 5 0.001602 -0.001202 -0.007594 0.000000 0.034010 0.000000
# 6 0.000000 0.000000 0.000000 -0.010568 0.000000 0.017108
#
#
# Mechanical properties :
#
#
# Convention : Reuss Voigt Hill
#
# Bulk Modulus (GPa) = 69.02076 78.56651 73.79363
# Shear Modulus (GPa) = 34.60695 45.38180 39.99438
#
# Velocity S-wave (km/s) = 3.90483 4.47159 4.19779
# Velocity P-wave (km/s) = 7.12325 7.82792 7.48388
#
# Compressibility (1/GPa) = 0.01448840
#
# Stress axis : x y z
#
# Youngs Moduli (GPa) = 70.64471 92.29591 76.56080
#
# Poissons Ratio (x) = 0.53905 0.32297
# Poissons Ratio (y) = 0.41260 0.13189
# Poissons Ratio (z) = 0.29801 0.15900
#
# Static dielectric constant tensor:
#      x y z
#    x 4.100340 0.000000 0.140460 
#    y 0.000000 4.528080 0.000000 
#    z 0.140460 0.000000 4.393500 
# 
# 
# High freq. dielectric constant tensor:
#      x y z
#    x 1.899330 0.000000 0.008180 
#    y 0.000000 1.888410 0.000000 
#    z 0.008180 0.000000 1.911810 
# 
# From -- ./inp_files/44890.got.cif
#   From: 2010.06.25/outbox.cif.g09.slc.cpg/sg15_23_cif.got.tgz:44890.got - 2010.06.28 07:06:18.
