data_PCOD8150420
_publ_section_title
;
Structure prediction by ZEFSAII (Michael W. Deem and Ramdas Pophale) SiO2 
 PCOD8150420
Probable space group: C 2/C
;
_chemical_formula_sum "Si O2"
_cell_formula_units_Z 44
_cell_length_a 19.789067
_cell_length_b 13.844695
_cell_length_c 11.974142
_cell_angle_alpha 90.000000
_cell_angle_beta 140.623900
_cell_angle_gamma 90.000000
_cell_volume 2081.238504
_symmetry_space_group_name_H-M "C 2/C"
_symmetry_group_IT_number 15
_symmetry_cell_setting 'monoclinic'
loop_
_space_group_symop_operation_xyz
x,y,z
-x,y,1/2-z
-x,-y,-z
x,-y,1/2+z
1/2+x,1/2+y,z
1/2-x,1/2+y,1/2-z
1/2-x,1/2-y,-z
1/2+x,1/2-y,1/2+z
loop_
_atom_site_type_symbol
_atom_site_label
_atom_site_fract_x
_atom_site_fract_y
_atom_site_fract_z
Si Si1 0.419425 0.484209 0.244291
Si Si2 0.000000 0.474064 0.250000
Si Si3 0.461640 0.788425 0.083865
Si Si4 0.566438 0.650042 0.060988
Si Si5 0.200787 0.604702 0.456871
Si Si6 0.237709 0.264846 0.805881
O O1 0.500000 0.518011 0.250000
O O2 0.402607 0.570250 0.309212
O O3 0.465628 0.387767 0.361831
O O4 0.302290 0.459176 0.049311
O O5 0.031136 0.405124 0.395341
O O6 0.098910 0.538332 0.341454
O O7 0.500000 0.740168 0.250000
O O8 0.538895 0.751306 0.084900
O O9 0.341336 0.754751 0.901009
O O10 0.662919 0.669025 0.100987
O O11 0.175512 0.681585 0.327196
O O12 0.223660 0.659823 0.603062
#
# Coordination Sequence:
#
# PCOD8150420 Si02
#       6
#     8   4   8   8   8   8
#     4  11  22  43  69 100 133 171 233 284 336 408
#     4  10  26  46  66 100 142 180 226 280 346 406
#     4  10  24  47  61  98 138 179 225 270 351 410
#     4  11  23  42  69  97 133 179 225 281 344 409
#     4  11  24  44  71 100 132 176 232 284 335 407
#     4  11  24  42  71  97 133 179 227 281 343 402
#
# _framework density 21.141259000000002
#
# number of rings (size 3 to 8) (size 9 to 14) (size 15 to 20)
#    0.545    0.727    3.636    1.636    2.545    1.455 
#    6.545    0.000    0.000    0.000    0.000    0.000 
#    0.000    0.000    0.000    0.000    0.000    0.000 
#
# Total GULP energy -272809.463829 kJ/mol
# GULP energy per Si atom -12400.430174 kJ/mol
# Density = 2.109314 g / cm^3
# Si number density = 21.141259 Si / 1000 Ang^3
#
#
#
# Elastic Constant Matrix: (Units=GPa)
#
#
# Indices 1 2 3 4 5 6 
#
# 1 109.5872 44.5419 27.0619 0.0000 12.8181 0.0000
# 2 44.5419 77.9360 6.0782 0.0000 6.7588 0.0000
# 3 27.0619 6.0782 77.6728 0.0000 14.4351 0.0000
# 4 0.0000 0.0000 0.0000 30.7099 0.0000 -3.8885
# 5 12.8181 6.7588 14.4351 0.0000 31.2270 0.0000
# 6 0.0000 0.0000 0.0000 -3.8885 0.0000 33.8690
#
#
#
# Elastic Compliance Matrix: (Units=1/GPa)
#
#
# Indices 1 2 3 4 5 6 
#
# 1 0.013134 -0.007034 -0.003617 0.000000 -0.002197 0.000000
# 2 -0.007034 0.016864 0.001392 0.000000 -0.001406 0.000000
# 3 -0.003617 0.001392 0.015103 0.000000 -0.005798 0.000000
# 4 0.000000 0.000000 0.000000 0.033043 0.000000 0.003794
# 5 -0.002197 -0.001406 -0.005798 0.000000 0.035910 0.000000
# 6 0.000000 0.000000 0.000000 0.003794 0.000000 0.029961
#
#
# Mechanical properties :
#
#
# Convention : Reuss Voigt Hill
#
# Bulk Modulus (GPa) = 37.61616 46.72890 42.17253
# Shear Modulus (GPa) = 29.17221 31.66211 30.41716
#
# Velocity S-wave (km/s) = 3.71869 3.87414 3.79721
# Velocity P-wave (km/s) = 6.02243 6.49331 6.26230
#
# Compressibility (1/GPa) = 0.02658432
#
# Stress axis : x y z
#
# Youngs Moduli (GPa) = 76.13621 59.29637 66.20987
#
# Poissons Ratio (x) = 0.41709 0.23951
# Poissons Ratio (y) = 0.53553 -0.09219
# Poissons Ratio (z) = 0.27542 -0.08256
#
# Static dielectric constant tensor:
#      x y z
#    x 3.705550 0.000000 -0.037760 
#    y 0.000000 3.708060 0.000000 
#    z -0.037760 0.000000 3.831410 
# 
# 
# High freq. dielectric constant tensor:
#      x y z
#    x 1.824410 0.000000 0.001550 
#    y 0.000000 1.827210 0.000000 
#    z 0.001550 0.000000 1.830700 
# 
# From -- ./inp_files/96589.got.cif
#   From: 2010.06.25/outbox.cif.g09.slc.cpg/sg15_49_cif.got.tgz:96589.got - 2010.06.28 07:06:18.
