data_PCOD8150377
_publ_section_title
;
Structure prediction by ZEFSAII (Michael W. Deem and Ramdas Pophale) SiO2 
 PCOD8150377
Probable space group: C 2/C
;
_chemical_formula_sum "Si O2"
_cell_formula_units_Z 44
_cell_length_a 4.953002
_cell_length_b 13.188910
_cell_length_c 24.644110
_cell_angle_alpha 90.000000
_cell_angle_beta 93.859332
_cell_angle_gamma 90.000000
_cell_volume 1606.218340
_symmetry_space_group_name_H-M "C 2/C"
_symmetry_group_IT_number 15
_symmetry_cell_setting 'monoclinic'
loop_
_space_group_symop_operation_xyz
x,y,z
-x,y,1/2-z
-x,-y,-z
x,-y,1/2+z
1/2+x,1/2+y,z
1/2-x,1/2+y,1/2-z
1/2-x,1/2-y,-z
1/2+x,1/2-y,1/2+z
loop_
_atom_site_type_symbol
_atom_site_label
_atom_site_fract_x
_atom_site_fract_y
_atom_site_fract_z
Si Si1 0.358068 0.716384 0.200029
Si Si2 0.827458 0.051280 0.353785
Si Si3 0.527874 0.196329 0.947856
Si Si4 0.670417 0.408304 0.526604
Si Si5 0.986512 0.156112 0.621337
Si Si6 0.000000 0.562102 0.250000
O O1 0.500000 0.785552 0.250000
O O2 0.543183 0.661362 0.157320
O O3 0.108450 0.774886 0.170506
O O4 0.256496 0.626185 0.236586
O O5 0.702112 0.065129 0.412591
O O6 0.604656 0.008090 0.307138
O O7 0.044475 0.960197 0.360100
O O8 0.532805 0.310120 0.972623
O O9 0.822417 0.164697 0.929439
O O10 0.314598 0.194152 0.894890
O O11 0.426622 0.116037 0.991661
O O12 0.500000 0.500000 0.500000
#
# Coordination Sequence:
#
# PCOD8150377 Si02
#       6
#     8   8   8   8   8   4
#     4  10  24  47  71 105 146 196 251 316 376 442
#     4  11  24  46  72 107 144 198 247 311 375 450
#     4  11  27  48  73 112 154 199 250 303 381 452
#     4  11  23  48  73 112 152 201 249 311 374 454
#     4  12  26  48  77 111 150 198 250 311 376 453
#     4  10  24  46  72 102 144 194 252 314 374 444
#
# _framework density 27.393537999999999
#
# number of rings (size 3 to 8) (size 9 to 14) (size 15 to 20)
#    0.000    1.091    3.636    1.091    6.364    3.636 
#   11.455    0.000    0.000    0.000    0.000    0.000 
#    0.000    0.000    0.000    0.000    0.000    0.000 
#
# Total GULP energy -272602.015586 kJ/mol
# GULP energy per Si atom -12391.000708 kJ/mol
# Density = 2.733119 g / cm^3
# Si number density = 27.393538 Si / 1000 Ang^3
#
#
#
# Elastic Constant Matrix: (Units=GPa)
#
#
# Indices 1 2 3 4 5 6 
#
# 1 29.1177 -4.9732 -12.2499 0.0000 -1.0997 0.0000
# 2 -4.9732 108.0245 32.6763 0.0000 13.0437 0.0000
# 3 -12.2499 32.6763 180.2907 0.0000 24.3569 0.0000
# 4 0.0000 0.0000 0.0000 31.1635 0.0000 6.4787
# 5 -1.0997 13.0437 24.3569 0.0000 33.7179 0.0000
# 6 0.0000 0.0000 0.0000 6.4787 0.0000 26.3781
#
#
#
# Elastic Compliance Matrix: (Units=1/GPa)
#
#
# Indices 1 2 3 4 5 6 
#
# 1 0.035473 0.001036 0.002350 0.000000 -0.000941 0.000000
# 2 0.001036 0.010065 -0.001366 0.000000 -0.002873 0.000000
# 3 0.002350 -0.001366 0.006507 0.000000 -0.004096 0.000000
# 4 0.000000 0.000000 0.000000 0.033816 0.000000 -0.008305
# 5 -0.000941 -0.002873 -0.004096 0.000000 0.033697 0.000000
# 6 0.000000 0.000000 0.000000 -0.008305 0.000000 0.039950
#
#
# Mechanical properties :
#
#
# Convention : Reuss Voigt Hill
#
# Bulk Modulus (GPa) = 17.83000 38.70435 28.26718
# Shear Modulus (GPa) = 28.70871 38.38387 33.54629
#
# Velocity S-wave (km/s) = 3.24081 3.74732 3.50323
# Velocity P-wave (km/s) = 4.53065 5.73436 5.16767
#
# Compressibility (1/GPa) = 0.05608525
#
# Stress axis : x y z
#
# Youngs Moduli (GPa) = 28.19025 99.35539 153.67919
#
# Poissons Ratio (x) = -0.10293 -0.36109
# Poissons Ratio (y) = -0.02921 0.20987
# Poissons Ratio (z) = -0.06624 0.13568
#
# Static dielectric constant tensor:
#      x y z
#    x 4.486960 0.000000 0.138500 
#    y 0.000000 4.895370 0.000000 
#    z 0.138500 0.000000 6.225350 
# 
# 
# High freq. dielectric constant tensor:
#      x y z
#    x 2.080890 0.000000 0.014520 
#    y 0.000000 2.092250 0.000000 
#    z 0.014520 0.000000 2.148140 
# 
# From -- ./inp_files/260423.got.cif
#   From: 2010.06.25/outbox.cif.g09.slc.cpg/sg15_131_cif.got.tgz:260423.got - 2010.06.28 07:06:18.
