data_PCOD8150342
_publ_section_title
;
Structure prediction by ZEFSAII (Michael W. Deem and Ramdas Pophale) SiO2 
 PCOD8150342
Probable space group: C 2/C
;
_chemical_formula_sum "Si O2"
_cell_formula_units_Z 40
_cell_length_a 10.078924
_cell_length_b 32.831085
_cell_length_c 5.310398
_cell_angle_alpha 90.000000
_cell_angle_beta 77.750422
_cell_angle_gamma 90.000000
_cell_volume 1717.214135
_symmetry_space_group_name_H-M "C 2/C"
_symmetry_group_IT_number 15
_symmetry_cell_setting 'monoclinic'
loop_
_space_group_symop_operation_xyz
x,y,z
-x,y,1/2-z
-x,-y,-z
x,-y,1/2+z
1/2+x,1/2+y,z
1/2-x,1/2+y,1/2-z
1/2-x,1/2-y,-z
1/2+x,1/2-y,1/2+z
loop_
_atom_site_type_symbol
_atom_site_label
_atom_site_fract_x
_atom_site_fract_y
_atom_site_fract_z
Si Si1 0.278870 0.828486 0.680948
Si Si2 0.500000 0.861698 0.250000
Si Si3 0.500000 0.026545 0.250000
Si Si4 0.000000 0.782954 0.750000
Si Si5 0.814991 0.407312 0.959596
Si Si6 0.659632 0.522733 0.705776
Si Si7 0.500000 0.770347 0.750000
O O1 0.373380 0.834311 0.395667
O O2 0.364676 0.798173 0.825346
O O3 0.134028 0.810255 0.667592
O O4 0.246181 0.871552 0.826278
O O5 0.446832 0.889760 0.047868
O O6 0.368567 0.055358 0.270696
O O7 0.500000 0.000000 0.500000
O O8 0.996290 0.756416 0.501066
O O9 0.705448 0.429477 0.185767
O O10 0.500000 0.521996 0.750000
O O11 0.715566 0.497332 0.440481
#
# Coordination Sequence:
#
# PCOD8150342 Si02
#       7
#     8   4   4   4   8   8   4
#     4  12  27  49  77 113 151 199 250 308 381 451
#     4  12  24  46  74 105 158 192 256 302 387 428
#     4  12  24  40  65 104 138 184 248 298 355 420
#     4  12  31  48  83 116 146 198 250 308 375 468
#     4  12  25  43  72 104 143 200 242 313 361 443
#     4  10  24  46  69 101 145 197 246 306 377 438
#     4  12  25  54  78 113 154 194 242 312 381 456
#
# _framework density 23.293544000000001
#
# number of rings (size 3 to 8) (size 9 to 14) (size 15 to 20)
#    0.000    0.400    4.000    3.600    5.600    1.600 
#    1.800    0.000    0.000    0.000    0.000    0.000 
#    0.000    0.000    0.000    0.000    0.000    0.000 
#
# Total GULP energy -247938.839102 kJ/mol
# GULP energy per Si atom -12396.941955 kJ/mol
# Density = 2.324053 g / cm^3
# Si number density = 23.293544 Si / 1000 Ang^3
#
#
#
# Elastic Constant Matrix: (Units=GPa)
#
#
# Indices 1 2 3 4 5 6 
#
# 1 123.2995 72.9165 48.7160 0.0000 -4.0429 0.0000
# 2 72.9165 170.4322 84.0527 0.0000 -5.6732 0.0000
# 3 48.7160 84.0527 157.8239 0.0000 3.1194 0.0000
# 4 0.0000 0.0000 0.0000 42.2224 0.0000 -6.1612
# 5 -4.0429 -5.6732 3.1194 0.0000 27.1857 0.0000
# 6 0.0000 0.0000 0.0000 -6.1612 0.0000 31.3842
#
#
#
# Elastic Compliance Matrix: (Units=1/GPa)
#
#
# Indices 1 2 3 4 5 6 
#
# 1 0.011048 -0.004075 -0.001259 0.000000 0.000937 0.000000
# 2 -0.004075 0.009588 -0.003885 0.000000 0.001841 0.000000
# 3 -0.001259 -0.003885 0.008833 0.000000 -0.002011 0.000000
# 4 0.000000 0.000000 0.000000 0.024383 0.000000 0.004787
# 5 0.000937 0.001841 -0.002011 0.000000 0.037538 0.000000
# 6 0.000000 0.000000 0.000000 0.004787 0.000000 0.032803
#
#
# Mechanical properties :
#
#
# Convention : Reuss Voigt Hill
#
# Bulk Modulus (GPa) = 90.63869 95.88066 93.25967
# Shear Modulus (GPa) = 34.17456 36.54981 35.36219
#
# Velocity S-wave (km/s) = 3.83446 3.96548 3.90052
# Velocity P-wave (km/s) = 7.65507 7.88784 7.77233
#
# Compressibility (1/GPa) = 0.01103282
#
# Stress axis : x y z
#
# Youngs Moduli (GPa) = 90.51321 104.29733 113.20642
#
# Poissons Ratio (x) = 0.42499 0.14249
# Poissons Ratio (y) = 0.36883 0.43979
# Poissons Ratio (z) = 0.11392 0.40518
#
# Static dielectric constant tensor:
#      x y z
#    x 4.213750 0.000000 -0.175830 
#    y 0.000000 4.568820 0.000000 
#    z -0.175830 0.000000 4.165410 
# 
# 
# High freq. dielectric constant tensor:
#      x y z
#    x 1.923600 0.000000 -0.006160 
#    y 0.000000 1.937810 0.000000 
#    z -0.006160 0.000000 1.925920 
# 
# From -- ./inp_files/4992.got.cif
#   From: 2010.06.25/outbox.cif.g09.slc.cpg/sg15_3_cif.got.tgz:4992.got - 2010.06.28 07:06:18.
