data_PCOD8150894
_publ_section_title
;
Structure prediction by ZEFSAII (Michael W. Deem and Ramdas Pophale) SiO2 
 PCOD8150894
Probable space group: C 2/C
;
_chemical_formula_sum "Si O2"
_cell_formula_units_Z 40
_cell_length_a 11.582180
_cell_length_b 28.417929
_cell_length_c 11.114491
_cell_angle_alpha 90.000000
_cell_angle_beta 151.954026
_cell_angle_gamma 90.000000
_cell_volume 1720.031341
_symmetry_space_group_name_H-M "C 2/C"
_symmetry_group_IT_number 15
_symmetry_cell_setting 'monoclinic'
loop_
_space_group_symop_operation_xyz
x,y,z
-x,y,1/2-z
-x,-y,-z
x,-y,1/2+z
1/2+x,1/2+y,z
1/2-x,1/2+y,1/2-z
1/2-x,1/2-y,-z
1/2+x,1/2-y,1/2+z
loop_
_atom_site_type_symbol
_atom_site_label
_atom_site_fract_x
_atom_site_fract_y
_atom_site_fract_z
Si Si1 0.058131 0.776076 0.556027
Si Si2 0.644838 0.451872 0.117526
Si Si3 0.292408 0.371111 0.713901
Si Si4 0.000000 0.186132 0.750000
Si Si5 0.119387 0.610367 0.481935
Si Si6 0.500000 0.081649 0.750000
O O1 0.049394 0.823614 0.628484
O O2 0.112522 0.783448 0.463176
O O3 0.786659 0.753651 0.320411
O O4 0.752023 0.435873 0.344663
O O5 0.865949 0.452767 0.222883
O O6 0.500000 0.500000 0.000000
O O7 0.448695 0.414896 0.896522
O O8 0.068066 0.365923 0.598942
O O9 0.195938 0.382709 0.491275
O O10 0.797656 0.153433 0.623323
O O11 0.000000 0.591676 0.250000
#
# Coordination Sequence:
#
# PCOD8150894 Si02
#       6
#     8   8   8   4   8   4
#     4  12  26  42  72 110 152 204 258 317 388 460
#     4  11  25  50  74 109 144 191 252 306 377 462
#     4  11  24  48  69 102 151 191 250 311 372 454
#     4  12  22  42  66 111 156 195 240 316 384 466
#     4  11  21  41  72 104 149 199 233 308 388 444
#     4  10  26  48  80  99 144 201 242 310 384 442
#
# _framework density 23.255392000000001
#
# number of rings (size 3 to 8) (size 9 to 14) (size 15 to 20)
#    0.000    0.800    4.000    2.400    2.800    3.200 
#   18.000    1.000    0.000    0.000    0.000    0.000 
#    0.000    0.000    0.000    0.000    0.000    0.000 
#
# Total GULP energy -247985.966876 kJ/mol
# GULP energy per Si atom -12399.298344 kJ/mol
# Density = 2.320246 g / cm^3
# Si number density = 23.255392 Si / 1000 Ang^3
#
#
#
# Elastic Constant Matrix: (Units=GPa)
#
#
# Indices 1 2 3 4 5 6 
#
# 1 34.0114 3.4711 27.0946 0.0000 -16.3247 0.0000
# 2 3.4711 133.3113 73.3505 0.0000 -11.2923 0.0000
# 3 27.0946 73.3505 167.9995 0.0000 -18.2181 0.0000
# 4 0.0000 0.0000 0.0000 54.7044 0.0000 5.0293
# 5 -16.3247 -11.2923 -18.2181 0.0000 48.9405 0.0000
# 6 0.0000 0.0000 0.0000 5.0293 0.0000 26.3178
#
#
#
# Elastic Compliance Matrix: (Units=1/GPa)
#
#
# Indices 1 2 3 4 5 6 
#
# 1 0.040051 0.003690 -0.006804 0.000000 0.011678 0.000000
# 2 0.003690 0.010236 -0.004871 0.000000 0.001779 0.000000
# 3 -0.006804 -0.004871 0.009179 0.000000 0.000023 0.000000
# 4 0.000000 0.000000 0.000000 0.018607 0.000000 -0.003556
# 5 0.011678 0.001779 0.000023 0.000000 0.024748 0.000000
# 6 0.000000 0.000000 0.000000 -0.003556 0.000000 0.038677
#
#
# Mechanical properties :
#
#
# Convention : Reuss Voigt Hill
#
# Bulk Modulus (GPa) = 22.99094 60.35052 41.67073
# Shear Modulus (GPa) = 29.07543 41.41961 35.24752
#
# Velocity S-wave (km/s) = 3.53975 4.22486 3.89739
# Velocity P-wave (km/s) = 5.15889 7.05739 6.18146
#
# Compressibility (1/GPa) = 0.04349539
#
# Stress axis : x y z
#
# Youngs Moduli (GPa) = 24.96833 97.69213 108.94191
#
# Poissons Ratio (x) = -0.36049 0.74125
# Poissons Ratio (y) = -0.09214 0.53070
# Poissons Ratio (z) = 0.16989 0.47590
#
# Static dielectric constant tensor:
#      x y z
#    x 4.211950 0.000000 -0.035760 
#    y 0.000000 4.524520 0.000000 
#    z -0.035760 0.000000 4.790490 
# 
# 
# High freq. dielectric constant tensor:
#      x y z
#    x 1.914140 0.000000 0.000390 
#    y 0.000000 1.908650 0.000000 
#    z 0.000390 0.000000 1.947890 
# 
# From -- ./inp_files/92260.got.cif
#   From: 2010.06.25/outbox.cif.g09.slc.cpg/sg15_47_cif.got.tgz:92260.got - 2010.06.28 07:06:18.
