data_PCOD8150123
_publ_section_title
;
Structure prediction by ZEFSAII (Michael W. Deem and Ramdas Pophale) SiO2 
 PCOD8150123
Probable space group: C 2/C
;
_chemical_formula_sum "Si O2"
_cell_formula_units_Z 64
_cell_length_a 23.192120
_cell_length_b 14.913448
_cell_length_c 19.031592
_cell_angle_alpha 90.000000
_cell_angle_beta 152.078741
_cell_angle_gamma 90.000000
_cell_volume 3082.325893
_symmetry_space_group_name_H-M "C 2/C"
_symmetry_group_IT_number 15
_symmetry_cell_setting 'monoclinic'
loop_
_space_group_symop_operation_xyz
x,y,z
-x,y,1/2-z
-x,-y,-z
x,-y,1/2+z
1/2+x,1/2+y,z
1/2-x,1/2+y,1/2-z
1/2-x,1/2-y,-z
1/2+x,1/2-y,1/2+z
loop_
_atom_site_type_symbol
_atom_site_label
_atom_site_fract_x
_atom_site_fract_y
_atom_site_fract_z
Si Si1 0.006916 0.104299 0.176917
Si Si2 0.185206 0.655912 0.435139
Si Si3 0.369832 0.007109 0.899549
Si Si4 0.019555 0.198275 0.569658
Si Si5 0.206275 0.161265 0.655151
Si Si6 0.521102 0.137832 0.386610
Si Si7 0.571030 0.593569 0.763058
Si Si8 0.312124 0.350295 0.748882
O O1 0.000000 0.143042 0.250000
O O2 0.132222 0.126145 0.268182
O O3 0.886959 0.137965 0.007507
O O4 0.999904 0.997756 0.172084
O O5 0.250000 0.750000 0.500000
O O6 0.091172 0.675466 0.395782
O O7 0.285784 0.579446 0.561864
O O8 0.120021 0.624887 0.291894
O O9 0.281698 0.072486 0.759083
O O10 0.301041 0.913792 0.846842
O O11 0.409602 0.047062 0.017351
O O12 0.500000 0.000000 0.000000
O O13 0.138074 0.203281 0.648499
O O14 0.065372 0.155919 0.690332
O O15 0.971814 0.297850 0.537176
O O16 0.915660 0.137916 0.420565
O O17 0.286090 0.244434 0.713382
O O18 0.500000 0.643574 0.750000
#
# Coordination Sequence:
#
# PCOD8150123 Si02
#       8
#     8   8   8   8   8   8   8   8
#     4  10  24  44  68  93 122 166 230 283 330 390
#     4  11  22  35  59  92 133 172 210 247 323 400
#     4  12  26  42  65 100 137 174 215 275 333 393
#     4  11  21  38  66  95 129 173 216 265 323 395
#     4  11  24  43  69  96 127 168 226 275 332 400
#     4  11  23  38  58  94 133 170 207 261 315 394
#     4  11  22  37  62  93 131 171 216 259 317 392
#     4  11  24  42  71  96 132 174 219 280 340 388
#
# _framework density 20.763542999999999
#
# number of rings (size 3 to 8) (size 9 to 14) (size 15 to 20)
#    0.000    1.000    2.500    4.500    1.750    7.500 
#    0.000    0.000    5.500    0.000    0.000    0.000 
#    0.000    0.000    0.000    0.000    0.000    0.000 
#
# Total GULP energy -396541.128750 kJ/mol
# GULP energy per Si atom -12391.910273 kJ/mol
# Density = 2.071628 g / cm^3
# Si number density = 20.763543 Si / 1000 Ang^3
#
#
#
# Elastic Constant Matrix: (Units=GPa)
#
#
# Indices 1 2 3 4 5 6 
#
# 1 125.5730 19.9327 46.4559 -0.0001 -5.1519 -0.0001
# 2 19.9327 76.8331 30.0846 0.0000 -2.2320 0.0000
# 3 46.4559 30.0846 113.0132 0.0000 -5.0943 0.0000
# 4 -0.0001 0.0000 0.0000 23.9041 0.0000 8.7903
# 5 -5.1519 -2.2320 -5.0943 0.0000 34.2312 -0.0001
# 6 -0.0001 0.0000 0.0000 8.7903 -0.0001 23.5112
#
#
#
# Elastic Compliance Matrix: (Units=1/GPa)
#
#
# Indices 1 2 3 4 5 6 
#
# 1 0.009489 -0.001033 -0.003588 0.000000 0.000827 0.000000
# 2 -0.001033 0.014647 -0.003462 0.000000 0.000284 0.000000
# 3 -0.003588 -0.003462 0.011286 0.000000 0.000914 0.000000
# 4 0.000000 0.000000 0.000000 0.048502 0.000000 -0.018134
# 5 0.000827 0.000284 0.000914 0.000000 0.029492 0.000000
# 6 0.000000 0.000000 0.000000 -0.018134 0.000000 0.049313
#
#
# Mechanical properties :
#
#
# Convention : Reuss Voigt Hill
#
# Bulk Modulus (GPa) = 51.93051 56.48509 54.20780
# Shear Modulus (GPa) = 26.98133 30.92571 28.95352
#
# Velocity S-wave (km/s) = 3.60871 3.86349 3.73827
# Velocity P-wave (km/s) = 6.51371 6.86769 6.69304
#
# Compressibility (1/GPa) = 0.01925650
#
# Stress axis : x y z
#
# Youngs Moduli (GPa) = 105.38679 68.27405 88.60282
#
# Poissons Ratio (x) = 0.07050 0.31794
# Poissons Ratio (y) = 0.10882 0.30672
# Poissons Ratio (z) = 0.37817 0.23635
#
# Static dielectric constant tensor:
#      x y z
#    x 4.100450 0.000000 0.031290 
#    y 0.000000 4.590580 0.000000 
#    z 0.031290 0.000000 4.201280 
# 
# 
# High freq. dielectric constant tensor:
#      x y z
#    x 1.823930 0.000000 0.002820 
#    y 0.000000 1.799030 0.000000 
#    z 0.002820 0.000000 1.826660 
# 
# From -- ./inp_files/219733.got.cif
#   From: 2010.06.25/outbox.cif.g09.slc.cpg/sg15_110_cif.got.tgz:219733.got - 2010.06.28 07:06:18.
