data_PCOD8150023
_publ_section_title
;
Structure prediction by ZEFSAII (Michael W. Deem and Ramdas Pophale) SiO2 
 PCOD8150023
Probable space group: C 2/C
;
_chemical_formula_sum "Si O2"
_cell_formula_units_Z 40
_cell_length_a 22.218525
_cell_length_b 8.059388
_cell_length_c 12.999632
_cell_angle_alpha 90.000000
_cell_angle_beta 39.900892
_cell_angle_gamma 90.000000
_cell_volume 1493.203480
_symmetry_space_group_name_H-M "C 2/C"
_symmetry_group_IT_number 15
_symmetry_cell_setting 'monoclinic'
loop_
_space_group_symop_operation_xyz
x,y,z
-x,y,1/2-z
-x,-y,-z
x,-y,1/2+z
1/2+x,1/2+y,z
1/2-x,1/2+y,1/2-z
1/2-x,1/2-y,-z
1/2+x,1/2-y,1/2+z
loop_
_atom_site_type_symbol
_atom_site_label
_atom_site_fract_x
_atom_site_fract_y
_atom_site_fract_z
Si Si1 0.441291 0.111479 0.223042
Si Si2 0.020140 0.275902 0.103648
Si Si3 0.715626 0.319840 0.287333
Si Si4 0.906148 0.961900 0.210407
Si Si5 0.759599 0.057812 0.076059
O O1 0.500000 0.126985 0.250000
O O2 0.457521 0.279282 0.135390
O O3 0.327200 0.100001 0.386416
O O4 0.472716 0.944407 0.122409
O O5 0.000000 0.260724 0.250000
O O6 0.981732 0.107932 0.099027
O O7 0.130573 0.295946 0.939460
O O8 0.671043 0.472535 0.278891
O O9 0.780816 0.210190 0.127044
O O10 0.767199 0.396377 0.319285
O O11 0.854562 0.976355 0.388931
#
# Coordination Sequence:
#
# PCOD8150023 Si02
#       5
#     8   8   8   8   8
#     4  10  24  43  71 103 140 187 232 291 356 423
#     4  11  23  44  70 105 142 185 239 295 359 426
#     4  11  25  44  71 107 139 190 240 292 366 424
#     4  11  24  48  72 101 144 193 234 299 357 429
#     4  11  26  47  72 104 146 185 242 296 360 428
#
# _framework density 26.788045
#
# number of rings (size 3 to 8) (size 9 to 14) (size 15 to 20)
#    0.000    1.200    2.000    3.600    2.800   10.400 
#    0.000    0.000    0.000    0.000    0.000    0.000 
#    0.000    0.000    0.000    0.000    0.000    0.000 
#
# Total GULP energy -247907.066324 kJ/mol
# GULP energy per Si atom -12395.353316 kJ/mol
# Density = 2.672707 g / cm^3
# Si number density = 26.788045 Si / 1000 Ang^3
#
#
#
# Elastic Constant Matrix: (Units=GPa)
#
#
# Indices 1 2 3 4 5 6 
#
# 1 91.4205 39.5919 2.5018 0.0000 -2.0863 0.0005
# 2 39.5919 148.2240 27.2344 -0.0002 -7.6387 -0.0029
# 3 2.5018 27.2344 77.6099 -0.0003 2.8663 0.0004
# 4 0.0000 -0.0002 -0.0003 22.1137 0.0003 0.3960
# 5 -2.0863 -7.6387 2.8663 0.0003 27.1501 0.0004
# 6 0.0005 -0.0029 0.0004 0.3960 0.0004 43.4466
#
#
#
# Elastic Compliance Matrix: (Units=1/GPa)
#
#
# Indices 1 2 3 4 5 6 
#
# 1 0.012418 -0.003474 0.000823 0.000000 -0.000110 0.000000
# 2 -0.003474 0.008330 -0.002899 0.000000 0.002383 0.000001
# 3 0.000823 -0.002899 0.013958 0.000000 -0.002226 0.000000
# 4 0.000000 0.000000 0.000000 0.045228 -0.000001 -0.000412
# 5 -0.000110 0.002383 -0.002226 -0.000001 0.037729 0.000000
# 6 0.000000 0.000001 0.000000 -0.000412 0.000000 0.023021
#
#
# Mechanical properties :
#
#
# Convention : Reuss Voigt Hill
#
# Bulk Modulus (GPa) = 42.36302 50.65675 46.50988
# Shear Modulus (GPa) = 31.31807 35.07050 33.19429
#
# Velocity S-wave (km/s) = 3.42293 3.62219 3.52397
# Velocity P-wave (km/s) = 5.60985 6.03697 5.82732
#
# Compressibility (1/GPa) = 0.02360549
#
# Stress axis : x y z
#
# Youngs Moduli (GPa) = 80.52940 120.04971 71.64364
#
# Poissons Ratio (x) = 0.41702 -0.05894
# Poissons Ratio (y) = 0.27974 0.20770
# Poissons Ratio (z) = -0.06626 0.34804
#
# Static dielectric constant tensor:
#      x y z
#    x 4.740610 0.000000 0.299960 
#    y 0.000000 5.252960 0.000000 
#    z 0.299960 0.000000 4.650550 
# 
# 
# High freq. dielectric constant tensor:
#      x y z
#    x 2.068130 0.000000 0.024660 
#    y 0.000000 2.083010 0.000000 
#    z 0.024660 0.000000 2.082160 
# 
# From -- ./inp_files/171661.got.cif
#   From: 2010.06.25/outbox.cif.g09.slc.cpg/sg15_86_cif.got.tgz:171661.got - 2010.06.28 07:06:18.
