data_PCOD8150672
_publ_section_title
;
Structure prediction by ZEFSAII (Michael W. Deem and Ramdas Pophale) SiO2 
 PCOD8150672
Probable space group: C 2/C
;
_chemical_formula_sum "Si O2"
_cell_formula_units_Z 48
_cell_length_a 11.494823
_cell_length_b 8.317775
_cell_length_c 24.994545
_cell_angle_alpha 90.000000
_cell_angle_beta 114.915136
_cell_angle_gamma 90.000000
_cell_volume 2167.353641
_symmetry_space_group_name_H-M "C 2/C"
_symmetry_group_IT_number 15
_symmetry_cell_setting 'monoclinic'
loop_
_space_group_symop_operation_xyz
x,y,z
-x,y,1/2-z
-x,-y,-z
x,-y,1/2+z
1/2+x,1/2+y,z
1/2-x,1/2+y,1/2-z
1/2-x,1/2-y,-z
1/2+x,1/2-y,1/2+z
loop_
_atom_site_type_symbol
_atom_site_label
_atom_site_fract_x
_atom_site_fract_y
_atom_site_fract_z
Si Si1 0.674768 0.049897 0.512004
Si Si2 0.325945 0.943882 0.304877
Si Si3 0.146111 0.644065 0.290225
Si Si4 0.558702 0.375052 0.470140
Si Si5 0.385557 0.065757 0.617055
Si Si6 0.326665 0.811021 0.896414
O O1 0.626623 0.229663 0.515944
O O2 0.830490 0.040930 0.543554
O O3 0.620712 0.997560 0.444185
O O4 0.622984 0.932281 0.547767
O O5 0.229971 0.802359 0.300285
O O6 0.470123 0.881301 0.341417
O O7 0.306483 0.002575 0.240298
O O8 0.295321 0.097443 0.335940
O O9 0.161234 0.577529 0.353151
O O10 0.000000 0.692576 0.250000
O O11 0.500000 0.500000 0.500000
O O12 0.444277 0.312681 0.409557
O O13 0.299371 0.222367 0.607465
#
# Coordination Sequence:
#
# PCOD8150672 Si02
#       6
#     8   8   8   8   8   8
#     4  11  25  40  62  97 137 169 217 258 316 389
#     4  11  25  44  69  91 127 167 216 275 326 388
#     4  10  25  46  67  91 125 164 218 273 329 383
#     4  11  24  40  63  90 136 177 213 256 316 381
#     4  11  24  42  65  97 129 167 216 267 317 392
#     4  12  25  39  65  98 132 172 216 259 327 386
#
# _framework density 22.146823999999999
#
# number of rings (size 3 to 8) (size 9 to 14) (size 15 to 20)
#    0.000    1.000    3.333    2.000    4.667    2.667 
#    0.000    0.000    0.000    0.000    0.000    0.000 
#    0.000    0.000    0.000    0.000    0.000    0.000 
#
# Total GULP energy -297733.868843 kJ/mol
# GULP energy per Si atom -12405.577868 kJ/mol
# Density = 2.209642 g / cm^3
# Si number density = 22.146824 Si / 1000 Ang^3
#
#
#
# Elastic Constant Matrix: (Units=GPa)
#
#
# Indices 1 2 3 4 5 6 
#
# 1 94.7655 43.3555 20.8309 0.0000 -2.3930 0.0000
# 2 43.3555 77.5435 18.1172 0.0000 6.9821 0.0000
# 3 20.8309 18.1172 80.1591 0.0000 -8.6384 0.0000
# 4 0.0000 0.0000 0.0000 31.7207 0.0000 -0.1081
# 5 -2.3930 6.9821 -8.6384 0.0000 27.9047 0.0000
# 6 0.0000 0.0000 0.0000 -0.1081 0.0000 59.7187
#
#
#
# Elastic Compliance Matrix: (Units=1/GPa)
#
#
# Indices 1 2 3 4 5 6 
#
# 1 0.014683 -0.008060 -0.001697 0.000000 0.002750 0.000000
# 2 -0.008060 0.018611 -0.002781 0.000000 -0.006209 0.000000
# 3 -0.001697 -0.002781 0.014074 0.000000 0.004907 0.000000
# 4 0.000000 0.000000 0.000000 0.031525 0.000000 0.000057
# 5 0.002750 -0.006209 0.004907 0.000000 0.039145 0.000000
# 6 0.000000 0.000000 0.000000 0.000057 0.000000 0.016745
#
#
# Mechanical properties :
#
#
# Convention : Reuss Voigt Hill
#
# Bulk Modulus (GPa) = 44.86249 46.34169 45.60209
# Shear Modulus (GPa) = 29.88817 35.21310 32.55063
#
# Velocity S-wave (km/s) = 3.67760 3.99179 3.83791
# Velocity P-wave (km/s) = 6.19143 6.49738 6.34625
#
# Compressibility (1/GPa) = 0.02229034
#
# Stress axis : x y z
#
# Youngs Moduli (GPa) = 68.10824 53.73062 71.05477
#
# Poissons Ratio (x) = 0.43308 0.12061
# Poissons Ratio (y) = 0.54897 0.19760
# Poissons Ratio (z) = 0.11561 0.14942
#
# Static dielectric constant tensor:
#      x y z
#    x 4.329760 0.000000 0.043900 
#    y 0.000000 3.999270 0.000000 
#    z 0.043900 0.000000 3.900910 
# 
# 
# High freq. dielectric constant tensor:
#      x y z
#    x 1.896630 0.000000 0.001620 
#    y 0.000000 1.872330 0.000000 
#    z 0.001620 0.000000 1.860160 
# 
# From -- ./inp_files/267731.got.cif
#   From: 2010.06.25/outbox.cif.g09.slc.cpg/sg15_134_cif.got.tgz:267731.got - 2010.06.28 07:06:18.
