data_PCOD8150916
_publ_section_title
;
Structure prediction by ZEFSAII (Michael W. Deem and Ramdas Pophale) SiO2 
 PCOD8150916
Probable space group: C 2/C
;
_chemical_formula_sum "Si O2"
_cell_formula_units_Z 52
_cell_length_a 5.425432
_cell_length_b 19.565274
_cell_length_c 28.522285
_cell_angle_alpha 90.000000
_cell_angle_beta 51.528374
_cell_angle_gamma 90.000000
_cell_volume 2370.390689
_symmetry_space_group_name_H-M "C 2/C"
_symmetry_group_IT_number 15
_symmetry_cell_setting 'monoclinic'
loop_
_space_group_symop_operation_xyz
x,y,z
-x,y,1/2-z
-x,-y,-z
x,-y,1/2+z
1/2+x,1/2+y,z
1/2-x,1/2+y,1/2-z
1/2-x,1/2-y,-z
1/2+x,1/2-y,1/2+z
loop_
_atom_site_type_symbol
_atom_site_label
_atom_site_fract_x
_atom_site_fract_y
_atom_site_fract_z
Si Si1 0.698770 0.110781 0.360475
Si Si2 0.500000 0.290923 0.750000
Si Si3 0.767596 0.330250 0.991669
Si Si4 0.604181 0.540696 0.384006
Si Si5 0.338319 0.340133 0.221843
Si Si6 0.305486 0.566280 0.510185
Si Si7 0.341959 0.403723 0.401627
O O1 0.534570 0.150928 0.422497
O O2 0.447060 0.068737 0.358651
O O3 0.873564 0.164997 0.307505
O O4 0.985553 0.064018 0.346435
O O5 0.215607 0.241384 0.765960
O O6 0.750000 0.250000 0.000000
O O7 0.437165 0.362130 0.014194
O O8 0.816157 0.359955 0.037892
O O9 0.328067 0.568540 0.451001
O O10 0.618249 0.457033 0.382885
O O11 0.500000 0.369414 0.250000
O O12 0.565830 0.353736 0.151141
O O13 0.000000 0.376144 0.250000
O O14 0.500000 0.500000 0.500000
O O15 0.966639 0.550931 0.573969
#
# Coordination Sequence:
#
# PCOD8150916 Si02
#       7
#     8   4   8   8   8   8   8
#     4  11  25  44  70 100 140 185 233 287 353 433
#     4  10  26  52  72  94 148 192 236 294 368 422
#     4  11  24  40  67 111 139 179 238 291 356 429
#     4  11  24  42  69 105 137 182 232 291 362 421
#     4  10  27  46  72  98 135 191 239 288 363 425
#     4  11  22  41  72 101 150 188 227 293 379 425
#     4  12  23  44  74  99 145 181 238 304 358 428
#
# _framework density 21.937311999999999
#
# number of rings (size 3 to 8) (size 9 to 14) (size 15 to 20)
#    0.462    0.615    3.077    3.231    4.308    0.615 
#    4.154    0.000    0.000    0.000    0.000    0.000 
#    0.000    0.000    0.000    0.000    0.000    0.000 
#
# Total GULP energy -322135.126373 kJ/mol
# GULP energy per Si atom -12389.812553 kJ/mol
# Density = 2.188738 g / cm^3
# Si number density = 21.937312 Si / 1000 Ang^3
#
#
#
# Elastic Constant Matrix: (Units=GPa)
#
#
# Indices 1 2 3 4 5 6 
#
# 1 132.5762 48.7082 53.7107 0.0000 10.4620 0.0000
# 2 48.7082 135.4840 44.1038 0.0000 0.3018 0.0000
# 3 53.7107 44.1038 152.3830 0.0000 4.3804 0.0000
# 4 0.0000 0.0000 0.0000 41.1587 0.0000 0.9292
# 5 10.4620 0.3018 4.3804 0.0000 24.0775 0.0000
# 6 0.0000 0.0000 0.0000 0.9292 0.0000 24.7422
#
#
#
# Elastic Compliance Matrix: (Units=1/GPa)
#
#
# Indices 1 2 3 4 5 6 
#
# 1 0.009885 -0.002701 -0.002593 0.000000 -0.003789 0.000000
# 2 -0.002701 0.008889 -0.001660 0.000000 0.001364 0.000000
# 3 -0.002593 -0.001660 0.007966 0.000000 -0.000301 0.000000
# 4 0.000000 0.000000 0.000000 0.024317 0.000000 -0.000913
# 5 -0.003789 0.001364 -0.000301 0.000000 0.043217 0.000000
# 6 0.000000 0.000000 0.000000 -0.000913 0.000000 0.040451
#
#
# Mechanical properties :
#
#
# Convention : Reuss Voigt Hill
#
# Bulk Modulus (GPa) = 77.93694 79.27651 78.60672
# Shear Modulus (GPa) = 32.69882 36.25705 34.47793
#
# Velocity S-wave (km/s) = 3.86496 4.06982 3.96871
# Velocity P-wave (km/s) = 7.45127 7.63550 7.54395
#
# Compressibility (1/GPa) = 0.01283089
#
# Stress axis : x y z
#
# Youngs Moduli (GPa) = 101.16404 112.49414 125.53913
#
# Poissons Ratio (x) = 0.30385 0.32558
# Poissons Ratio (y) = 0.27325 0.20839
# Poissons Ratio (z) = 0.26237 0.18674
#
# Static dielectric constant tensor:
#      x y z
#    x 4.417630 0.000000 -0.218620 
#    y 0.000000 3.937730 0.000000 
#    z -0.218620 0.000000 4.350450 
# 
# 
# High freq. dielectric constant tensor:
#      x y z
#    x 1.867220 0.000000 0.008550 
#    y 0.000000 1.855050 0.000000 
#    z 0.008550 0.000000 1.858560 
# 
# From -- ./inp_files/305596.got.cif
#   From: 2010.06.25/outbox.cif.g09.slc.cpg/sg15_153_cif.got.tgz:305596.got - 2010.06.28 07:06:18.
