data_PCOD8150931
_publ_section_title
;
Structure prediction by ZEFSAII (Michael W. Deem and Ramdas Pophale) SiO2 
 PCOD8150931
Probable space group: C 2/C
;
_chemical_formula_sum "Si O2"
_cell_formula_units_Z 52
_cell_length_a 10.755093
_cell_length_b 9.168856
_cell_length_c 27.028289
_cell_angle_alpha 90.000000
_cell_angle_beta 119.080219
_cell_angle_gamma 90.000000
_cell_volume 2329.322012
_symmetry_space_group_name_H-M "C 2/C"
_symmetry_group_IT_number 15
_symmetry_cell_setting 'monoclinic'
loop_
_space_group_symop_operation_xyz
x,y,z
-x,y,1/2-z
-x,-y,-z
x,-y,1/2+z
1/2+x,1/2+y,z
1/2-x,1/2+y,1/2-z
1/2-x,1/2-y,-z
1/2+x,1/2-y,1/2+z
loop_
_atom_site_type_symbol
_atom_site_label
_atom_site_fract_x
_atom_site_fract_y
_atom_site_fract_z
Si Si1 0.496064 0.811117 0.839341
Si Si2 0.787817 0.737922 0.660434
Si Si3 0.557752 0.897052 0.053858
Si Si4 0.572638 0.583978 0.470585
Si Si5 0.620970 0.481750 0.372609
Si Si6 0.166340 0.465299 0.419607
Si Si7 0.000000 0.474275 0.250000
O O1 0.361207 0.799602 0.849404
O O2 0.529389 0.645931 0.828597
O O3 0.643352 0.870546 0.893978
O O4 0.459283 0.921289 0.787686
O O5 0.881741 0.879162 0.664080
O O6 0.764586 0.644044 0.606475
O O7 0.866656 0.633037 0.714789
O O8 0.497903 0.737694 0.032582
O O9 0.725602 0.913530 0.087754
O O10 0.496909 0.933272 0.096807
O O11 0.500000 0.000000 0.000000
O O12 0.500000 0.500000 0.500000
O O13 0.544710 0.526307 0.409782
O O14 0.741608 0.561628 0.512994
#
# Coordination Sequence:
#
# PCOD8150931 Si02
#       7
#     8   8   8   8   8   8   4
#     4  11  26  46  72 101 133 171 226 284 343 407
#     4  11  24  48  72  96 132 176 219 285 348 402
#     4  12  23  39  65  95 143 191 227 268 318 387
#     4  12  25  38  61 101 145 187 233 266 318 395
#     4  12  25  41  69 103 135 184 228 272 336 399
#     4  11  22  42  64  98 143 183 224 270 324 394
#     4  10  28  50  70 102 130 162 224 292 354 420
#
# _framework density 22.324093999999999
#
# number of rings (size 3 to 8) (size 9 to 14) (size 15 to 20)
#    0.000    0.615    4.615    3.231    2.154    5.538 
#    0.000    0.000    0.000    0.000    0.000    0.000 
#    0.000    0.000    0.000    0.000    0.000    0.000 
#
# Total GULP energy -322094.099715 kJ/mol
# GULP energy per Si atom -12388.234604 kJ/mol
# Density = 2.227328 g / cm^3
# Si number density = 22.324094 Si / 1000 Ang^3
#
#
#
# Elastic Constant Matrix: (Units=GPa)
#
#
# Indices 1 2 3 4 5 6 
#
# 1 115.1784 54.9869 21.5961 0.0000 -22.6412 0.0000
# 2 54.9869 177.9166 50.9199 0.0000 -10.8874 0.0000
# 3 21.5961 50.9199 78.2328 0.0000 -6.8877 0.0000
# 4 0.0000 0.0000 0.0000 35.3941 0.0000 -7.2009
# 5 -22.6412 -10.8874 -6.8877 0.0000 27.4211 0.0000
# 6 0.0000 0.0000 0.0000 -7.2009 0.0000 39.6824
#
#
#
# Elastic Compliance Matrix: (Units=1/GPa)
#
#
# Indices 1 2 3 4 5 6 
#
# 1 0.011885 -0.002985 -0.000591 0.000000 0.008480 0.000000
# 2 -0.002985 0.007731 -0.004248 0.000000 -0.000462 0.000000
# 3 -0.000591 -0.004248 0.015870 0.000000 0.001811 0.000000
# 4 0.000000 0.000000 0.000000 0.029336 0.000000 0.005323
# 5 0.008480 -0.000462 0.001811 0.000000 0.043741 0.000000
# 6 0.000000 0.000000 0.000000 0.005323 0.000000 0.026166
#
#
# Mechanical properties :
#
#
# Convention : Reuss Voigt Hill
#
# Bulk Modulus (GPa) = 50.41272 69.59262 60.00267
# Shear Modulus (GPa) = 31.84886 36.75451 34.30169
#
# Velocity S-wave (km/s) = 3.78121 4.06199 3.92411
# Velocity P-wave (km/s) = 6.45714 7.29666 6.88970
#
# Compressibility (1/GPa) = 0.01983626
#
# Stress axis : x y z
#
# Youngs Moduli (GPa) = 84.13968 129.35307 63.01074
#
# Poissons Ratio (x) = 0.38612 0.03727
# Poissons Ratio (y) = 0.25116 0.26770
# Poissons Ratio (z) = 0.04976 0.54955
#
# Static dielectric constant tensor:
#      x y z
#    x 4.191790 0.000000 -0.208850 
#    y 0.000000 5.761510 0.000000 
#    z -0.208850 0.000000 3.845990 
# 
# 
# High freq. dielectric constant tensor:
#      x y z
#    x 1.892070 0.000000 -0.010790 
#    y 0.000000 1.905460 0.000000 
#    z -0.010790 0.000000 1.853840 
# 
# From -- ./inp_files/291703.got.cif
#   From: 2010.06.25/outbox.cif.g09.slc.cpg/sg15_146_cif.got.tgz:291703.got - 2010.06.28 07:06:18.
