data_PCOD8150079
_publ_section_title
;
Structure prediction by ZEFSAII (Michael W. Deem and Ramdas Pophale) SiO2 
 PCOD8150079
Probable space group: C 2/C
;
_chemical_formula_sum "Si O2"
_cell_formula_units_Z 32
_cell_length_a 6.550900
_cell_length_b 31.960280
_cell_length_c 7.510716
_cell_angle_alpha 90.000000
_cell_angle_beta 111.912017
_cell_angle_gamma 90.000000
_cell_volume 1458.906959
_symmetry_space_group_name_H-M "C 2/C"
_symmetry_group_IT_number 15
_symmetry_cell_setting 'monoclinic'
loop_
_space_group_symop_operation_xyz
x,y,z
-x,y,1/2-z
-x,-y,-z
x,-y,1/2+z
1/2+x,1/2+y,z
1/2-x,1/2+y,1/2-z
1/2-x,1/2-y,-z
1/2+x,1/2-y,1/2+z
loop_
_atom_site_type_symbol
_atom_site_label
_atom_site_fract_x
_atom_site_fract_y
_atom_site_fract_z
Si Si1 0.500000 0.917036 0.750000
Si Si2 0.549979 0.452588 0.471379
Si Si3 0.500000 0.737976 0.250000
Si Si4 0.324075 0.107239 0.555137
Si Si5 0.638351 0.306674 0.122116
O O1 0.302754 0.945591 0.609584
O O2 0.579122 0.888069 0.612542
O O3 0.500000 0.442718 0.250000
O O4 0.500000 0.500000 0.500000
O O5 0.391066 0.421876 0.530617
O O6 0.481476 0.706794 0.410728
O O7 0.287984 0.766527 0.203787
O O8 0.500000 0.086689 0.750000
O O9 0.277064 0.153203 0.612379
O O10 0.500000 0.318683 0.250000
#
# Coordination Sequence:
#
# PCOD8150079 Si02
#       5
#     4   8   4   8   8
#     4  12  28  48  73 104 146 192 238 299 360 426
#     4  12  27  48  75 108 146 189 241 299 361 431
#     4  10  24  44  65 104 138 184 234 291 364 422
#     4  12  26  46  72 105 143 191 242 295 361 431
#     4  11  24  44  70 100 139 184 236 295 355 426
#
# _framework density 21.934229999999999
#
# number of rings (size 3 to 8) (size 9 to 14) (size 15 to 20)
#    0.000    0.500    3.750    3.750    5.250    2.000 
#    9.000    0.000    0.000    0.000    0.000    0.000 
#    0.000    0.000    0.000    0.000    0.000    0.000 
#
# Total GULP energy -198433.864253 kJ/mol
# GULP energy per Si atom -12402.116516 kJ/mol
# Density = 2.188431 g / cm^3
# Si number density = 21.934230 Si / 1000 Ang^3
#
#
#
# Elastic Constant Matrix: (Units=GPa)
#
#
# Indices 1 2 3 4 5 6 
#
# 1 139.5558 51.9333 83.0478 0.0000 -16.1911 0.0000
# 2 51.9333 95.1634 41.7136 0.0000 -3.9824 0.0000
# 3 83.0478 41.7136 166.7319 0.0000 -10.0509 0.0000
# 4 0.0000 0.0000 0.0000 40.5470 0.0000 -4.7874
# 5 -16.1911 -3.9824 -10.0509 0.0000 59.5332 0.0000
# 6 0.0000 0.0000 0.0000 -4.7874 0.0000 30.8714
#
#
#
# Elastic Compliance Matrix: (Units=1/GPa)
#
#
# Indices 1 2 3 4 5 6 
#
# 1 0.011791 -0.004299 -0.004669 0.000000 0.002131 0.000000
# 2 -0.004299 0.013375 -0.001234 0.000000 -0.000483 0.000000
# 3 -0.004669 -0.001234 0.008638 0.000000 0.000106 0.000000
# 4 0.000000 0.000000 0.000000 0.025123 0.000000 0.003896
# 5 0.002131 -0.000483 0.000106 0.000000 0.017362 0.000000
# 6 0.000000 0.000000 0.000000 0.003896 0.000000 0.032997
#
#
# Mechanical properties :
#
#
# Convention : Reuss Voigt Hill
#
# Bulk Modulus (GPa) = 74.62456 83.87117 79.24786
# Shear Modulus (GPa) = 37.26969 41.17408 39.22188
#
# Velocity S-wave (km/s) = 4.12655 4.33732 4.23325
# Velocity P-wave (km/s) = 7.53661 7.96265 7.75255
#
# Compressibility (1/GPa) = 0.01340041
#
# Stress axis : x y z
#
# Youngs Moduli (GPa) = 84.80978 74.76635 115.76199
#
# Poissons Ratio (x) = 0.32141 0.54050
# Poissons Ratio (y) = 0.36459 0.14286
# Poissons Ratio (z) = 0.39598 0.09227
#
# Static dielectric constant tensor:
#      x y z
#    x 4.041800 0.000000 0.107200 
#    y 0.000000 3.775300 0.000000 
#    z 0.107200 0.000000 4.302730 
# 
# 
# High freq. dielectric constant tensor:
#      x y z
#    x 1.868810 0.000000 0.000310 
#    y 0.000000 1.858820 0.000000 
#    z 0.000310 0.000000 1.888320 
# 
# From -- ./inp_files/20335.got.cif
#   From: 2010.06.25/outbox.cif.g09.slc.cpg/sg15_11_cif.got.tgz:20335.got - 2010.06.28 07:06:18.
