data_PCOD8150521
_publ_section_title
;
Structure prediction by ZEFSAII (Michael W. Deem and Ramdas Pophale) SiO2 
 PCOD8150521
Probable space group: C 2/C
;
_chemical_formula_sum "Si O2"
_cell_formula_units_Z 44
_cell_length_a 20.296696
_cell_length_b 11.511961
_cell_length_c 8.635643
_cell_angle_alpha 90.000000
_cell_angle_beta 66.795076
_cell_angle_gamma 90.000000
_cell_volume 1854.525471
_symmetry_space_group_name_H-M "C 2/C"
_symmetry_group_IT_number 15
_symmetry_cell_setting 'monoclinic'
loop_
_space_group_symop_operation_xyz
x,y,z
-x,y,1/2-z
-x,-y,-z
x,-y,1/2+z
1/2+x,1/2+y,z
1/2-x,1/2+y,1/2-z
1/2-x,1/2-y,-z
1/2+x,1/2-y,1/2+z
loop_
_atom_site_type_symbol
_atom_site_label
_atom_site_fract_x
_atom_site_fract_y
_atom_site_fract_z
Si Si1 0.000000 0.670102 0.750000
Si Si2 0.102065 0.160169 0.008332
Si Si3 0.582846 0.559550 0.701647
Si Si4 0.197950 0.370009 0.896257
Si Si5 0.358883 0.072216 0.736082
Si Si6 0.691673 0.718392 0.423598
O O1 0.939035 0.590973 0.727283
O O2 0.035296 0.751770 0.586586
O O3 0.095931 0.076566 0.869365
O O4 0.173565 0.236159 0.930485
O O5 0.106226 0.073632 0.150461
O O6 0.500000 0.580242 0.750000
O O7 0.626254 0.651590 0.560710
O O8 0.144260 0.445475 0.838232
O O9 0.275151 0.364719 0.741781
O O10 0.198931 0.422451 0.068943
O O11 0.339124 0.164865 0.623266
O O12 0.750000 0.750000 0.500000
#
# Coordination Sequence:
#
# PCOD8150521 Si02
#       6
#     4   8   8   8   8   8
#     4  10  24  50  76 110 156 198 268 320 388 460
#     4  11  25  44  71 110 144 195 250 312 382 459
#     4  12  26  44  75 105 149 193 251 313 385 453
#     4  11  26  47  72 110 150 203 262 314 384 461
#     4  11  26  48  76 108 157 205 263 322 391 454
#     4  12  26  48  75 113 153 204 258 320 393 469
#
# _framework density 23.725745
#
# number of rings (size 3 to 8) (size 9 to 14) (size 15 to 20)
#    0.000    0.727    2.727    3.273    7.636    4.364 
#    1.636    0.000    0.000    0.000    0.000    0.000 
#    0.000    0.000    0.000    0.000    0.000    0.000 
#
# Total GULP energy -272839.502725 kJ/mol
# GULP energy per Si atom -12401.795578 kJ/mol
# Density = 2.367174 g / cm^3
# Si number density = 23.725745 Si / 1000 Ang^3
#
#
#
# Elastic Constant Matrix: (Units=GPa)
#
#
# Indices 1 2 3 4 5 6 
#
# 1 96.4132 44.9501 35.2767 0.0000 -4.1826 0.0000
# 2 44.9501 117.4431 41.9283 0.0000 -5.7323 0.0000
# 3 35.2767 41.9283 97.0735 0.0000 -6.1878 0.0000
# 4 0.0000 0.0000 0.0000 63.2539 0.0000 1.7495
# 5 -4.1826 -5.7323 -6.1878 0.0000 32.9821 0.0000
# 6 0.0000 0.0000 0.0000 1.7495 0.0000 29.3061
#
#
#
# Elastic Compliance Matrix: (Units=1/GPa)
#
#
# Indices 1 2 3 4 5 6 
#
# 1 0.013392 -0.003993 -0.003115 0.000000 0.000420 0.000000
# 2 -0.003993 0.011287 -0.003372 0.000000 0.000823 0.000000
# 3 -0.003115 -0.003372 0.012983 0.000000 0.001455 0.000000
# 4 0.000000 0.000000 0.000000 0.015835 0.000000 -0.000945
# 5 0.000420 0.000823 0.001455 0.000000 0.030789 0.000000
# 6 0.000000 0.000000 0.000000 -0.000945 0.000000 0.034179
#
#
# Mechanical properties :
#
#
# Convention : Reuss Voigt Hill
#
# Bulk Modulus (GPa) = 59.87401 61.69333 60.78367
# Shear Modulus (GPa) = 34.48500 37.69339 36.08920
#
# Velocity S-wave (km/s) = 3.81660 3.99019 3.90436
# Velocity P-wave (km/s) = 6.68674 6.87662 6.78235
#
# Compressibility (1/GPa) = 0.01670174
#
# Stress axis : x y z
#
# Youngs Moduli (GPa) = 74.67357 88.59883 77.02667
#
# Poissons Ratio (x) = 0.35376 0.23995
# Poissons Ratio (y) = 0.29816 0.25970
# Poissons Ratio (z) = 0.23262 0.29872
#
# Static dielectric constant tensor:
#      x y z
#    x 4.066320 0.000000 -0.126200 
#    y 0.000000 4.297350 0.000000 
#    z -0.126200 0.000000 4.717890 
# 
# 
# High freq. dielectric constant tensor:
#      x y z
#    x 1.930290 0.000000 -0.004510 
#    y 0.000000 1.946180 0.000000 
#    z -0.004510 0.000000 1.964840 
# 
# From -- ./inp_files/54336.got.cif
#   From: 2010.06.25/outbox.cif.g09.slc.cpg/sg15_28_cif.got.tgz:54336.got - 2010.06.28 07:06:18.
