data_PCOD8150701
_publ_section_title
;
Structure prediction by ZEFSAII (Michael W. Deem and Ramdas Pophale) SiO2 
 PCOD8150701
Probable space group: C 2/C
;
_chemical_formula_sum "Si O2"
_cell_formula_units_Z 48
_cell_length_a 18.198252
_cell_length_b 18.898530
_cell_length_c 21.727032
_cell_angle_alpha 90.000000
_cell_angle_beta 162.110997
_cell_angle_gamma 90.000000
_cell_volume 2295.316149
_symmetry_space_group_name_H-M "C 2/C"
_symmetry_group_IT_number 15
_symmetry_cell_setting 'monoclinic'
loop_
_space_group_symop_operation_xyz
x,y,z
-x,y,1/2-z
-x,-y,-z
x,-y,1/2+z
1/2+x,1/2+y,z
1/2-x,1/2+y,1/2-z
1/2-x,1/2-y,-z
1/2+x,1/2-y,1/2+z
loop_
_atom_site_type_symbol
_atom_site_label
_atom_site_fract_x
_atom_site_fract_y
_atom_site_fract_z
Si Si1 0.739420 0.696820 0.548228
Si Si2 0.498002 0.679767 0.919521
Si Si3 0.369270 0.421841 0.210647
Si Si4 0.891399 0.079319 0.229091
Si Si5 0.080532 0.330912 0.650867
Si Si6 0.450056 0.812713 0.013242
O O1 0.750000 0.750000 0.500000
O O2 0.554460 0.632340 0.398709
O O3 0.678380 0.742820 0.560745
O O4 0.000000 0.661049 0.750000
O O5 0.507155 0.625240 0.870781
O O6 0.558334 0.758067 0.940997
O O7 0.235906 0.687544 0.741278
O O8 0.684696 0.656352 0.120678
O O9 0.500000 0.416517 0.250000
O O10 0.364750 0.500850 0.236168
O O11 0.097326 0.396758 0.983022
O O12 0.000000 0.067068 0.250000
O O13 0.632884 0.116945 0.016129
O O14 0.155112 0.321254 0.639364
#
# Coordination Sequence:
#
# PCOD8150701 Si02
#       6
#     8   8   8   8   8   8
#     4  12  22  37  65 102 129 179 226 265 318 397
#     4  11  23  42  67 101 126 169 225 276 334 397
#     4  10  25  47  67  92 133 176 215 282 344 391
#     4  11  23  44  62  94 141 175 221 274 331 389
#     4  11  23  42  68  98 131 166 225 279 334 393
#     4  11  22  39  69  96 135 174 216 278 326 392
#
# _framework density 20.912151999999999
#
# number of rings (size 3 to 8) (size 9 to 14) (size 15 to 20)
#    0.000    1.000    6.667    1.000    0.000    4.000 
#    6.000    1.667    0.000    0.000    0.000    0.000 
#    0.000    0.000    0.000    0.000    0.000    0.000 
#
# Total GULP energy -297357.703633 kJ/mol
# GULP energy per Si atom -12389.904318 kJ/mol
# Density = 2.086456 g / cm^3
# Si number density = 20.912152 Si / 1000 Ang^3
#
#
#
# Elastic Constant Matrix: (Units=GPa)
#
#
# Indices 1 2 3 4 5 6 
#
# 1 92.8551 53.0593 50.9087 -0.4897 1.1798 -1.1109
# 2 53.0593 178.7461 51.5454 0.8123 8.3783 0.8641
# 3 50.9087 51.5454 139.6632 1.2439 -7.4506 1.5781
# 4 -0.4897 0.8123 1.2439 39.7123 0.7485 12.8012
# 5 1.1798 8.3783 -7.4506 0.7485 30.2859 1.2506
# 6 -1.1109 0.8641 1.5781 12.8012 1.2506 65.7077
#
#
#
# Elastic Compliance Matrix: (Units=1/GPa)
#
#
# Indices 1 2 3 4 5 6 
#
# 1 0.014969 -0.003157 -0.004340 0.000285 -0.000799 0.000359
# 2 -0.003157 0.007094 -0.001585 -0.000076 -0.002225 -0.000051
# 3 -0.004340 -0.001585 0.009491 -0.000283 0.002961 -0.000282
# 4 0.000285 -0.000076 -0.000283 0.026886 -0.000509 -0.005216
# 5 -0.000799 -0.002225 0.002961 -0.000509 0.034432 -0.000612
# 6 0.000359 -0.000051 -0.000282 -0.005216 -0.000612 0.016260
#
#
# Mechanical properties :
#
#
# Convention : Reuss Voigt Hill
#
# Bulk Modulus (GPa) = 74.68915 80.25458 77.47186
# Shear Modulus (GPa) = 37.94809 44.19126 41.06967
#
# Velocity S-wave (km/s) = 4.26448 4.60193 4.43641
# Velocity P-wave (km/s) = 7.74861 8.16684 7.96047
#
# Compressibility (1/GPa) = 0.01338883
#
# Stress axis : x y z
#
# Youngs Moduli (GPa) = 66.80338 140.97165 105.36665
#
# Poissons Ratio (x) = 0.44511 0.45733
# Poissons Ratio (y) = 0.21093 0.16696
# Poissons Ratio (z) = 0.28995 0.22338
#
# Static dielectric constant tensor:
#      x y z
#    x 3.894450 0.000460 0.285020 
#    y 0.000460 4.264140 0.004860 
#    z 0.285020 0.004860 4.177170 
# 
# 
# High freq. dielectric constant tensor:
#      x y z
#    x 1.819770 -0.000030 0.005080 
#    y -0.000030 1.815730 -0.000110 
#    z 0.005080 -0.000110 1.820660 
# 
# From -- ./inp_files/249748.got.cif
#   From: 2010.06.25/outbox.cif.g09.slc.cpg/sg15_125_cif.got.tgz:249748.got - 2010.06.28 07:06:18.
