data_PCOD8150906
_publ_section_title
;
Structure prediction by ZEFSAII (Michael W. Deem and Ramdas Pophale) SiO2 
 PCOD8150906
Probable space group: C 2/C
;
_chemical_formula_sum "Si O2"
_cell_formula_units_Z 36
_cell_length_a 14.988193
_cell_length_b 25.109127
_cell_length_c 8.917446
_cell_angle_alpha 90.000000
_cell_angle_beta 28.260085
_cell_angle_gamma 90.000000
_cell_volume 1588.979031
_symmetry_space_group_name_H-M "C 2/C"
_symmetry_group_IT_number 15
_symmetry_cell_setting 'monoclinic'
loop_
_space_group_symop_operation_xyz
x,y,z
-x,y,1/2-z
-x,-y,-z
x,-y,1/2+z
1/2+x,1/2+y,z
1/2-x,1/2+y,1/2-z
1/2-x,1/2-y,-z
1/2+x,1/2-y,1/2+z
loop_
_atom_site_type_symbol
_atom_site_label
_atom_site_fract_x
_atom_site_fract_y
_atom_site_fract_z
Si Si1 0.000000 0.352043 0.750000
Si Si2 0.645553 0.428460 0.279108
Si Si3 0.932398 0.737316 0.132923
Si Si4 0.500000 0.817531 0.250000
Si Si5 0.894786 0.840541 0.744519
Si Si6 0.000000 0.996190 0.750000
O O1 0.177112 0.390412 0.506246
O O2 0.959290 0.312311 0.949517
O O3 0.460507 0.391790 0.554347
O O4 0.645931 0.460832 0.435803
O O5 0.634014 0.468623 0.157356
O O6 0.750000 0.750000 0.500000
O O7 0.881639 0.718502 0.041173
O O8 0.061391 0.789139 0.923029
O O9 0.333310 0.848700 0.407484
O O10 0.000000 0.837950 0.750000
#
# Coordination Sequence:
#
# PCOD8150906 Si02
#       6
#     4   8   8   4   8   4
#     4  12  26  45  75 112 148 194 250 300 374 462
#     4  11  25  48  75 103 142 191 245 320 374 437
#     4  12  25  44  70 112 154 198 240 296 363 462
#     4  12  28  41  71 106 148 207 243 286 368 448
#     4  12  25  48  72 106 158 197 243 305 370 450
#     4  10  26  50  72 100 138 189 253 324 380 426
#
# _framework density 22.656058000000002
#
# number of rings (size 3 to 8) (size 9 to 14) (size 15 to 20)
#    0.000    0.444    4.444    3.333    3.111    1.778 
#    0.000    4.444    0.000    0.000    0.000    0.000 
#    0.000    0.000    0.000    0.000    0.000    0.000 
#
# Total GULP energy -223024.176954 kJ/mol
# GULP energy per Si atom -12390.232053 kJ/mol
# Density = 2.260449 g / cm^3
# Si number density = 22.656058 Si / 1000 Ang^3
#
#
#
# Elastic Constant Matrix: (Units=GPa)
#
#
# Indices 1 2 3 4 5 6 
#
# 1 118.4593 51.7446 61.1842 0.0040 0.9410 0.0021
# 2 51.7446 145.6450 43.4844 -0.0010 -1.1184 0.0003
# 3 61.1842 43.4844 112.3887 0.0022 -12.1005 -0.0015
# 4 0.0040 -0.0010 0.0022 11.7427 -0.0030 1.3653
# 5 0.9410 -1.1184 -12.1005 -0.0030 49.1821 -0.0018
# 6 0.0021 0.0003 -0.0015 1.3653 -0.0018 29.7769
#
#
#
# Elastic Compliance Matrix: (Units=1/GPa)
#
#
# Indices 1 2 3 4 5 6 
#
# 1 0.012807 -0.002741 -0.006107 -0.000004 -0.001810 -0.000001
# 2 -0.002741 0.008365 -0.001765 0.000002 -0.000192 0.000000
# 3 -0.006107 -0.001765 0.013265 0.000000 0.003340 0.000001
# 4 -0.000004 0.000002 0.000000 0.085616 0.000005 -0.003926
# 5 -0.001810 -0.000192 0.003340 0.000005 0.021185 0.000001
# 6 -0.000001 0.000000 0.000001 -0.003926 0.000001 0.033763
#
#
# Mechanical properties :
#
#
# Convention : Reuss Voigt Hill
#
# Bulk Modulus (GPa) = 75.68840 76.59103 76.13972
# Shear Modulus (GPa) = 24.92139 32.81232 28.86686
#
# Velocity S-wave (km/s) = 3.32020 3.80976 3.57337
# Velocity P-wave (km/s) = 6.94107 7.29601 7.12075
#
# Compressibility (1/GPa) = 0.01321206
#
# Stress axis : x y z
#
# Youngs Moduli (GPa) = 78.07937 119.54121 75.38758
#
# Poissons Ratio (x) = 0.32765 0.46037
# Poissons Ratio (y) = 0.21401 0.13307
# Poissons Ratio (z) = 0.47681 0.21101
#
# Static dielectric constant tensor:
#      x y z
#    x 3.991750 0.000000 0.280370 
#    y 0.000000 4.383850 0.000000 
#    z 0.280370 0.000000 4.159540 
# 
# 
# High freq. dielectric constant tensor:
#      x y z
#    x 1.899060 0.000000 0.015860 
#    y 0.000000 1.894840 0.000000 
#    z 0.015860 0.000000 1.897520 
# 
# From -- ./inp_files/23894.got.cif
#   From: 2010.06.25/outbox.cif.g09.slc.cpg/sg15_12_cif.got.tgz:23894.got - 2010.06.28 07:06:18.
