data_PCOD8150414
_publ_section_title
;
Structure prediction by ZEFSAII (Michael W. Deem and Ramdas Pophale) SiO2 
 PCOD8150414
Probable space group: C 2/C
;
_chemical_formula_sum "Si O2"
_cell_formula_units_Z 36
_cell_length_a 14.697745
_cell_length_b 15.573858
_cell_length_c 8.819858
_cell_angle_alpha 90.000000
_cell_angle_beta 133.962279
_cell_angle_gamma 90.000000
_cell_volume 1453.177049
_symmetry_space_group_name_H-M "C 2/C"
_symmetry_group_IT_number 15
_symmetry_cell_setting 'monoclinic'
loop_
_space_group_symop_operation_xyz
x,y,z
-x,y,1/2-z
-x,-y,-z
x,-y,1/2+z
1/2+x,1/2+y,z
1/2-x,1/2+y,1/2-z
1/2-x,1/2-y,-z
1/2+x,1/2-y,1/2+z
loop_
_atom_site_type_symbol
_atom_site_label
_atom_site_fract_x
_atom_site_fract_y
_atom_site_fract_z
Si Si1 0.749261 0.064674 0.569790
Si Si2 0.880209 0.815914 0.006518
Si Si3 0.000000 0.453854 0.250000
Si Si4 0.174096 0.348214 0.263039
Si Si5 0.382192 0.397710 0.707547
O O1 0.763985 0.148773 0.477044
O O2 0.760055 0.089807 0.758072
O O3 0.615313 0.017614 0.408683
O O4 0.859065 0.998577 0.651679
O O5 0.000000 0.795236 0.250000
O O6 0.846947 0.734723 0.864094
O O7 0.910793 0.888943 0.918967
O O8 0.961157 0.391000 0.345965
O O9 0.260276 0.339230 0.515025
O O10 0.500000 0.362866 0.750000
#
# Coordination Sequence:
#
# PCOD8150414 Si02
#       5
#     8   8   4   8   8
#     4  11  24  47  73 108 142 191 245 296 357 432
#     4  12  27  46  74 107 148 189 240 305 361 424
#     4  10  24  46  80 102 146 194 242 296 356 436
#     4  11  25  46  72 109 145 190 239 297 365 429
#     4  11  24  46  75 101 144 190 244 291 361 436
#
# _framework density 24.773308
#
# number of rings (size 3 to 8) (size 9 to 14) (size 15 to 20)
#    0.000    0.889    0.000    6.667    3.111    4.444 
#    8.000    0.000    0.000    0.000    0.000    0.000 
#    0.000    0.000    0.000    0.000    0.000    0.000 
#
# Total GULP energy -223029.326048 kJ/mol
# GULP energy per Si atom -12390.518114 kJ/mol
# Density = 2.471692 g / cm^3
# Si number density = 24.773308 Si / 1000 Ang^3
#
#
#
# Elastic Constant Matrix: (Units=GPa)
#
#
# Indices 1 2 3 4 5 6 
#
# 1 159.8753 34.9666 38.8475 0.0000 -10.5259 0.0000
# 2 34.9666 109.1998 43.8477 0.0000 1.0741 0.0000
# 3 38.8475 43.8477 125.3651 0.0000 -11.4219 0.0000
# 4 0.0000 0.0000 0.0000 20.9587 0.0000 -14.3662
# 5 -10.5259 1.0741 -11.4219 0.0000 44.6680 0.0000
# 6 0.0000 0.0000 0.0000 -14.3662 0.0000 49.6286
#
#
#
# Elastic Compliance Matrix: (Units=1/GPa)
#
#
# Indices 1 2 3 4 5 6 
#
# 1 0.007070 -0.001682 -0.001482 0.000000 0.001328 0.000000
# 2 -0.001682 0.011121 -0.003511 0.000000 -0.001562 0.000000
# 3 -0.001482 -0.003511 0.009870 0.000000 0.002259 0.000000
# 4 0.000000 0.000000 0.000000 0.059524 0.000000 0.017231
# 5 0.001328 -0.001562 0.002259 0.000000 0.023315 0.000000
# 6 0.000000 0.000000 0.000000 0.017231 0.000000 0.025137
#
#
# Mechanical properties :
#
#
# Convention : Reuss Voigt Hill
#
# Bulk Modulus (GPa) = 67.97153 69.97375 68.97264
# Shear Modulus (GPa) = 32.40640 41.50295 36.95467
#
# Velocity S-wave (km/s) = 3.62071 4.09749 3.86646
# Velocity P-wave (km/s) = 6.70644 7.11989 6.91626
#
# Compressibility (1/GPa) = 0.01471204
#
# Stress axis : x y z
#
# Youngs Moduli (GPa) = 141.43912 89.91824 101.32164
#
# Poissons Ratio (x) = 0.15125 0.15012
# Poissons Ratio (y) = 0.23791 0.35572
# Poissons Ratio (z) = 0.20955 0.31568
#
# Static dielectric constant tensor:
#      x y z
#    x 4.751550 0.000000 -0.376390 
#    y 0.000000 4.572630 0.000000 
#    z -0.376390 0.000000 4.578930 
# 
# 
# High freq. dielectric constant tensor:
#      x y z
#    x 2.000430 0.000000 -0.018460 
#    y 0.000000 1.992210 0.000000 
#    z -0.018460 0.000000 1.980680 
# 
# From -- ./inp_files/39464.got.cif
#   From: 2010.06.25/outbox.cif.g09.slc.cpg/sg15_20_cif.got.tgz:39464.got - 2010.06.28 07:06:18.
