data_PCOD8150161
_publ_section_title
;
Structure prediction by ZEFSAII (Michael W. Deem and Ramdas Pophale) SiO2 
 PCOD8150161
Probable space group: C 2/C
;
_chemical_formula_sum "Si O2"
_cell_formula_units_Z 36
_cell_length_a 29.574239
_cell_length_b 5.104413
_cell_length_c 23.105427
_cell_angle_alpha 90.000000
_cell_angle_beta 153.397816
_cell_angle_gamma 90.000000
_cell_volume 1561.891456
_symmetry_space_group_name_H-M "C 2/C"
_symmetry_group_IT_number 15
_symmetry_cell_setting 'monoclinic'
loop_
_space_group_symop_operation_xyz
x,y,z
-x,y,1/2-z
-x,-y,-z
x,-y,1/2+z
1/2+x,1/2+y,z
1/2-x,1/2+y,1/2-z
1/2-x,1/2-y,-z
1/2+x,1/2-y,1/2+z
loop_
_atom_site_type_symbol
_atom_site_label
_atom_site_fract_x
_atom_site_fract_y
_atom_site_fract_z
Si Si1 0.454158 0.930465 0.073165
Si Si2 0.242391 0.020183 0.279061
Si Si3 0.500000 0.725912 0.250000
Si Si4 0.685726 0.500644 0.413788
Si Si5 0.931014 0.943617 0.333486
O O1 0.485125 0.907790 0.176318
O O2 0.483448 0.668417 0.071096
O O3 0.516406 0.165464 0.115554
O O4 0.334074 0.977249 0.930605
O O5 0.231478 0.307671 0.239625
O O6 0.133070 0.948030 0.180762
O O7 0.591089 0.520813 0.348388
O O8 0.750000 0.750000 0.500000
O O9 0.652553 0.502523 0.309975
O O10 0.750000 0.250000 0.500000
#
# Coordination Sequence:
#
# PCOD8150161 Si02
#       5
#     8   8   4   8   8
#     4  11  25  45  70 100 136 173 220 274 329 400
#     4  12  27  45  69  97 131 178 226 276 331 389
#     4  10  24  44  70 102 136 176 216 266 338 396
#     4  11  23  39  65  98 136 174 215 267 324 397
#     4  11  25  43  66  99 132 174 224 274 332 387
#
# _framework density 23.048978000000002
#
# number of rings (size 3 to 8) (size 9 to 14) (size 15 to 20)
#    0.000    0.889    0.000    6.667    0.000   18.667 
#    0.000    0.000    0.000    0.000    0.000    0.000 
#    0.000    0.000    0.000    0.000    0.000    0.000 
#
# Total GULP energy -223249.149997 kJ/mol
# GULP energy per Si atom -12402.730555 kJ/mol
# Density = 2.299652 g / cm^3
# Si number density = 23.048978 Si / 1000 Ang^3
#
#
#
# Elastic Constant Matrix: (Units=GPa)
#
#
# Indices 1 2 3 4 5 6 
#
# 1 126.2612 34.0617 28.6793 0.0011 27.0859 -0.0006
# 2 34.0617 147.2122 37.5511 -0.0014 13.5126 0.0049
# 3 28.6793 37.5511 99.9204 -0.0010 15.5082 0.0008
# 4 0.0011 -0.0014 -0.0010 38.6033 -0.0001 10.2319
# 5 27.0859 13.5126 15.5082 -0.0001 39.6633 0.0003
# 6 -0.0006 0.0049 0.0008 10.2319 0.0003 40.8857
#
#
#
# Elastic Compliance Matrix: (Units=1/GPa)
#
#
# Indices 1 2 3 4 5 6 
#
# 1 0.009838 -0.001393 -0.001417 -0.000001 -0.005690 0.000001
# 2 -0.001393 0.007801 -0.002414 0.000001 -0.000763 -0.000001
# 3 -0.001417 -0.002414 0.011757 0.000000 -0.002807 0.000000
# 4 -0.000001 0.000001 0.000000 0.027745 0.000000 -0.006943
# 5 -0.005690 -0.000763 -0.002807 0.000000 0.030455 0.000000
# 6 0.000001 -0.000001 0.000000 -0.006943 0.000000 0.026196
#
#
# Mechanical properties :
#
#
# Convention : Reuss Voigt Hill
#
# Bulk Modulus (GPa) = 52.77125 63.77534 58.27329
# Shear Modulus (GPa) = 38.29768 42.03724 40.16746
#
# Velocity S-wave (km/s) = 4.08067 4.27526 4.17909
# Velocity P-wave (km/s) = 6.71918 7.21803 6.97307
#
# Compressibility (1/GPa) = 0.01894971
#
# Stress axis : x y z
#
# Youngs Moduli (GPa) = 101.64336 128.19209 85.05245
#
# Poissons Ratio (x) = 0.17851 0.12055
# Poissons Ratio (y) = 0.14154 0.20527
# Poissons Ratio (z) = 0.14407 0.30939
#
# Static dielectric constant tensor:
#      x y z
#    x 4.188970 0.000000 0.126850 
#    y 0.000000 4.139660 0.000000 
#    z 0.126850 0.000000 4.389990 
# 
# 
# High freq. dielectric constant tensor:
#      x y z
#    x 1.912560 0.000000 0.011210 
#    y 0.000000 1.921660 0.000000 
#    z 0.011210 0.000000 1.927990 
# 
# From -- ./inp_files/165126.got.cif
#   From: 2010.06.25/outbox.cif.g09.slc.cpg/sg15_83_cif.got.tgz:165126.got - 2010.06.28 07:06:18.
