data_PCOD8150840
_publ_section_title
;
Structure prediction by ZEFSAII (Michael W. Deem and Ramdas Pophale) SiO2 
 PCOD8150840
Probable space group: C 2/C
;
_chemical_formula_sum "Si O2"
_cell_formula_units_Z 44
_cell_length_a 28.752060
_cell_length_b 5.530560
_cell_length_c 14.759801
_cell_angle_alpha 90.000000
_cell_angle_beta 125.285562
_cell_angle_gamma 90.000000
_cell_volume 1915.840825
_symmetry_space_group_name_H-M "C 2/C"
_symmetry_group_IT_number 15
_symmetry_cell_setting 'monoclinic'
loop_
_space_group_symop_operation_xyz
x,y,z
-x,y,1/2-z
-x,-y,-z
x,-y,1/2+z
1/2+x,1/2+y,z
1/2-x,1/2+y,1/2-z
1/2-x,1/2-y,-z
1/2+x,1/2-y,1/2+z
loop_
_atom_site_type_symbol
_atom_site_label
_atom_site_fract_x
_atom_site_fract_y
_atom_site_fract_z
Si Si1 0.500000 0.701280 0.250000
Si Si2 0.532756 0.003593 0.129129
Si Si3 0.905512 0.884830 0.208058
Si Si4 0.764794 0.760095 0.412408
Si Si5 0.857195 0.772004 0.794385
Si Si6 0.332269 0.240913 0.965733
O O1 0.493176 0.852585 0.150999
O O2 0.438218 0.575349 0.181977
O O3 0.598142 0.916277 0.196244
O O4 0.540147 0.266114 0.180429
O O5 0.500000 0.000000 0.000000
O O6 0.865235 0.984252 0.243725
O O7 0.870480 0.713424 0.099681
O O8 0.750000 0.750000 0.500000
O O9 0.708406 0.802240 0.289539
O O10 0.795858 0.508711 0.417908
O O11 0.799114 0.006186 0.436300
O O12 0.869381 0.781454 0.916014
#
# Coordination Sequence:
#
# PCOD8150840 Si02
#       6
#     4   8   8   8   8   8
#     4  10  26  46  68 106 144 188 248 304 370 432
#     4  11  27  46  74 103 148 193 249 306 368 444
#     4  11  26  46  72 104 145 191 250 302 373 442
#     4  12  25  49  73 110 149 194 244 304 369 440
#     4  11  27  44  72 108 145 191 250 299 372 443
#     4  12  28  45  80 106 153 193 242 305 373 442
#
# _framework density 22.966417
#
# number of rings (size 3 to 8) (size 9 to 14) (size 15 to 20)
#    0.000    0.727    1.818    3.273   15.273    1.455 
#    0.000    0.000    0.000    0.000    0.000    0.000 
#    0.000    0.000    0.000    0.000    0.000    0.000 
#
# Total GULP energy -272586.029004 kJ/mol
# GULP energy per Si atom -12390.274046 kJ/mol
# Density = 2.291414 g / cm^3
# Si number density = 22.966417 Si / 1000 Ang^3
#
#
#
# Elastic Constant Matrix: (Units=GPa)
#
#
# Indices 1 2 3 4 5 6 
#
# 1 118.1120 42.3489 40.7855 0.0000 -24.9046 0.0000
# 2 42.3489 118.4885 36.1120 -0.0017 -3.0806 -0.0026
# 3 40.7855 36.1120 164.4169 0.0001 -12.0691 0.0001
# 4 0.0000 -0.0017 0.0001 17.3094 -0.0001 -13.3067
# 5 -24.9046 -3.0806 -12.0691 -0.0001 43.8900 -0.0001
# 6 0.0000 -0.0026 0.0001 -13.3067 -0.0001 10.1870
#
#
#
# Elastic Compliance Matrix: (Units=1/GPa)
#
#
# Indices 1 2 3 4 5 6 
#
# 1 0.011510 -0.003454 -0.001669 0.000224 0.005830 0.000292
# 2 -0.003454 0.010082 -0.001479 -0.000703 -0.001659 -0.000915
# 3 -0.001669 -0.001479 0.006883 0.000117 0.000842 0.000153
# 4 0.000224 -0.000703 0.000117-13.785531 0.000037-18.007339
# 5 0.005830 -0.001659 0.000842 0.000037 0.026207 0.000048
# 6 0.000292 -0.000915 0.000153-18.007339 0.000048-23.423909
#
#
# Mechanical properties :
#
#
# Convention : Reuss Voigt Hill
#
# Bulk Modulus (GPa) = 65.48273 71.05672 68.26972
# Shear Modulus (GPa) = -0.13464 33.06200 16.46368
#
# Velocity S-wave (km/s) = -0.24239 3.79830 2.68033
# Velocity P-wave (km/s) = 5.33816 7.08820 6.27450
#
# Compressibility (1/GPa) = 0.01527120
#
# Stress axis : x y z
#
# Youngs Moduli (GPa) = 86.87771 99.18910 145.29016
#
# Poissons Ratio (x) = 0.34258 0.24245
# Poissons Ratio (y) = 0.30005 0.21494
# Poissons Ratio (z) = 0.14498 0.14674
#
# Static dielectric constant tensor:
#      x y z
#    x 4.825150 0.000040 -0.300830 
#    y 0.000040 5.591170 -0.000010 
#    z -0.300830 -0.000010 4.226790 
# 
# 
# High freq. dielectric constant tensor:
#      x y z
#    x 1.922860 0.000000 -0.013510 
#    y 0.000000 1.907830 0.000000 
#    z -0.013510 0.000000 1.916660 
# 
# From -- ./inp_files/175785.got.cif
#   From: 2010.06.25/outbox.cif.g09.slc.cpg/sg15_88_cif.got.tgz:175785.got - 2010.06.28 07:06:18.
