data_PCOD8150551
_publ_section_title
;
Structure prediction by ZEFSAII (Michael W. Deem and Ramdas Pophale) SiO2 
 PCOD8150551
Probable space group: C 2/C
;
_chemical_formula_sum "Si O2"
_cell_formula_units_Z 56
_cell_length_a 11.296571
_cell_length_b 9.011155
_cell_length_c 31.274714
_cell_angle_alpha 90.000000
_cell_angle_beta 57.359598
_cell_angle_gamma 90.000000
_cell_volume 2680.833312
_symmetry_space_group_name_H-M "C 2/C"
_symmetry_group_IT_number 15
_symmetry_cell_setting 'monoclinic'
loop_
_space_group_symop_operation_xyz
x,y,z
-x,y,1/2-z
-x,-y,-z
x,-y,1/2+z
1/2+x,1/2+y,z
1/2-x,1/2+y,1/2-z
1/2-x,1/2-y,-z
1/2+x,1/2-y,1/2+z
loop_
_atom_site_type_symbol
_atom_site_label
_atom_site_fract_x
_atom_site_fract_y
_atom_site_fract_z
Si Si1 0.042645 0.572175 0.036253
Si Si2 0.387882 0.349915 0.168928
Si Si3 0.193302 0.091180 0.994909
Si Si4 0.909936 0.649295 0.729507
Si Si5 0.615961 0.029326 0.350598
Si Si6 0.056397 0.966701 0.697097
Si Si7 0.063111 0.902502 0.433811
O O1 0.206767 0.541558 0.009918
O O2 0.961429 0.485361 0.090380
O O3 0.019116 0.748007 0.042500
O O4 0.000000 0.500000 0.000000
O O5 0.251610 0.359083 0.225095
O O6 0.444311 0.183246 0.155449
O O7 0.518179 0.441646 0.162563
O O8 0.358207 0.410020 0.126975
O O9 0.186503 0.091498 0.944762
O O10 0.250000 0.250000 0.000000
O O11 0.039301 0.045910 0.042776
O O12 0.917601 0.585178 0.680374
O O13 0.000000 0.567877 0.750000
O O14 0.970381 0.813444 0.712797
O O15 0.778066 0.055811 0.331567
O O16 0.000000 0.054660 0.750000
#
# Coordination Sequence:
#
# PCOD8150551 Si02
#       7
#     8   8   8   8   8   8   8
#     4  11  24  43  67  93 132 172 220 275 329 385
#     4  11  22  41  66  95 129 171 209 269 325 383
#     4  11  23  45  68  92 129 173 218 272 329 388
#     4  11  22  42  67  93 135 167 212 270 319 389
#     4  11  25  43  63  97 127 176 219 264 329 388
#     4  11  22  43  65  90 135 170 213 265 318 387
#     4  10  25  42  65  97 132 167 223 270 330 391
#
# _framework density 20.889026999999999
#
# number of rings (size 3 to 8) (size 9 to 14) (size 15 to 20)
#    0.000    1.143    5.714    0.429    4.000    1.714 
#    2.571    0.000    0.000    0.000    0.000    0.000 
#    0.000    0.000    0.000    0.000    0.000    0.000 
#
# Total GULP energy -347067.277389 kJ/mol
# GULP energy per Si atom -12395.259907 kJ/mol
# Density = 2.084148 g / cm^3
# Si number density = 20.889027 Si / 1000 Ang^3
#
#
#
# Elastic Constant Matrix: (Units=GPa)
#
#
# Indices 1 2 3 4 5 6 
#
# 1 122.7299 48.2496 36.1380 0.0000 25.2011 0.0000
# 2 48.2496 81.8243 29.1037 0.0000 16.8632 0.0000
# 3 36.1380 29.1037 123.7153 0.0000 30.0033 0.0000
# 4 0.0000 0.0000 0.0000 30.1915 0.0000 4.9515
# 5 25.2011 16.8632 30.0033 0.0000 36.9547 0.0000
# 6 0.0000 0.0000 0.0000 4.9515 0.0000 32.7885
#
#
#
# Elastic Compliance Matrix: (Units=1/GPa)
#
#
# Indices 1 2 3 4 5 6 
#
# 1 0.011540 -0.005521 -0.000965 0.000000 -0.004568 0.000000
# 2 -0.005521 0.016580 -0.001701 0.000000 -0.002420 0.000000
# 3 -0.000965 -0.001701 0.010481 0.000000 -0.007075 0.000000
# 4 0.000000 0.000000 0.000000 0.033963 0.000000 -0.005129
# 5 -0.004568 -0.002420 -0.007075 0.000000 0.037024 0.000000
# 6 0.000000 0.000000 0.000000 -0.005129 0.000000 0.031273
#
#
# Mechanical properties :
#
#
# Convention : Reuss Voigt Hill
#
# Bulk Modulus (GPa) = 44.98548 61.69468 53.34008
# Shear Modulus (GPa) = 30.36866 34.30549 32.33707
#
# Velocity S-wave (km/s) = 3.81702 4.05689 3.93878
# Velocity P-wave (km/s) = 6.40378 7.17935 6.80263
#
# Compressibility (1/GPa) = 0.02222939
#
# Stress axis : x y z
#
# Youngs Moduli (GPa) = 86.65349 60.31209 95.41181
#
# Poissons Ratio (x) = 0.33296 0.09203
# Poissons Ratio (y) = 0.47838 0.16229
# Poissons Ratio (z) = 0.08358 0.10259
#
# Static dielectric constant tensor:
#      x y z
#    x 3.923840 0.000000 0.269730 
#    y 0.000000 3.695720 0.000000 
#    z 0.269730 0.000000 4.029640 
# 
# 
# High freq. dielectric constant tensor:
#      x y z
#    x 1.828190 0.000000 0.014230 
#    y 0.000000 1.805550 0.000000 
#    z 0.014230 0.000000 1.827450 
# 
# From -- ./inp_files/291618.got.cif
#   From: 2010.06.25/outbox.cif.g09.slc.cpg/sg15_146_cif.got.tgz:291618.got - 2010.06.28 07:06:18.
