data_PCOD8150347
_publ_section_title
;
Structure prediction by ZEFSAII (Michael W. Deem and Ramdas Pophale) SiO2 
 PCOD8150347
Probable space group: C 2/C
;
_chemical_formula_sum "Si O2"
_cell_formula_units_Z 52
_cell_length_a 13.290833
_cell_length_b 9.335764
_cell_length_c 20.482830
_cell_angle_alpha 90.000000
_cell_angle_beta 95.456260
_cell_angle_gamma 90.000000
_cell_volume 2529.995800
_symmetry_space_group_name_H-M "C 2/C"
_symmetry_group_IT_number 15
_symmetry_cell_setting 'monoclinic'
loop_
_space_group_symop_operation_xyz
x,y,z
-x,y,1/2-z
-x,-y,-z
x,-y,1/2+z
1/2+x,1/2+y,z
1/2-x,1/2+y,1/2-z
1/2-x,1/2-y,-z
1/2+x,1/2-y,1/2+z
loop_
_atom_site_type_symbol
_atom_site_label
_atom_site_fract_x
_atom_site_fract_y
_atom_site_fract_z
Si Si1 0.006498 0.146624 0.537350
Si Si2 0.500000 0.813751 0.750000
Si Si3 0.885480 0.322739 0.048534
Si Si4 0.704769 0.281017 0.427071
Si Si5 0.849333 0.185161 0.840717
Si Si6 0.740066 0.910066 0.581456
Si Si7 0.165698 0.519785 0.342199
O O1 0.014091 0.275887 0.484368
O O2 0.105028 0.126041 0.588655
O O3 0.914260 0.189613 0.576916
O O4 0.000000 0.000000 0.500000
O O5 0.435728 0.703922 0.791351
O O6 0.417217 0.918453 0.712456
O O7 0.844399 0.174345 0.076589
O O8 0.901114 0.434548 0.108118
O O9 0.814474 0.398956 0.991535
O O10 0.750000 0.250000 0.500000
O O11 0.750881 0.424316 0.399220
O O12 0.725912 0.151082 0.379222
O O13 0.812730 0.344251 0.857714
O O14 0.753785 0.081692 0.815412
#
# Coordination Sequence:
#
# PCOD8150347 Si02
#       7
#     8   4   8   8   8   8   8
#     4  11  20  36  65 100 134 168 213 275 344 406
#     4  12  26  48  68  94 136 186 236 272 338 404
#     4   9  18  36  60  92 131 168 204 261 342 394
#     4  12  21  34  62 103 136 167 219 274 336 409
#     4  10  24  46  69  90 131 182 220 278 343 395
#     4   9  18  35  63  93 131 166 199 271 343 383
#     4  11  24  43  68  95 131 176 228 277 332 412
#
# _framework density 20.553393
#
# number of rings (size 3 to 8) (size 9 to 14) (size 15 to 20)
#    0.000    1.538    4.615    1.846    0.000    3.077 
#    0.000    1.538    0.000    1.846    0.000    0.000 
#    0.000    0.000    0.000    0.000    0.000    0.000 
#
# Total GULP energy -322127.664784 kJ/mol
# GULP energy per Si atom -12389.525569 kJ/mol
# Density = 2.050661 g / cm^3
# Si number density = 20.553393 Si / 1000 Ang^3
#
#
#
# Elastic Constant Matrix: (Units=GPa)
#
#
# Indices 1 2 3 4 5 6 
#
# 1 91.3977 43.3338 39.7706 0.0000 -7.0251 0.0000
# 2 43.3338 142.5134 49.1398 0.0000 -1.0737 0.0000
# 3 39.7706 49.1398 83.2689 0.0000 -6.4797 0.0000
# 4 0.0000 0.0000 0.0000 25.1366 0.0000 4.9565
# 5 -7.0251 -1.0737 -6.4797 0.0000 39.9599 0.0000
# 6 0.0000 0.0000 0.0000 4.9565 0.0000 34.2849
#
#
#
# Elastic Compliance Matrix: (Units=1/GPa)
#
#
# Indices 1 2 3 4 5 6 
#
# 1 0.014613 -0.002597 -0.005320 0.000000 0.001637 0.000000
# 2 -0.002597 0.009286 -0.004310 0.000000 -0.000906 0.000000
# 3 -0.005320 -0.004310 0.017229 0.000000 0.001743 0.000000
# 4 0.000000 0.000000 0.000000 0.040950 0.000000 -0.005920
# 5 0.001637 -0.000906 0.001743 0.000000 0.025571 0.000000
# 6 0.000000 0.000000 0.000000 -0.005920 0.000000 0.030023
#
#
# Mechanical properties :
#
#
# Convention : Reuss Voigt Hill
#
# Bulk Modulus (GPa) = 59.97005 64.62982 62.29994
# Shear Modulus (GPa) = 29.81810 32.20533 31.01171
#
# Velocity S-wave (km/s) = 3.81302 3.96272 3.88859
# Velocity P-wave (km/s) = 6.97327 7.24228 7.10905
#
# Compressibility (1/GPa) = 0.01667499
#
# Stress axis : x y z
#
# Youngs Moduli (GPa) = 68.43251 107.69115 58.04117
#
# Poissons Ratio (x) = 0.27965 0.30875
# Poissons Ratio (y) = 0.17770 0.25016
# Poissons Ratio (z) = 0.36403 0.46416
#
# Static dielectric constant tensor:
#      x y z
#    x 4.383890 0.000000 -0.345680 
#    y 0.000000 3.935810 0.000000 
#    z -0.345680 0.000000 3.639880 
# 
# 
# High freq. dielectric constant tensor:
#      x y z
#    x 1.797430 0.000000 -0.008720 
#    y 0.000000 1.812950 0.000000 
#    z -0.008720 0.000000 1.781760 
# 
# From -- ./inp_files/242476.got.cif
#   From: 2010.06.25/outbox.cif.g09.slc.cpg/sg15_122_cif.got.tgz:242476.got - 2010.06.28 07:06:18.
