data_PCOD8150394
_publ_section_title
;
Structure prediction by ZEFSAII (Michael W. Deem and Ramdas Pophale) SiO2 
 PCOD8150394
Probable space group: C 2/C
;
_chemical_formula_sum "Si O2"
_cell_formula_units_Z 64
_cell_length_a 28.559108
_cell_length_b 9.039077
_cell_length_c 11.336417
_cell_angle_alpha 90.000000
_cell_angle_beta 93.431371
_cell_angle_gamma 90.000000
_cell_volume 2921.226544
_symmetry_space_group_name_H-M "C 2/C"
_symmetry_group_IT_number 15
_symmetry_cell_setting 'monoclinic'
loop_
_space_group_symop_operation_xyz
x,y,z
-x,y,1/2-z
-x,-y,-z
x,-y,1/2+z
1/2+x,1/2+y,z
1/2-x,1/2+y,1/2-z
1/2-x,1/2-y,-z
1/2+x,1/2-y,1/2+z
loop_
_atom_site_type_symbol
_atom_site_label
_atom_site_fract_x
_atom_site_fract_y
_atom_site_fract_z
Si Si1 0.750032 0.400824 0.348113
Si Si2 0.574614 0.709804 0.579345
Si Si3 0.226653 0.228113 0.371614
Si Si4 0.673863 0.768693 0.984324
Si Si5 0.396021 0.898554 0.703858
Si Si6 0.882432 0.276112 0.161862
Si Si7 0.978644 0.655219 0.040725
Si Si8 0.910909 0.864380 0.891976
O O1 0.749809 0.339014 0.216534
O O2 0.739472 0.569718 0.323398
O O3 0.710000 0.337669 0.425682
O O4 0.800364 0.374470 0.417523
O O5 0.606526 0.792976 0.681981
O O6 0.588980 0.774865 0.455017
O O7 0.520792 0.746740 0.596429
O O8 0.577532 0.533866 0.581371
O O9 0.250000 0.250000 0.500000
O O10 0.171496 0.250388 0.375544
O O11 0.648728 0.870310 0.884930
O O12 0.636995 0.666859 0.046328
O O13 0.444453 0.871247 0.644372
O O14 0.391565 0.071374 0.735297
O O15 0.902233 0.148897 0.250643
O O16 0.951951 0.750265 0.935970
O O17 0.000000 0.500000 0.000000
#
# Coordination Sequence:
#
# PCOD8150394 Si02
#       8
#     8   8   8   8   8   8   8   8
#     4  11  26  46  71 101 142 188 236 299 354 425
#     4  12  27  45  74 107 143 187 235 297 365 420
#     4  12  29  44  72 105 143 184 244 293 362 423
#     4  10  24  46  73  97 143 188 240 290 358 413
#     4  11  26  45  75 100 140 186 238 291 352 430
#     4  12  27  46  71 104 143 185 241 292 360 429
#     4  11  23  50  73 104 142 191 237 289 357 425
#     4  11  26  45  72 105 148 185 238 300 353 429
#
# _framework density 21.908605999999999
#
# number of rings (size 3 to 8) (size 9 to 14) (size 15 to 20)
#    0.000    0.750    2.500    3.000   14.000    0.500 
#    2.250    0.000    0.000    0.000    0.000    0.000 
#    0.000    0.000    0.000    0.000    0.000    0.000 
#
# Total GULP energy -396948.820216 kJ/mol
# GULP energy per Si atom -12404.650632 kJ/mol
# Density = 2.185874 g / cm^3
# Si number density = 21.908606 Si / 1000 Ang^3
#
#
#
# Elastic Constant Matrix: (Units=GPa)
#
#
# Indices 1 2 3 4 5 6 
#
# 1 114.6328 57.2128 34.5869 0.0000 20.2811 0.0000
# 2 57.2128 127.0637 32.5922 0.0000 -2.7960 0.0000
# 3 34.5869 32.5922 128.5170 0.0000 9.8273 0.0000
# 4 0.0000 0.0000 0.0000 25.7797 0.0000 -5.2828
# 5 20.2811 -2.7960 9.8273 0.0000 20.2344 0.0000
# 6 0.0000 0.0000 0.0000 -5.2828 0.0000 26.2957
#
#
#
# Elastic Compliance Matrix: (Units=1/GPa)
#
#
# Indices 1 2 3 4 5 6 
#
# 1 0.015333 -0.006954 -0.001157 0.000000 -0.015767 0.000000
# 2 -0.006954 0.011675 -0.001813 0.000000 0.009464 0.000000
# 3 -0.001157 -0.001813 0.008810 0.000000 -0.003369 0.000000
# 4 0.000000 0.000000 0.000000 0.040456 0.000000 0.008128
# 5 -0.015767 0.009464 -0.003369 0.000000 0.068169 0.000000
# 6 0.000000 0.000000 0.000000 0.008128 0.000000 0.039662
#
#
# Mechanical properties :
#
#
# Convention : Reuss Voigt Hill
#
# Bulk Modulus (GPa) = 62.62094 68.77750 65.69922
# Shear Modulus (GPa) = 23.89201 30.85007 27.37104
#
# Velocity S-wave (km/s) = 3.30590 3.75657 3.53842
# Velocity P-wave (km/s) = 6.57395 7.09062 6.83717
#
# Compressibility (1/GPa) = 0.01596910
#
# Stress axis : x y z
#
# Youngs Moduli (GPa) = 65.21883 85.65657 113.50879
#
# Poissons Ratio (x) = 0.59566 0.13135
# Poissons Ratio (y) = 0.45354 0.20577
# Poissons Ratio (z) = 0.07547 0.15528
#
# Static dielectric constant tensor:
#      x y z
#    x 3.662480 0.000000 0.071510 
#    y 0.000000 3.968220 0.000000 
#    z 0.071510 0.000000 4.010290 
# 
# 
# High freq. dielectric constant tensor:
#      x y z
#    x 1.877390 0.000000 0.001490 
#    y 0.000000 1.870690 0.000000 
#    z 0.001490 0.000000 1.871820 
# 
# From -- ./inp_files/125904.got.cif
#   From: 2010.06.25/outbox.cif.g09.slc.cpg/sg15_63_cif.got.tgz:125904.got - 2010.06.28 07:06:18.
