data_PCOD8150900
_publ_section_title
;
Structure prediction by ZEFSAII (Michael W. Deem and Ramdas Pophale) SiO2 
 PCOD8150900
Probable space group: C 2/C
;
_chemical_formula_sum "Si O2"
_cell_formula_units_Z 52
_cell_length_a 14.701132
_cell_length_b 8.172346
_cell_length_c 25.112456
_cell_angle_alpha 90.000000
_cell_angle_beta 54.245185
_cell_angle_gamma 90.000000
_cell_volume 2448.434839
_symmetry_space_group_name_H-M "C 2/C"
_symmetry_group_IT_number 15
_symmetry_cell_setting 'monoclinic'
loop_
_space_group_symop_operation_xyz
x,y,z
-x,y,1/2-z
-x,-y,-z
x,-y,1/2+z
1/2+x,1/2+y,z
1/2-x,1/2+y,1/2-z
1/2-x,1/2-y,-z
1/2+x,1/2-y,1/2+z
loop_
_atom_site_type_symbol
_atom_site_label
_atom_site_fract_x
_atom_site_fract_y
_atom_site_fract_z
Si Si1 0.453286 0.248080 0.043033
Si Si2 0.324258 0.791532 0.854054
Si Si3 0.117427 0.594229 0.907884
Si Si4 0.000000 0.511943 0.750000
Si Si5 0.775588 0.941016 0.039162
Si Si6 0.571140 0.569514 0.596182
Si Si7 0.960668 0.288323 0.369132
O O1 0.386121 0.346207 0.021060
O O2 0.484333 0.363567 0.081947
O O3 0.373739 0.101301 0.090089
O O4 0.566749 0.174164 0.978950
O O5 0.243337 0.658626 0.854429
O O6 0.392270 0.891643 0.785886
O O7 0.411169 0.706197 0.864916
O O8 0.246837 0.918325 0.911168
O O9 0.040140 0.632058 0.884854
O O10 0.005036 0.629540 0.697765
O O11 0.667962 0.824120 0.069397
O O12 0.808763 0.023568 0.971518
O O13 0.519930 0.406424 0.640835
#
# Coordination Sequence:
#
# PCOD8150900 Si02
#       7
#     8   8   8   4   8   8   8
#     4  11  22  36  63 104 144 159 201 252 336 402
#     4  11  24  42  67  90 132 169 221 258 318 377
#     4  11  23  39  64 100 132 174 202 263 321 394
#     4  10  26  50  62  86 118 180 226 278 302 370
#     4  11  21  38  62 101 136 167 200 261 323 390
#     4  12  22  38  65 102 131 168 203 265 328 389
#     4  11  24  42  67  91 132 168 222 260 321 375
#
# _framework density 21.238057000000001
#
# number of rings (size 3 to 8) (size 9 to 14) (size 15 to 20)
#    0.000    0.923    3.077    5.077    4.308    0.615 
#    0.000    9.231    0.000    0.000    0.000    0.000 
#    0.000    0.000    0.000    0.000    0.000    0.000 
#
# Total GULP energy -322493.134724 kJ/mol
# GULP energy per Si atom -12403.582105 kJ/mol
# Density = 2.118972 g / cm^3
# Si number density = 21.238057 Si / 1000 Ang^3
#
#
#
# Elastic Constant Matrix: (Units=GPa)
#
#
# Indices 1 2 3 4 5 6 
#
# 1 90.0417 27.1761 17.5386 0.0000 9.1595 0.0002
# 2 27.1761 121.1473 43.6883 0.0001 -8.9441 0.0003
# 3 17.5386 43.6883 91.7117 0.0000 -4.7429 0.0000
# 4 0.0000 0.0001 0.0000 25.4300 0.0000 2.3664
# 5 9.1595 -8.9441 -4.7429 0.0000 17.0455 0.0000
# 6 0.0002 0.0003 0.0000 2.3664 0.0000 42.1243
#
#
#
# Elastic Compliance Matrix: (Units=1/GPa)
#
#
# Indices 1 2 3 4 5 6 
#
# 1 0.013276 -0.003103 -0.001536 0.000000 -0.009190 0.000000
# 2 -0.003103 0.010963 -0.004307 0.000000 0.006221 0.000000
# 3 -0.001536 -0.004307 0.013368 0.000000 0.002285 0.000000
# 4 0.000000 0.000000 0.000000 0.039530 0.000000 -0.002221
# 5 -0.009190 0.006221 0.002285 0.000000 0.067505 0.000000
# 6 0.000000 0.000000 0.000000 -0.002221 0.000000 0.023864
#
#
# Mechanical properties :
#
#
# Convention : Reuss Voigt Hill
#
# Bulk Modulus (GPa) = 50.72375 53.30075 52.01225
# Shear Modulus (GPa) = 25.91073 31.21979 28.56526
#
# Velocity S-wave (km/s) = 3.49666 3.83821 3.67141
# Velocity P-wave (km/s) = 6.34330 6.69281 6.52040
#
# Compressibility (1/GPa) = 0.01971463
#
# Stress axis : x y z
#
# Youngs Moduli (GPa) = 75.32130 91.21557 74.80810
#
# Poissons Ratio (x) = 0.28301 0.11492
# Poissons Ratio (y) = 0.23370 0.32222
# Poissons Ratio (z) = 0.11571 0.39290
#
# Static dielectric constant tensor:
#      x y z
#    x 3.686220 0.000000 -0.083720 
#    y 0.000000 4.214090 0.000000 
#    z -0.083720 0.000000 3.714440 
# 
# 
# High freq. dielectric constant tensor:
#      x y z
#    x 1.830230 0.000000 0.004290 
#    y 0.000000 1.860750 0.000000 
#    z 0.004290 0.000000 1.802170 
# 
# From -- ./inp_files/242455.got.cif
#   From: 2010.06.25/outbox.cif.g09.slc.cpg/sg15_122_cif.got.tgz:242455.got - 2010.06.28 07:06:18.
