data_PCOD8150646
_publ_section_title
;
Structure prediction by ZEFSAII (Michael W. Deem and Ramdas Pophale) SiO2 
 PCOD8150646
Probable space group: C 2/C
;
_chemical_formula_sum "Si O2"
_cell_formula_units_Z 44
_cell_length_a 23.817667
_cell_length_b 14.964039
_cell_length_c 11.112686
_cell_angle_alpha 90.000000
_cell_angle_beta 32.059047
_cell_angle_gamma 90.000000
_cell_volume 2102.288140
_symmetry_space_group_name_H-M "C 2/C"
_symmetry_group_IT_number 15
_symmetry_cell_setting 'monoclinic'
loop_
_space_group_symop_operation_xyz
x,y,z
-x,y,1/2-z
-x,-y,-z
x,-y,1/2+z
1/2+x,1/2+y,z
1/2-x,1/2+y,1/2-z
1/2-x,1/2-y,-z
1/2+x,1/2-y,1/2+z
loop_
_atom_site_type_symbol
_atom_site_label
_atom_site_fract_x
_atom_site_fract_y
_atom_site_fract_z
Si Si1 0.233428 0.332901 0.945240
Si Si2 0.891263 0.030601 0.256783
Si Si3 0.831952 0.742255 0.180397
Si Si4 0.719800 0.110861 0.035900
Si Si5 0.939663 0.528178 0.732151
Si Si6 0.000000 0.144881 0.250000
O O1 0.330346 0.402192 0.778530
O O2 0.233320 0.293456 0.813045
O O3 0.250000 0.250000 0.000000
O O4 0.120831 0.378659 0.181868
O O5 0.914337 0.082086 0.339748
O O6 0.818189 0.944154 0.415114
O O7 0.000000 0.000000 0.000000
O O8 0.757328 0.812111 0.380605
O O9 0.851366 0.655303 0.228890
O O10 0.942355 0.790089 0.949205
O O11 0.647537 0.047709 0.085943
O O12 0.000000 0.536145 0.750000
O O13 0.000000 0.500000 0.500000
#
# Coordination Sequence:
#
# PCOD8150646 Si02
#       6
#     8   8   8   8   8   4
#     4  11  25  42  69  97 133 174 224 280 336 401
#     4  11  24  44  66  99 129 179 224 273 336 399
#     4  11  24  44  66 101 136 177 223 285 340 401
#     4  10  25  45  67  98 142 174 225 285 339 399
#     4  11  26  44  71 100 139 184 231 279 349 416
#     4  12  24  40  76  92 138 178 228 272 338 406
#
# _framework density 20.929576999999998
#
# number of rings (size 3 to 8) (size 9 to 14) (size 15 to 20)
#    0.000    1.091    3.636    1.091    8.909    0.000 
#    0.000    0.000    0.000    0.000    0.000    0.000 
#    0.000    0.000    0.000    0.000    0.000    0.000 
#
# Total GULP energy -272757.442443 kJ/mol
# GULP energy per Si atom -12398.065566 kJ/mol
# Density = 2.088194 g / cm^3
# Si number density = 20.929577 Si / 1000 Ang^3
#
#
#
# Elastic Constant Matrix: (Units=GPa)
#
#
# Indices 1 2 3 4 5 6 
#
# 1 136.7776 72.1102 51.6050 0.0000 -1.0584 0.0000
# 2 72.1102 144.5015 56.5359 0.0000 -0.3217 0.0000
# 3 51.6050 56.5359 105.8195 0.0000 2.4056 0.0000
# 4 0.0000 0.0000 0.0000 27.4770 0.0000 -2.2789
# 5 -1.0584 -0.3217 2.4056 0.0000 33.1385 0.0000
# 6 0.0000 0.0000 0.0000 -2.2789 0.0000 39.2904
#
#
#
# Elastic Compliance Matrix: (Units=1/GPa)
#
#
# Indices 1 2 3 4 5 6 
#
# 1 0.010618 -0.004131 -0.002983 0.000000 0.000516 0.000000
# 2 -0.004131 0.010362 -0.003527 0.000000 0.000225 0.000000
# 3 -0.002983 -0.003527 0.012813 0.000000 -0.001060 0.000000
# 4 0.000000 0.000000 0.000000 0.036570 0.000000 0.002121
# 5 0.000516 0.000225 -0.001060 0.000000 0.030272 0.000000
# 6 0.000000 0.000000 0.000000 0.002121 0.000000 0.025575
#
#
# Mechanical properties :
#
#
# Convention : Reuss Voigt Hill
#
# Bulk Modulus (GPa) = 79.92034 83.06676 81.49355
# Shear Modulus (GPa) = 32.96812 33.77102 33.36957
#
# Velocity S-wave (km/s) = 3.97318 4.02127 3.99729
# Velocity P-wave (km/s) = 7.70172 7.83171 7.76698
#
# Compressibility (1/GPa) = 0.01251246
#
# Stress axis : x y z
#
# Youngs Moduli (GPa) = 94.17726 96.50700 78.04454
#
# Poissons Ratio (x) = 0.39862 0.23282
# Poissons Ratio (y) = 0.38900 0.27525
# Poissons Ratio (z) = 0.28094 0.34036
#
# Static dielectric constant tensor:
#      x y z
#    x 3.713150 0.000000 -0.202820 
#    y 0.000000 4.297890 0.000000 
#    z -0.202820 0.000000 3.688180 
# 
# 
# High freq. dielectric constant tensor:
#      x y z
#    x 1.820000 0.000000 -0.004320 
#    y 0.000000 1.850140 0.000000 
#    z -0.004320 0.000000 1.816480 
# 
# From -- ./inp_files/123259.got.cif
#   From: 2010.06.25/outbox.cif.g09.slc.cpg/sg15_62_cif.got.tgz:123259.got - 2010.06.28 07:06:18.
