data_PCOD8150284
_publ_section_title
;
Structure prediction by ZEFSAII (Michael W. Deem and Ramdas Pophale) SiO2 
 PCOD8150284
Probable space group: C 2/C
;
_chemical_formula_sum "Si O2"
_cell_formula_units_Z 44
_cell_length_a 32.647346
_cell_length_b 10.297555
_cell_length_c 18.489976
_cell_angle_alpha 90.000000
_cell_angle_beta 162.990066
_cell_angle_gamma 90.000000
_cell_volume 1818.443883
_symmetry_space_group_name_H-M "C 2/C"
_symmetry_group_IT_number 15
_symmetry_cell_setting 'monoclinic'
loop_
_space_group_symop_operation_xyz
x,y,z
-x,y,1/2-z
-x,-y,-z
x,-y,1/2+z
1/2+x,1/2+y,z
1/2-x,1/2+y,1/2-z
1/2-x,1/2-y,-z
1/2+x,1/2-y,1/2+z
loop_
_atom_site_type_symbol
_atom_site_label
_atom_site_fract_x
_atom_site_fract_y
_atom_site_fract_z
Si Si1 0.092935 0.436863 0.472984
Si Si2 0.413076 0.339007 0.375613
Si Si3 0.726968 0.206547 0.689789
Si Si4 0.000000 0.874844 0.250000
Si Si5 0.117403 0.994691 0.309417
Si Si6 0.917490 0.396574 0.315504
O O1 0.171880 0.298891 0.590088
O O2 0.201436 0.557486 0.674611
O O3 0.976127 0.407860 0.334536
O O4 0.000000 0.485104 0.250000
O O5 0.283780 0.282925 0.203196
O O6 0.348157 0.377350 0.188029
O O7 0.475678 0.450268 0.533897
O O8 0.541199 0.240391 0.579085
O O9 0.582689 0.283640 0.444922
O O10 0.906470 0.961651 0.146537
O O11 0.249890 0.091308 0.533693
O O12 0.000000 0.500000 0.500000
#
# Coordination Sequence:
#
# PCOD8150284 Si02
#       6
#     8   8   8   4   8   8
#     4  11  24  47  72 105 146 192 232 300 349 426
#     4  10  24  45  71 100 140 187 232 294 348 430
#     4  11  24  46  69 107 143 185 244 288 367 414
#     4  12  26  42  72 104 138 186 232 302 348 426
#     4  11  24  46  70 103 139 183 240 290 357 419
#     4  11  25  44  69 103 141 188 234 288 359 418
#
# _framework density 24.196512999999999
#
# number of rings (size 3 to 8) (size 9 to 14) (size 15 to 20)
#    0.000    1.091    0.909    4.909    2.545    2.909 
#   21.273    0.000    0.000    0.000    0.000    0.000 
#    0.000    0.000    0.000    0.000    0.000    0.000 
#
# Total GULP energy -272599.323877 kJ/mol
# GULP energy per Si atom -12390.878358 kJ/mol
# Density = 2.414144 g / cm^3
# Si number density = 24.196513 Si / 1000 Ang^3
#
#
#
# Elastic Constant Matrix: (Units=GPa)
#
#
# Indices 1 2 3 4 5 6 
#
# 1 53.6734 13.9330 3.3174 0.0000 5.7866 0.0000
# 2 13.9330 113.5853 8.2156 0.0000 5.2748 0.0000
# 3 3.3174 8.2156 71.4609 0.0000 12.8969 0.0000
# 4 0.0000 0.0000 0.0000 26.3169 0.0000 -12.7773
# 5 5.7866 5.2748 12.8969 0.0000 36.3379 0.0000
# 6 0.0000 0.0000 0.0000 -12.7773 0.0000 27.8279
#
#
#
# Elastic Compliance Matrix: (Units=1/GPa)
#
#
# Indices 1 2 3 4 5 6 
#
# 1 0.019520 -0.002257 -0.000155 0.000000 -0.002726 0.000000
# 2 -0.002257 0.009172 -0.000827 0.000000 -0.000678 0.000000
# 3 -0.000155 -0.000827 0.015033 0.000000 -0.005191 0.000000
# 4 0.000000 0.000000 0.000000 0.048900 0.000000 0.022452
# 5 -0.002726 -0.000678 -0.005191 0.000000 0.029894 0.000000
# 6 0.000000 0.000000 0.000000 0.022452 0.000000 0.046244
#
#
# Mechanical properties :
#
#
# Convention : Reuss Voigt Hill
#
# Bulk Modulus (GPa) = 26.84721 32.18351 29.51536
# Shear Modulus (GPa) = 26.64438 32.31346 29.47892
#
# Velocity S-wave (km/s) = 3.32198 3.65836 3.49422
# Velocity P-wave (km/s) = 5.08268 5.58342 5.33892
#
# Compressibility (1/GPa) = 0.03724782
#
# Stress axis : x y z
#
# Youngs Moduli (GPa) = 51.22831 109.02609 66.52146
#
# Poissons Ratio (x) = 0.24604 0.01030
# Poissons Ratio (y) = 0.11561 0.05503
# Poissons Ratio (z) = 0.00793 0.09020
#
# Static dielectric constant tensor:
#      x y z
#    x 3.909100 0.000000 -0.022170 
#    y 0.000000 4.459910 0.000000 
#    z -0.022170 0.000000 4.175620 
# 
# 
# High freq. dielectric constant tensor:
#      x y z
#    x 1.952690 0.000000 0.008420 
#    y 0.000000 1.964690 0.000000 
#    z 0.008420 0.000000 1.965860 
# 
# From -- ./inp_files/225223.got.cif
#   From: 2010.06.25/outbox.cif.g09.slc.cpg/sg15_113_cif.got.tgz:225223.got - 2010.06.28 07:06:18.
