data_PCOD8150186
_publ_section_title
;
Structure prediction by ZEFSAII (Michael W. Deem and Ramdas Pophale) SiO2 
 PCOD8150186
Probable space group: C 2/C
;
_chemical_formula_sum "Si O2"
_cell_formula_units_Z 28
_cell_length_a 13.667323
_cell_length_b 12.740693
_cell_length_c 7.221688
_cell_angle_alpha 90.000000
_cell_angle_beta 127.910258
_cell_angle_gamma 90.000000
_cell_volume 992.151455
_symmetry_space_group_name_H-M "C 2/C"
_symmetry_group_IT_number 15
_symmetry_cell_setting 'monoclinic'
loop_
_space_group_symop_operation_xyz
x,y,z
-x,y,1/2-z
-x,-y,-z
x,-y,1/2+z
1/2+x,1/2+y,z
1/2-x,1/2+y,1/2-z
1/2-x,1/2-y,-z
1/2+x,1/2-y,1/2+z
loop_
_atom_site_type_symbol
_atom_site_label
_atom_site_fract_x
_atom_site_fract_y
_atom_site_fract_z
Si Si1 0.166347 0.609938 0.131783
Si Si2 0.000000 0.439837 0.750000
Si Si3 0.858872 0.950993 0.148539
Si Si4 0.861712 0.830805 0.536037
O O1 0.051155 0.632657 0.141460
O O2 0.287994 0.599048 0.398160
O O3 0.197098 0.713566 0.040464
O O4 0.118398 0.508832 0.956630
O O5 0.845623 0.884762 0.317540
O O6 0.000000 0.965984 0.250000
O O7 0.811020 0.075748 0.118353
O O8 0.000000 0.804143 0.750000
#
# Coordination Sequence:
#
# PCOD8150186 Si02
#       4
#     8   4   8   8
#     4  11  23  46  70 100 133 178 223 276 335 391
#     4  10  24  44  72 100 134 170 234 278 320 400
#     4  11  24  43  68 101 137 170 221 280 328 403
#     4  11  23  44  66 100 136 177 222 269 340 392
#
# _framework density 28.221498
#
# number of rings (size 3 to 8) (size 9 to 14) (size 15 to 20)
#    0.000    1.143    1.429    6.000    2.000    0.000 
#    5.143    4.286    0.000    0.000    0.000    0.000 
#    0.000    0.000    0.000    0.000    0.000    0.000 
#
# Total GULP energy -173563.251686 kJ/mol
# GULP energy per Si atom -12397.375120 kJ/mol
# Density = 2.815726 g / cm^3
# Si number density = 28.221498 Si / 1000 Ang^3
#
#
#
# Elastic Constant Matrix: (Units=GPa)
#
#
# Indices 1 2 3 4 5 6 
#
# 1 161.6696 59.6519 44.1201 0.0000 -12.7291 0.0000
# 2 59.6519 172.4892 59.8391 0.0000 10.1573 0.0000
# 3 44.1201 59.8391 216.6673 0.0000 11.0639 0.0000
# 4 0.0000 0.0000 0.0000 50.2160 0.0000 -2.8218
# 5 -12.7291 10.1573 11.0639 0.0000 60.7103 0.0000
# 6 0.0000 0.0000 0.0000 -2.8218 0.0000 54.7989
#
#
#
# Elastic Compliance Matrix: (Units=1/GPa)
#
#
# Indices 1 2 3 4 5 6 
#
# 1 0.007500 -0.002381 -0.000980 0.000000 0.002149 0.000000
# 2 -0.002381 0.007202 -0.001431 0.000000 -0.001443 0.000000
# 3 -0.000980 -0.001431 0.005257 0.000000 -0.000924 0.000000
# 4 0.000000 0.000000 0.000000 0.019972 0.000000 0.001028
# 5 0.002149 -0.001443 -0.000924 0.000000 0.017332 0.000000
# 6 0.000000 0.000000 0.000000 0.001028 0.000000 0.018301
#
#
# Mechanical properties :
#
#
# Convention : Reuss Voigt Hill
#
# Bulk Modulus (GPa) = 96.35760 97.56092 96.95926
# Shear Modulus (GPa) = 56.42962 58.95939 57.69451
#
# Velocity S-wave (km/s) = 4.47646 4.57570 4.52635
# Velocity P-wave (km/s) = 7.80613 7.90954 7.85800
#
# Compressibility (1/GPa) = 0.01037801
#
# Stress axis : x y z
#
# Youngs Moduli (GPa) = 133.32619 138.84970 190.21773
#
# Poissons Ratio (x) = 0.33054 0.18634
# Poissons Ratio (y) = 0.31740 0.27212
# Poissons Ratio (z) = 0.13061 0.19864
#
# Static dielectric constant tensor:
#      x y z
#    x 6.482390 0.000000 -0.333850 
#    y 0.000000 5.283000 0.000000 
#    z -0.333850 0.000000 5.566940 
# 
# 
# High freq. dielectric constant tensor:
#      x y z
#    x 2.229280 0.000000 -0.003380 
#    y 0.000000 2.146460 0.000000 
#    z -0.003380 0.000000 2.168430 
# 
# From -- ./inp_files/27267.got.cif
#   From: 2010.06.25/outbox.cif.g09.slc.cpg/sg15_14_cif.got.tgz:27267.got - 2010.06.28 07:06:18.
