data_PCOD8150020
_publ_section_title
;
Structure prediction by ZEFSAII (Michael W. Deem and Ramdas Pophale) SiO2 
 PCOD8150020
Probable space group: C 2/C
;
_chemical_formula_sum "Si O2"
_cell_formula_units_Z 48
_cell_length_a 10.345919
_cell_length_b 11.495335
_cell_length_c 18.244949
_cell_angle_alpha 90.000000
_cell_angle_beta 71.998764
_cell_angle_gamma 90.000000
_cell_volume 2063.652848
_symmetry_space_group_name_H-M "C 2/C"
_symmetry_group_IT_number 15
_symmetry_cell_setting 'monoclinic'
loop_
_space_group_symop_operation_xyz
x,y,z
-x,y,1/2-z
-x,-y,-z
x,-y,1/2+z
1/2+x,1/2+y,z
1/2-x,1/2+y,1/2-z
1/2-x,1/2-y,-z
1/2+x,1/2-y,1/2+z
loop_
_atom_site_type_symbol
_atom_site_label
_atom_site_fract_x
_atom_site_fract_y
_atom_site_fract_z
Si Si1 0.236740 0.926350 0.650353
Si Si2 0.886691 0.682116 0.827469
Si Si3 0.524835 0.998455 0.581401
Si Si4 0.777696 0.153326 0.082001
Si Si5 0.348506 0.476621 0.185612
Si Si6 0.376689 0.626011 0.910623
O O1 0.200006 0.794969 0.636353
O O2 0.146125 0.979506 0.732011
O O3 0.395716 0.935812 0.642307
O O4 0.201427 0.003477 0.585062
O O5 0.792680 0.586348 0.805460
O O6 0.000000 0.720176 0.750000
O O7 0.954930 0.628377 0.889011
O O8 0.500000 0.000000 0.500000
O O9 0.655119 0.924558 0.576212
O O10 0.859012 0.094041 0.134397
O O11 0.713141 0.277309 0.117702
O O12 0.881971 0.164401 0.995134
O O13 0.470721 0.387037 0.147126
#
# Coordination Sequence:
#
# PCOD8150020 Si02
#       6
#     8   8   8   8   8   8
#     4  12  25  42  71 100 134 179 225 285 345 408
#     4  11  24  44  68 100 134 179 229 284 345 410
#     4  11  23  47  68  98 135 179 231 281 343 408
#     4  10  24  43  70  95 135 182 219 281 340 407
#     4  11  24  43  67  99 137 175 230 280 340 412
#     4  11  23  44  64 100 135 174 227 272 345 410
#
# _framework density 23.259726000000001
#
# number of rings (size 3 to 8) (size 9 to 14) (size 15 to 20)
#    0.000    1.000    3.333    3.000    2.333    2.000 
#    6.000    0.000    0.000    0.000    0.000    0.000 
#    0.000    0.000    0.000    0.000    0.000    0.000 
#
# Total GULP energy -297652.513236 kJ/mol
# GULP energy per Si atom -12402.188051 kJ/mol
# Density = 2.320679 g / cm^3
# Si number density = 23.259726 Si / 1000 Ang^3
#
#
#
# Elastic Constant Matrix: (Units=GPa)
#
#
# Indices 1 2 3 4 5 6 
#
# 1 66.9418 21.3185 28.2260 0.0000 -8.9011 0.0000
# 2 21.3185 141.0619 34.3371 0.0000 9.1023 0.0000
# 3 28.2260 34.3371 95.8586 0.0000 -8.9721 0.0000
# 4 0.0000 0.0000 0.0000 27.1884 0.0000 -1.7122
# 5 -8.9011 9.1023 -8.9721 0.0000 37.2223 0.0000
# 6 0.0000 0.0000 0.0000 -1.7122 0.0000 39.0641
#
#
#
# Elastic Compliance Matrix: (Units=1/GPa)
#
#
# Indices 1 2 3 4 5 6 
#
# 1 0.017816 -0.001906 -0.004216 0.000000 0.003710 0.000000
# 2 -0.001906 0.008230 -0.002678 0.000000 -0.003114 0.000000
# 3 -0.004216 -0.002678 0.012891 0.000000 0.002754 0.000000
# 4 0.000000 0.000000 0.000000 0.036882 0.000000 0.001617
# 5 0.003710 -0.003114 0.002754 0.000000 0.029178 0.000000
# 6 0.000000 0.000000 0.000000 0.001617 0.000000 0.025670
#
#
# Mechanical properties :
#
#
# Convention : Reuss Voigt Hill
#
# Bulk Modulus (GPa) = 46.86795 52.40284 49.63539
# Shear Modulus (GPa) = 32.17924 35.36036 33.76980
#
# Velocity S-wave (km/s) = 3.72354 3.90325 3.81446
# Velocity P-wave (km/s) = 6.21932 6.54921 6.38640
#
# Compressibility (1/GPa) = 0.02133654
#
# Stress axis : x y z
#
# Youngs Moduli (GPa) = 56.12826 121.50705 77.57548
#
# Poissons Ratio (x) = 0.23155 0.32708
# Poissons Ratio (y) = 0.10696 0.20777
# Poissons Ratio (z) = 0.23665 0.32544
#
# Static dielectric constant tensor:
#      x y z
#    x 4.392970 0.000000 -0.048790 
#    y 0.000000 4.344080 0.000000 
#    z -0.048790 0.000000 4.296450 
# 
# 
# High freq. dielectric constant tensor:
#      x y z
#    x 1.924970 0.000000 -0.010880 
#    y 0.000000 1.923430 0.000000 
#    z -0.010880 0.000000 1.915900 
# 
# From -- ./inp_files/236832.got.cif
#   From: 2010.06.25/outbox.cif.g09.slc.cpg/sg15_119_cif.got.tgz:236832.got - 2010.06.28 07:06:18.
