data_PCOD8150047
_publ_section_title
;
Structure prediction by ZEFSAII (Michael W. Deem and Ramdas Pophale) SiO2 
 PCOD8150047
Probable space group: C 2/C
;
_chemical_formula_sum "Si O2"
_cell_formula_units_Z 28
_cell_length_a 13.917398
_cell_length_b 5.514748
_cell_length_c 18.380011
_cell_angle_alpha 90.000000
_cell_angle_beta 126.163714
_cell_angle_gamma 90.000000
_cell_volume 1138.892752
_symmetry_space_group_name_H-M "C 2/C"
_symmetry_group_IT_number 15
_symmetry_cell_setting 'monoclinic'
loop_
_space_group_symop_operation_xyz
x,y,z
-x,y,1/2-z
-x,-y,-z
x,-y,1/2+z
1/2+x,1/2+y,z
1/2-x,1/2+y,1/2-z
1/2-x,1/2-y,-z
1/2+x,1/2-y,1/2+z
loop_
_atom_site_type_symbol
_atom_site_label
_atom_site_fract_x
_atom_site_fract_y
_atom_site_fract_z
Si Si1 0.603327 0.000316 0.695230
Si Si2 0.500000 0.369066 0.750000
Si Si3 0.539124 0.749790 0.977865
Si Si4 0.225792 0.819542 0.353696
O O1 0.518845 0.776582 0.628525
O O2 0.670746 0.928496 0.799081
O O3 0.523577 0.224641 0.685315
O O4 0.700084 0.060102 0.678284
O O5 0.383645 0.514331 0.671930
O O6 0.500000 0.500000 0.000000
O O7 0.683618 0.756311 0.039815
O O8 0.500000 0.000000 0.000000
#
# Coordination Sequence:
#
# PCOD8150047 Si02
#       4
#     8   4   8   8
#     4  11  23  45  73 103 150 190 249 304 370 437
#     4  12  26  42  72 112 140 206 238 302 374 438
#     4  10  24  43  77 109 141 197 246 300 371 431
#     4  11  23  45  73 103 150 190 249 304 370 437
#
# _framework density 24.585283
#
# number of rings (size 3 to 8) (size 9 to 14) (size 15 to 20)
#    0.000    1.143    2.857    2.571    8.000    1.143 
#    0.000    5.714    0.000    0.000    0.000    0.000 
#    0.000    0.000    0.000    0.000    0.000    0.000 
#
# Total GULP energy -173455.257717 kJ/mol
# GULP energy per Si atom -12389.661266 kJ/mol
# Density = 2.452933 g / cm^3
# Si number density = 24.585283 Si / 1000 Ang^3
#
#
#
# Elastic Constant Matrix: (Units=GPa)
#
#
# Indices 1 2 3 4 5 6 
#
# 1 127.1410 45.3235 30.6124 0.0000 37.8443 0.0000
# 2 45.3235 112.7821 9.0006 0.0000 27.5973 0.0000
# 3 30.6124 9.0006 101.6170 0.0000 59.7036 0.0000
# 4 0.0000 0.0000 0.0000 28.6867 0.0000 -2.8261
# 5 37.8443 27.5973 59.7036 0.0000 40.7490 0.0000
# 6 0.0000 0.0000 0.0000 -2.8261 0.0000 23.8854
#
#
#
# Elastic Compliance Matrix: (Units=1/GPa)
#
#
# Indices 1 2 3 4 5 6 
#
# 1 -0.272512 -0.399463 -1.366459 0.000000 2.525696 0.000000
# 2 -0.399463 -0.544272 -1.911270 0.000000 3.539902 0.000000
# 3 -1.366459 -1.911270 -6.577181 0.000000 12.200047 0.000002
# 4 0.000000 0.000000 0.000000 0.035271 0.000001 0.004173
# 5 2.525696 3.539902 12.200047 0.000001-22.593468 -0.000003
# 6 0.000000 0.000000 0.000002 0.004173 -0.000003 0.042360
#
#
# Mechanical properties :
#
#
# Convention : Reuss Voigt Hill
#
# Bulk Modulus (GPa) = -0.06780 56.82367 28.37793
# Shear Modulus (GPa) = -0.18201 35.77112 17.79456
#
# Velocity S-wave (km/s) = -0.27238 3.81856 2.69325
# Velocity P-wave (km/s) = 0.35575 6.52724 4.60860
#
# Compressibility (1/GPa) = -14.74834990
#
# Stress axis : x y z
#
# Youngs Moduli (GPa) = -3.66956 -1.83732 -0.15204
#
# Poissons Ratio (x) = -0.73394 -0.20776
# Poissons Ratio (y) = -1.46585 -0.29059
# Poissons Ratio (z) = -5.01431 -3.51161
#
# Static dielectric constant tensor:
#      x y z
#    x 4.396280 0.000000 0.547100 
#    y 0.000000 4.479520 0.000000 
#    z 0.547100 0.000000 6.501100 
# 
# 
# High freq. dielectric constant tensor:
#      x y z
#    x 1.974520 0.000000 0.023890 
#    y 0.000000 1.981060 0.000000 
#    z 0.023890 0.000000 1.988160 
# 
# From -- ./inp_files/128007.got.cif
#   From: 2010.06.25/outbox.cif.g09.slc.cpg/sg15_65_cif.got.tgz:128007.got - 2010.06.28 07:06:18.
