data_PCOD8150647
_publ_section_title
;
Structure prediction by ZEFSAII (Michael W. Deem and Ramdas Pophale) SiO2 
 PCOD8150647
Probable space group: C 2/C
;
_chemical_formula_sum "Si O2"
_cell_formula_units_Z 52
_cell_length_a 10.860366
_cell_length_b 28.372422
_cell_length_c 8.284819
_cell_angle_alpha 90.000000
_cell_angle_beta 60.844867
_cell_angle_gamma 90.000000
_cell_volume 2229.406522
_symmetry_space_group_name_H-M "C 2/C"
_symmetry_group_IT_number 15
_symmetry_cell_setting 'monoclinic'
loop_
_space_group_symop_operation_xyz
x,y,z
-x,y,1/2-z
-x,-y,-z
x,-y,1/2+z
1/2+x,1/2+y,z
1/2-x,1/2+y,1/2-z
1/2-x,1/2-y,-z
1/2+x,1/2-y,1/2+z
loop_
_atom_site_type_symbol
_atom_site_label
_atom_site_fract_x
_atom_site_fract_y
_atom_site_fract_z
Si Si1 0.277980 0.230552 0.307332
Si Si2 0.700996 0.450319 0.272740
Si Si3 0.794878 0.051486 0.361319
Si Si4 0.000000 0.875571 0.250000
Si Si5 0.500000 0.374387 0.750000
Si Si6 0.516583 0.697274 0.999377
Si Si7 0.000000 0.653786 0.250000
Si Si8 0.992848 0.591455 0.569824
O O1 0.250000 0.250000 0.500000
O O2 0.366081 0.267107 0.141500
O O3 0.367775 0.183641 0.272761
O O4 0.121219 0.222818 0.331727
O O5 0.657461 0.501700 0.239057
O O6 0.654436 0.446280 0.486482
O O7 0.629875 0.408603 0.217152
O O8 0.868832 0.446602 0.150417
O O9 0.631655 0.061852 0.438718
O O10 0.887739 0.093426 0.221800
O O11 0.053579 0.838569 0.083036
O O12 0.589813 0.338770 0.578202
O O13 0.960163 0.625769 0.439773
O O14 0.000000 0.614350 0.750000
#
# Coordination Sequence:
#
# PCOD8150647 Si02
#       8
#     8   8   8   4   4   8   4   8
#     4  12  23  45  70 103 133 180 235 295 353 438
#     4  11  25  41  70 101 142 188 232 292 350 417
#     4  11  25  45  66 103 143 186 235 291 349 420
#     4  12  22  42  70 102 134 188 228 292 344 424
#     4  12  27  46  66 103 140 179 234 292 361 418
#     4  12  26  45  72  98 141 178 236 294 361 427
#     4  12  23  42  76 101 134 197 234 290 369 422
#     4  10  25  45  68 105 147 187 240 293 348 431
#
# _framework density 23.324594000000001
#
# number of rings (size 3 to 8) (size 9 to 14) (size 15 to 20)
#    0.000    0.615    4.615    2.769    4.308    1.846 
#    1.385    0.000    0.000    0.000    0.000    0.000 
#    0.000    0.000    0.000    0.000    0.000    0.000 
#
# Total GULP energy -322100.420395 kJ/mol
# GULP energy per Si atom -12388.477707 kJ/mol
# Density = 2.327151 g / cm^3
# Si number density = 23.324594 Si / 1000 Ang^3
#
#
#
# Elastic Constant Matrix: (Units=GPa)
#
#
# Indices 1 2 3 4 5 6 
#
# 1 89.7728 45.4316 22.5748 0.0000 -24.5638 0.0000
# 2 45.4316 150.6977 58.2572 0.0000 -3.9145 0.0000
# 3 22.5748 58.2572 88.7302 0.0000 -6.1146 0.0000
# 4 0.0000 0.0000 0.0000 39.6448 0.0000 5.6309
# 5 -24.5638 -3.9145 -6.1146 0.0000 44.9027 0.0000
# 6 0.0000 0.0000 0.0000 5.6309 0.0000 33.7914
#
#
#
# Elastic Compliance Matrix: (Units=1/GPa)
#
#
# Indices 1 2 3 4 5 6 
#
# 1 0.015682 -0.004276 -0.000623 0.000000 0.008121 0.000000
# 2 -0.004276 0.010059 -0.005670 0.000000 -0.002234 0.000000
# 3 -0.000623 -0.005670 0.015237 0.000000 0.001240 0.000000
# 4 0.000000 0.000000 0.000000 0.025835 0.000000 -0.004305
# 5 0.008121 -0.002234 0.001240 0.000000 0.026687 0.000000
# 6 0.000000 0.000000 0.000000 -0.004305 0.000000 0.030311
#
#
# Mechanical properties :
#
#
# Convention : Reuss Voigt Hill
#
# Bulk Modulus (GPa) = 50.40420 64.63644 57.52032
# Shear Modulus (GPa) = 32.98966 37.19693 35.09329
#
# Velocity S-wave (km/s) = 3.76489 3.99777 3.88308
# Velocity P-wave (km/s) = 6.36836 7.00581 6.69468
#
# Compressibility (1/GPa) = 0.01983962
#
# Stress axis : x y z
#
# Youngs Moduli (GPa) = 63.76765 99.41362 65.62971
#
# Poissons Ratio (x) = 0.42510 0.04086
# Poissons Ratio (y) = 0.27267 0.37215
# Poissons Ratio (z) = 0.03970 0.56372
#
# Static dielectric constant tensor:
#      x y z
#    x 4.138280 0.000000 0.441960 
#    y 0.000000 3.465970 0.000000 
#    z 0.441960 0.000000 4.422790 
# 
# 
# High freq. dielectric constant tensor:
#      x y z
#    x 1.922530 0.000000 -0.006930 
#    y 0.000000 1.930270 0.000000 
#    z -0.006930 0.000000 1.931090 
# 
# From -- ./inp_files/34132.got.cif
#   From: 2010.06.25/outbox.cif.g09.slc.cpg/sg15_18_cif.got.tgz:34132.got - 2010.06.28 07:06:18.
