data_PCOD8150543
_publ_section_title
;
Structure prediction by ZEFSAII (Michael W. Deem and Ramdas Pophale) SiO2 
 PCOD8150543
Probable space group: C 2/C
;
_chemical_formula_sum "Si O2"
_cell_formula_units_Z 52
_cell_length_a 11.725326
_cell_length_b 25.335917
_cell_length_c 10.179898
_cell_angle_alpha 90.000000
_cell_angle_beta 50.189429
_cell_angle_gamma 90.000000
_cell_volume 2323.056263
_symmetry_space_group_name_H-M "C 2/C"
_symmetry_group_IT_number 15
_symmetry_cell_setting 'monoclinic'
loop_
_space_group_symop_operation_xyz
x,y,z
-x,y,1/2-z
-x,-y,-z
x,-y,1/2+z
1/2+x,1/2+y,z
1/2-x,1/2+y,1/2-z
1/2-x,1/2-y,-z
1/2+x,1/2-y,1/2+z
loop_
_atom_site_type_symbol
_atom_site_label
_atom_site_fract_x
_atom_site_fract_y
_atom_site_fract_z
Si Si1 0.730306 0.311968 0.028189
Si Si2 0.500000 0.883031 0.750000
Si Si3 0.564292 0.308269 0.900105
Si Si4 0.500000 0.868238 0.250000
Si Si5 0.500000 0.609195 0.250000
Si Si6 0.257422 0.203760 0.791985
Si Si7 0.369648 0.974826 0.681101
Si Si8 0.229799 0.550392 0.507830
O O1 0.603064 0.328789 0.018652
O O2 0.880339 0.344004 0.898368
O O3 0.750000 0.250000 0.000000
O O4 0.689173 0.322080 0.209929
O O5 0.423701 0.918565 0.694544
O O6 0.599272 0.355577 0.774812
O O7 0.673784 0.261188 0.779862
O O8 0.390299 0.291759 0.008713
O O9 0.612477 0.833164 0.250890
O O10 0.399597 0.906094 0.414362
O O11 0.388864 0.575651 0.425162
O O12 0.243205 0.971625 0.661290
O O13 0.500000 0.000000 0.500000
O O14 0.315201 0.008564 0.846847
#
# Coordination Sequence:
#
# PCOD8150543 Si02
#       8
#     8   4   8   4   4   8   8   8
#     4  10  25  41  69 104 149 187 243 294 359 448
#     4  12  23  42  76 106 138 204 235 306 374 430
#     4  11  25  44  65 102 145 193 240 299 364 442
#     4  12  22  42  70 104 136 188 242 296 362 440
#     4  12  27  46  68 102 146 182 239 300 394 424
#     4  11  25  40  69 100 144 192 241 299 358 441
#     4  12  23  46  74 109 135 184 253 311 364 441
#     4  12  26  45  73 102 142 181 241 315 362 449
#
# _framework density 22.384305000000001
#
# number of rings (size 3 to 8) (size 9 to 14) (size 15 to 20)
#    0.000    0.615    4.615    2.769   10.769    1.846 
#    0.000    0.000    0.000    0.000    0.000    0.000 
#    0.000    0.000    0.000    0.000    0.000    0.000 
#
# Total GULP energy -322140.876605 kJ/mol
# GULP energy per Si atom -12390.033716 kJ/mol
# Density = 2.233336 g / cm^3
# Si number density = 22.384305 Si / 1000 Ang^3
#
#
#
# Elastic Constant Matrix: (Units=GPa)
#
#
# Indices 1 2 3 4 5 6 
#
# 1 118.0343 43.5234 37.2992 0.0000 21.9816 0.0000
# 2 43.5234 113.4059 54.1071 0.0000 3.2137 0.0000
# 3 37.2992 54.1071 105.6529 0.0000 -9.1905 0.0000
# 4 0.0000 0.0000 0.0000 32.1914 0.0000 -3.5349
# 5 21.9816 3.2137 -9.1905 0.0000 51.8710 0.0000
# 6 0.0000 0.0000 0.0000 -3.5349 0.0000 21.3380
#
#
#
# Elastic Compliance Matrix: (Units=1/GPa)
#
#
# Indices 1 2 3 4 5 6 
#
# 1 0.011438 -0.002777 -0.003070 0.000000 -0.005219 0.000000
# 2 -0.002777 0.012513 -0.005477 0.000000 -0.000569 0.000000
# 3 -0.003070 -0.005477 0.013708 0.000000 0.004069 0.000000
# 4 0.000000 0.000000 0.000000 0.031640 0.000000 0.005241
# 5 -0.005219 -0.000569 0.004069 0.000000 0.022247 0.000000
# 6 0.000000 0.000000 0.000000 0.005241 0.000000 0.047733
#
#
# Mechanical properties :
#
#
# Convention : Reuss Voigt Hill
#
# Bulk Modulus (GPa) = 66.62051 67.43915 67.02983
# Shear Modulus (GPa) = 29.95261 34.55764 32.25512
#
# Velocity S-wave (km/s) = 3.66198 3.93343 3.80013
# Velocity P-wave (km/s) = 6.90702 7.12898 7.01888
#
# Compressibility (1/GPa) = 0.01501039
#
# Stress axis : x y z
#
# Youngs Moduli (GPa) = 87.42627 79.91611 72.95197
#
# Poissons Ratio (x) = 0.22195 0.22395
# Poissons Ratio (y) = 0.24281 0.39957
# Poissons Ratio (z) = 0.26838 0.43772
#
# Static dielectric constant tensor:
#      x y z
#    x 4.924130 0.000000 0.595900 
#    y 0.000000 3.807290 0.000000 
#    z 0.595900 0.000000 4.293080 
# 
# 
# High freq. dielectric constant tensor:
#      x y z
#    x 1.894620 0.000000 0.008420 
#    y 0.000000 1.876620 0.000000 
#    z 0.008420 0.000000 1.884130 
# 
# From -- ./inp_files/34131.got.cif
#   From: 2010.06.25/outbox.cif.g09.slc.cpg/sg15_18_cif.got.tgz:34131.got - 2010.06.28 07:06:18.
