data_PCOD8150219
_publ_section_title
;
Structure prediction by ZEFSAII (Michael W. Deem and Ramdas Pophale) SiO2 
 PCOD8150219
Probable space group: C 2/C
;
_chemical_formula_sum "Si O2"
_cell_formula_units_Z 48
_cell_length_a 14.341450
_cell_length_b 28.410071
_cell_length_c 8.384069
_cell_angle_alpha 90.000000
_cell_angle_beta 36.309015
_cell_angle_gamma 90.000000
_cell_volume 2022.761173
_symmetry_space_group_name_H-M "C 2/C"
_symmetry_group_IT_number 15
_symmetry_cell_setting 'monoclinic'
loop_
_space_group_symop_operation_xyz
x,y,z
-x,y,1/2-z
-x,-y,-z
x,-y,1/2+z
1/2+x,1/2+y,z
1/2-x,1/2+y,1/2-z
1/2-x,1/2-y,-z
1/2+x,1/2-y,1/2+z
loop_
_atom_site_type_symbol
_atom_site_label
_atom_site_fract_x
_atom_site_fract_y
_atom_site_fract_z
Si Si1 0.000000 0.393038 0.250000
Si Si2 0.588347 0.436196 0.436198
Si Si3 0.007982 0.220641 0.921673
Si Si4 0.840903 0.857867 0.808074
Si Si5 0.579066 0.102361 0.980822
Si Si6 0.208032 0.698593 0.762886
Si Si7 0.000000 0.978805 0.250000
O O1 0.008230 0.419986 0.412061
O O2 0.842274 0.362706 0.483922
O O3 0.427579 0.408819 0.712548
O O4 0.735449 0.405649 0.282370
O O5 0.596699 0.444602 0.234022
O O6 0.607545 0.487287 0.492708
O O7 0.188347 0.219012 0.733225
O O8 0.000000 0.236506 0.750000
O O9 0.931951 0.168627 0.041318
O O10 0.896968 0.258964 0.166692
O O11 0.841302 0.824043 0.962678
O O12 0.575044 0.159176 0.991179
O O13 0.500000 0.080740 0.250000
#
# Coordination Sequence:
#
# PCOD8150219 Si02
#       7
#     4   8   8   8   8   8   4
#     4  10  26  38  68 103 138 182 236 299 346 424
#     4  11  24  48  76 108 139 189 237 294 374 440
#     4  12  26  40  67  98 137 193 241 301 352 416
#     4  11  25  44  71  98 139 190 243 286 365 434
#     4  11  25  46  72 104 147 195 241 298 358 439
#     4  11  25  44  63  98 144 191 241 301 349 417
#     4  10  24  44  82 107 140 174 240 305 360 454
#
# _framework density 23.729938000000001
#
# number of rings (size 3 to 8) (size 9 to 14) (size 15 to 20)
#    0.000    1.000    1.667    4.000   12.833    0.000 
#    0.000    0.833    7.333    0.000    0.000    0.000 
#    0.000    0.000    0.000    0.000    0.000    0.000 
#
# Total GULP energy -297350.924189 kJ/mol
# GULP energy per Si atom -12389.621841 kJ/mol
# Density = 2.367593 g / cm^3
# Si number density = 23.729938 Si / 1000 Ang^3
#
#
#
# Elastic Constant Matrix: (Units=GPa)
#
#
# Indices 1 2 3 4 5 6 
#
# 1 163.1715 28.9186 45.7356 0.0000 12.8340 0.0000
# 2 28.9186 67.4562 9.3812 0.0000 0.9989 0.0000
# 3 45.7356 9.3812 96.6075 0.0000 8.6094 0.0000
# 4 0.0000 0.0000 0.0000 13.8163 0.0000 4.6925
# 5 12.8340 0.9989 8.6094 0.0000 48.0651 0.0000
# 6 0.0000 0.0000 0.0000 4.6925 0.0000 26.5373
#
#
#
# Elastic Compliance Matrix: (Units=1/GPa)
#
#
# Indices 1 2 3 4 5 6 
#
# 1 0.007638 -0.002806 -0.003218 0.000000 -0.001405 0.000000
# 2 -0.002806 0.016058 -0.000272 0.000000 0.000464 0.000000
# 3 -0.003218 -0.000272 0.012016 0.000000 -0.001287 0.000000
# 4 0.000000 0.000000 0.000000 0.077003 0.000000 -0.013616
# 5 -0.001405 0.000464 -0.001287 0.000000 0.021401 0.000000
# 6 0.000000 0.000000 0.000000 -0.013616 0.000000 0.040090
#
#
# Mechanical properties :
#
#
# Convention : Reuss Voigt Hill
#
# Bulk Modulus (GPa) = 43.25444 55.03401 49.14422
# Shear Modulus (GPa) = 25.70591 33.89705 29.80148
#
# Velocity S-wave (km/s) = 3.29488 3.78359 3.54766
# Velocity P-wave (km/s) = 5.72209 6.50611 6.12666
#
# Compressibility (1/GPa) = 0.02311902
#
# Stress axis : x y z
#
# Youngs Moduli (GPa) = 130.91634 62.27247 83.22235
#
# Poissons Ratio (x) = 0.17475 0.26785
# Poissons Ratio (y) = 0.36738 0.02266
# Poissons Ratio (z) = 0.42135 0.01695
#
# Static dielectric constant tensor:
#      x y z
#    x 4.474360 0.000000 0.265250 
#    y 0.000000 4.028940 0.000000 
#    z 0.265250 0.000000 4.121090 
# 
# 
# High freq. dielectric constant tensor:
#      x y z
#    x 1.948280 0.000000 0.007370 
#    y 0.000000 1.919340 0.000000 
#    z 0.007370 0.000000 1.938140 
# 
# From -- ./inp_files/43884.got.cif
#   From: 2010.06.25/outbox.cif.g09.slc.cpg/sg15_22_cif.got.tgz:43884.got - 2010.06.28 07:06:18.
