data_PCOD8150424
_publ_section_title
;
Structure prediction by ZEFSAII (Michael W. Deem and Ramdas Pophale) SiO2 
 PCOD8150424
Probable space group: C 2/C
;
_chemical_formula_sum "Si O2"
_cell_formula_units_Z 48
_cell_length_a 9.751157
_cell_length_b 10.310581
_cell_length_c 21.661581
_cell_angle_alpha 90.000000
_cell_angle_beta 83.720065
_cell_angle_gamma 90.000000
_cell_volume 2164.788774
_symmetry_space_group_name_H-M "C 2/C"
_symmetry_group_IT_number 15
_symmetry_cell_setting 'monoclinic'
loop_
_space_group_symop_operation_xyz
x,y,z
-x,y,1/2-z
-x,-y,-z
x,-y,1/2+z
1/2+x,1/2+y,z
1/2-x,1/2+y,1/2-z
1/2-x,1/2-y,-z
1/2+x,1/2-y,1/2+z
loop_
_atom_site_type_symbol
_atom_site_label
_atom_site_fract_x
_atom_site_fract_y
_atom_site_fract_z
Si Si1 0.329758 0.058332 0.044423
Si Si2 0.115977 0.423171 0.576753
Si Si3 0.367787 0.926580 0.299750
Si Si4 0.140408 0.076465 0.717321
Si Si5 0.689504 0.784551 0.389516
Si Si6 0.600717 0.329962 0.635382
O O1 0.343656 0.917592 0.075054
O O2 0.469334 0.131277 0.059167
O O3 0.196716 0.140117 0.071174
O O4 0.327393 0.038597 0.970585
O O5 0.100966 0.474950 0.646713
O O6 0.221349 0.303963 0.569194
O O7 0.500000 0.919592 0.250000
O O8 0.235561 0.976169 0.268331
O O9 0.332677 0.784482 0.327839
O O10 0.224477 0.186835 0.676916
O O11 0.000000 0.140924 0.750000
O O12 0.093567 0.957775 0.676995
O O13 0.550167 0.709195 0.379974
#
# Coordination Sequence:
#
# PCOD8150424 Si02
#       6
#     8   8   8   8   8   8
#     4  10  24  47  66 100 132 173 228 275 329 391
#     4  11  24  43  70  98 134 175 224 276 329 394
#     4  12  23  42  68  98 134 177 214 273 337 388
#     4  11  25  40  64 101 130 171 226 265 331 405
#     4  11  23  46  67  97 134 175 218 278 331 387
#     4  11  23  45  69  93 137 175 216 279 330 394
#
# _framework density 22.173064
#
# number of rings (size 3 to 8) (size 9 to 14) (size 15 to 20)
#    0.000    1.000    3.333    3.000    4.667    2.000 
#    0.000    0.000    0.000    0.000    0.000    0.000 
#    0.000    0.000    0.000    0.000    0.000    0.000 
#
# Total GULP energy -297695.197366 kJ/mol
# GULP energy per Si atom -12403.966557 kJ/mol
# Density = 2.212260 g / cm^3
# Si number density = 22.173064 Si / 1000 Ang^3
#
#
#
# Elastic Constant Matrix: (Units=GPa)
#
#
# Indices 1 2 3 4 5 6 
#
# 1 129.1425 37.5935 13.1675 0.0000 -1.2377 0.0000
# 2 37.5935 56.1299 3.4361 0.0000 3.9412 0.0000
# 3 13.1675 3.4361 70.9679 0.0000 -4.6154 0.0000
# 4 0.0000 0.0000 0.0000 14.2115 0.0000 2.2617
# 5 -1.2377 3.9412 -4.6154 0.0000 42.1162 0.0000
# 6 0.0000 0.0000 0.0000 2.2617 0.0000 33.9221
#
#
#
# Elastic Compliance Matrix: (Units=1/GPa)
#
#
# Indices 1 2 3 4 5 6 
#
# 1 0.009798 -0.006525 -0.001454 0.000000 0.000739 0.000000
# 2 -0.006525 0.022348 -0.000020 0.000000 -0.002285 0.000000
# 3 -0.001454 -0.000020 0.014462 0.000000 0.001544 0.000000
# 4 0.000000 0.000000 0.000000 0.071120 0.000000 -0.004742
# 5 0.000739 -0.002285 0.001544 0.000000 0.024149 0.000000
# 6 0.000000 0.000000 0.000000 -0.004742 0.000000 0.029795
#
#
# Mechanical properties :
#
#
# Convention : Reuss Voigt Hill
#
# Bulk Modulus (GPa) = 32.66939 40.51493 36.59216
# Shear Modulus (GPa) = 25.26856 31.51949 28.39402
#
# Velocity S-wave (km/s) = 3.37947 3.77440 3.58238
# Velocity P-wave (km/s) = 5.47664 6.10791 5.80087
#
# Compressibility (1/GPa) = 0.03060969
#
# Stress axis : x y z
#
# Youngs Moduli (GPa) = 102.05885 44.74685 69.14657
#
# Poissons Ratio (x) = 0.29199 0.10054
# Poissons Ratio (y) = 0.66597 0.00138
# Poissons Ratio (z) = 0.14839 0.00089
#
# Static dielectric constant tensor:
#      x y z
#    x 4.129560 0.000000 -0.106320 
#    y 0.000000 3.844940 0.000000 
#    z -0.106320 0.000000 4.261690 
# 
# 
# High freq. dielectric constant tensor:
#      x y z
#    x 1.883900 0.000000 -0.005400 
#    y 0.000000 1.859160 0.000000 
#    z -0.005400 0.000000 1.887570 
# 
# From -- ./inp_files/263154.got.cif
#   From: 2010.06.25/outbox.cif.g09.slc.cpg/sg15_132_cif.got.tgz:263154.got - 2010.06.28 07:06:18.
