data_PCOD8150444
_publ_section_title
;
Structure prediction by ZEFSAII (Michael W. Deem and Ramdas Pophale) SiO2 
 PCOD8150444
Probable space group: C 2/C
;
_chemical_formula_sum "Si O2"
_cell_formula_units_Z 24
_cell_length_a 6.980649
_cell_length_b 25.049646
_cell_length_c 5.072643
_cell_angle_alpha 90.000000
_cell_angle_beta 109.219721
_cell_angle_gamma 90.000000
_cell_volume 837.576957
_symmetry_space_group_name_H-M "C 2/C"
_symmetry_group_IT_number 15
_symmetry_cell_setting 'monoclinic'
loop_
_space_group_symop_operation_xyz
x,y,z
-x,y,1/2-z
-x,-y,-z
x,-y,1/2+z
1/2+x,1/2+y,z
1/2-x,1/2+y,1/2-z
1/2-x,1/2-y,-z
1/2+x,1/2-y,1/2+z
loop_
_atom_site_type_symbol
_atom_site_label
_atom_site_fract_x
_atom_site_fract_y
_atom_site_fract_z
Si Si1 0.000000 0.383425 0.250000
Si Si2 0.772725 0.965034 0.107197
Si Si3 0.301044 0.810533 0.800717
Si Si4 0.000000 0.791812 0.250000
O O1 0.104787 0.419688 0.075711
O O2 0.189902 0.344617 0.425693
O O3 0.000000 0.941940 0.250000
O O4 0.740023 0.014022 0.295985
O O5 0.500000 0.834570 0.750000
O O6 0.330104 0.745423 0.824910
O O7 0.101884 0.824869 0.535335
#
# Coordination Sequence:
#
# PCOD8150444 Si02
#       4
#     4   8   8   4
#     4  12  24  38  75 114 144 186 257 318 364 438
#     4  10  24  47  74 106 149 197 242 307 389 461
#     4   9  20  40  65 102 143 194 248 302 365 438
#     4   8  18  44  65  92 156 196 247 292 376 442
#
# _framework density 28.654084999999998
#
# number of rings (size 3 to 8) (size 9 to 14) (size 15 to 20)
#    1.000    1.333    0.000    1.000    4.667    1.333 
#    3.000    0.000    0.000    0.000    0.000    0.000 
#    0.000    0.000    0.000    0.000    0.000    0.000 
#
# Total GULP energy -148702.254432 kJ/mol
# GULP energy per Si atom -12391.854536 kJ/mol
# Density = 2.858887 g / cm^3
# Si number density = 28.654085 Si / 1000 Ang^3
#
#
#
# Elastic Constant Matrix: (Units=GPa)
#
#
# Indices 1 2 3 4 5 6 
#
# 1 80.9619 29.8122 29.7362 0.0000 16.0918 0.0000
# 2 29.8122 91.4048 39.1555 0.0000 22.0344 0.0000
# 3 29.7362 39.1555 175.4750 0.0000 42.1195 0.0000
# 4 0.0000 0.0000 0.0000 22.2313 0.0000 -12.8731
# 5 16.0918 22.0344 42.1195 0.0000 59.0793 0.0000
# 6 0.0000 0.0000 0.0000 -12.8731 0.0000 -58.7194
#
#
#
# Elastic Compliance Matrix: (Units=1/GPa)
#
#
# Indices 1 2 3 4 5 6 
#
# 1 0.014534 -0.003819 -0.001209 0.000000 -0.001672 0.000000
# 2 -0.003819 0.013597 -0.001712 0.000000 -0.002810 0.000000
# 3 -0.001209 -0.001712 0.007303 0.000000 -0.004239 0.000000
# 4 0.000000 0.000000 0.000000 0.039915 0.000000 -0.008751
# 5 -0.001672 -0.002810 -0.004239 0.000000 0.021452 0.000000
# 6 0.000000 0.000000 0.000000 -0.008751 0.000000 -0.015112
#
#
# Mechanical properties :
#
#
# Convention : Reuss Voigt Hill
#
# Bulk Modulus (GPa) = 45.55264 60.58328 53.06796
# Shear Modulus (GPa) = 48.78580 21.12743 34.95662
#
# Velocity S-wave (km/s) = 4.13071 2.71832 3.49657
# Velocity P-wave (km/s) = 6.21951 5.57147 5.90438
#
# Compressibility (1/GPa) = 0.02195263
#
# Stress axis : x y z
#
# Youngs Moduli (GPa) = 68.80225 73.54587 136.92512
#
# Poissons Ratio (x) = 0.28089 0.16560
# Poissons Ratio (y) = 0.26278 0.23445
# Poissons Ratio (z) = 0.08321 0.12593
#
# Static dielectric constant tensor:
#      x y z
#    x 5.605370 0.000000 0.146830 
#    y 0.000000 4.668310 0.000000 
#    z 0.146830 0.000000 5.004670 
# 
# 
# High freq. dielectric constant tensor:
#      x y z
#    x 2.177730 0.000000 0.001950 
#    y 0.000000 2.134110 0.000000 
#    z 0.001950 0.000000 2.162090 
# 
# From -- ./inp_files/1903.got.cif
#   From: 2010.06.25/outbox.cif.g09.slc.cpg/sg15_1_cif.got.tgz:1903.got - 2010.06.28 07:06:18.
