data_PCOD8150497
_publ_section_title
;
Structure prediction by ZEFSAII (Michael W. Deem and Ramdas Pophale) SiO2 
 PCOD8150497
Probable space group: C 2/C
;
_chemical_formula_sum "Si O2"
_cell_formula_units_Z 32
_cell_length_a 8.183363
_cell_length_b 14.447983
_cell_length_c 20.589345
_cell_angle_alpha 90.000000
_cell_angle_beta 27.923803
_cell_angle_gamma 90.000000
_cell_volume 1139.994815
_symmetry_space_group_name_H-M "C 2/C"
_symmetry_group_IT_number 15
_symmetry_cell_setting 'monoclinic'
loop_
_space_group_symop_operation_xyz
x,y,z
-x,y,1/2-z
-x,-y,-z
x,-y,1/2+z
1/2+x,1/2+y,z
1/2-x,1/2+y,1/2-z
1/2-x,1/2-y,-z
1/2+x,1/2-y,1/2+z
loop_
_atom_site_type_symbol
_atom_site_label
_atom_site_fract_x
_atom_site_fract_y
_atom_site_fract_z
Si Si1 0.887665 0.614456 0.912885
Si Si2 0.794504 0.975383 0.692600
Si Si3 0.815824 0.320105 0.676086
Si Si4 0.344916 0.773940 0.066213
O O1 0.153468 0.576735 0.764302
O O2 0.134969 0.654909 0.882234
O O3 0.654507 0.529009 0.024772
O O4 0.629776 0.692113 0.974765
O O5 0.500000 0.930419 0.750000
O O6 0.840074 0.916021 0.742342
O O7 0.500000 0.267281 0.750000
O O8 0.952966 0.266648 0.692977
O O9 0.109107 0.331078 0.517858
#
# Coordination Sequence:
#
# PCOD8150497 Si02
#       4
#     8   8   8   8
#     4  11  25  50  77 114 155 204 257 319 388 456
#     4  12  25  48  74 113 161 200 249 318 389 467
#     4  11  23  46  75 108 156 200 255 320 377 457
#     4  10  24  48  77 109 150 205 263 315 378 461
#
# _framework density 28.070302000000002
#
# number of rings (size 3 to 8) (size 9 to 14) (size 15 to 20)
#    0.000    1.000    5.000    0.750    0.000    2.000 
#    4.500    0.000    0.000    0.000    0.000    0.000 
#    0.000    0.000    0.000    0.000    0.000    0.000 
#
# Total GULP energy -198228.655262 kJ/mol
# GULP energy per Si atom -12389.290954 kJ/mol
# Density = 2.800641 g / cm^3
# Si number density = 28.070302 Si / 1000 Ang^3
#
#
#
# Elastic Constant Matrix: (Units=GPa)
#
#
# Indices 1 2 3 4 5 6 
#
# 1 183.2202 34.7595 19.8947 0.0695 -32.9571 0.3878
# 2 34.7595 73.3253 20.6867 0.3490 11.2909 0.4226
# 3 19.8947 20.6867 56.5433 0.1296 10.0519 1.2993
# 4 0.0695 0.3490 0.1296 35.7961 0.2012 16.9242
# 5 -32.9571 11.2909 10.0519 0.2012 60.6785 -0.2702
# 6 0.3878 0.4226 1.2993 16.9242 -0.2702 32.5412
#
#
#
# Elastic Compliance Matrix: (Units=1/GPa)
#
#
# Indices 1 2 3 4 5 6 
#
# 1 0.007268 -0.003613 -0.002122 -0.000053 0.004972 0.000114
# 2 -0.003613 0.017235 -0.004241 -0.000129 -0.004466 0.000019
# 3 -0.002122 -0.004241 0.020681 0.000476 -0.003795 -0.001025
# 4 -0.000053 -0.000129 0.000476 0.037059 -0.000292 -0.019293
# 5 0.004972 -0.004466 -0.003795 -0.000292 0.020644 0.000474
# 6 0.000114 0.000019 -0.001025 -0.019293 0.000474 0.040808
#
#
# Mechanical properties :
#
#
# Convention : Reuss Voigt Hill
#
# Bulk Modulus (GPa) = 39.62990 51.53005 45.57998
# Shear Modulus (GPa) = 29.06050 41.65302 35.35676
#
# Velocity S-wave (km/s) = 3.22106 3.85630 3.55290
# Velocity P-wave (km/s) = 5.28984 6.18267 5.75360
#
# Compressibility (1/GPa) = 0.02523347
#
# Stress axis : x y z
#
# Youngs Moduli (GPa) = 137.59367 58.02149 48.35409
#
# Poissons Ratio (x) = 0.20961 0.10260
# Poissons Ratio (y) = 0.49707 0.20505
# Poissons Ratio (z) = 0.29195 0.24605
#
# Static dielectric constant tensor:
#      x y z
#    x 5.418090 0.000220 0.038680 
#    y 0.000220 4.544010 -0.000490 
#    z 0.038680 -0.000490 5.289110 
# 
# 
# High freq. dielectric constant tensor:
#      x y z
#    x 2.162200 0.000040 0.006710 
#    y 0.000040 2.100900 -0.000040 
#    z 0.006710 -0.000040 2.136950 
# 
# From -- ./inp_files/132562.got.cif
#   From: 2010.06.25/outbox.cif.g09.slc.cpg/sg15_67_cif.got.tgz:132562.got - 2010.06.28 07:06:18.
