data_PCOD8150283
_publ_section_title
;
Structure prediction by ZEFSAII (Michael W. Deem and Ramdas Pophale) SiO2 
 PCOD8150283
Probable space group: C 2/C
;
_chemical_formula_sum "Si O2"
_cell_formula_units_Z 56
_cell_length_a 25.697101
_cell_length_b 13.627245
_cell_length_c 14.656254
_cell_angle_alpha 90.000000
_cell_angle_beta 150.705874
_cell_angle_gamma 90.000000
_cell_volume 2511.216870
_symmetry_space_group_name_H-M "C 2/C"
_symmetry_group_IT_number 15
_symmetry_cell_setting 'monoclinic'
loop_
_space_group_symop_operation_xyz
x,y,z
-x,y,1/2-z
-x,-y,-z
x,-y,1/2+z
1/2+x,1/2+y,z
1/2-x,1/2+y,1/2-z
1/2-x,1/2-y,-z
1/2+x,1/2-y,1/2+z
loop_
_atom_site_type_symbol
_atom_site_label
_atom_site_fract_x
_atom_site_fract_y
_atom_site_fract_z
Si Si1 0.460671 0.650628 0.593291
Si Si2 0.237720 0.595876 0.745384
Si Si3 0.624334 0.025461 0.932558
Si Si4 0.776448 0.687949 0.290796
Si Si5 0.100578 0.555039 0.695302
Si Si6 0.985495 0.248907 0.007287
Si Si7 0.476721 0.433121 0.612029
O O1 0.500000 0.691927 0.750000
O O2 0.332599 0.636811 0.408993
O O3 0.502991 0.727552 0.582781
O O4 0.517169 0.544543 0.658244
O O5 0.164539 0.572205 0.545412
O O6 0.235485 0.709566 0.768886
O O7 0.193778 0.537070 0.765203
O O8 0.353592 0.559320 0.900114
O O9 0.500000 0.037504 0.750000
O O10 0.649145 0.013233 0.863344
O O11 0.675438 0.122575 0.054939
O O12 0.865655 0.713549 0.349596
O O13 0.000000 0.500000 0.500000
O O14 0.069205 0.668008 0.663166
O O15 0.024853 0.149686 0.119074
O O16 0.500000 0.396930 0.750000
#
# Coordination Sequence:
#
# PCOD8150283 Si02
#       7
#     8   8   8   8   8   8   8
#     4  11  24  46  69  98 145 188 230 290 356 427
#     4  11  24  44  68 105 138 179 237 291 348 428
#     4  12  24  45  72  98 145 187 231 302 351 413
#     4  11  24  43  70 105 139 179 239 287 350 422
#     4  12  25  42  71 103 136 186 236 291 356 418
#     4  11  24  43  72 102 140 179 241 290 353 423
#     4  10  24  45  70  98 142 184 230 291 350 424
#
# _framework density 22.299945000000001
#
# number of rings (size 3 to 8) (size 9 to 14) (size 15 to 20)
#    0.000    0.857    5.714    0.429    4.000    4.000 
#   10.286    0.000    0.000    0.000    0.000    0.000 
#    0.000    0.000    0.000    0.000    0.000    0.000 
#
# Total GULP energy -347068.453360 kJ/mol
# GULP energy per Si atom -12395.301906 kJ/mol
# Density = 2.224919 g / cm^3
# Si number density = 22.299945 Si / 1000 Ang^3
#
#
#
# Elastic Constant Matrix: (Units=GPa)
#
#
# Indices 1 2 3 4 5 6 
#
# 1 100.9919 -1.6166 34.7213 0.0000 -17.7045 0.0000
# 2 -1.6166 55.9396 13.0038 0.0000 4.7076 0.0000
# 3 34.7213 13.0038 124.3409 0.0000 -20.4278 0.0000
# 4 0.0000 0.0000 0.0000 28.1454 0.0000 -3.7396
# 5 -17.7045 4.7076 -20.4278 0.0000 25.5973 0.0000
# 6 0.0000 0.0000 0.0000 -3.7396 0.0000 28.7613
#
#
#
# Elastic Compliance Matrix: (Units=1/GPa)
#
#
# Indices 1 2 3 4 5 6 
#
# 1 0.011796 0.000350 -0.002303 0.000000 0.006257 0.000000
# 2 0.000350 0.019068 -0.003025 0.000000 -0.005679 0.000000
# 3 -0.002303 -0.003025 0.010164 0.000000 0.007075 0.000000
# 4 0.000000 0.000000 0.000000 0.036154 0.000000 0.004701
# 5 0.006257 -0.005679 0.007075 0.000000 0.050085 0.000000
# 6 0.000000 0.000000 0.000000 0.004701 0.000000 0.035380
#
#
# Mechanical properties :
#
#
# Convention : Reuss Voigt Hill
#
# Bulk Modulus (GPa) = 32.18313 41.49881 36.84097
# Shear Modulus (GPa) = 27.32843 32.17838 29.75340
#
# Velocity S-wave (km/s) = 3.50450 3.80278 3.65668
# Velocity P-wave (km/s) = 5.55326 6.15884 5.86387
#
# Compressibility (1/GPa) = 0.03107218
#
# Stress axis : x y z
#
# Youngs Moduli (GPa) = 84.77554 52.44509 98.38588
#
# Poissons Ratio (x) = -0.01833 0.22654
# Poissons Ratio (y) = -0.02964 0.29759
# Poissons Ratio (z) = 0.19520 0.15863
#
# Static dielectric constant tensor:
#      x y z
#    x 3.648320 0.000000 0.386180 
#    y 0.000000 4.589340 0.000000 
#    z 0.386180 0.000000 3.625660 
# 
# 
# High freq. dielectric constant tensor:
#      x y z
#    x 1.873790 0.000000 0.001540 
#    y 0.000000 1.893140 0.000000 
#    z 0.001540 0.000000 1.872290 
# 
# From -- ./inp_files/178426.got.cif
#   From: 2010.06.25/outbox.cif.g09.slc.cpg/sg15_90_cif.got.tgz:178426.got - 2010.06.28 07:06:18.
