data_PCOD8150257
_publ_section_title
;
Structure prediction by ZEFSAII (Michael W. Deem and Ramdas Pophale) SiO2 
 PCOD8150257
Probable space group: C 2/C
;
_chemical_formula_sum "Si O2"
_cell_formula_units_Z 44
_cell_length_a 11.284520
_cell_length_b 8.463159
_cell_length_c 20.030620
_cell_angle_alpha 90.000000
_cell_angle_beta 113.102619
_cell_angle_gamma 90.000000
_cell_volume 1759.564009
_symmetry_space_group_name_H-M "C 2/C"
_symmetry_group_IT_number 15
_symmetry_cell_setting 'monoclinic'
loop_
_space_group_symop_operation_xyz
x,y,z
-x,y,1/2-z
-x,-y,-z
x,-y,1/2+z
1/2+x,1/2+y,z
1/2-x,1/2+y,1/2-z
1/2-x,1/2-y,-z
1/2+x,1/2-y,1/2+z
loop_
_atom_site_type_symbol
_atom_site_label
_atom_site_fract_x
_atom_site_fract_y
_atom_site_fract_z
Si Si1 0.992071 0.963607 0.135073
Si Si2 0.165824 0.742131 0.863616
Si Si3 0.558809 0.763437 0.543822
Si Si4 0.720391 0.678011 0.222714
Si Si5 0.548685 0.091701 0.612710
Si Si6 0.000000 0.272309 0.750000
O O1 0.981307 0.880125 0.060622
O O2 0.949548 0.835802 0.179348
O O3 0.137979 0.024156 0.183258
O O4 0.893013 0.105138 0.113268
O O5 0.295277 0.703061 0.932520
O O6 0.187486 0.773691 0.790814
O O7 0.063306 0.600727 0.855051
O O8 0.492560 0.804474 0.460303
O O9 0.568740 0.911624 0.597088
O O10 0.680716 0.830892 0.169257
O O11 0.871837 0.631388 0.246231
#
# Coordination Sequence:
#
# PCOD8150257 Si02
#       6
#     8   8   8   8   8   4
#     4  11  23  43  68  98 132 175 221 281 331 398
#     4  11  22  45  69  98 137 175 225 280 334 399
#     4  11  24  44  68 103 137 176 227 270 342 400
#     4  11  24  43  70 101 136 176 227 278 340 396
#     4  10  24  45  69 101 140 179 220 281 331 406
#     4  12  22  42  66 100 134 172 220 282 332 394
#
# _framework density 25.006197
#
# number of rings (size 3 to 8) (size 9 to 14) (size 15 to 20)
#    0.000    1.091    3.636    3.273    0.000    4.364 
#    3.273    8.182    0.000    0.000    0.000    0.000 
#    0.000    0.000    0.000    0.000    0.000    0.000 
#
# Total GULP energy -272788.446376 kJ/mol
# GULP energy per Si atom -12399.474835 kJ/mol
# Density = 2.494928 g / cm^3
# Si number density = 25.006197 Si / 1000 Ang^3
#
#
#
# Elastic Constant Matrix: (Units=GPa)
#
#
# Indices 1 2 3 4 5 6 
#
# 1 137.1609 11.3587 40.6065 0.0000 -13.0623 0.0000
# 2 11.3587 24.7905 18.1424 0.0000 -9.8029 0.0000
# 3 40.6065 18.1424 94.2756 0.0000 -7.8585 0.0000
# 4 0.0000 0.0000 0.0000 34.1778 0.0000 1.6147
# 5 -13.0623 -9.8029 -7.8585 0.0000 34.4407 0.0000
# 6 0.0000 0.0000 0.0000 1.6147 0.0000 14.0059
#
#
#
# Elastic Compliance Matrix: (Units=1/GPa)
#
#
# Indices 1 2 3 4 5 6 
#
# 1 0.008560 -0.000520 -0.003393 0.000000 0.002324 0.000000
# 2 -0.000520 0.051940 -0.008721 0.000000 0.012597 0.000000
# 3 -0.003393 -0.008721 0.013693 0.000000 -0.000645 0.000000
# 4 0.000000 0.000000 0.000000 0.029419 0.000000 -0.003392
# 5 0.002324 0.012597 -0.000645 0.000000 0.033355 0.000000
# 6 0.000000 0.000000 0.000000 -0.003392 0.000000 0.071790
#
#
# Mechanical properties :
#
#
# Convention : Reuss Voigt Hill
#
# Bulk Modulus (GPa) = 20.43968 44.04912 32.24440
# Shear Modulus (GPa) = 19.97336 28.93282 24.45309
#
# Velocity S-wave (km/s) = 2.82926 3.40520 3.13050
# Velocity P-wave (km/s) = 4.34333 5.75448 5.09797
#
# Compressibility (1/GPa) = 0.04892443
#
# Stress axis : x y z
#
# Youngs Moduli (GPa) = 116.82786 19.25299 73.02861
#
# Poissons Ratio (x) = 0.01001 0.24779
# Poissons Ratio (y) = 0.06072 0.63692
# Poissons Ratio (z) = 0.39640 0.16791
#
# Static dielectric constant tensor:
#      x y z
#    x 4.855050 0.000000 -0.188580 
#    y 0.000000 4.536360 0.000000 
#    z -0.188580 0.000000 4.535670 
# 
# 
# High freq. dielectric constant tensor:
#      x y z
#    x 1.999050 0.000000 -0.009210 
#    y 0.000000 1.996320 0.000000 
#    z -0.009210 0.000000 2.003600 
# 
# From -- ./inp_files/236175.got.cif
#   From: 2010.06.25/outbox.cif.g09.slc.cpg/sg15_119_cif.got.tgz:236175.got - 2010.06.28 07:06:18.
