data_PCOD8150779
_publ_section_title
;
Structure prediction by ZEFSAII (Michael W. Deem and Ramdas Pophale) SiO2 
 PCOD8150779
Probable space group: C 2/C
;
_chemical_formula_sum "Si O2"
_cell_formula_units_Z 44
_cell_length_a 11.043712
_cell_length_b 8.905271
_cell_length_c 24.534255
_cell_angle_alpha 90.000000
_cell_angle_beta 56.222876
_cell_angle_gamma 90.000000
_cell_volume 2005.598628
_symmetry_space_group_name_H-M "C 2/C"
_symmetry_group_IT_number 15
_symmetry_cell_setting 'monoclinic'
loop_
_space_group_symop_operation_xyz
x,y,z
-x,y,1/2-z
-x,-y,-z
x,-y,1/2+z
1/2+x,1/2+y,z
1/2-x,1/2+y,1/2-z
1/2-x,1/2-y,-z
1/2+x,1/2-y,1/2+z
loop_
_atom_site_type_symbol
_atom_site_label
_atom_site_fract_x
_atom_site_fract_y
_atom_site_fract_z
Si Si1 0.241110 0.873377 0.430400
Si Si2 0.836094 0.760766 0.796016
Si Si3 0.206095 0.845835 0.868744
Si Si4 0.470638 0.138965 0.966840
Si Si5 0.500000 0.277786 0.250000
Si Si6 0.312103 0.487795 0.228662
O O1 0.297191 0.766332 0.368015
O O2 0.364391 0.907782 0.444353
O O3 0.100571 0.786174 0.487947
O O4 0.194685 0.036326 0.420775
O O5 0.818077 0.612089 0.763679
O O6 0.000000 0.816605 0.750000
O O7 0.747095 0.903015 0.792505
O O8 0.373818 0.821813 0.808941
O O9 0.128792 0.690482 0.904947
O O10 0.121576 0.911544 0.837026
O O11 0.500000 0.000000 0.000000
O O12 0.439133 0.379322 0.216694
#
# Coordination Sequence:
#
# PCOD8150779 Si02
#       6
#     8   8   8   8   4   8
#     4  10  26  43  69  98 133 177 230 275 339 399
#     4  11  23  39  66  95 135 173 215 274 333 400
#     4  11  26  45  67 100 141 173 226 278 341 406
#     4  11  26  46  71  97 131 183 233 282 336 397
#     4  12  26  38  68 106 134 178 218 274 344 404
#     4  11  24  39  65  99 138 169 220 272 342 401
#
# _framework density 21.938586999999998
#
# number of rings (size 3 to 8) (size 9 to 14) (size 15 to 20)
#    0.000    1.091    2.727    1.636    7.636    5.091 
#    0.000    0.000    0.000    0.000    0.000    0.000 
#    0.000    0.000    0.000    0.000    0.000    0.000 
#
# Total GULP energy -272730.506195 kJ/mol
# GULP energy per Si atom -12396.841191 kJ/mol
# Density = 2.188865 g / cm^3
# Si number density = 21.938587 Si / 1000 Ang^3
#
#
#
# Elastic Constant Matrix: (Units=GPa)
#
#
# Indices 1 2 3 4 5 6 
#
# 1 102.2532 49.4227 50.8626 0.0000 17.5610 0.0000
# 2 49.4227 116.3696 40.8181 0.0000 15.5973 0.0000
# 3 50.8626 40.8181 79.4526 0.0000 12.3921 0.0000
# 4 0.0000 0.0000 0.0000 50.0790 0.0000 12.8765
# 5 17.5610 15.5973 12.3921 0.0000 44.9860 0.0000
# 6 0.0000 0.0000 0.0000 12.8765 0.0000 35.0323
#
#
#
# Elastic Compliance Matrix: (Units=1/GPa)
#
#
# Indices 1 2 3 4 5 6 
#
# 1 0.015945 -0.003623 -0.007911 0.000000 -0.002789 0.000000
# 2 -0.003623 0.011528 -0.003344 0.000000 -0.001661 0.000000
# 3 -0.007911 -0.003344 0.019545 0.000000 -0.001137 0.000000
# 4 0.000000 0.000000 0.000000 0.022053 0.000000 -0.008106
# 5 -0.002789 -0.001661 -0.001137 0.000000 0.024207 0.000000
# 6 0.000000 0.000000 0.000000 -0.008106 0.000000 0.031524
#
#
# Mechanical properties :
#
#
# Convention : Reuss Voigt Hill
#
# Bulk Modulus (GPa) = 57.92951 64.47581 61.20266
# Shear Modulus (GPa) = 31.18924 36.48426 33.83675
#
# Velocity S-wave (km/s) = 3.77458 4.08244 3.93152
# Velocity P-wave (km/s) = 6.74235 7.18851 6.96900
#
# Compressibility (1/GPa) = 0.01726236
#
# Stress axis : x y z
#
# Youngs Moduli (GPa) = 62.71605 86.74832 51.16275
#
# Poissons Ratio (x) = 0.31431 0.40475
# Poissons Ratio (y) = 0.22723 0.17107
# Poissons Ratio (z) = 0.49614 0.29006
#
# Static dielectric constant tensor:
#      x y z
#    x 4.084370 0.000000 0.339720 
#    y 0.000000 4.072470 0.000000 
#    z 0.339720 0.000000 3.940190 
# 
# 
# High freq. dielectric constant tensor:
#      x y z
#    x 1.866300 0.000000 0.022610 
#    y 0.000000 1.880330 0.000000 
#    z 0.022610 0.000000 1.853230 
# 
# From -- ./inp_files/236057.got.cif
#   From: 2010.06.25/outbox.cif.g09.slc.cpg/sg15_119_cif.got.tgz:236057.got - 2010.06.28 07:06:18.
