data_PCOD8150608
_publ_section_title
;
Structure prediction by ZEFSAII (Michael W. Deem and Ramdas Pophale) SiO2 
 PCOD8150608
Probable space group: C 2/C
;
_chemical_formula_sum "Si O2"
_cell_formula_units_Z 60
_cell_length_a 11.587385
_cell_length_b 8.869432
_cell_length_c 25.903526
_cell_angle_alpha 90.000000
_cell_angle_beta 93.323042
_cell_angle_gamma 90.000000
_cell_volume 2657.720379
_symmetry_space_group_name_H-M "C 2/C"
_symmetry_group_IT_number 15
_symmetry_cell_setting 'monoclinic'
loop_
_space_group_symop_operation_xyz
x,y,z
-x,y,1/2-z
-x,-y,-z
x,-y,1/2+z
1/2+x,1/2+y,z
1/2-x,1/2+y,1/2-z
1/2-x,1/2-y,-z
1/2+x,1/2-y,1/2+z
loop_
_atom_site_type_symbol
_atom_site_label
_atom_site_fract_x
_atom_site_fract_y
_atom_site_fract_z
Si Si1 0.126739 0.527496 0.439675
Si Si2 0.755275 0.222366 0.366601
Si Si3 0.249617 0.923746 0.269444
Si Si4 0.000000 0.653603 0.750000
Si Si5 0.899230 0.880936 0.671480
Si Si6 0.871683 0.453017 0.446205
Si Si7 0.609829 0.562798 0.662604
Si Si8 0.764817 0.750429 0.412713
O O1 0.146944 0.644499 0.393148
O O2 0.133104 0.612355 0.495498
O O3 0.223207 0.395589 0.443411
O O4 0.001635 0.454395 0.428351
O O5 0.724630 0.289156 0.309640
O O6 0.798998 0.355422 0.404541
O O7 0.850420 0.094659 0.361406
O O8 0.385273 0.944461 0.258473
O O9 0.207723 0.081602 0.293042
O O10 0.175263 0.894095 0.216689
O O11 0.980526 0.755597 0.699186
O O12 0.849245 0.817727 0.617325
O O13 0.972249 0.036855 0.666297
O O14 0.821869 0.622959 0.449454
O O15 0.635418 0.699887 0.624875
#
# Coordination Sequence:
#
# PCOD8150608 Si02
#       8
#     8   8   8   4   8   8   8   8
#     4  10  25  44  66  99 133 164 223 284 330 394
#     4  11  23  42  68  96 130 174 219 268 333 389
#     4  12  23  39  66  95 128 178 217 261 322 393
#     4  12  24  42  64  92 136 178 212 266 332 382
#     4  12  22  42  62  91 134 172 213 269 319 385
#     4  11  23  44  69  96 130 174 218 277 340 392
#     4  11  24  41  65  98 134 172 219 269 320 388
#     4  11  24  41  69  97 128 175 218 267 333 394
#
# _framework density 22.575737
#
# number of rings (size 3 to 8) (size 9 to 14) (size 15 to 20)
#    0.000    0.800    5.333    1.600    1.867    0.000 
#    0.000    1.333    0.000    8.800    0.000    0.000 
#    0.000    0.000    0.000    0.000    0.000    0.000 
#
# Total GULP energy -371971.531968 kJ/mol
# GULP energy per Si atom -12399.051066 kJ/mol
# Density = 2.252435 g / cm^3
# Si number density = 22.575737 Si / 1000 Ang^3
#
#
#
# Elastic Constant Matrix: (Units=GPa)
#
#
# Indices 1 2 3 4 5 6 
#
# 1 110.3362 24.4625 31.2560 0.0000 -21.8262 0.0000
# 2 24.4625 67.0760 19.8628 0.0000 -8.2001 0.0000
# 3 31.2560 19.8628 92.8920 0.0000 -17.9678 0.0000
# 4 0.0000 0.0000 0.0000 27.1912 0.0000 -1.5104
# 5 -21.8262 -8.2001 -17.9678 0.0000 26.1833 0.0000
# 6 0.0000 0.0000 0.0000 -1.5104 0.0000 33.1642
#
#
#
# Elastic Compliance Matrix: (Units=1/GPa)
#
#
# Indices 1 2 3 4 5 6 
#
# 1 0.011717 -0.002788 -0.001875 0.000000 0.007608 0.000000
# 2 -0.002788 0.016794 -0.002404 0.000000 0.001286 0.000000
# 3 -0.001875 -0.002404 0.013216 0.000000 0.006754 0.000000
# 4 0.000000 0.000000 0.000000 0.036870 0.000000 0.001679
# 5 0.007608 0.001286 0.006754 0.000000 0.049571 0.000000
# 6 0.000000 0.000000 0.000000 0.001679 0.000000 0.030229
#
#
# Mechanical properties :
#
#
# Convention : Reuss Voigt Hill
#
# Bulk Modulus (GPa) = 36.24008 46.82964 41.53486
# Shear Modulus (GPa) = 27.51313 30.28926 28.90119
#
# Velocity S-wave (km/s) = 3.49478 3.66686 3.58185
# Velocity P-wave (km/s) = 5.68965 6.22223 5.96189
#
# Compressibility (1/GPa) = 0.02759376
#
# Stress axis : x y z
#
# Youngs Moduli (GPa) = 85.34318 59.54361 75.66302
#
# Poissons Ratio (x) = 0.16601 0.14186
# Poissons Ratio (y) = 0.23794 0.18192
# Poissons Ratio (z) = 0.16001 0.14316
#
# Static dielectric constant tensor:
#      x y z
#    x 4.248750 0.000000 -0.262760 
#    y 0.000000 3.950010 0.000000 
#    z -0.262760 0.000000 4.045060 
# 
# 
# High freq. dielectric constant tensor:
#      x y z
#    x 1.892020 0.000000 -0.013190 
#    y 0.000000 1.880180 0.000000 
#    z -0.013190 0.000000 1.894130 
# 
# From -- ./inp_files/309993.got.cif
#   From: 2010.06.25/outbox.cif.g09.slc.cpg/sg15_155_cif.got.tgz:309993.got - 2010.06.28 07:06:18.
