data_PCOD8150267
_publ_section_title
;
Structure prediction by ZEFSAII (Michael W. Deem and Ramdas Pophale) SiO2 
 PCOD8150267
Probable space group: C 2/C
;
_chemical_formula_sum "Si O2"
_cell_formula_units_Z 44
_cell_length_a 24.122592
_cell_length_b 6.324843
_cell_length_c 22.020217
_cell_angle_alpha 90.000000
_cell_angle_beta 146.671330
_cell_angle_gamma 90.000000
_cell_volume 1845.934811
_symmetry_space_group_name_H-M "C 2/C"
_symmetry_group_IT_number 15
_symmetry_cell_setting 'monoclinic'
loop_
_space_group_symop_operation_xyz
x,y,z
-x,y,1/2-z
-x,-y,-z
x,-y,1/2+z
1/2+x,1/2+y,z
1/2-x,1/2+y,1/2-z
1/2-x,1/2-y,-z
1/2+x,1/2-y,1/2+z
loop_
_atom_site_type_symbol
_atom_site_label
_atom_site_fract_x
_atom_site_fract_y
_atom_site_fract_z
Si Si1 0.425372 0.307777 0.431791
Si Si2 0.952934 0.536588 0.866114
Si Si3 0.171587 0.347904 0.883200
Si Si4 0.000000 0.039659 0.750000
Si Si5 0.748210 0.630839 0.639899
Si Si6 0.102547 0.325410 0.412032
O O1 0.500000 0.500000 0.500000
O O2 0.467714 0.132954 0.515413
O O3 0.320349 0.395072 0.362893
O O4 0.414722 0.192701 0.356340
O O5 0.858466 0.696868 0.767137
O O6 0.017352 0.517706 0.862661
O O7 0.081053 0.184823 0.789062
O O8 0.226212 0.405008 0.869497
O O9 0.136204 0.569730 0.880171
O O10 0.250000 0.250000 0.000000
O O11 0.054335 0.901685 0.851997
O O12 0.697619 0.791009 0.544935
#
# Coordination Sequence:
#
# PCOD8150267 Si02
#       6
#     8   8   8   4   8   8
#     4  10  25  46  68  96 136 176 235 287 345 409
#     4  10  24  45  69  98 134 183 227 286 350 417
#     4  12  26  43  71 108 143 187 240 281 368 448
#     4  12  24  44  70 102 154 192 228 304 358 438
#     4  11  24  44  71 104 136 184 233 297 351 423
#     4  11  25  45  69 107 150 180 236 298 362 429
#
# _framework density 23.83616
#
# number of rings (size 3 to 8) (size 9 to 14) (size 15 to 20)
#    0.000    1.091    1.818    3.273    7.636    2.909 
#    0.000    0.000    0.000    0.000    0.000    0.000 
#    0.000    0.000    0.000    0.000    0.000    0.000 
#
# Total GULP energy -272641.415882 kJ/mol
# GULP energy per Si atom -12392.791631 kJ/mol
# Density = 2.378191 g / cm^3
# Si number density = 23.836160 Si / 1000 Ang^3
#
#
#
# Elastic Constant Matrix: (Units=GPa)
#
#
# Indices 1 2 3 4 5 6 
#
# 1 137.2558 57.1861 36.2317 0.0000 20.7825 -0.0002
# 2 57.1861 104.1774 26.4535 -0.0004 9.9372 0.0003
# 3 36.2317 26.4535 109.9401 0.0000 16.0001 -0.0002
# 4 0.0000 -0.0004 0.0000 29.4661 0.0000 10.3182
# 5 20.7825 9.9372 16.0001 0.0000 37.0200 0.0001
# 6 -0.0002 0.0003 -0.0002 10.3182 0.0001 35.4154
#
#
#
# Elastic Compliance Matrix: (Units=1/GPa)
#
#
# Indices 1 2 3 4 5 6 
#
# 1 0.010336 -0.004887 -0.001683 0.000000 -0.003763 0.000000
# 2 -0.004887 0.012648 -0.001428 0.000000 -0.000034 0.000000
# 3 -0.001683 -0.001428 0.010458 0.000000 -0.003192 0.000000
# 4 0.000000 0.000000 0.000000 0.037793 0.000000 -0.011011
# 5 -0.003763 -0.000034 -0.003192 0.000000 0.030514 0.000000
# 6 0.000000 0.000000 0.000000 -0.011011 0.000000 0.031444
#
#
# Mechanical properties :
#
#
# Convention : Reuss Voigt Hill
#
# Bulk Modulus (GPa) = 57.31702 65.67952 61.49827
# Shear Modulus (GPa) = 32.25719 35.81378 34.03549
#
# Velocity S-wave (km/s) = 3.68270 3.88041 3.78285
# Velocity P-wave (km/s) = 6.49473 6.90588 6.70346
#
# Compressibility (1/GPa) = 0.01744682
#
# Stress axis : x y z
#
# Youngs Moduli (GPa) = 96.74963 79.06604 95.61628
#
# Poissons Ratio (x) = 0.38643 0.16088
# Poissons Ratio (y) = 0.47286 0.13650
# Poissons Ratio (z) = 0.16279 0.11287
#
# Static dielectric constant tensor:
#      x y z
#    x 27.523900 -0.000870 -14.208080 
#    y -0.000870 3.266020 0.000560 
#    z -14.208080 0.000560 13.639800 
# 
# 
# High freq. dielectric constant tensor:
#      x y z
#    x 1.954000 0.000000 0.005420 
#    y 0.000000 1.918550 0.000000 
#    z 0.005420 0.000000 1.965110 
# 
# From -- ./inp_files/281256.got.cif
#   From: 2010.06.25/outbox.cif.g09.slc.cpg/sg15_141_cif.got.tgz:281256.got - 2010.06.28 07:06:18.
