data_PCOD8150427
_publ_section_title
;
Structure prediction by ZEFSAII (Michael W. Deem and Ramdas Pophale) SiO2 
 PCOD8150427
Probable space group: C 2/C
;
_chemical_formula_sum "Si O2"
_cell_formula_units_Z 36
_cell_length_a 7.933121
_cell_length_b 22.437810
_cell_length_c 9.407373
_cell_angle_alpha 90.000000
_cell_angle_beta 90.143174
_cell_angle_gamma 90.000000
_cell_volume 1674.524680
_symmetry_space_group_name_H-M "C 2/C"
_symmetry_group_IT_number 15
_symmetry_cell_setting 'monoclinic'
loop_
_space_group_symop_operation_xyz
x,y,z
-x,y,1/2-z
-x,-y,-z
x,-y,1/2+z
1/2+x,1/2+y,z
1/2-x,1/2+y,1/2-z
1/2-x,1/2-y,-z
1/2+x,1/2-y,1/2+z
loop_
_atom_site_type_symbol
_atom_site_label
_atom_site_fract_x
_atom_site_fract_y
_atom_site_fract_z
Si Si1 0.357566 0.539067 0.434094
Si Si2 0.168618 0.321781 0.339401
Si Si3 0.693122 0.051254 0.725582
Si Si4 0.000000 0.861883 0.750000
Si Si5 0.160332 0.702171 0.160328
O O1 0.500000 0.500000 0.500000
O O2 0.220909 0.552618 0.555936
O O3 0.286834 0.504315 0.297263
O O4 0.440907 0.600224 0.384775
O O5 0.247007 0.385805 0.296339
O O6 0.113969 0.319892 0.503357
O O7 0.317255 0.273318 0.319951
O O8 0.000000 0.307705 0.250000
O O9 0.500000 0.039360 0.750000
O O10 0.160095 0.823319 0.793457
O O11 0.000000 0.679864 0.250000
#
# Coordination Sequence:
#
# PCOD8150427 Si02
#       5
#     8   8   8   4   8
#     4  12  24  45  67 100 143 185 228 288 354 410
#     4  10  24  47  67 106 141 181 243 289 352 417
#     4  11  25  43  71 102 137 185 235 288 345 423
#     4  12  26  44  72 110 146 178 244 290 348 430
#     4  11  26  45  74 103 143 191 233 294 352 419
#
# _framework density 21.498639000000001
#
# number of rings (size 3 to 8) (size 9 to 14) (size 15 to 20)
#    0.000    0.889    3.333    2.000    6.222    7.111 
#    0.000    0.000    0.000    0.000    0.000    0.000 
#    0.000    0.000    0.000    0.000    0.000    0.000 
#
# Total GULP energy -223197.327647 kJ/mol
# GULP energy per Si atom -12399.851536 kJ/mol
# Density = 2.144971 g / cm^3
# Si number density = 21.498639 Si / 1000 Ang^3
#
#
#
# Elastic Constant Matrix: (Units=GPa)
#
#
# Indices 1 2 3 4 5 6 
#
# 1 122.8493 25.7070 57.3257 0.0000 -11.6678 0.0000
# 2 25.7070 92.8350 32.0429 0.0000 -4.1171 0.0000
# 3 57.3257 32.0429 146.4312 0.0000 -14.3851 0.0000
# 4 0.0000 0.0000 0.0000 37.7357 0.0000 -13.8610
# 5 -11.6678 -4.1171 -14.3851 0.0000 41.4839 0.0000
# 6 0.0000 0.0000 0.0000 -13.8610 0.0000 49.2142
#
#
#
# Elastic Compliance Matrix: (Units=1/GPa)
#
#
# Indices 1 2 3 4 5 6 
#
# 1 0.010254 -0.001556 -0.003526 0.000000 0.001507 0.000000
# 2 -0.001556 0.011891 -0.001988 0.000000 0.000053 0.000000
# 3 -0.003526 -0.001988 0.008828 0.000000 0.001872 0.000000
# 4 0.000000 0.000000 0.000000 0.029558 0.000000 0.008325
# 5 0.001507 0.000053 0.001872 0.000000 0.025184 0.000000
# 6 0.000000 0.000000 0.000000 0.008325 0.000000 0.022664
#
#
# Mechanical properties :
#
#
# Convention : Reuss Voigt Hill
#
# Bulk Modulus (GPa) = 59.40055 65.80740 62.60398
# Shear Modulus (GPa) = 39.02295 42.15610 40.58952
#
# Velocity S-wave (km/s) = 4.26506 4.43298 4.34983
# Velocity P-wave (km/s) = 7.20724 7.54176 7.37640
#
# Compressibility (1/GPa) = 0.01683486
#
# Stress axis : x y z
#
# Youngs Moduli (GPa) = 97.52301 84.09684 113.27099
#
# Poissons Ratio (x) = 0.13082 0.39937
# Poissons Ratio (y) = 0.15171 0.22516
# Poissons Ratio (z) = 0.34385 0.16717
#
# Static dielectric constant tensor:
#      x y z
#    x 2.962150 0.000000 -3.871400 
#    y 0.000000 3.541970 0.000000 
#    z -3.871400 0.000000 -14.418550 
# 
# 
# High freq. dielectric constant tensor:
#      x y z
#    x 1.848530 0.000000 -0.000800 
#    y 0.000000 1.853970 0.000000 
#    z -0.000800 0.000000 1.856700 
# 
# From -- ./inp_files/22519.got.cif
#   From: 2010.06.25/outbox.cif.g09.slc.cpg/sg15_12_cif.got.tgz:22519.got - 2010.06.28 07:06:18.
