data_PCOD8150393
_publ_section_title
;
Structure prediction by ZEFSAII (Michael W. Deem and Ramdas Pophale) SiO2 
 PCOD8150393
Probable space group: C 2/C
;
_chemical_formula_sum "Si O2"
_cell_formula_units_Z 60
_cell_length_a 25.499512
_cell_length_b 11.042128
_cell_length_c 21.222876
_cell_angle_alpha 90.000000
_cell_angle_beta 26.569968
_cell_angle_gamma 90.000000
_cell_volume 2672.873532
_symmetry_space_group_name_H-M "C 2/C"
_symmetry_group_IT_number 15
_symmetry_cell_setting 'monoclinic'
loop_
_space_group_symop_operation_xyz
x,y,z
-x,y,1/2-z
-x,-y,-z
x,-y,1/2+z
1/2+x,1/2+y,z
1/2-x,1/2+y,1/2-z
1/2-x,1/2-y,-z
1/2+x,1/2-y,1/2+z
loop_
_atom_site_type_symbol
_atom_site_label
_atom_site_fract_x
_atom_site_fract_y
_atom_site_fract_z
Si Si1 0.524989 0.676197 0.950423
Si Si2 0.641010 0.435624 0.509512
Si Si3 0.419299 0.840424 0.399913
Si Si4 0.064680 0.584944 0.480825
Si Si5 0.000000 0.329584 0.750000
Si Si6 0.769234 0.518184 0.495000
Si Si7 0.186540 0.026347 0.330568
Si Si8 0.550935 0.638388 0.787768
O O1 0.547162 0.780124 0.976004
O O2 0.595478 0.560658 0.896062
O O3 0.577307 0.702636 0.825594
O O4 0.385228 0.653232 0.090520
O O5 0.605910 0.294989 0.549689
O O6 0.720763 0.463312 0.483070
O O7 0.718328 0.471856 0.365317
O O8 0.520529 0.512189 0.634997
O O9 0.500000 0.842240 0.250000
O O10 0.473074 0.913658 0.403826
O O11 0.297308 0.906845 0.512402
O O12 0.199785 0.545572 0.333846
O O13 0.000000 0.500000 0.500000
O O14 0.889576 0.412067 0.852914
O O15 0.026120 0.239344 0.664467
O O16 0.676334 0.612549 0.622240
#
# Coordination Sequence:
#
# PCOD8150393 Si02
#       8
#     8   8   8   8   4   8   8   8
#     4  10  24  46  73  97 139 188 241 304 360 444
#     4  11  24  47  74 105 139 195 241 303 367 434
#     4  12  27  49  74 110 149 187 247 302 367 435
#     4  12  29  46  75 109 145 191 244 307 366 435
#     4  12  26  42  64 104 146 186 240 298 360 438
#     4  12  25  44  68 104 146 187 240 302 366 431
#     4  10  24  48  71 103 141 189 246 293 376 438
#     4  11  24  44  73  99 136 192 242 296 370 433
#
# _framework density 22.447749999999999
#
# number of rings (size 3 to 8) (size 9 to 14) (size 15 to 20)
#    0.000    0.800    3.333    2.400    7.467    1.067 
#    2.400    0.000    0.000    0.000    0.000    0.000 
#    0.000    0.000    0.000    0.000    0.000    0.000 
#
# Total GULP energy -371767.455640 kJ/mol
# GULP energy per Si atom -12392.248521 kJ/mol
# Density = 2.239666 g / cm^3
# Si number density = 22.447750 Si / 1000 Ang^3
#
#
#
# Elastic Constant Matrix: (Units=GPa)
#
#
# Indices 1 2 3 4 5 6 
#
# 1 164.2645 23.5602 42.9362 0.0000 22.0859 0.0001
# 2 23.5602 71.7038 36.2541 -0.0001 5.7719 0.0000
# 3 42.9362 36.2541 85.3684 -0.0001 5.3647 0.0000
# 4 0.0000 -0.0001 -0.0001 21.0997 0.0000 -9.1735
# 5 22.0859 5.7719 5.3647 0.0000 38.9368 0.0000
# 6 0.0001 0.0000 0.0000 -9.1735 0.0000 18.5580
#
#
#
# Elastic Compliance Matrix: (Units=1/GPa)
#
#
# Indices 1 2 3 4 5 6 
#
# 1 0.007536 -0.000481 -0.003351 0.000000 -0.003741 0.000000
# 2 -0.000481 0.017891 -0.007269 0.000000 -0.001378 0.000000
# 3 -0.003351 -0.007269 0.016442 0.000000 0.000713 0.000000
# 4 0.000000 0.000000 0.000000 0.060368 0.000000 0.029841
# 5 -0.003741 -0.001378 0.000713 0.000000 0.027911 0.000000
# 6 0.000000 0.000000 0.000000 0.029841 0.000000 0.068636
#
#
# Mechanical properties :
#
#
# Convention : Reuss Voigt Hill
#
# Bulk Modulus (GPa) = 50.84908 58.53752 54.69330
# Shear Modulus (GPa) = 21.97424 30.29131 26.13278
#
# Velocity S-wave (km/s) = 3.13214 3.67742 3.41568
# Velocity P-wave (km/s) = 5.98179 6.64568 6.32246
#
# Compressibility (1/GPa) = 0.01966604
#
# Stress axis : x y z
#
# Youngs Moduli (GPa) = 132.70383 55.89538 60.82146
#
# Poissons Ratio (x) = 0.02687 0.20380
# Poissons Ratio (y) = 0.06378 0.44213
# Poissons Ratio (z) = 0.44466 0.40633
#
# Static dielectric constant tensor:
#      x y z
#    x 4.321360 0.000000 0.182770 
#    y 0.000000 4.060430 0.000000 
#    z 0.182770 0.000000 4.043130 
# 
# 
# High freq. dielectric constant tensor:
#      x y z
#    x 1.911520 0.000000 0.004550 
#    y 0.000000 1.890860 0.000000 
#    z 0.004550 0.000000 1.870110 
# 
# From -- ./inp_files/255556.got.cif
#   From: 2010.06.25/outbox.cif.g09.slc.cpg/sg15_128_cif.got.tgz:255556.got - 2010.06.28 07:06:18.
