data_PCOD8150273
_publ_section_title
;
Structure prediction by ZEFSAII (Michael W. Deem and Ramdas Pophale) SiO2 
 PCOD8150273
Probable space group: C 2/C
;
_chemical_formula_sum "Si O2"
_cell_formula_units_Z 56
_cell_length_a 8.247802
_cell_length_b 28.965271
_cell_length_c 11.669369
_cell_angle_alpha 90.000000
_cell_angle_beta 113.199059
_cell_angle_gamma 90.000000
_cell_volume 2562.392869
_symmetry_space_group_name_H-M "C 2/C"
_symmetry_group_IT_number 15
_symmetry_cell_setting 'monoclinic'
loop_
_space_group_symop_operation_xyz
x,y,z
-x,y,1/2-z
-x,-y,-z
x,-y,1/2+z
1/2+x,1/2+y,z
1/2-x,1/2+y,1/2-z
1/2-x,1/2-y,-z
1/2+x,1/2-y,1/2+z
loop_
_atom_site_type_symbol
_atom_site_label
_atom_site_fract_x
_atom_site_fract_y
_atom_site_fract_z
Si Si1 0.638925 0.873414 0.092415
Si Si2 0.500000 0.657905 0.750000
Si Si3 0.804542 0.980178 0.465862
Si Si4 0.000000 0.564152 0.750000
Si Si5 0.495679 0.399880 0.619239
Si Si6 0.086162 0.192251 0.532561
Si Si7 0.646848 0.931490 0.884043
Si Si8 0.022617 0.280184 0.388350
O O1 0.525359 0.903330 0.147710
O O2 0.606291 0.819207 0.100007
O O3 0.848102 0.878008 0.170340
O O4 0.592122 0.889005 0.950059
O O5 0.564887 0.690991 0.664108
O O6 0.683594 0.963991 0.322374
O O7 0.832807 0.936459 0.558059
O O8 0.686501 0.023672 0.478047
O O9 0.000000 0.000000 0.500000
O O10 0.500000 0.382289 0.750000
O O11 0.476949 0.356629 0.531266
O O12 0.679179 0.423484 0.641410
O O13 0.975766 0.235017 0.450455
O O14 0.282459 0.199946 0.541431
O O15 0.500000 0.942291 0.750000
O O16 0.000000 0.267202 0.250000
#
# Coordination Sequence:
#
# PCOD8150273 Si02
#       8
#     8   4   8   4   8   8   8   8
#     4  12  25  43  73  98 142 182 234 283 352 421
#     4  12  22  46  66 103 136 183 228 286 346 418
#     4  10  24  45  70 101 138 184 238 293 356 413
#     4  12  24  44  76  99 138 191 236 288 354 424
#     4  11  24  45  70  98 136 184 231 283 354 413
#     4  11  24  44  71  98 137 179 229 288 347 418
#     4  11  26  45  63 101 139 178 230 289 342 414
#     4  11  23  45  68 102 133 178 231 282 348 426
#
# _framework density 21.854572000000001
#
# number of rings (size 3 to 8) (size 9 to 14) (size 15 to 20)
#    0.000    0.857    4.286    2.143    6.000    3.429 
#    1.286    0.000    0.000    0.000    0.000    0.000 
#    0.000    0.000    0.000    0.000    0.000    0.000 
#
# Total GULP energy -346991.514650 kJ/mol
# GULP energy per Si atom -12392.554095 kJ/mol
# Density = 2.180483 g / cm^3
# Si number density = 21.854572 Si / 1000 Ang^3
#
#
#
# Elastic Constant Matrix: (Units=GPa)
#
#
# Indices 1 2 3 4 5 6 
#
# 1 74.2716 34.0345 41.8551 0.0000 7.2439 0.0000
# 2 34.0345 126.9956 58.6352 0.0000 4.7184 0.0000
# 3 41.8551 58.6352 122.5979 0.0000 1.8173 0.0000
# 4 0.0000 0.0000 0.0000 37.4410 0.0000 1.3664
# 5 7.2439 4.7184 1.8173 0.0000 46.3730 0.0000
# 6 0.0000 0.0000 0.0000 1.3664 0.0000 18.4909
#
#
#
# Elastic Compliance Matrix: (Units=1/GPa)
#
#
# Indices 1 2 3 4 5 6 
#
# 1 0.017483 -0.002387 -0.004793 0.000000 -0.002300 0.000000
# 2 -0.002387 0.010465 -0.004182 0.000000 -0.000528 0.000000
# 3 -0.004793 -0.004182 0.011783 0.000000 0.000713 0.000000
# 4 0.000000 0.000000 0.000000 0.026781 0.000000 -0.001979
# 5 -0.002300 -0.000528 0.000713 0.000000 0.021949 0.000000
# 6 0.000000 0.000000 0.000000 -0.001979 0.000000 0.054227
#
#
# Mechanical properties :
#
#
# Convention : Reuss Voigt Hill
#
# Bulk Modulus (GPa) = 58.80218 65.87940 62.34079
# Shear Modulus (GPa) = 29.22586 33.08366 31.15476
#
# Velocity S-wave (km/s) = 3.66086 3.89499 3.77974
# Velocity P-wave (km/s) = 6.69580 7.10196 6.90187
#
# Compressibility (1/GPa) = 0.01700617
#
# Stress axis : x y z
#
# Youngs Moduli (GPa) = 57.19704 95.56059 84.86966
#
# Poissons Ratio (x) = 0.22810 0.40679
# Poissons Ratio (y) = 0.13653 0.35494
# Poissons Ratio (z) = 0.27415 0.39965
#
# Static dielectric constant tensor:
#      x y z
#    x 4.037390 0.000000 0.236420 
#    y 0.000000 4.190790 0.000000 
#    z 0.236420 0.000000 4.018230 
# 
# 
# High freq. dielectric constant tensor:
#      x y z
#    x 1.854650 0.000000 0.020260 
#    y 0.000000 1.867540 0.000000 
#    z 0.020260 0.000000 1.858880 
# 
# From -- ./inp_files/82736.got.cif
#   From: 2010.06.25/outbox.cif.g09.slc.cpg/sg15_42_cif.got.tgz:82736.got - 2010.06.28 07:06:18.
