data_PCOD8150181
_publ_section_title
;
Structure prediction by ZEFSAII (Michael W. Deem and Ramdas Pophale) SiO2 
 PCOD8150181
Probable space group: C 2/C
;
_chemical_formula_sum "Si O2"
_cell_formula_units_Z 44
_cell_length_a 8.303554
_cell_length_b 31.837652
_cell_length_c 9.156917
_cell_angle_alpha 90.000000
_cell_angle_beta 126.960983
_cell_angle_gamma 90.000000
_cell_volume 1934.308058
_symmetry_space_group_name_H-M "C 2/C"
_symmetry_group_IT_number 15
_symmetry_cell_setting 'monoclinic'
loop_
_space_group_symop_operation_xyz
x,y,z
-x,y,1/2-z
-x,-y,-z
x,-y,1/2+z
1/2+x,1/2+y,z
1/2-x,1/2+y,1/2-z
1/2-x,1/2-y,-z
1/2+x,1/2-y,1/2+z
loop_
_atom_site_type_symbol
_atom_site_label
_atom_site_fract_x
_atom_site_fract_y
_atom_site_fract_z
Si Si1 0.565444 0.341594 0.636677
Si Si2 0.177445 0.356377 0.233176
Si Si3 0.664371 0.936791 0.038998
Si Si4 0.791789 0.798142 0.052448
Si Si5 0.276777 0.571326 0.284447
Si Si6 0.000000 0.994836 0.750000
O O1 0.500000 0.316715 0.750000
O O2 0.380118 0.349048 0.429783
O O3 0.721283 0.316386 0.619878
O O4 0.665711 0.384234 0.756214
O O5 0.196103 0.404107 0.186226
O O6 0.139013 0.323491 0.077352
O O7 0.000000 0.350667 0.250000
O O8 0.795793 0.978800 0.126809
O O9 0.427208 0.947722 0.898162
O O10 0.746001 0.916128 0.935511
O O11 0.000000 0.803771 0.250000
O O12 0.750000 0.750000 0.000000
O O13 0.456193 0.536917 0.362596
#
# Coordination Sequence:
#
# PCOD8150181 Si02
#       6
#     8   8   8   8   8   4
#     4  11  22  43  69  98 138 178 222 280 342 406
#     4  11  24  43  69  98 135 183 227 274 342 408
#     4  11  24  42  64  95 133 181 224 285 338 402
#     4  10  24  44  71 102 137 175 220 279 340 404
#     4  11  23  41  66  95 130 180 231 276 345 403
#     4  12  24  42  64  96 138 174 234 290 336 400
#
# _framework density 22.747153999999998
#
# number of rings (size 3 to 8) (size 9 to 14) (size 15 to 20)
#    0.000    1.091    2.727    3.273    1.273    3.636 
#    3.273    3.636    0.000    0.000    0.000    0.000 
#    0.000    0.000    0.000    0.000    0.000    0.000 
#
# Total GULP energy -272605.540820 kJ/mol
# GULP energy per Si atom -12391.160946 kJ/mol
# Density = 2.269538 g / cm^3
# Si number density = 22.747154 Si / 1000 Ang^3
#
#
#
# Elastic Constant Matrix: (Units=GPa)
#
#
# Indices 1 2 3 4 5 6 
#
# 1 148.7200 73.9587 43.9241 0.0000 -35.4056 0.0000
# 2 73.9587 141.2855 36.1525 0.0000 -18.4083 0.0000
# 3 43.9241 36.1525 81.7256 0.0000 -26.7126 0.0000
# 4 0.0000 0.0000 0.0000 24.2689 0.0000 1.3758
# 5 -35.4056 -18.4083 -26.7126 0.0000 41.9285 0.0000
# 6 0.0000 0.0000 0.0000 1.3758 0.0000 28.7689
#
#
#
# Elastic Compliance Matrix: (Units=1/GPa)
#
#
# Indices 1 2 3 4 5 6 
#
# 1 0.010950 -0.004447 -0.001937 0.000000 0.006060 0.000000
# 2 -0.004447 0.009871 -0.002258 0.000000 -0.000859 0.000000
# 3 -0.001937 -0.002258 0.016946 0.000000 0.008169 0.000000
# 4 0.000000 0.000000 0.000000 0.041317 0.000000 -0.001976
# 5 0.006060 -0.000859 0.008169 0.000000 0.033795 0.000000
# 6 0.000000 0.000000 0.000000 -0.001976 0.000000 0.034854
#
#
# Mechanical properties :
#
#
# Convention : Reuss Voigt Hill
#
# Bulk Modulus (GPa) = 48.81848 75.53352 62.17600
# Shear Modulus (GPa) = 29.09582 33.50633 31.30108
#
# Velocity S-wave (km/s) = 3.58033 3.84212 3.71353
# Velocity P-wave (km/s) = 6.21286 7.27738 6.76609
#
# Compressibility (1/GPa) = 0.02048405
#
# Stress axis : x y z
#
# Youngs Moduli (GPa) = 91.32060 101.30291 59.01016
#
# Poissons Ratio (x) = 0.45048 0.11433
# Poissons Ratio (y) = 0.40609 0.13323
# Poissons Ratio (z) = 0.17693 0.22871
#
# Static dielectric constant tensor:
#      x y z
#    x 8.302430 0.000000 -1.915060 
#    y 0.000000 3.611310 0.000000 
#    z -1.915060 0.000000 4.786990 
# 
# 
# High freq. dielectric constant tensor:
#      x y z
#    x 1.916340 0.000000 -0.013090 
#    y 0.000000 1.885050 0.000000 
#    z -0.013090 0.000000 1.891730 
# 
# From -- ./inp_files/26273.got.cif
#   From: 2010.06.25/outbox.cif.g09.slc.cpg/sg15_14_cif.got.tgz:26273.got - 2010.06.28 07:06:18.
