data_PCOD8150249
_publ_section_title
;
Structure prediction by ZEFSAII (Michael W. Deem and Ramdas Pophale) SiO2 
 PCOD8150249
Probable space group: C 2/C
;
_chemical_formula_sum "Si O2"
_cell_formula_units_Z 48
_cell_length_a 9.458977
_cell_length_b 21.444987
_cell_length_c 10.924149
_cell_angle_alpha 90.000000
_cell_angle_beta 76.362105
_cell_angle_gamma 90.000000
_cell_volume 2153.460055
_symmetry_space_group_name_H-M "C 2/C"
_symmetry_group_IT_number 15
_symmetry_cell_setting 'monoclinic'
loop_
_space_group_symop_operation_xyz
x,y,z
-x,y,1/2-z
-x,-y,-z
x,-y,1/2+z
1/2+x,1/2+y,z
1/2-x,1/2+y,1/2-z
1/2-x,1/2-y,-z
1/2+x,1/2-y,1/2+z
loop_
_atom_site_type_symbol
_atom_site_label
_atom_site_fract_x
_atom_site_fract_y
_atom_site_fract_z
Si Si1 0.344778 0.800568 0.829941
Si Si2 0.847023 0.243675 0.322933
Si Si3 0.358099 0.658818 0.550442
Si Si4 0.165877 0.548891 0.851300
Si Si5 0.169380 0.457896 0.073612
Si Si6 0.330100 0.659103 0.915718
O O1 0.500000 0.825511 0.750000
O O2 0.222135 0.809030 0.750813
O O3 0.355488 0.728392 0.863441
O O4 0.292809 0.842515 0.953405
O O5 0.741257 0.303440 0.333597
O O6 0.880350 0.211850 0.444340
O O7 0.000000 0.271012 0.250000
O O8 0.273011 0.599337 0.518569
O O9 0.511683 0.636010 0.572654
O O10 0.193640 0.517867 0.710190
O O11 0.267729 0.610691 0.828400
O O12 0.996540 0.565298 0.903525
O O13 0.211288 0.507677 0.959996
#
# Coordination Sequence:
#
# PCOD8150249 Si02
#       6
#     8   8   8   8   8   8
#     4  11  23  39  60  94 135 172 210 263 324 391
#     4  11  23  39  60  93 135 173 211 261 324 393
#     4  11  24  39  64  96 130 170 217 266 326 388
#     4  10  24  45  68  94 129 169 223 272 330 389
#     4  10  24  45  68  95 126 173 219 274 330 389
#     4  11  24  40  62  98 129 168 217 266 324 389
#
# _framework density 22.289709999999999
#
# number of rings (size 3 to 8) (size 9 to 14) (size 15 to 20)
#    0.000    1.333    3.333    1.000    7.000    2.000 
#    3.000    0.000    0.000    0.000    0.000    0.000 
#    0.000    0.000    0.000    0.000    0.000    0.000 
#
# Total GULP energy -297454.116610 kJ/mol
# GULP energy per Si atom -12393.921525 kJ/mol
# Density = 2.223898 g / cm^3
# Si number density = 22.289710 Si / 1000 Ang^3
#
#
#
# Elastic Constant Matrix: (Units=GPa)
#
#
# Indices 1 2 3 4 5 6 
#
# 1 125.9458 29.0878 46.9658 0.0000 -7.5554 0.0000
# 2 29.0878 67.9153 29.3576 0.0000 2.5589 0.0000
# 3 46.9658 29.3576 109.5858 0.0000 -0.9263 0.0000
# 4 0.0000 0.0000 0.0000 -12.6599 0.0000 22.1665
# 5 -7.5554 2.5589 -0.9263 0.0000 44.0010 0.0000
# 6 0.0000 0.0000 0.0000 22.1665 0.0000 30.1604
#
#
#
# Elastic Compliance Matrix: (Units=1/GPa)
#
#
# Indices 1 2 3 4 5 6 
#
# 1 0.010015 -0.002838 -0.003517 0.000000 0.001811 0.000000
# 2 -0.002838 0.017506 -0.003487 0.000000 -0.001579 0.000000
# 3 -0.003517 -0.003487 0.011565 0.000000 -0.000158 0.000000
# 4 0.000000 0.000000 0.000000 -0.034541 0.000000 0.025386
# 5 0.001811 -0.001579 -0.000158 0.000000 0.023126 0.000000
# 6 0.000000 0.000000 0.000000 0.025386 0.000000 0.014499
#
#
# Mechanical properties :
#
#
# Convention : Reuss Voigt Hill
#
# Bulk Modulus (GPa) = 51.53566 57.14102 54.33834
# Shear Modulus (GPa) = 73.18283 25.50269 49.34276
#
# Velocity S-wave (km/s) = 5.73619 3.38619 4.71010
# Velocity P-wave (km/s) = 8.18797 6.40154 7.34923
#
# Compressibility (1/GPa) = 0.01940404
#
# Stress axis : x y z
#
# Youngs Moduli (GPa) = 99.84685 57.12209 86.46499
#
# Poissons Ratio (x) = 0.16208 0.30409
# Poissons Ratio (y) = 0.28332 0.30152
# Poissons Ratio (z) = 0.35115 0.19919
#
# Static dielectric constant tensor:
#      x y z
#    x 4.106370 0.000000 0.065070 
#    y 0.000000 3.554560 0.000000 
#    z 0.065070 0.000000 4.385160 
# 
# 
# High freq. dielectric constant tensor:
#      x y z
#    x 1.889260 0.000000 0.005030 
#    y 0.000000 1.837090 0.000000 
#    z 0.005030 0.000000 1.899320 
# 
# From -- ./inp_files/79160.got.cif
#   From: 2010.06.25/outbox.cif.g09.slc.cpg/sg15_40_cif.got.tgz:79160.got - 2010.06.28 07:06:18.
