data_PCOD8150155
_publ_section_title
;
Structure prediction by ZEFSAII (Michael W. Deem and Ramdas Pophale) SiO2 
 PCOD8150155
Probable space group: C 2/C
;
_chemical_formula_sum "Si O2"
_cell_formula_units_Z 40
_cell_length_a 12.295315
_cell_length_b 11.954113
_cell_length_c 13.957478
_cell_angle_alpha 90.000000
_cell_angle_beta 117.969536
_cell_angle_gamma 90.000000
_cell_volume 1811.847309
_symmetry_space_group_name_H-M "C 2/C"
_symmetry_group_IT_number 15
_symmetry_cell_setting 'monoclinic'
loop_
_space_group_symop_operation_xyz
x,y,z
-x,y,1/2-z
-x,-y,-z
x,-y,1/2+z
1/2+x,1/2+y,z
1/2-x,1/2+y,1/2-z
1/2-x,1/2-y,-z
1/2+x,1/2-y,1/2+z
loop_
_atom_site_type_symbol
_atom_site_label
_atom_site_fract_x
_atom_site_fract_y
_atom_site_fract_z
Si Si1 0.133983 0.593275 0.836157
Si Si2 0.048457 0.376887 0.502031
Si Si3 0.104364 0.986661 0.122411
Si Si4 0.861496 0.227929 0.317486
Si Si5 0.904215 0.752440 0.289599
O O1 0.145325 0.614781 0.954532
O O2 0.254462 0.522073 0.858091
O O3 0.137380 0.713542 0.785657
O O4 0.000000 0.537179 0.750000
O O5 0.105274 0.329049 0.622450
O O6 0.000000 0.500000 0.500000
O O7 0.944196 0.290262 0.428988
O O8 0.067352 0.880467 0.170679
O O9 0.099779 0.099531 0.183094
O O10 0.000000 0.000000 0.000000
O O11 0.728864 0.241033 0.312955
O O12 0.000000 0.709995 0.250000
#
# Coordination Sequence:
#
# PCOD8150155 Si02
#       5
#     8   8   8   8   8
#     4   9  23  45  70  97 134 185 227 266 339 415
#     4  11  25  44  67 100 131 182 231 271 332 411
#     4  11  23  46  69 106 136 171 228 289 345 390
#     4  10  24  44  69  97 137 174 227 278 344 407
#     4  11  27  43  68  98 138 181 223 284 347 397
#
# _framework density 22.076913999999999
#
# number of rings (size 3 to 8) (size 9 to 14) (size 15 to 20)
#    0.000    1.600    2.000    0.000   11.200    8.000 
#    3.600    0.000    0.000    0.000    0.000    0.000 
#    0.000    0.000    0.000    0.000    0.000    0.000 
#
# Total GULP energy -247870.059879 kJ/mol
# GULP energy per Si atom -12393.502994 kJ/mol
# Density = 2.202667 g / cm^3
# Si number density = 22.076914 Si / 1000 Ang^3
#
#
#
# Elastic Constant Matrix: (Units=GPa)
#
#
# Indices 1 2 3 4 5 6 
#
# 1 107.5482 2.6313 29.6065 0.0000 -3.3193 0.0000
# 2 2.6313 147.3495 20.2009 0.0000 -0.7248 0.0000
# 3 29.6065 20.2009 64.6217 0.0000 -10.1627 0.0000
# 4 0.0000 0.0000 0.0000 31.7000 0.0000 8.3435
# 5 -3.3193 -0.7248 -10.1627 0.0000 38.5770 0.0000
# 6 0.0000 0.0000 0.0000 8.3435 0.0000 20.5770
#
#
#
# Elastic Compliance Matrix: (Units=1/GPa)
#
#
# Indices 1 2 3 4 5 6 
#
# 1 0.010682 0.000509 -0.005119 0.000000 -0.000420 0.000000
# 2 0.000509 0.007123 -0.002537 0.000000 -0.000491 0.000000
# 3 -0.005119 -0.002537 0.019337 0.000000 0.004606 0.000000
# 4 0.000000 0.000000 0.000000 0.035315 0.000000 -0.014319
# 5 -0.000420 -0.000491 0.004606 0.000000 0.027090 0.000000
# 6 0.000000 0.000000 0.000000 -0.014319 0.000000 0.054404
#
#
# Mechanical properties :
#
#
# Convention : Reuss Voigt Hill
#
# Bulk Modulus (GPa) = 43.76737 47.15523 45.46130
# Shear Modulus (GPa) = 28.43146 35.97618 32.20382
#
# Velocity S-wave (km/s) = 3.59254 4.04119 3.82345
# Velocity P-wave (km/s) = 6.08904 6.57121 6.33472
#
# Compressibility (1/GPa) = 0.02284807
#
# Stress axis : x y z
#
# Youngs Moduli (GPa) = 93.61581 140.39242 51.71310
#
# Poissons Ratio (x) = -0.07146 0.26472
# Poissons Ratio (y) = -0.04765 0.13120
# Poissons Ratio (z) = 0.47923 0.35618
#
# Static dielectric constant tensor:
#      x y z
#    x 4.157070 0.000000 0.165480 
#    y 0.000000 4.091200 0.000000 
#    z 0.165480 0.000000 3.986460 
# 
# 
# High freq. dielectric constant tensor:
#      x y z
#    x 1.872130 0.000000 0.011950 
#    y 0.000000 1.881180 0.000000 
#    z 0.011950 0.000000 1.861000 
# 
# From -- ./inp_files/142394.got.cif
#   From: 2010.06.25/outbox.cif.g09.slc.cpg/sg15_72_cif.got.tgz:142394.got - 2010.06.28 07:06:18.
