data_PCOD8150568
_publ_section_title
;
Structure prediction by ZEFSAII (Michael W. Deem and Ramdas Pophale) SiO2 
 PCOD8150568
Probable space group: C 2/C
;
_chemical_formula_sum "Si O2"
_cell_formula_units_Z 40
_cell_length_a 17.251224
_cell_length_b 5.084443
_cell_length_c 19.144519
_cell_angle_alpha 90.000000
_cell_angle_beta 93.484787
_cell_angle_gamma 90.000000
_cell_volume 1676.115688
_symmetry_space_group_name_H-M "C 2/C"
_symmetry_group_IT_number 15
_symmetry_cell_setting 'monoclinic'
loop_
_space_group_symop_operation_xyz
x,y,z
-x,y,1/2-z
-x,-y,-z
x,-y,1/2+z
1/2+x,1/2+y,z
1/2-x,1/2+y,1/2-z
1/2-x,1/2-y,-z
1/2+x,1/2-y,1/2+z
loop_
_atom_site_type_symbol
_atom_site_label
_atom_site_fract_x
_atom_site_fract_y
_atom_site_fract_z
Si Si1 0.768240 0.047098 0.439858
Si Si2 0.943878 0.152882 0.810928
Si Si3 0.877415 0.658962 0.506908
Si Si4 0.536809 0.844166 0.094499
Si Si5 0.779479 0.974313 0.783542
O O1 0.750000 0.250000 0.500000
O O2 0.767998 0.147600 0.360526
O O3 0.850342 0.897429 0.455294
O O4 0.691785 0.861817 0.440794
O O5 0.943532 0.914224 0.864010
O O6 0.856751 0.151559 0.776310
O O7 0.000000 0.099483 0.750000
O O8 0.971117 0.414883 0.852070
O O9 0.892955 0.406035 0.456763
O O10 0.957460 0.718441 0.549685
O O11 0.782732 0.707142 0.737254
#
# Coordination Sequence:
#
# PCOD8150568 Si02
#       5
#     8   8   8   8   8
#     4  11  25  45  75 105 148 190 255 302 371 438
#     4  12  27  46  71 102 147 191 244 296 367 450
#     4  10  25  42  73 105 141 186 240 313 365 433
#     4  11  25  46  71 106 143 184 244 305 372 425
#     4  12  29  48  73 104 150 195 245 300 374 443
#
# _framework density 23.864702000000001
#
# number of rings (size 3 to 8) (size 9 to 14) (size 15 to 20)
#    0.000    0.800    2.000    3.000   14.000    1.600 
#    0.000    0.000    0.000    0.000    0.000    0.000 
#    0.000    0.000    0.000    0.000    0.000    0.000 
#
# Total GULP energy -247873.517348 kJ/mol
# GULP energy per Si atom -12393.675867 kJ/mol
# Density = 2.381038 g / cm^3
# Si number density = 23.864702 Si / 1000 Ang^3
#
#
#
# Elastic Constant Matrix: (Units=GPa)
#
#
# Indices 1 2 3 4 5 6 
#
# 1 117.2618 24.6008 50.7368 0.0000 -4.2220 0.0000
# 2 24.6008 131.3622 35.4077 0.0000 11.3035 0.0000
# 3 50.7368 35.4077 121.0196 0.0000 -2.9823 0.0000
# 4 0.0000 0.0000 0.0000 38.1018 0.0000 2.5926
# 5 -4.2220 11.3035 -2.9823 0.0000 36.2695 0.0000
# 6 0.0000 0.0000 0.0000 2.5926 0.0000 25.5186
#
#
#
# Elastic Compliance Matrix: (Units=1/GPa)
#
#
# Indices 1 2 3 4 5 6 
#
# 1 0.010553 -0.000971 -0.004111 0.000000 0.001193 0.000000
# 2 -0.000971 0.008643 -0.002195 0.000000 -0.002987 0.000000
# 3 -0.004111 -0.002195 0.010656 0.000000 0.001082 0.000000
# 4 0.000000 0.000000 0.000000 0.026428 0.000000 -0.002685
# 5 0.001193 -0.002987 0.001082 0.000000 0.028730 0.000000
# 6 0.000000 0.000000 0.000000 -0.002685 0.000000 0.039460
#
#
# Mechanical properties :
#
#
# Convention : Reuss Voigt Hill
#
# Bulk Modulus (GPa) = 65.36985 65.68157 65.52571
# Shear Modulus (GPa) = 34.69237 37.23787 35.96512
#
# Velocity S-wave (km/s) = 3.81689 3.95444 3.88628
# Velocity P-wave (km/s) = 6.84662 6.95934 6.90321
#
# Compressibility (1/GPa) = 0.01529757
#
# Stress axis : x y z
#
# Youngs Moduli (GPa) = 94.75711 115.69846 93.84755
#
# Poissons Ratio (x) = 0.11234 0.38580
# Poissons Ratio (y) = 0.09200 0.20603
# Poissons Ratio (z) = 0.38954 0.25400
#
# Static dielectric constant tensor:
#      x y z
#    x 4.764590 0.000000 -0.140290 
#    y 0.000000 4.040120 0.000000 
#    z -0.140290 0.000000 4.413750 
# 
# 
# High freq. dielectric constant tensor:
#      x y z
#    x 1.963170 0.000000 0.000460 
#    y 0.000000 1.949770 0.000000 
#    z 0.000460 0.000000 1.952190 
# 
# From -- ./inp_files/208045.got.cif
#   From: 2010.06.25/outbox.cif.g09.slc.cpg/sg15_105_cif.got.tgz:208045.got - 2010.06.28 07:06:18.
