data_PCOD8150175
_publ_section_title
;
Structure prediction by ZEFSAII (Michael W. Deem and Ramdas Pophale) SiO2 
 PCOD8150175
Probable space group: C 2/C
;
_chemical_formula_sum "Si O2"
_cell_formula_units_Z 52
_cell_length_a 22.734913
_cell_length_b 6.366578
_cell_length_c 19.421544
_cell_angle_alpha 90.000000
_cell_angle_beta 119.402246
_cell_angle_gamma 90.000000
_cell_volume 2449.053499
_symmetry_space_group_name_H-M "C 2/C"
_symmetry_group_IT_number 15
_symmetry_cell_setting 'monoclinic'
loop_
_space_group_symop_operation_xyz
x,y,z
-x,y,1/2-z
-x,-y,-z
x,-y,1/2+z
1/2+x,1/2+y,z
1/2-x,1/2+y,1/2-z
1/2-x,1/2-y,-z
1/2+x,1/2-y,1/2+z
loop_
_atom_site_type_symbol
_atom_site_label
_atom_site_fract_x
_atom_site_fract_y
_atom_site_fract_z
Si Si1 0.350063 0.047600 0.321604
Si Si2 0.602305 0.675197 0.886367
Si Si3 0.500000 0.414534 0.750000
Si Si4 0.229708 0.105378 0.664129
Si Si5 0.571148 0.008052 0.767826
Si Si6 0.159598 0.717784 0.556571
Si Si7 0.269655 0.600626 0.072621
O O1 0.277231 0.971650 0.252764
O O2 0.374534 0.891403 0.396416
O O3 0.336751 0.279798 0.343659
O O4 0.406803 0.061337 0.295711
O O5 0.530772 0.561381 0.827783
O O6 0.618248 0.891251 0.851753
O O7 0.660667 0.512439 0.901856
O O8 0.601622 0.724516 0.967667
O O9 0.562935 0.262387 0.763027
O O10 0.276528 0.260475 0.645796
O O11 0.202420 0.919571 0.601770
O O12 0.500000 0.906461 0.750000
O O13 0.210191 0.564915 0.546717
O O14 0.250000 0.750000 0.000000
#
# Coordination Sequence:
#
# PCOD8150175 Si02
#       7
#     8   8   4   8   8   8   8
#     4  11  23  41  66  97 140 178 222 280 350 426
#     4  12  23  43  69  98 138 174 239 282 331 416
#     4  10  24  44  70  96 124 184 244 280 334 380
#     4  11  22  39  62 103 139 179 218 276 367 413
#     4  10  25  45  70  93 128 182 243 280 331 392
#     4  11  25  40  64 107 141 176 219 286 362 409
#     4  11  24  37  68 106 138 177 220 281 358 411
#
# _framework density 21.232692
#
# number of rings (size 3 to 8) (size 9 to 14) (size 15 to 20)
#    0.462    0.615    3.846    2.308    6.462    1.231 
#    0.000    1.538    0.000    0.000    0.000    0.000 
#    0.000    0.000    0.000    0.000    0.000    0.000 
#
# Total GULP energy -322197.446020 kJ/mol
# GULP energy per Si atom -12392.209462 kJ/mol
# Density = 2.118437 g / cm^3
# Si number density = 21.232692 Si / 1000 Ang^3
#
#
#
# Elastic Constant Matrix: (Units=GPa)
#
#
# Indices 1 2 3 4 5 6 
#
# 1 92.0827 32.6762 47.4012 0.0002 -24.2421 0.0002
# 2 32.6762 119.6880 69.8591 0.0016 -6.6244 0.0008
# 3 47.4012 69.8591 158.0996 0.0000 -16.6467 0.0000
# 4 0.0002 0.0016 0.0000 46.4100 0.0000 -0.5762
# 5 -24.2421 -6.6244 -16.6467 0.0000 31.7549 0.0000
# 6 0.0002 0.0008 0.0000 -0.5762 0.0000 17.5128
#
#
#
# Elastic Compliance Matrix: (Units=1/GPa)
#
#
# Indices 1 2 3 4 5 6 
#
# 1 0.015664 -0.002152 -0.002682 0.000000 0.010103 0.000000
# 2 -0.002152 0.011557 -0.004636 0.000000 -0.001663 -0.000001
# 3 -0.002682 -0.004636 0.009378 0.000000 0.001902 0.000000
# 4 0.000000 0.000000 0.000000 0.021556 0.000000 0.000709
# 5 0.010103 -0.001663 0.001902 0.000000 0.039854 0.000000
# 6 0.000000 -0.000001 0.000000 0.000709 0.000000 0.057124
#
#
# Mechanical properties :
#
#
# Convention : Reuss Voigt Hill
#
# Bulk Modulus (GPa) = 56.63000 74.41593 65.52296
# Shear Modulus (GPa) = 27.78411 33.79779 30.79095
#
# Velocity S-wave (km/s) = 3.62132 3.99404 3.81224
# Velocity P-wave (km/s) = 6.64938 7.50957 7.09253
#
# Compressibility (1/GPa) = 0.01765848
#
# Stress axis : x y z
#
# Youngs Moduli (GPa) = 63.84214 86.52981 106.63222
#
# Poissons Ratio (x) = 0.18621 0.28594
# Poissons Ratio (y) = 0.13739 0.49439
# Poissons Ratio (z) = 0.17120 0.40118
#
# Static dielectric constant tensor:
#      x y z
#    x 3.602610 0.000000 -0.081830 
#    y 0.000000 4.233860 0.000000 
#    z -0.081830 0.000000 4.136750 
# 
# 
# High freq. dielectric constant tensor:
#      x y z
#    x 1.802410 0.000000 -0.012040 
#    y 0.000000 1.858400 0.000000 
#    z -0.012040 0.000000 1.833270 
# 
# From -- ./inp_files/221162.got.cif
#   From: 2010.06.25/outbox.cif.g09.slc.cpg/sg15_111_cif.got.tgz:221162.got - 2010.06.28 07:06:18.
