data_PCOD8150593
_publ_section_title
;
Structure prediction by ZEFSAII (Michael W. Deem and Ramdas Pophale) SiO2 
 PCOD8150593
Probable space group: C 2/C
;
_chemical_formula_sum "Si O2"
_cell_formula_units_Z 44
_cell_length_a 10.086486
_cell_length_b 27.803476
_cell_length_c 7.830099
_cell_angle_alpha 90.000000
_cell_angle_beta 121.037926
_cell_angle_gamma 90.000000
_cell_volume 1881.477252
_symmetry_space_group_name_H-M "C 2/C"
_symmetry_group_IT_number 15
_symmetry_cell_setting 'monoclinic'
loop_
_space_group_symop_operation_xyz
x,y,z
-x,y,1/2-z
-x,-y,-z
x,-y,1/2+z
1/2+x,1/2+y,z
1/2-x,1/2+y,1/2-z
1/2-x,1/2-y,-z
1/2+x,1/2-y,1/2+z
loop_
_atom_site_type_symbol
_atom_site_label
_atom_site_fract_x
_atom_site_fract_y
_atom_site_fract_z
Si Si1 0.334598 0.960891 0.063435
Si Si2 0.962637 0.291841 0.411609
Si Si3 0.893919 0.796100 0.341487
Si Si4 0.500000 0.142363 0.250000
Si Si5 0.264433 0.063475 0.134156
Si Si6 0.053929 0.099670 0.477385
O O1 0.500000 0.947414 0.250000
O O2 0.302771 0.017830 0.042743
O O3 0.332227 0.944553 0.867232
O O4 0.204314 0.933942 0.087650
O O5 0.781684 0.284689 0.324230
O O6 0.033983 0.325823 0.605371
O O7 0.000000 0.314533 0.250000
O O8 0.049326 0.240399 0.474202
O O9 0.906759 0.850342 0.410774
O O10 0.000000 0.785879 0.250000
O O11 0.349005 0.109995 0.112281
O O12 0.081078 0.072597 0.008527
O O13 0.000000 0.109204 0.250000
#
# Coordination Sequence:
#
# PCOD8150593 Si02
#       6
#     8   8   8   4   8   8
#     4  11  24  44  68 102 141 189 244 303 368 435
#     4  12  29  48  77 107 150 198 245 307 369 439
#     4  12  26  48  75 109 148 193 246 307 371 438
#     4  12  28  46  74 110 148 188 254 304 366 440
#     4  11  25  44  70 101 146 187 241 307 362 440
#     4  10  25  43  70 102 146 188 246 298 367 442
#
# _framework density 23.385878999999999
#
# number of rings (size 3 to 8) (size 9 to 14) (size 15 to 20)
#    0.000    0.727    1.818    3.818   10.182    1.455 
#    0.000    0.000    0.000    0.000    0.000    0.000 
#    0.000    0.000    0.000    0.000    0.000    0.000 
#
# Total GULP energy -273011.426841 kJ/mol
# GULP energy per Si atom -12409.610311 kJ/mol
# Density = 2.333265 g / cm^3
# Si number density = 23.385879 Si / 1000 Ang^3
#
#
#
# Elastic Constant Matrix: (Units=GPa)
#
#
# Indices 1 2 3 4 5 6 
#
# 1 112.4307 29.3670 25.9125 0.0000 16.0064 0.0000
# 2 29.3670 119.9823 50.6328 0.0000 5.9650 0.0000
# 3 25.9125 50.6328 75.8614 0.0000 14.3248 0.0000
# 4 0.0000 0.0000 0.0000 19.6179 0.0000 2.0470
# 5 16.0064 5.9650 14.3248 0.0000 49.1610 0.0000
# 6 0.0000 0.0000 0.0000 2.0470 0.0000 36.0707
#
#
#
# Elastic Compliance Matrix: (Units=1/GPa)
#
#
# Indices 1 2 3 4 5 6 
#
# 1 0.010104 -0.001521 -0.001957 0.000000 -0.002535 0.000000
# 2 -0.001521 0.011869 -0.007645 0.000000 0.001283 0.000000
# 3 -0.001957 -0.007645 0.019744 0.000000 -0.004188 0.000000
# 4 0.000000 0.000000 0.000000 0.051278 0.000000 -0.002910
# 5 -0.002535 0.001283 -0.004188 0.000000 0.022231 0.000000
# 6 0.000000 0.000000 0.000000 -0.002910 0.000000 0.027888
#
#
# Mechanical properties :
#
#
# Convention : Reuss Voigt Hill
#
# Bulk Modulus (GPa) = 51.35953 57.78877 54.57415
# Shear Modulus (GPa) = 29.09519 34.46072 31.77796
#
# Velocity S-wave (km/s) = 3.53106 3.84287 3.69026
# Velocity P-wave (km/s) = 6.21562 6.66745 6.44549
#
# Compressibility (1/GPa) = 0.01947058
#
# Stress axis : x y z
#
# Youngs Moduli (GPa) = 98.97432 84.25262 50.64921
#
# Poissons Ratio (x) = 0.12814 0.09914
# Poissons Ratio (y) = 0.15053 0.38719
# Poissons Ratio (z) = 0.19373 0.64407
#
# Static dielectric constant tensor:
#      x y z
#    x 4.426430 0.000000 0.080540 
#    y 0.000000 4.300590 0.000000 
#    z 0.080540 0.000000 4.102150 
# 
# 
# High freq. dielectric constant tensor:
#      x y z
#    x 1.940230 0.000000 0.004900 
#    y 0.000000 1.935720 0.000000 
#    z 0.004900 0.000000 1.927570 
# 
# From -- ./inp_files/34508.got.cif
#   From: 2010.06.25/outbox.cif.g09.slc.cpg/sg15_18_cif.got.tgz:34508.got - 2010.06.28 07:06:18.
