data_PCOD8150073
_publ_section_title
;
Structure prediction by ZEFSAII (Michael W. Deem and Ramdas Pophale) SiO2 
 PCOD8150073
Probable space group: C 2/C
;
_chemical_formula_sum "Si O2"
_cell_formula_units_Z 56
_cell_length_a 28.356841
_cell_length_b 12.803316
_cell_length_c 15.678380
_cell_angle_alpha 90.000000
_cell_angle_beta 27.575635
_cell_angle_gamma 90.000000
_cell_volume 2635.036482
_symmetry_space_group_name_H-M "C 2/C"
_symmetry_group_IT_number 15
_symmetry_cell_setting 'monoclinic'
loop_
_space_group_symop_operation_xyz
x,y,z
-x,y,1/2-z
-x,-y,-z
x,-y,1/2+z
1/2+x,1/2+y,z
1/2-x,1/2+y,1/2-z
1/2-x,1/2-y,-z
1/2+x,1/2-y,1/2+z
loop_
_atom_site_type_symbol
_atom_site_label
_atom_site_fract_x
_atom_site_fract_y
_atom_site_fract_z
Si Si1 0.245284 0.581601 0.904428
Si Si2 0.338086 0.370605 0.803724
Si Si3 0.036380 0.662125 0.285351
Si Si4 0.540991 0.692881 0.934861
Si Si5 0.145547 0.524731 0.897662
Si Si6 0.729627 0.669550 0.908233
Si Si7 0.419961 0.800362 0.455365
O O1 0.259657 0.460867 0.905063
O O2 0.348316 0.644581 0.752680
O O3 0.208151 0.588867 0.867682
O O4 0.155232 0.632500 0.104590
O O5 0.452958 0.394972 0.587104
O O6 0.304811 0.262251 0.814272
O O7 0.342875 0.361744 0.897848
O O8 0.013472 0.749720 0.391324
O O9 0.000000 0.702502 0.250000
O O10 0.972540 0.558523 0.411637
O O11 0.528192 0.767302 0.038590
O O12 0.203934 0.565343 0.719684
O O13 0.148174 0.401642 0.911276
O O14 0.656106 0.707926 0.950121
O O15 0.500000 0.824859 0.250000
#
# Coordination Sequence:
#
# PCOD8150073 Si02
#       7
#     8   8   8   8   8   8   8
#     4  11  23  42  66  94 132 179 222 274 328 400
#     4  11  24  42  66  96 135 176 222 271 338 404
#     4  10  24  44  64  95 134 172 229 278 329 395
#     4  12  24  42  68  97 136 176 222 278 336 394
#     4  11  23  42  69  95 132 172 221 276 333 390
#     4  11  23  43  65  97 136 174 215 277 340 401
#     4  12  24  42  70 102 134 176 225 278 334 398
#
# _framework density 21.252078000000001
#
# number of rings (size 3 to 8) (size 9 to 14) (size 15 to 20)
#    0.000    0.857    5.714    2.143    2.000    0.571 
#    0.000    0.000    0.000    0.000    0.000    0.000 
#    0.000    0.000    0.000    0.000    0.000    0.000 
#
# Total GULP energy -347106.725301 kJ/mol
# GULP energy per Si atom -12396.668761 kJ/mol
# Density = 2.120371 g / cm^3
# Si number density = 21.252078 Si / 1000 Ang^3
#
#
#
# Elastic Constant Matrix: (Units=GPa)
#
#
# Indices 1 2 3 4 5 6 
#
# 1 81.4115 19.0547 50.1412 0.0000 -1.7446 0.0000
# 2 19.0547 74.8188 51.0330 0.0000 5.0635 0.0000
# 3 50.1412 51.0330 146.1346 0.0000 -6.4540 0.0000
# 4 0.0000 0.0000 0.0000 28.6803 0.0000 -8.5207
# 5 -1.7446 5.0635 -6.4540 0.0000 28.2067 0.0000
# 6 0.0000 0.0000 0.0000 -8.5207 0.0000 30.4789
#
#
#
# Elastic Compliance Matrix: (Units=1/GPa)
#
#
# Indices 1 2 3 4 5 6 
#
# 1 0.015585 -0.000402 -0.005214 0.000000 -0.000157 0.000000
# 2 -0.000402 0.018166 -0.006416 0.000000 -0.004754 0.000000
# 3 -0.005214 -0.006416 0.011021 0.000000 0.003351 0.000000
# 4 0.000000 0.000000 0.000000 0.038025 0.000000 0.010630
# 5 -0.000157 -0.004754 0.003351 0.000000 0.037063 0.000000
# 6 0.000000 0.000000 0.000000 0.010630 0.000000 0.035781
#
#
# Mechanical properties :
#
#
# Convention : Reuss Voigt Hill
#
# Bulk Modulus (GPa) = 48.29125 60.31363 54.30244
# Shear Modulus (GPa) = 26.79405 29.61556 28.20481
#
# Velocity S-wave (km/s) = 3.55459 3.73706 3.64697
# Velocity P-wave (km/s) = 6.29438 6.86022 6.58338
#
# Compressibility (1/GPa) = 0.02070769
#
# Stress axis : x y z
#
# Youngs Moduli (GPa) = 64.16259 55.04798 90.73929
#
# Poissons Ratio (x) = 0.02214 0.47312
# Poissons Ratio (y) = 0.02580 0.58217
# Poissons Ratio (z) = 0.33455 0.35318
#
# Static dielectric constant tensor:
#      x y z
#    x 3.873200 0.000000 -0.004110 
#    y 0.000000 3.521730 0.000000 
#    z -0.004110 0.000000 3.932130 
# 
# 
# High freq. dielectric constant tensor:
#      x y z
#    x 1.839430 0.000000 -0.003130 
#    y 0.000000 1.812740 0.000000 
#    z -0.003130 0.000000 1.848090 
# 
# From -- ./inp_files/181892.got.cif
#   From: 2010.06.25/outbox.cif.g09.slc.cpg/sg15_91_cif.got.tgz:181892.got - 2010.06.28 07:06:18.
