data_PCOD8150459
_publ_section_title
;
Structure prediction by ZEFSAII (Michael W. Deem and Ramdas Pophale) SiO2 
 PCOD8150459
Probable space group: C 2/C
;
_chemical_formula_sum "Si O2"
_cell_formula_units_Z 64
_cell_length_a 23.778072
_cell_length_b 20.358144
_cell_length_c 18.312999
_cell_angle_alpha 90.000000
_cell_angle_beta 159.724151
_cell_angle_gamma 90.000000
_cell_volume 3072.048177
_symmetry_space_group_name_H-M "C 2/C"
_symmetry_group_IT_number 15
_symmetry_cell_setting 'monoclinic'
loop_
_space_group_symop_operation_xyz
x,y,z
-x,y,1/2-z
-x,-y,-z
x,-y,1/2+z
1/2+x,1/2+y,z
1/2-x,1/2+y,1/2-z
1/2-x,1/2-y,-z
1/2+x,1/2-y,1/2+z
loop_
_atom_site_type_symbol
_atom_site_label
_atom_site_fract_x
_atom_site_fract_y
_atom_site_fract_z
Si Si1 0.428359 0.267852 0.736353
Si Si2 0.695569 0.633897 0.187255
Si Si3 0.356122 0.215719 0.879722
Si Si4 0.963681 0.354151 0.363440
Si Si5 0.889278 0.303397 0.685496
Si Si6 0.943291 0.869577 0.495917
Si Si7 0.157590 0.058281 0.490059
Si Si8 0.828381 0.907065 0.006014
O O1 0.500000 0.298549 0.750000
O O2 0.250000 0.250000 0.500000
O O3 0.509971 0.198833 0.858000
O O4 0.447050 0.321555 0.821676
O O5 0.706889 0.711838 0.214194
O O6 0.555479 0.602086 0.067541
O O7 0.872271 0.603365 0.423569
O O8 0.657740 0.620620 0.057841
O O9 0.422749 0.184861 0.887051
O O10 0.205489 0.170354 0.722443
O O11 0.495610 0.221784 0.109799
O O12 0.811667 0.398236 0.152928
O O13 0.750000 0.250000 0.500000
O O14 0.809605 0.371663 0.614223
O O15 0.000000 0.316561 0.750000
O O16 0.880193 0.929150 0.470069
O O17 0.000000 0.075342 0.250000
O O18 0.212425 0.983773 0.545301
O O19 0.000000 0.891388 0.250000
#
# Coordination Sequence:
#
# PCOD8150459 Si02
#       8
#     8   8   8   8   8   8   8   8
#     4  12  21  34  58  92 127 160 212 256 320 383
#     4  12  21  39  65  99 137 164 224 271 331 399
#     4  11  21  40  61  96 138 165 209 278 339 398
#     4  11  22  39  64  93 133 174 212 275 331 398
#     4  12  26  43  70 104 133 172 224 280 353 401
#     4  11  23  38  64  97 133 177 213 273 336 395
#     4  10  24  48  65  88 135 184 226 270 338 394
#     4  11  26  47  69  94 132 181 225 280 334 405
#
# _framework density 20.833006000000001
#
# number of rings (size 3 to 8) (size 9 to 14) (size 15 to 20)
#    0.000    0.750    3.750    5.250    3.500    1.000 
#    0.000    3.125    0.000    0.000    0.000    0.000 
#    0.000    0.000    0.000    0.000    0.000    0.000 
#
# Total GULP energy -396769.158099 kJ/mol
# GULP energy per Si atom -12399.036191 kJ/mol
# Density = 2.078559 g / cm^3
# Si number density = 20.833006 Si / 1000 Ang^3
#
#
#
# Elastic Constant Matrix: (Units=GPa)
#
#
# Indices 1 2 3 4 5 6 
#
# 1 110.7448 42.1181 32.6016 -0.0001 6.5152 0.0000
# 2 42.1181 77.4475 35.8201 0.0001 1.1964 0.0000
# 3 32.6016 35.8201 139.3014 -0.0006 -5.0580 0.0000
# 4 -0.0001 0.0001 -0.0006 8.4529 -0.0006 2.6087
# 5 6.5152 1.1964 -5.0580 -0.0006 30.0743 0.0001
# 6 0.0000 0.0000 0.0000 2.6087 0.0001 19.1145
#
#
#
# Elastic Compliance Matrix: (Units=1/GPa)
#
#
# Indices 1 2 3 4 5 6 
#
# 1 0.011760 -0.005721 -0.001374 0.000000 -0.002551 0.000000
# 2 -0.005721 0.017483 -0.003156 -0.000001 0.000013 0.000000
# 3 -0.001374 -0.003156 0.008378 0.000001 0.001832 0.000000
# 4 0.000000 -0.000001 0.000001 0.123504 0.000003 -0.016855
# 5 -0.002551 0.000013 0.001832 0.000003 0.034111 0.000000
# 6 0.000000 0.000000 0.000000 -0.016855 0.000000 0.054617
#
#
# Mechanical properties :
#
#
# Convention : Reuss Voigt Hill
#
# Bulk Modulus (GPa) = 58.41276 60.95260 59.68268
# Shear Modulus (GPa) = 18.11196 25.99192 22.05194
#
# Velocity S-wave (km/s) = 2.95174 3.53602 3.25700
# Velocity P-wave (km/s) = 6.30210 6.78177 6.54633
#
# Compressibility (1/GPa) = 0.01711955
#
# Stress axis : x y z
#
# Youngs Moduli (GPa) = 85.03457 57.19999 119.35542
#
# Poissons Ratio (x) = 0.32721 0.16398
# Poissons Ratio (y) = 0.48644 0.37671
# Poissons Ratio (z) = 0.11683 0.18053
#
# Static dielectric constant tensor:
#      x y z
#    x 3.736340 0.000000 0.131460 
#    y 0.000000 3.775980 0.000000 
#    z 0.131460 0.000000 4.036350 
# 
# 
# High freq. dielectric constant tensor:
#      x y z
#    x 1.817810 0.000000 -0.001810 
#    y 0.000000 1.790980 0.000000 
#    z -0.001810 0.000000 1.840130 
# 
# From -- ./inp_files/220293.got.cif
#   From: 2010.06.25/outbox.cif.g09.slc.cpg/sg15_111_cif.got.tgz:220293.got - 2010.06.28 07:06:18.
