data_PCOD8150132
_publ_section_title
;
Structure prediction by ZEFSAII (Michael W. Deem and Ramdas Pophale) SiO2 
 PCOD8150132
Probable space group: C 2/C
;
_chemical_formula_sum "Si O2"
_cell_formula_units_Z 52
_cell_length_a 13.962929
_cell_length_b 14.477008
_cell_length_c 12.255968
_cell_angle_alpha 90.000000
_cell_angle_beta 94.626808
_cell_angle_gamma 90.000000
_cell_volume 2469.365591
_symmetry_space_group_name_H-M "C 2/C"
_symmetry_group_IT_number 15
_symmetry_cell_setting 'monoclinic'
loop_
_space_group_symop_operation_xyz
x,y,z
-x,y,1/2-z
-x,-y,-z
x,-y,1/2+z
1/2+x,1/2+y,z
1/2-x,1/2+y,1/2-z
1/2-x,1/2-y,-z
1/2+x,1/2-y,1/2+z
loop_
_atom_site_type_symbol
_atom_site_label
_atom_site_fract_x
_atom_site_fract_y
_atom_site_fract_z
Si Si1 0.150324 0.494841 0.009457
Si Si2 0.000586 0.397029 0.377747
Si Si3 0.000000 0.096060 0.250000
Si Si4 0.600861 0.320484 0.316512
Si Si5 0.914228 0.789124 0.936043
Si Si6 0.194481 0.994964 0.809394
Si Si7 0.715548 0.146746 0.348587
O O1 0.165461 0.398050 0.948913
O O2 0.108118 0.574012 0.925606
O O3 0.073637 0.479670 0.100835
O O4 0.251225 0.526217 0.071470
O O5 0.965256 0.309447 0.442070
O O6 0.000000 0.376241 0.250000
O O7 0.030091 0.152746 0.148072
O O8 0.085366 0.036354 0.307276
O O9 0.500000 0.339184 0.250000
O O10 0.580338 0.332583 0.443444
O O11 0.683325 0.394717 0.286686
O O12 0.639279 0.217798 0.287814
O O13 0.802798 0.786579 0.891271
O O14 0.252457 0.939601 0.722349
#
# Coordination Sequence:
#
# PCOD8150132 Si02
#       7
#     8   8   4   8   8   8   8
#     4  11  23  41  66  97 135 173 218 276 337 393
#     4  11  23  40  67  98 133 175 218 274 338 397
#     4  10  24  44  68  98 130 182 220 282 320 414
#     4  12  25  42  71  97 132 177 225 277 333 398
#     4  11  22  44  68  92 135 176 227 262 339 395
#     4  11  24  43  65 101 133 175 222 274 340 387
#     4  11  24  42  69  95 134 174 224 272 324 410
#
# _framework density 21.058040999999999
#
# number of rings (size 3 to 8) (size 9 to 14) (size 15 to 20)
#    0.000    0.923    4.615    2.308    2.154    2.462 
#    0.000    0.769    0.000    0.000    0.000    0.000 
#    0.000    0.000    0.000    0.000    0.000    0.000 
#
# Total GULP energy -322297.162212 kJ/mol
# GULP energy per Si atom -12396.044700 kJ/mol
# Density = 2.101011 g / cm^3
# Si number density = 21.058041 Si / 1000 Ang^3
#
#
#
# Elastic Constant Matrix: (Units=GPa)
#
#
# Indices 1 2 3 4 5 6 
#
# 1 106.2380 56.6814 54.1680 0.0000 15.6083 0.0000
# 2 56.6814 107.7215 48.6324 0.0000 5.8180 0.0000
# 3 54.1680 48.6324 105.8910 0.0000 14.9297 0.0000
# 4 0.0000 0.0000 0.0000 25.1287 0.0000 1.2238
# 5 15.6083 5.8180 14.9297 0.0000 48.3596 0.0000
# 6 0.0000 0.0000 0.0000 1.2238 0.0000 36.2396
#
#
#
# Elastic Compliance Matrix: (Units=1/GPa)
#
#
# Indices 1 2 3 4 5 6 
#
# 1 0.015344 -0.005749 -0.004818 0.000000 -0.002773 0.000000
# 2 -0.005749 0.013869 -0.003612 0.000000 0.001302 0.000000
# 3 -0.004818 -0.003612 0.013891 0.000000 -0.002299 0.000000
# 4 0.000000 0.000000 0.000000 0.039861 0.000000 -0.001346
# 5 -0.002773 0.001302 -0.002299 0.000000 0.022127 0.000000
# 6 0.000000 0.000000 0.000000 -0.001346 0.000000 0.027640
#
#
# Mechanical properties :
#
#
# Convention : Reuss Voigt Hill
#
# Bulk Modulus (GPa) = 67.81465 70.97934 69.39699
# Shear Modulus (GPa) = 30.11974 32.63682 31.37828
#
# Velocity S-wave (km/s) = 3.78606 3.94109 3.86435
# Velocity P-wave (km/s) = 7.16840 7.38168 7.27582
#
# Compressibility (1/GPa) = 0.01474608
#
# Stress axis : x y z
#
# Youngs Moduli (GPa) = 65.17200 72.10509 71.98740
#
# Poissons Ratio (x) = 0.41453 0.34682
# Poissons Ratio (y) = 0.37467 0.26003
# Poissons Ratio (z) = 0.31399 0.26046
#
# Static dielectric constant tensor:
#      x y z
#    x 3.994870 0.000000 0.117180 
#    y 0.000000 3.849310 0.000000 
#    z 0.117180 0.000000 3.763240 
# 
# 
# High freq. dielectric constant tensor:
#      x y z
#    x 1.836400 0.000000 0.002860 
#    y 0.000000 1.826000 0.000000 
#    z 0.002860 0.000000 1.819980 
# 
# From -- ./inp_files/97127.got.cif
#   From: 2010.06.25/outbox.cif.g09.slc.cpg/sg15_49_cif.got.tgz:97127.got - 2010.06.28 07:06:18.
