data_PCOD8150490
_publ_section_title
;
Structure prediction by ZEFSAII (Michael W. Deem and Ramdas Pophale) SiO2 
 PCOD8150490
Probable space group: C 2/C
;
_chemical_formula_sum "Si O2"
_cell_formula_units_Z 36
_cell_length_a 7.982900
_cell_length_b 30.575153
_cell_length_c 8.850727
_cell_angle_alpha 90.000000
_cell_angle_beta 128.394939
_cell_angle_gamma 90.000000
_cell_volume 1693.108915
_symmetry_space_group_name_H-M "C 2/C"
_symmetry_group_IT_number 15
_symmetry_cell_setting 'monoclinic'
loop_
_space_group_symop_operation_xyz
x,y,z
-x,y,1/2-z
-x,-y,-z
x,-y,1/2+z
1/2+x,1/2+y,z
1/2-x,1/2+y,1/2-z
1/2-x,1/2-y,-z
1/2+x,1/2-y,1/2+z
loop_
_atom_site_type_symbol
_atom_site_label
_atom_site_fract_x
_atom_site_fract_y
_atom_site_fract_z
Si Si1 0.747678 0.949808 0.358584
Si Si2 0.074710 0.862316 0.136282
Si Si3 0.917686 0.709394 0.873662
Si Si4 0.829469 0.194814 0.286420
Si Si5 0.500000 0.498288 0.250000
O O1 0.500000 0.958949 0.250000
O O2 0.791732 0.897714 0.384440
O O3 0.825442 0.969432 0.242072
O O4 0.876852 0.970776 0.566618
O O5 0.213551 0.821023 0.264250
O O6 0.000000 0.885137 0.250000
O O7 0.871733 0.844698 0.926956
O O8 0.855622 0.758725 0.886519
O O9 0.000000 0.711055 0.750000
O O10 0.092816 0.690085 0.086290
O O11 0.000000 0.190538 0.250000
#
# Coordination Sequence:
#
# PCOD8150490 Si02
#       5
#     8   8   8   8   4
#     4  11  24  45  73 102 135 173 213 273 336 398
#     4  12  26  40  60  98 138 168 224 279 319 390
#     4  11  20  40  64  88 122 176 231 272 325 381
#     4  11  21  39  64  89 122 179 229 271 324 390
#     4  10  24  48  74 104 130 168 218 270 336 414
#
# _framework density 21.262661000000001
#
# number of rings (size 3 to 8) (size 9 to 14) (size 15 to 20)
#    0.000    0.889    5.556    2.667    1.556    1.778 
#    0.000    0.000    0.000    0.000    0.000    0.000 
#    0.000    0.000    0.000    0.000    0.000    0.000 
#
# Total GULP energy -223223.816263 kJ/mol
# GULP energy per Si atom -12401.323126 kJ/mol
# Density = 2.121427 g / cm^3
# Si number density = 21.262661 Si / 1000 Ang^3
#
#
#
# Elastic Constant Matrix: (Units=GPa)
#
#
# Indices 1 2 3 4 5 6 
#
# 1 93.3212 39.1871 39.1923 0.0000 -0.8040 0.0000
# 2 39.1871 99.0615 39.8358 0.0000 -3.0702 0.0000
# 3 39.1923 39.8358 131.4322 0.0000 7.9696 0.0000
# 4 0.0000 0.0000 0.0000 52.0371 0.0000 -13.1685
# 5 -0.8040 -3.0702 7.9696 0.0000 33.1395 0.0000
# 6 0.0000 0.0000 0.0000 -13.1685 0.0000 38.8850
#
#
#
# Elastic Compliance Matrix: (Units=1/GPa)
#
#
# Indices 1 2 3 4 5 6 
#
# 1 0.013699 -0.004262 -0.002831 0.000000 0.000618 0.000000
# 2 -0.004262 0.012945 -0.002759 0.000000 0.001759 0.000000
# 3 -0.002831 -0.002759 0.009446 0.000000 -0.002596 0.000000
# 4 0.000000 0.000000 0.000000 0.021018 0.000000 0.007118
# 5 0.000618 0.001759 -0.002596 0.000000 0.030978 0.000000
# 6 0.000000 0.000000 0.000000 0.007118 0.000000 0.028127
#
#
# Mechanical properties :
#
#
# Convention : Reuss Voigt Hill
#
# Bulk Modulus (GPa) = 61.02494 62.24948 61.63721
# Shear Modulus (GPa) = 35.36564 38.51896 36.94230
#
# Velocity S-wave (km/s) = 4.08275 4.26088 4.17277
# Velocity P-wave (km/s) = 7.14059 7.31757 7.22962
#
# Compressibility (1/GPa) = 0.01638674
#
# Stress axis : x y z
#
# Youngs Moduli (GPa) = 72.99547 77.25153 105.86073
#
# Poissons Ratio (x) = 0.32922 0.29968
# Poissons Ratio (y) = 0.31109 0.29210
# Poissons Ratio (z) = 0.20664 0.21316
#
# Static dielectric constant tensor:
#      x y z
#    x 3.742560 0.000000 0.057180 
#    y 0.000000 3.873180 0.000000 
#    z 0.057180 0.000000 3.831780 
# 
# 
# High freq. dielectric constant tensor:
#      x y z
#    x 1.830660 0.000000 -0.002720 
#    y 0.000000 1.830960 0.000000 
#    z -0.002720 0.000000 1.843280 
# 
# From -- ./inp_files/25270.got.cif
#   From: 2010.06.25/outbox.cif.g09.slc.cpg/sg15_13_cif.got.tgz:25270.got - 2010.06.28 07:06:18.
