data_PCOD8150585
_publ_section_title
;
Structure prediction by ZEFSAII (Michael W. Deem and Ramdas Pophale) SiO2 
 PCOD8150585
Probable space group: C 2/C
;
_chemical_formula_sum "Si O2"
_cell_formula_units_Z 56
_cell_length_a 28.701362
_cell_length_b 5.306817
_cell_length_c 17.470042
_cell_angle_alpha 90.000000
_cell_angle_beta 111.167353
_cell_angle_gamma 90.000000
_cell_volume 2481.379791
_symmetry_space_group_name_H-M "C 2/C"
_symmetry_group_IT_number 15
_symmetry_cell_setting 'monoclinic'
loop_
_space_group_symop_operation_xyz
x,y,z
-x,y,1/2-z
-x,-y,-z
x,-y,1/2+z
1/2+x,1/2+y,z
1/2-x,1/2+y,1/2-z
1/2-x,1/2-y,-z
1/2+x,1/2-y,1/2+z
loop_
_atom_site_type_symbol
_atom_site_label
_atom_site_fract_x
_atom_site_fract_y
_atom_site_fract_z
Si Si1 0.781650 0.171110 0.267641
Si Si2 0.946691 0.032977 0.504667
Si Si3 0.635830 0.891140 0.084375
Si Si4 0.406776 0.102921 0.300864
Si Si5 0.395449 0.834642 0.069644
Si Si6 0.132688 0.892774 0.796517
Si Si7 0.516128 0.166156 0.342196
O O1 0.748442 0.417861 0.230596
O O2 0.815846 0.230029 0.362210
O O3 0.812507 0.117259 0.208166
O O4 0.914019 0.220816 0.433995
O O5 0.953443 0.121126 0.596237
O O6 0.915395 0.782309 0.501015
O O7 0.000000 0.000000 0.500000
O O8 0.627605 0.114146 0.143053
O O9 0.641319 0.967092 0.997043
O O10 0.392713 0.337675 0.236997
O O11 0.465310 0.107458 0.359017
O O12 0.399206 0.839258 0.253915
O O13 0.364662 0.653787 0.109368
O O14 0.444594 0.937193 0.142880
O O15 0.500000 0.265152 0.250000
#
# Coordination Sequence:
#
# PCOD8150585 Si02
#       7
#     8   8   8   8   8   8   8
#     4  11  25  48  77 104 128 176 243 299 366 432
#     4  11  24  39  65  97 145 192 235 277 342 415
#     4  10  25  43  68 100 139 182 229 293 349 422
#     4  11  23  41  67  98 138 193 237 272 333 406
#     4  11  24  41  63 101 144 187 230 288 351 406
#     4  11  25  44  71 101 138 181 230 298 352 413
#     4  11  22  37  58  97 141 189 240 276 322 411
#
# _framework density 22.568089000000001
#
# number of rings (size 3 to 8) (size 9 to 14) (size 15 to 20)
#    0.000    1.143    1.429    4.286   14.000    2.857 
#    0.000    1.429    0.000    0.000    0.000    0.000 
#    0.000    0.000    0.000    0.000    0.000    0.000 
#
# Total GULP energy -346890.685929 kJ/mol
# GULP energy per Si atom -12388.953069 kJ/mol
# Density = 2.251672 g / cm^3
# Si number density = 22.568089 Si / 1000 Ang^3
#
#
#
# Elastic Constant Matrix: (Units=GPa)
#
#
# Indices 1 2 3 4 5 6 
#
# 1 97.4113 18.7728 26.4532 0.0000 1.7053 0.0000
# 2 18.7728 75.6522 13.8400 -0.0001 7.1879 -0.0002
# 3 26.4532 13.8400 99.6919 0.0000 0.5965 0.0000
# 4 0.0000 -0.0001 0.0000 23.4495 0.0000 1.5745
# 5 1.7053 7.1879 0.5965 0.0000 26.6512 0.0000
# 6 0.0000 -0.0002 0.0000 1.5745 0.0000 32.9494
#
#
#
# Elastic Compliance Matrix: (Units=1/GPa)
#
#
# Indices 1 2 3 4 5 6 
#
# 1 0.011455 -0.002342 -0.002714 0.000000 -0.000041 0.000000
# 2 -0.002342 0.014399 -0.001355 0.000000 -0.003703 0.000000
# 3 -0.002714 -0.001355 0.010938 0.000000 0.000294 0.000000
# 4 0.000000 0.000000 0.000000 0.042782 0.000000 -0.002044
# 5 -0.000041 -0.003703 0.000294 0.000000 0.038517 0.000000
# 6 0.000000 0.000000 0.000000 -0.002044 0.000000 0.030447
#
#
# Mechanical properties :
#
#
# Convention : Reuss Voigt Hill
#
# Bulk Modulus (GPa) = 41.72146 43.43192 42.57669
# Shear Modulus (GPa) = 29.52457 30.85599 30.19028
#
# Velocity S-wave (km/s) = 3.62089 3.70163 3.66148
# Velocity P-wave (km/s) = 6.00068 6.12830 6.06483
#
# Compressibility (1/GPa) = 0.02396848
#
# Stress axis : x y z
#
# Youngs Moduli (GPa) = 87.29900 69.44734 91.42845
#
# Poissons Ratio (x) = 0.16265 0.24815
# Poissons Ratio (y) = 0.20446 0.12392
# Poissons Ratio (z) = 0.23694 0.09413
#
# Static dielectric constant tensor:
#      x y z
#    x 4.101580 0.000000 -0.126490 
#    y 0.000000 4.198610 0.000000 
#    z -0.126490 0.000000 4.212320 
# 
# 
# High freq. dielectric constant tensor:
#      x y z
#    x 1.870470 0.000000 -0.008820 
#    y 0.000000 1.895830 0.000000 
#    z -0.008820 0.000000 1.893730 
# 
# From -- ./inp_files/221279.got.cif
#   From: 2010.06.25/outbox.cif.g09.slc.cpg/sg15_111_cif.got.tgz:221279.got - 2010.06.28 07:06:18.
