data_PCOD8150470
_publ_section_title
;
Structure prediction by ZEFSAII (Michael W. Deem and Ramdas Pophale) SiO2 
 PCOD8150470
Probable space group: C 2/C
;
_chemical_formula_sum "Si O2"
_cell_formula_units_Z 52
_cell_length_a 25.488834
_cell_length_b 11.214922
_cell_length_c 9.125415
_cell_angle_alpha 90.000000
_cell_angle_beta 119.569823
_cell_angle_gamma 90.000000
_cell_volume 2268.797660
_symmetry_space_group_name_H-M "C 2/C"
_symmetry_group_IT_number 15
_symmetry_cell_setting 'monoclinic'
loop_
_space_group_symop_operation_xyz
x,y,z
-x,y,1/2-z
-x,-y,-z
x,-y,1/2+z
1/2+x,1/2+y,z
1/2-x,1/2+y,1/2-z
1/2-x,1/2-y,-z
1/2+x,1/2-y,1/2+z
loop_
_atom_site_type_symbol
_atom_site_label
_atom_site_fract_x
_atom_site_fract_y
_atom_site_fract_z
Si Si1 0.958757 0.058096 0.322663
Si Si2 0.858058 0.202724 0.321760
Si Si3 0.875310 0.160257 0.673719
Si Si4 0.923644 0.613262 0.382972
Si Si5 0.271612 0.517789 0.665579
Si Si6 0.687987 0.045631 0.805743
Si Si7 0.000000 0.475156 0.250000
O O1 0.922553 0.167200 0.343774
O O2 0.000000 0.109774 0.250000
O O3 0.913837 0.958304 0.195398
O O4 0.000000 0.000000 0.500000
O O5 0.863144 0.225078 0.502682
O O6 0.840422 0.324064 0.217663
O O7 0.808705 0.103803 0.219188
O O8 0.910837 0.248049 0.832050
O O9 0.811761 0.126172 0.660187
O O10 0.861160 0.544988 0.326000
O O11 0.956937 0.558575 0.287683
O O12 0.962212 0.607145 0.585632
O O13 0.249616 0.551886 0.796853
O O14 0.209505 0.501777 0.491981
#
# Coordination Sequence:
#
# PCOD8150470 Si02
#       7
#     8   8   8   8   8   8   4
#     4  11  24  46  71 101 135 182 236 293 351 418
#     4  11  24  44  70 103 139 184 238 287 359 421
#     4  11  24  44  73 102 139 188 231 291 361 424
#     4  11  25  46  74 104 141 188 239 287 361 422
#     4  11  25  45  69 102 142 181 235 293 353 417
#     4  12  25  45  71 101 140 185 233 290 348 427
#     4  10  24  48  68 106 148 180 236 298 344 426
#
# _framework density 22.919630000000002
#
# number of rings (size 3 to 8) (size 9 to 14) (size 15 to 20)
#    0.000    0.923    3.077    3.231    3.231    3.692 
#   11.077    0.000    0.000    0.000    0.000    0.000 
#    0.000    0.000    0.000    0.000    0.000    0.000 
#
# Total GULP energy -322587.271475 kJ/mol
# GULP energy per Si atom -12407.202749 kJ/mol
# Density = 2.286746 g / cm^3
# Si number density = 22.919630 Si / 1000 Ang^3
#
#
#
# Elastic Constant Matrix: (Units=GPa)
#
#
# Indices 1 2 3 4 5 6 
#
# 1 125.2828 23.8220 16.0687 0.0000 -8.4739 0.0000
# 2 23.8220 96.5456 19.5442 0.0000 2.7218 0.0000
# 3 16.0687 19.5442 113.0743 0.0000 4.7255 0.0000
# 4 0.0000 0.0000 0.0000 37.6644 0.0000 7.7745
# 5 -8.4739 2.7218 4.7255 0.0000 38.3180 0.0000
# 6 0.0000 0.0000 0.0000 7.7745 0.0000 23.4783
#
#
#
# Elastic Compliance Matrix: (Units=1/GPa)
#
#
# Indices 1 2 3 4 5 6 
#
# 1 0.008633 -0.001994 -0.000973 0.000000 0.002171 0.000000
# 2 -0.001994 0.011205 -0.001610 0.000000 -0.001038 0.000000
# 3 -0.000973 -0.001610 0.009312 0.000000 -0.001249 0.000000
# 4 0.000000 0.000000 0.000000 0.028498 0.000000 -0.009437
# 5 0.002171 -0.001038 -0.001249 0.000000 0.026805 0.000000
# 6 0.000000 0.000000 0.000000 -0.009437 0.000000 0.045717
#
#
# Mechanical properties :
#
#
# Convention : Reuss Voigt Hill
#
# Bulk Modulus (GPa) = 50.00956 50.41916 50.21436
# Shear Modulus (GPa) = 34.24883 38.25667 36.25275
#
# Velocity S-wave (km/s) = 3.86981 4.08998 3.98142
# Velocity P-wave (km/s) = 6.46793 6.65957 6.56445
#
# Compressibility (1/GPa) = 0.01999618
#
# Stress axis : x y z
#
# Youngs Moduli (GPa) = 115.83798 89.24532 107.38310
#
# Poissons Ratio (x) = 0.17799 0.10446
# Poissons Ratio (y) = 0.23102 0.17288
# Poissons Ratio (z) = 0.11269 0.14368
#
# Static dielectric constant tensor:
#      x y z
#    x 4.091070 0.000000 0.173460 
#    y 0.000000 3.964000 0.000000 
#    z 0.173460 0.000000 4.079480 
# 
# 
# High freq. dielectric constant tensor:
#      x y z
#    x 1.921800 0.000000 0.002660 
#    y 0.000000 1.897150 0.000000 
#    z 0.002660 0.000000 1.914920 
# 
# From -- ./inp_files/65620.got.cif
#   From: 2010.06.25/outbox.cif.g09.slc.cpg/sg15_33_cif.got.tgz:65620.got - 2010.06.28 07:06:18.
