data_PCOD8150338
_publ_section_title
;
Structure prediction by ZEFSAII (Michael W. Deem and Ramdas Pophale) SiO2 
 PCOD8150338
Probable space group: C 2/C
;
_chemical_formula_sum "Si O2"
_cell_formula_units_Z 56
_cell_length_a 17.926849
_cell_length_b 21.656408
_cell_length_c 8.793224
_cell_angle_alpha 90.000000
_cell_angle_beta 129.716713
_cell_angle_gamma 90.000000
_cell_volume 2625.942715
_symmetry_space_group_name_H-M "C 2/C"
_symmetry_group_IT_number 15
_symmetry_cell_setting 'monoclinic'
loop_
_space_group_symop_operation_xyz
x,y,z
-x,y,1/2-z
-x,-y,-z
x,-y,1/2+z
1/2+x,1/2+y,z
1/2-x,1/2+y,1/2-z
1/2-x,1/2-y,-z
1/2+x,1/2-y,1/2+z
loop_
_atom_site_type_symbol
_atom_site_label
_atom_site_fract_x
_atom_site_fract_y
_atom_site_fract_z
Si Si1 0.500000 0.499120 0.750000
Si Si2 0.557146 0.584996 0.081130
Si Si3 0.287856 0.651275 0.381836
Si Si4 0.000000 0.501499 0.250000
Si Si5 0.116895 0.827848 0.170093
Si Si6 0.093623 0.582226 0.114771
Si Si7 0.995415 0.711162 0.925525
Si Si8 0.224713 0.729029 0.800237
O O1 0.435850 0.541304 0.557001
O O2 0.424704 0.456720 0.747012
O O3 0.639393 0.636064 0.163694
O O4 0.451998 0.615828 0.966356
O O5 0.344788 0.658070 0.612366
O O6 0.206494 0.598507 0.281764
O O7 0.244797 0.717409 0.279343
O O8 0.062617 0.544497 0.222147
O O9 0.075456 0.458737 0.440930
O O10 0.206283 0.827011 0.166110
O O11 0.055659 0.764478 0.087786
O O12 0.034304 0.644980 0.023515
O O13 0.000000 0.721848 0.750000
O O14 0.887094 0.710818 0.851679
O O15 0.250000 0.750000 0.000000
#
# Coordination Sequence:
#
# PCOD8150338 Si02
#       8
#     4   8   8   4   8   8   8   8
#     4  10  24  46  68  96 132 194 228 274 346 408
#     4  11  24  46  71  99 143 181 230 289 343 413
#     4  12  25  44  69 105 140 178 231 289 347 428
#     4  10  26  50  70  96 136 188 234 294 336 402
#     4  12  25  44  69 107 143 180 227 292 358 415
#     4  11  25  48  72  98 138 179 237 285 347 410
#     4  12  24  44  73 102 145 181 225 297 357 413
#     4  12  26  41  68 106 137 184 231 278 359 428
#
# _framework density 21.325673999999999
#
# number of rings (size 3 to 8) (size 9 to 14) (size 15 to 20)
#    0.000    0.571    6.429    0.429    5.000    1.143 
#    0.000    0.000    0.000    0.000    0.000    0.000 
#    0.000    0.000    0.000    0.000    0.000    0.000 
#
# Total GULP energy -347250.401381 kJ/mol
# GULP energy per Si atom -12401.800049 kJ/mol
# Density = 2.127714 g / cm^3
# Si number density = 21.325674 Si / 1000 Ang^3
#
#
#
# Elastic Constant Matrix: (Units=GPa)
#
#
# Indices 1 2 3 4 5 6 
#
# 1 139.8505 51.0873 47.8330 0.0000 15.2560 0.0000
# 2 51.0873 113.3497 55.5554 0.0000 -1.2718 0.0000
# 3 47.8330 55.5554 86.7559 0.0000 11.0905 0.0000
# 4 0.0000 0.0000 0.0000 27.4930 0.0000 -1.3581
# 5 15.2560 -1.2718 11.0905 0.0000 35.5051 0.0000
# 6 0.0000 0.0000 0.0000 -1.3581 0.0000 40.1931
#
#
#
# Elastic Compliance Matrix: (Units=1/GPa)
#
#
# Indices 1 2 3 4 5 6 
#
# 1 0.009595 -0.002877 -0.003029 0.000000 -0.003280 0.000000
# 2 -0.002877 0.014070 -0.007964 0.000000 0.004228 0.000000
# 3 -0.003029 -0.007964 0.018922 0.000000 -0.004894 0.000000
# 4 0.000000 0.000000 0.000000 0.036434 0.000000 0.001231
# 5 -0.003280 0.004228 -0.004894 0.000000 0.031255 0.000000
# 6 0.000000 0.000000 0.000000 0.001231 0.000000 0.024922
#
#
# Mechanical properties :
#
#
# Convention : Reuss Voigt Hill
#
# Bulk Modulus (GPa) = 67.35116 72.10086 69.72601
# Shear Modulus (GPa) = 29.78226 33.00358 31.39292
#
# Velocity S-wave (km/s) = 3.74109 3.93822 3.84092
# Velocity P-wave (km/s) = 7.09308 7.38663 7.24134
#
# Compressibility (1/GPa) = 0.01484755
#
# Stress axis : x y z
#
# Youngs Moduli (GPa) = 104.21941 71.07480 52.84843
#
# Poissons Ratio (x) = 0.20448 0.16006
# Poissons Ratio (y) = 0.29983 0.42088
# Poissons Ratio (z) = 0.31565 0.56604
#
# Static dielectric constant tensor:
#      x y z
#    x 3.976290 0.000000 0.062400 
#    y 0.000000 4.347690 0.000000 
#    z 0.062400 0.000000 3.896550 
# 
# 
# High freq. dielectric constant tensor:
#      x y z
#    x 1.843040 0.000000 -0.005540 
#    y 0.000000 1.847740 0.000000 
#    z -0.005540 0.000000 1.838280 
# 
# From -- ./inp_files/51618.got.cif
#   From: 2010.06.25/outbox.cif.g09.slc.cpg/sg15_26_cif.got.tgz:51618.got - 2010.06.28 07:06:18.
