data_PCOD8150402
_publ_section_title
;
Structure prediction by ZEFSAII (Michael W. Deem and Ramdas Pophale) SiO2 
 PCOD8150402
Probable space group: C 2/C
;
_chemical_formula_sum "Si O2"
_cell_formula_units_Z 40
_cell_length_a 10.859086
_cell_length_b 16.304451
_cell_length_c 14.457850
_cell_angle_alpha 90.000000
_cell_angle_beta 37.508566
_cell_angle_gamma 90.000000
_cell_volume 1558.600816
_symmetry_space_group_name_H-M "C 2/C"
_symmetry_group_IT_number 15
_symmetry_cell_setting 'monoclinic'
loop_
_space_group_symop_operation_xyz
x,y,z
-x,y,1/2-z
-x,-y,-z
x,-y,1/2+z
1/2+x,1/2+y,z
1/2-x,1/2+y,1/2-z
1/2-x,1/2-y,-z
1/2+x,1/2-y,1/2+z
loop_
_atom_site_type_symbol
_atom_site_label
_atom_site_fract_x
_atom_site_fract_y
_atom_site_fract_z
Si Si1 0.781816 0.224328 0.865281
Si Si2 0.867551 0.195171 0.619150
Si Si3 0.888076 0.409291 0.908397
Si Si4 0.269903 0.118293 0.159850
Si Si5 0.827936 0.923670 0.978228
O O1 0.803186 0.166089 0.760873
O O2 0.000000 0.267909 0.750000
O O3 0.608607 0.294188 0.956770
O O4 0.743378 0.168447 0.978623
O O5 0.764069 0.284539 0.678045
O O6 0.776466 0.131144 0.599307
O O7 0.000000 0.381945 0.750000
O O8 0.047495 0.427324 0.895857
O O9 0.740047 0.482916 0.967562
O O10 0.299766 0.109509 0.032157
O O11 0.065359 0.076088 0.316282
#
# Coordination Sequence:
#
# PCOD8150402 Si02
#       5
#     8   8   8   8   8
#     4  11  26  45  78 110 154 197 258 312 377 445
#     4  11  23  47  76 115 144 200 255 315 373 450
#     4  11  28  49  73 111 152 205 250 308 379 462
#     4  10  24  46  75 112 153 191 261 306 377 451
#     4  11  24  46  77 107 159 195 246 315 386 441
#
# _framework density 25.664042999999999
#
# number of rings (size 3 to 8) (size 9 to 14) (size 15 to 20)
#    0.000    1.200    2.000    1.800    5.600    8.800 
#    3.600    0.000    0.000    0.000    0.000    0.000 
#    0.000    0.000    0.000    0.000    0.000    0.000 
#
# Total GULP energy -247899.534326 kJ/mol
# GULP energy per Si atom -12394.976716 kJ/mol
# Density = 2.560563 g / cm^3
# Si number density = 25.664043 Si / 1000 Ang^3
#
#
#
# Elastic Constant Matrix: (Units=GPa)
#
#
# Indices 1 2 3 4 5 6 
#
# 1 144.6225 47.8057 56.7753 -0.0084 1.4423 0.0027
# 2 47.8057 155.9806 52.4400 0.0069 -9.8468 0.0014
# 3 56.7753 52.4400 138.0216 0.0047 9.5960 0.0062
# 4 -0.0084 0.0069 0.0047 16.2875 -0.0039 8.3954
# 5 1.4423 -9.8468 9.5960 -0.0039 52.2193 -0.0043
# 6 0.0027 0.0014 0.0062 8.3954 -0.0043 31.2996
#
#
#
# Elastic Compliance Matrix: (Units=1/GPa)
#
#
# Indices 1 2 3 4 5 6 
#
# 1 0.008605 -0.001661 -0.002908 0.000007 -0.000017 -0.000002
# 2 -0.001661 0.007866 -0.002443 -0.000004 0.001978 0.000002
# 3 -0.002908 -0.002443 0.009518 -0.000003 -0.002129 -0.000001
# 4 0.000007 -0.000004 -0.000003 0.071247 0.000003 -0.019111
# 5 -0.000017 0.001978 -0.002129 0.000003 0.019915 0.000002
# 6 -0.000002 0.000002 -0.000001 -0.019111 0.000002 0.037075
#
#
# Mechanical properties :
#
#
# Convention : Reuss Voigt Hill
#
# Bulk Modulus (GPa) = 83.57003 83.62964 83.59984
# Shear Modulus (GPa) = 29.02957 38.73485 33.88221
#
# Velocity S-wave (km/s) = 3.36689 3.88919 3.63743
# Velocity P-wave (km/s) = 6.91002 7.26807 7.09130
#
# Compressibility (1/GPa) = 0.01196601
#
# Stress axis : x y z
#
# Youngs Moduli (GPa) = 116.20917 127.12440 105.06935
#
# Poissons Ratio (x) = 0.21114 0.30549
# Poissons Ratio (y) = 0.19301 0.25669
# Poissons Ratio (z) = 0.33788 0.31057
#
# Static dielectric constant tensor:
#      x y z
#    x 5.022710 -0.000020 0.271430 
#    y -0.000020 4.181350 0.000020 
#    z 0.271430 0.000020 4.958160 
# 
# 
# High freq. dielectric constant tensor:
#      x y z
#    x 2.044420 0.000000 0.014940 
#    y 0.000000 2.009100 0.000000 
#    z 0.014940 0.000000 2.044560 
# 
# From -- ./inp_files/145381.got.cif
#   From: 2010.06.25/outbox.cif.g09.slc.cpg/sg15_73_cif.got.tgz:145381.got - 2010.06.28 07:06:18.
