data_PCOD8150803
_publ_section_title
;
Structure prediction by ZEFSAII (Michael W. Deem and Ramdas Pophale) SiO2 
 PCOD8150803
Probable space group: C 2/C
;
_chemical_formula_sum "Si O2"
_cell_formula_units_Z 52
_cell_length_a 14.281950
_cell_length_b 23.362967
_cell_length_c 12.248896
_cell_angle_alpha 90.000000
_cell_angle_beta 35.803451
_cell_angle_gamma 90.000000
_cell_volume 2390.964685
_symmetry_space_group_name_H-M "C 2/C"
_symmetry_group_IT_number 15
_symmetry_cell_setting 'monoclinic'
loop_
_space_group_symop_operation_xyz
x,y,z
-x,y,1/2-z
-x,-y,-z
x,-y,1/2+z
1/2+x,1/2+y,z
1/2-x,1/2+y,1/2-z
1/2-x,1/2-y,-z
1/2+x,1/2-y,1/2+z
loop_
_atom_site_type_symbol
_atom_site_label
_atom_site_fract_x
_atom_site_fract_y
_atom_site_fract_z
Si Si1 0.000000 0.155252 0.750000
Si Si2 0.458276 0.310722 0.056220
Si Si3 0.684783 0.955709 0.080880
Si Si4 0.169709 0.584789 0.039296
Si Si5 0.363916 0.636591 0.291743
Si Si6 0.667108 0.886192 0.300537
Si Si7 0.939501 0.702743 0.924702
O O1 0.991334 0.195338 0.864933
O O2 0.167651 0.120128 0.591787
O O3 0.277234 0.331488 0.219275
O O4 0.567348 0.360007 0.896257
O O5 0.475451 0.250054 0.981818
O O6 0.500000 0.939711 0.250000
O O7 0.746068 0.930539 0.139227
O O8 0.710657 0.023124 0.050596
O O9 0.782277 0.925005 0.890996
O O10 0.000000 0.608732 0.250000
O O11 0.135628 0.579658 0.942219
O O12 0.500000 0.649345 0.250000
O O13 0.247009 0.690688 0.415777
O O14 0.508192 0.858245 0.400536
O O15 0.000000 0.722937 0.750000
#
# Coordination Sequence:
#
# PCOD8150803 Si02
#       7
#     4   8   8   8   8   8   8
#     4  10  26  50  64  98 138 176 238 282 318 416
#     4  11  25  41  67  95 133 177 222 279 339 396
#     4  11  22  42  64  99 134 170 217 284 336 401
#     4  10  26  44  71  95 134 186 227 275 345 399
#     4  12  22  38  66 102 134 166 220 278 340 399
#     4  11  22  45  63  98 136 168 225 282 326 407
#     4  12  23  42  68  99 134 175 219 280 341 402
#
# _framework density 21.748543999999999
#
# number of rings (size 3 to 8) (size 9 to 14) (size 15 to 20)
#    0.000    0.923    4.615    1.385    3.231    5.538 
#    1.385    5.385    0.000    0.000    0.000    0.000 
#    0.000    0.000    0.000    0.000    0.000    0.000 
#
# Total GULP energy -322268.954573 kJ/mol
# GULP energy per Si atom -12394.959791 kJ/mol
# Density = 2.169904 g / cm^3
# Si number density = 21.748544 Si / 1000 Ang^3
#
#
#
# Elastic Constant Matrix: (Units=GPa)
#
#
# Indices 1 2 3 4 5 6 
#
# 1 119.2293 51.5761 53.2306 -0.0012 15.6362 0.0014
# 2 51.5761 90.5195 33.9524 0.0002 10.0779 -0.0003
# 3 53.2306 33.9524 113.1820 -0.0036 4.4520 0.0030
# 4 -0.0012 0.0002 -0.0036 17.6848 0.0016 6.0016
# 5 15.6362 10.0779 4.4520 0.0016 49.9183 -0.0017
# 6 0.0014 -0.0003 0.0030 6.0016 -0.0017 21.7233
#
#
#
# Elastic Compliance Matrix: (Units=1/GPa)
#
#
# Indices 1 2 3 4 5 6 
#
# 1 0.013073 -0.005513 -0.004393 0.000001 -0.002590 -0.000001
# 2 -0.005513 0.015015 -0.001867 -0.000001 -0.001138 0.000001
# 3 -0.004393 -0.001867 0.011432 0.000003 0.000733 -0.000002
# 4 0.000001 -0.000001 0.000003 0.062396 -0.000003 -0.017238
# 5 -0.002590 -0.001138 0.000733 -0.000003 0.021008 0.000002
# 6 -0.000001 0.000001 -0.000002 -0.017238 0.000002 0.050796
#
#
# Mechanical properties :
#
#
# Convention : Reuss Voigt Hill
#
# Bulk Modulus (GPa) = 62.59347 66.71655 64.65501
# Shear Modulus (GPa) = 24.68035 30.14338 27.41187
#
# Velocity S-wave (km/s) = 3.37234 3.72693 3.55406
# Velocity P-wave (km/s) = 6.63375 7.01876 6.82897
#
# Compressibility (1/GPa) = 0.01597611
#
# Stress axis : x y z
#
# Youngs Moduli (GPa) = 76.49588 66.59910 87.47052
#
# Poissons Ratio (x) = 0.36713 0.38423
# Poissons Ratio (y) = 0.42168 0.16330
# Poissons Ratio (z) = 0.33602 0.12433
#
# Static dielectric constant tensor:
#      x y z
#    x 4.094160 0.000000 -0.012830 
#    y 0.000000 3.626760 0.000000 
#    z -0.012830 0.000000 4.293920 
# 
# 
# High freq. dielectric constant tensor:
#      x y z
#    x 1.859660 0.000000 -0.006400 
#    y 0.000000 1.835740 0.000000 
#    z -0.006400 0.000000 1.868680 
# 
# From -- ./inp_files/100941.got.cif
#   From: 2010.06.25/outbox.cif.g09.slc.cpg/sg15_51_cif.got.tgz:100941.got - 2010.06.28 07:06:18.
