data_PCOD8150116
_publ_section_title
;
Structure prediction by ZEFSAII (Michael W. Deem and Ramdas Pophale) SiO2 
 PCOD8150116
Probable space group: C 2/C
;
_chemical_formula_sum "Si O2"
_cell_formula_units_Z 48
_cell_length_a 5.199671
_cell_length_b 17.068979
_cell_length_c 22.471701
_cell_angle_alpha 90.000000
_cell_angle_beta 82.539847
_cell_angle_gamma 90.000000
_cell_volume 1977.550488
_symmetry_space_group_name_H-M "C 2/C"
_symmetry_group_IT_number 15
_symmetry_cell_setting 'monoclinic'
loop_
_space_group_symop_operation_xyz
x,y,z
-x,y,1/2-z
-x,-y,-z
x,-y,1/2+z
1/2+x,1/2+y,z
1/2-x,1/2+y,1/2-z
1/2-x,1/2-y,-z
1/2+x,1/2-y,1/2+z
loop_
_atom_site_type_symbol
_atom_site_label
_atom_site_fract_x
_atom_site_fract_y
_atom_site_fract_z
Si Si1 0.977134 0.548567 0.406359
Si Si2 0.627551 0.722136 0.928572
Si Si3 0.654466 0.696127 0.407782
Si Si4 0.768871 0.475134 0.210361
Si Si5 0.898997 0.193979 0.817122
Si Si6 0.790235 0.932477 0.009996
O O1 0.143841 0.539636 0.340956
O O2 0.159968 0.587338 0.450644
O O3 0.716082 0.602126 0.402422
O O4 0.909872 0.462145 0.433441
O O5 0.369071 0.772290 0.947573
O O6 0.633462 0.693757 0.858873
O O7 0.586206 0.648089 0.972565
O O8 0.871486 0.776875 0.938739
O O9 0.693497 0.738854 0.342508
O O10 0.500000 0.502284 0.250000
O O11 0.728777 0.391776 0.179786
O O12 0.000000 0.466138 0.250000
O O13 0.000000 0.218740 0.750000
O O14 0.000000 0.000000 0.000000
#
# Coordination Sequence:
#
# PCOD8150116 Si02
#       6
#     8   8   8   8   8   8
#     4  11  27  46  69 110 145 191 244 300 379 424
#     4  10  24  44  67  99 139 186 240 288 363 432
#     4  10  25  43  68  99 145 185 231 302 354 442
#     4  11  26  43  75 106 140 190 245 309 363 450
#     4   9  22  39  70  98 133 184 238 294 356 430
#     4  11  26  44  76 102 148 197 244 311 355 452
#
# _framework density 24.272449999999999
#
# number of rings (size 3 to 8) (size 9 to 14) (size 15 to 20)
#    1.000    0.667    0.000    2.000   18.667    2.000 
#    0.000    0.000    0.000    0.000    0.000    0.000 
#    0.000    0.000    0.000    0.000    0.000    0.000 
#
# Total GULP energy -297344.336102 kJ/mol
# GULP energy per Si atom -12389.347338 kJ/mol
# Density = 2.421720 g / cm^3
# Si number density = 24.272450 Si / 1000 Ang^3
#
#
#
# Elastic Constant Matrix: (Units=GPa)
#
#
# Indices 1 2 3 4 5 6 
#
# 1 153.2555 41.5394 43.2608 0.0000 9.2760 0.0000
# 2 41.5394 115.3259 64.6540 0.0000 -3.3521 0.0000
# 3 43.2608 64.6540 90.4529 0.0000 7.9901 0.0000
# 4 0.0000 0.0000 0.0000 31.4073 0.0000 -9.4243
# 5 9.2760 -3.3521 7.9901 0.0000 36.2130 0.0000
# 6 0.0000 0.0000 0.0000 -9.4243 0.0000 54.1670
#
#
#
# Elastic Compliance Matrix: (Units=1/GPa)
#
#
# Indices 1 2 3 4 5 6 
#
# 1 0.007718 -0.001388 -0.002563 0.000000 -0.001540 0.000000
# 2 -0.001388 0.015220 -0.010577 0.000000 0.004098 0.000000
# 3 -0.002563 -0.010577 0.020265 0.000000 -0.004794 0.000000
# 4 0.000000 0.000000 0.000000 0.033594 0.000000 0.005845
# 5 -0.001540 0.004098 -0.004794 0.000000 0.029446 0.000000
# 6 0.000000 0.000000 0.000000 0.005845 0.000000 0.019478
#
#
# Mechanical properties :
#
#
# Convention : Reuss Voigt Hill
#
# Bulk Modulus (GPa) = 70.68795 73.10474 71.89635
# Shear Modulus (GPa) = 31.34944 38.32946 34.83945
#
# Velocity S-wave (km/s) = 3.59773 3.97814 3.79271
# Velocity P-wave (km/s) = 6.81500 7.16133 6.99031
#
# Compressibility (1/GPa) = 0.01414668
#
# Stress axis : x y z
#
# Youngs Moduli (GPa) = 129.56801 65.70422 49.34557
#
# Poissons Ratio (x) = 0.09117 0.12649
# Poissons Ratio (y) = 0.17979 0.52193
# Poissons Ratio (z) = 0.33214 0.69496
#
# Static dielectric constant tensor:
#      x y z
#    x 4.353610 0.000000 -0.022320 
#    y 0.000000 4.306480 0.000000 
#    z -0.022320 0.000000 4.397910 
# 
# 
# High freq. dielectric constant tensor:
#      x y z
#    x 1.963640 0.000000 -0.000950 
#    y 0.000000 1.966070 0.000000 
#    z -0.000950 0.000000 1.970600 
# 
# From -- ./inp_files/285686.got.cif
#   From: 2010.06.25/outbox.cif.g09.slc.cpg/sg15_143_cif.got.tgz:285686.got - 2010.06.28 07:06:18.
