data_PCOD8150726
_publ_section_title
;
Structure prediction by ZEFSAII (Michael W. Deem and Ramdas Pophale) SiO2 
 PCOD8150726
Probable space group: C 2/C
;
_chemical_formula_sum "Si O2"
_cell_formula_units_Z 40
_cell_length_a 19.025128
_cell_length_b 17.907534
_cell_length_c 11.783871
_cell_angle_alpha 90.000000
_cell_angle_beta 24.793037
_cell_angle_gamma 90.000000
_cell_volume 1683.524591
_symmetry_space_group_name_H-M "C 2/C"
_symmetry_group_IT_number 15
_symmetry_cell_setting 'monoclinic'
loop_
_space_group_symop_operation_xyz
x,y,z
-x,y,1/2-z
-x,-y,-z
x,-y,1/2+z
1/2+x,1/2+y,z
1/2-x,1/2+y,1/2-z
1/2-x,1/2-y,-z
1/2+x,1/2-y,1/2+z
loop_
_atom_site_type_symbol
_atom_site_label
_atom_site_fract_x
_atom_site_fract_y
_atom_site_fract_z
Si Si1 0.000000 0.582127 0.750000
Si Si2 0.267872 0.804191 0.701244
Si Si3 0.302533 0.667399 0.954454
Si Si4 0.984557 0.831831 0.966659
Si Si5 0.344060 0.981075 0.806234
Si Si6 0.500000 0.548873 0.250000
O O1 0.092730 0.631931 0.519266
O O2 0.139974 0.530220 0.603540
O O3 0.144574 0.825930 0.989045
O O4 0.361343 0.726616 0.588095
O O5 0.163679 0.794095 0.736815
O O6 0.149786 0.607449 0.174680
O O7 0.250000 0.750000 0.000000
O O8 0.426851 0.637877 0.674822
O O9 0.004780 0.901440 0.855454
O O10 0.500000 0.000000 0.500000
O O11 0.165863 0.997582 0.005972
#
# Coordination Sequence:
#
# PCOD8150726 Si02
#       6
#     4   8   8   8   8   4
#     4  12  25  46  75 106 148 196 256 322 383 460
#     4  11  24  46  72 108 148 199 250 316 385 462
#     4  10  25  48  72 105 148 196 250 311 381 462
#     4  11  26  45  74 107 152 197 254 313 386 461
#     4  12  28  49  76 110 153 199 256 322 391 458
#     4  12  29  46  75 112 148 196 256 316 387 458
#
# _framework density 23.759677
#
# number of rings (size 3 to 8) (size 9 to 14) (size 15 to 20)
#    0.000    0.800    4.000    1.200    8.400    2.400 
#    7.200    0.000    0.000    0.000    0.000    0.000 
#    0.000    0.000    0.000    0.000    0.000    0.000 
#
# Total GULP energy -247852.798155 kJ/mol
# GULP energy per Si atom -12392.639908 kJ/mol
# Density = 2.370560 g / cm^3
# Si number density = 23.759677 Si / 1000 Ang^3
#
#
#
# Elastic Constant Matrix: (Units=GPa)
#
#
# Indices 1 2 3 4 5 6 
#
# 1 112.2628 38.7157 57.7844 -0.0001 -5.1656 -0.0002
# 2 38.7157 135.3138 57.1769 0.0021 5.1376 -0.0008
# 3 57.7844 57.1769 107.5878 0.0055 -2.7233 -0.0004
# 4 -0.0001 0.0021 0.0055 35.7411 -0.0019 -2.4564
# 5 -5.1656 5.1376 -2.7233 -0.0019 47.6279 0.0002
# 6 -0.0002 -0.0008 -0.0004 -2.4564 0.0002 23.9905
#
#
#
# Elastic Compliance Matrix: (Units=1/GPa)
#
#
# Indices 1 2 3 4 5 6 
#
# 1 0.012462 -0.001021 -0.006123 0.000001 0.001112 0.000000
# 2 -0.001021 0.009698 -0.004641 0.000000 -0.001422 0.000000
# 3 -0.006123 -0.004641 0.015068 -0.000002 0.000698 0.000000
# 4 0.000001 0.000000 -0.000002 0.028177 0.000001 0.002885
# 5 0.001112 -0.001422 0.000698 0.000001 0.021310 0.000000
# 6 0.000000 0.000000 0.000000 0.002885 0.000000 0.041979
#
#
# Mechanical properties :
#
#
# Convention : Reuss Voigt Hill
#
# Bulk Modulus (GPa) = 73.21999 73.61315 73.41657
# Shear Modulus (GPa) = 31.88450 34.90439 33.39444
#
# Velocity S-wave (km/s) = 3.66725 3.83699 3.75308
# Velocity P-wave (km/s) = 6.98680 7.11896 7.05319
#
# Compressibility (1/GPa) = 0.01365747
#
# Stress axis : x y z
#
# Youngs Moduli (GPa) = 80.24125 103.11915 66.36747
#
# Poissons Ratio (x) = 0.10525 0.40636
# Poissons Ratio (y) = 0.08190 0.30804
# Poissons Ratio (z) = 0.49131 0.47862
#
# Static dielectric constant tensor:
#      x y z
#    x 4.642710 -0.000010 0.332120 
#    y -0.000010 4.277590 0.000000 
#    z 0.332120 0.000000 4.457160 
# 
# 
# High freq. dielectric constant tensor:
#      x y z
#    x 1.954460 0.000000 0.012460 
#    y 0.000000 1.946030 0.000000 
#    z 0.012460 0.000000 1.942460 
# 
# From -- ./inp_files/106870.got.cif
#   From: 2010.06.25/outbox.cif.g09.slc.cpg/sg15_54_cif.got.tgz:106870.got - 2010.06.28 07:06:18.
