data_PCOD8150805
_publ_section_title
;
Structure prediction by ZEFSAII (Michael W. Deem and Ramdas Pophale) SiO2 
 PCOD8150805
Probable space group: C 2/C
;
_chemical_formula_sum "Si O2"
_cell_formula_units_Z 36
_cell_length_a 27.961276
_cell_length_b 4.954428
_cell_length_c 21.444026
_cell_angle_alpha 90.000000
_cell_angle_beta 149.108809
_cell_angle_gamma 90.000000
_cell_volume 1525.178178
_symmetry_space_group_name_H-M "C 2/C"
_symmetry_group_IT_number 15
_symmetry_cell_setting 'monoclinic'
loop_
_space_group_symop_operation_xyz
x,y,z
-x,y,1/2-z
-x,-y,-z
x,-y,1/2+z
1/2+x,1/2+y,z
1/2-x,1/2+y,1/2-z
1/2-x,1/2-y,-z
1/2+x,1/2-y,1/2+z
loop_
_atom_site_type_symbol
_atom_site_label
_atom_site_fract_x
_atom_site_fract_y
_atom_site_fract_z
Si Si1 0.471822 0.930137 0.086003
Si Si2 0.310696 0.213372 0.322221
Si Si3 0.500000 0.682421 0.250000
Si Si4 0.688974 0.497466 0.413224
Si Si5 0.916804 0.939115 0.325206
O O1 0.480827 0.870349 0.169136
O O2 0.536064 0.732396 0.116027
O O3 0.504921 0.236221 0.113637
O O4 0.365574 0.891781 0.944641
O O5 0.240696 0.452125 0.264627
O O6 0.381674 0.339606 0.352168
O O7 0.590031 0.496315 0.338424
O O8 0.750000 0.250000 0.500000
O O9 0.670862 0.472892 0.319119
O O10 0.750000 0.750000 0.500000
#
# Coordination Sequence:
#
# PCOD8150805 Si02
#       5
#     8   8   4   8   8
#     4  11  24  45  70  98 139 187 232 293 348 439
#     4  12  26  42  70 103 138 182 237 297 351 422
#     4  10  26  44  72 104 142 186 238 284 372 416
#     4  11  25  42  70 101 142 184 230 294 347 432
#     4  11  24  45  68  99 137 185 237 284 366 411
#
# _framework density 23.603797
#
# number of rings (size 3 to 8) (size 9 to 14) (size 15 to 20)
#    0.000    0.889    0.000    6.667    6.222    8.000 
#    0.000    0.000    0.000    0.000    0.000    0.000 
#    0.000    0.000    0.000    0.000    0.000    0.000 
#
# Total GULP energy -223268.032000 kJ/mol
# GULP energy per Si atom -12403.779556 kJ/mol
# Density = 2.355007 g / cm^3
# Si number density = 23.603797 Si / 1000 Ang^3
#
#
#
# Elastic Constant Matrix: (Units=GPa)
#
#
# Indices 1 2 3 4 5 6 
#
# 1 90.0283 -7.8356 29.1453 -0.0001 -0.3267 -0.0021
# 2 -7.8356 106.7051 36.5344 0.0008 5.7105 0.0017
# 3 29.1453 36.5344 142.6441 -0.0018 -2.9913 -0.0005
# 4 -0.0001 0.0008 -0.0018 47.9615 -0.0003 6.7960
# 5 -0.3267 5.7105 -2.9913 -0.0003 35.6571 -0.0006
# 6 -0.0021 0.0017 -0.0005 6.7960 -0.0006 24.9152
#
#
#
# Elastic Compliance Matrix: (Units=1/GPa)
#
#
# Indices 1 2 3 4 5 6 
#
# 1 0.012252 0.001956 -0.003014 0.000000 -0.000454 0.000001
# 2 0.001956 0.010711 -0.003184 0.000000 -0.001964 -0.000001
# 3 -0.003014 -0.003184 0.008467 0.000000 0.001193 0.000000
# 4 0.000000 0.000000 0.000000 0.021688 0.000000 -0.005916
# 5 -0.000454 -0.001964 0.001193 0.000000 0.028455 0.000001
# 6 0.000001 -0.000001 0.000000 -0.005916 0.000001 0.041750
#
#
# Mechanical properties :
#
#
# Convention : Reuss Voigt Hill
#
# Bulk Modulus (GPa) = 43.58204 50.56286 47.07245
# Shear Modulus (GPa) = 35.85388 40.47566 38.16477
#
# Velocity S-wave (km/s) = 3.90165 4.14550 4.02542
# Velocity P-wave (km/s) = 6.22906 6.66195 6.44914
#
# Compressibility (1/GPa) = 0.02294523
#
# Stress axis : x y z
#
# Youngs Moduli (GPa) = 81.62023 93.36585 118.10910
#
# Poissons Ratio (x) = -0.18261 0.35595
# Poissons Ratio (y) = -0.15964 0.37606
# Poissons Ratio (z) = 0.24599 0.29728
#
# Static dielectric constant tensor:
#      x y z
#    x 4.321950 -0.000010 -0.169470 
#    y -0.000010 4.238180 0.000000 
#    z -0.169470 0.000000 4.818640 
# 
# 
# High freq. dielectric constant tensor:
#      x y z
#    x 1.922750 0.000000 -0.003380 
#    y 0.000000 1.946300 0.000000 
#    z -0.003380 0.000000 1.957780 
# 
# From -- ./inp_files/170414.got.cif
#   From: 2010.06.25/outbox.cif.g09.slc.cpg/sg15_86_cif.got.tgz:170414.got - 2010.06.28 07:06:18.
