data_PCOD8150119
_publ_section_title
;
Structure prediction by ZEFSAII (Michael W. Deem and Ramdas Pophale) SiO2 
 PCOD8150119
Probable space group: C 2/C
;
_chemical_formula_sum "Si O2"
_cell_formula_units_Z 60
_cell_length_a 11.277094
_cell_length_b 8.249925
_cell_length_c 30.720266
_cell_angle_alpha 90.000000
_cell_angle_beta 98.940684
_cell_angle_gamma 90.000000
_cell_volume 2823.339291
_symmetry_space_group_name_H-M "C 2/C"
_symmetry_group_IT_number 15
_symmetry_cell_setting 'monoclinic'
loop_
_space_group_symop_operation_xyz
x,y,z
-x,y,1/2-z
-x,-y,-z
x,-y,1/2+z
1/2+x,1/2+y,z
1/2-x,1/2+y,1/2-z
1/2-x,1/2-y,-z
1/2+x,1/2-y,1/2+z
loop_
_atom_site_type_symbol
_atom_site_label
_atom_site_fract_x
_atom_site_fract_y
_atom_site_fract_z
Si Si1 0.059599 0.399768 0.942054
Si Si2 0.369775 0.326943 0.890241
Si Si3 0.329048 0.921614 0.460827
Si Si4 0.323315 0.399601 0.670020
Si Si5 0.910562 0.574228 0.817456
Si Si6 0.653512 0.951071 0.365947
Si Si7 0.590214 0.552163 0.909048
Si Si8 0.000000 0.221013 0.250000
O O1 0.116712 0.539633 0.914928
O O2 0.047127 0.235853 0.913778
O O3 0.927243 0.451374 0.949465
O O4 0.145732 0.371463 0.988248
O O5 0.321771 0.239096 0.930636
O O6 0.414291 0.202854 0.856754
O O7 0.265530 0.433543 0.862565
O O8 0.479992 0.435522 0.912182
O O9 0.196807 0.000137 0.448509
O O10 0.197037 0.447197 0.684892
O O11 0.308075 0.231230 0.643711
O O12 0.362004 0.538088 0.637998
O O13 0.423970 0.391096 0.713148
O O14 0.041314 0.488576 0.829601
O O15 0.905417 0.666444 0.770989
#
# Coordination Sequence:
#
# PCOD8150119 Si02
#       8
#     8   8   8   8   8   8   8   4
#     4  11  23  43  67  95 140 174 228 272 324 378
#     4  12  24  39  69  96 135 177 221 264 330 388
#     4  11  24  44  62  99 139 176 223 281 313 386
#     4  11  23  46  73  94 137 172 216 270 339 394
#     4  11  23  47  67  97 135 170 214 273 329 399
#     4  11  23  41  66  97 131 182 215 265 323 389
#     4  12  23  41  68  97 130 182 214 270 329 390
#     4  10  24  44  68 104 132 160 216 280 332 400
#
# _framework density 21.251431
#
# number of rings (size 3 to 8) (size 9 to 14) (size 15 to 20)
#    0.000    0.800    6.667    0.400    3.733    2.667 
#    0.000    2.000    0.000    0.800    0.000    0.000 
#    0.000    0.000    0.000    0.000    0.000    0.000 
#
# Total GULP energy -372085.072227 kJ/mol
# GULP energy per Si atom -12402.835741 kJ/mol
# Density = 2.120306 g / cm^3
# Si number density = 21.251431 Si / 1000 Ang^3
#
#
#
# Elastic Constant Matrix: (Units=GPa)
#
#
# Indices 1 2 3 4 5 6 
#
# 1 116.0775 42.9515 22.1927 0.0000 26.2080 0.0000
# 2 42.9515 94.1923 46.1991 0.0000 13.6596 0.0000
# 3 22.1927 46.1991 108.3325 0.0000 10.9859 0.0000
# 4 0.0000 0.0000 0.0000 32.9047 0.0000 0.1089
# 5 26.2080 13.6596 10.9859 0.0000 34.8161 0.0000
# 6 0.0000 0.0000 0.0000 0.1089 0.0000 28.1073
#
#
#
# Elastic Compliance Matrix: (Units=1/GPa)
#
#
# Indices 1 2 3 4 5 6 
#
# 1 0.011861 -0.004459 0.000207 0.000000 -0.007244 0.000000
# 2 -0.004459 0.015546 -0.005618 0.000000 -0.000970 0.000000
# 3 0.000207 -0.005618 0.011753 0.000000 -0.001660 0.000000
# 4 0.000000 0.000000 0.000000 0.030391 0.000000 -0.000118
# 5 -0.007244 -0.000970 -0.001660 0.000000 0.035080 0.000000
# 6 0.000000 0.000000 0.000000 -0.000118 0.000000 0.035578
#
#
# Mechanical properties :
#
#
# Convention : Reuss Voigt Hill
#
# Bulk Modulus (GPa) = 51.49760 60.14321 55.82041
# Shear Modulus (GPa) = 30.04386 32.98288 31.51337
#
# Velocity S-wave (km/s) = 3.76404 3.94386 3.85500
# Velocity P-wave (km/s) = 6.57083 7.00720 6.79252
#
# Compressibility (1/GPa) = 0.01941838
#
# Stress axis : x y z
#
# Youngs Moduli (GPa) = 84.30917 64.32471 85.08736
#
# Poissons Ratio (x) = 0.28685 -0.01757
# Poissons Ratio (y) = 0.37597 0.47801
# Poissons Ratio (z) = -0.01741 0.36137
#
# Static dielectric constant tensor:
#      x y z
#    x 4.104620 0.000000 -0.009720 
#    y 0.000000 3.724670 0.000000 
#    z -0.009720 0.000000 3.912830 
# 
# 
# High freq. dielectric constant tensor:
#      x y z
#    x 1.855020 0.000000 0.002500 
#    y 0.000000 1.820960 0.000000 
#    z 0.002500 0.000000 1.828800 
# 
# From -- ./inp_files/310017.got.cif
#   From: 2010.06.25/outbox.cif.g09.slc.cpg/sg15_156_cif.got.tgz:310017.got - 2010.06.28 07:06:18.
