data_PCOD8150872
_publ_section_title
;
Structure prediction by ZEFSAII (Michael W. Deem and Ramdas Pophale) SiO2 
 PCOD8150872
Probable space group: C 2/C
;
_chemical_formula_sum "Si O2"
_cell_formula_units_Z 52
_cell_length_a 19.912155
_cell_length_b 9.296738
_cell_length_c 26.081408
_cell_angle_alpha 90.000000
_cell_angle_beta 149.973155
_cell_angle_gamma 90.000000
_cell_volume 2416.029002
_symmetry_space_group_name_H-M "C 2/C"
_symmetry_group_IT_number 15
_symmetry_cell_setting 'monoclinic'
loop_
_space_group_symop_operation_xyz
x,y,z
-x,y,1/2-z
-x,-y,-z
x,-y,1/2+z
1/2+x,1/2+y,z
1/2-x,1/2+y,1/2-z
1/2-x,1/2-y,-z
1/2+x,1/2-y,1/2+z
loop_
_atom_site_type_symbol
_atom_site_label
_atom_site_fract_x
_atom_site_fract_y
_atom_site_fract_z
Si Si1 0.825497 0.705595 0.690611
Si Si2 0.885986 0.123208 0.750761
Si Si3 0.000000 0.915604 0.750000
Si Si4 0.070178 0.435211 0.686432
Si Si5 0.327918 0.598077 0.288295
Si Si6 0.030910 0.154251 0.501397
Si Si7 0.079635 0.599043 0.512551
O O1 0.877913 0.802914 0.677872
O O2 0.925288 0.573418 0.772204
O O3 0.790525 0.808707 0.714804
O O4 0.680616 0.651840 0.578162
O O5 0.937648 0.287725 0.785500
O O6 0.740355 0.105035 0.626821
O O7 0.000300 0.024223 0.798677
O O8 0.876052 0.060999 0.801943
O O9 0.206427 0.432452 0.745232
O O10 0.947121 0.447436 0.564451
O O11 0.438768 0.690981 0.391601
O O12 0.991327 0.249397 0.524176
O O13 0.000000 0.000000 0.500000
O O14 0.000000 0.500000 0.500000
#
# Coordination Sequence:
#
# PCOD8150872 Si02
#       7
#     8   8   4   8   8   8   8
#     4  11  23  41  60  91 128 164 205 252 303 381
#     4  11  23  42  60  88 128 164 206 254 297 374
#     4  10  26  48  62  76 126 184 208 244 304 356
#     4  12  21  36  64  97 124 154 203 260 322 358
#     4  11  20  36  61  95 129 154 192 253 327 368
#     4  12  21  34  61  97 127 152 195 255 323 375
#     4  12  21  34  61  96 126 155 197 253 319 370
#
# _framework density 21.522919999999999
#
# number of rings (size 3 to 8) (size 9 to 14) (size 15 to 20)
#    0.000    0.615    6.154    3.692    0.000    0.615 
#    0.000    7.692    0.000    0.000    0.000    0.000 
#    0.000    0.000    0.000    0.000    0.000    0.000 
#
# Total GULP energy -322110.805401 kJ/mol
# GULP energy per Si atom -12388.877131 kJ/mol
# Density = 2.147393 g / cm^3
# Si number density = 21.522920 Si / 1000 Ang^3
#
#
#
# Elastic Constant Matrix: (Units=GPa)
#
#
# Indices 1 2 3 4 5 6 
#
# 1 83.5728 42.8129 26.9699 0.0000 12.3493 0.0000
# 2 42.8129 137.5456 1.1440 0.0001 6.1828 0.0000
# 3 26.9699 1.1440 82.9481 0.0001 -10.3700 0.0000
# 4 0.0000 0.0001 0.0001 27.4158 -0.0001 -1.7055
# 5 12.3493 6.1828 -10.3700 -0.0001 20.9353 0.0000
# 6 0.0000 0.0000 0.0000 -1.7055 0.0000 32.4013
#
#
#
# Elastic Compliance Matrix: (Units=1/GPa)
#
#
# Indices 1 2 3 4 5 6 
#
# 1 0.019265 -0.005314 -0.007905 0.000000 -0.013710 0.000000
# 2 -0.005314 0.008847 0.001782 0.000000 0.001405 0.000000
# 3 -0.007905 0.001782 0.016116 0.000000 0.012120 0.000000
# 4 0.000000 0.000000 0.000000 0.036595 0.000000 0.001926
# 5 -0.013710 0.001405 0.012120 0.000000 0.061442 0.000000
# 6 0.000000 0.000000 0.000000 0.001926 0.000000 0.030964
#
#
# Mechanical properties :
#
#
# Convention : Reuss Voigt Hill
#
# Bulk Modulus (GPa) = 46.83172 49.54669 48.18920
# Shear Modulus (GPa) = 24.60367 31.69312 28.14840
#
# Velocity S-wave (km/s) = 3.38470 3.84152 3.62032
# Velocity P-wave (km/s) = 6.08943 6.53810 6.31775
#
# Compressibility (1/GPa) = 0.02135305
#
# Stress axis : x y z
#
# Youngs Moduli (GPa) = 51.90796 113.03855 62.04850
#
# Poissons Ratio (x) = 0.60074 0.49046
# Poissons Ratio (y) = 0.27586 -0.11054
# Poissons Ratio (z) = 0.41031 -0.20138
#
# Static dielectric constant tensor:
#      x y z
#    x 3.631580 0.000000 0.067220 
#    y 0.000000 4.272380 0.000000 
#    z 0.067220 0.000000 3.617860 
# 
# 
# High freq. dielectric constant tensor:
#      x y z
#    x 1.813100 0.000000 -0.004410 
#    y 0.000000 1.872900 0.000000 
#    z -0.004410 0.000000 1.831910 
# 
# From -- ./inp_files/166209.got.cif
#   From: 2010.06.25/outbox.cif.g09.slc.cpg/sg15_84_cif.got.tgz:166209.got - 2010.06.28 07:06:18.
