data_PCOD8150829
_publ_section_title
;
Structure prediction by ZEFSAII (Michael W. Deem and Ramdas Pophale) SiO2 
 PCOD8150829
Probable space group: C 2/C
;
_chemical_formula_sum "Si O2"
_cell_formula_units_Z 36
_cell_length_a 27.422021
_cell_length_b 9.784125
_cell_length_c 8.280864
_cell_angle_alpha 90.000000
_cell_angle_beta 137.536019
_cell_angle_gamma 90.000000
_cell_volume 1499.969103
_symmetry_space_group_name_H-M "C 2/C"
_symmetry_group_IT_number 15
_symmetry_cell_setting 'monoclinic'
loop_
_space_group_symop_operation_xyz
x,y,z
-x,y,1/2-z
-x,-y,-z
x,-y,1/2+z
1/2+x,1/2+y,z
1/2-x,1/2+y,1/2-z
1/2-x,1/2-y,-z
1/2+x,1/2-y,1/2+z
loop_
_atom_site_type_symbol
_atom_site_label
_atom_site_fract_x
_atom_site_fract_y
_atom_site_fract_z
Si Si1 0.368166 0.401988 0.739560
Si Si2 0.601017 0.863684 0.768169
Si Si3 0.798400 0.856915 0.888628
Si Si4 0.500000 0.304489 0.250000
Si Si5 0.134497 0.355346 0.495371
O O1 0.303145 0.377027 0.707134
O O2 0.355386 0.545483 0.620648
O O3 0.369308 0.285330 0.608608
O O4 0.443151 0.403379 0.021880
O O5 0.536180 0.792878 0.705564
O O6 0.588242 0.844578 0.546117
O O7 0.677509 0.797373 0.009517
O O8 0.602390 0.024833 0.806818
O O9 0.717395 0.885486 0.747491
#
# Coordination Sequence:
#
# PCOD8150829 Si02
#       5
#     8   8   8   4   8
#     4  11  24  41  67  94 135 170 209 266 314 389
#     4  11  24  40  65  92 131 170 213 266 315 385
#     4  11  22  42  66  99 128 165 215 269 328 374
#     4  10  26  46  62  96 130 176 220 250 320 384
#     4  12  23  41  67  98 127 168 214 271 327 372
#
# _framework density 24.000494
#
# number of rings (size 3 to 8) (size 9 to 14) (size 15 to 20)
#    0.000    0.889    0.000    8.000    0.000    8.000 
#    0.000    0.000    0.000    0.000    0.000    0.000 
#    0.000    0.000    0.000    0.000    0.000    0.000 
#
# Total GULP energy -223318.941391 kJ/mol
# GULP energy per Si atom -12406.607855 kJ/mol
# Density = 2.394587 g / cm^3
# Si number density = 24.000494 Si / 1000 Ang^3
#
#
#
# Elastic Constant Matrix: (Units=GPa)
#
#
# Indices 1 2 3 4 5 6 
#
# 1 134.8074 16.5887 45.9597 0.0000 -29.6857 0.0000
# 2 16.5887 72.2381 23.7840 0.0000 -8.9234 0.0000
# 3 45.9597 23.7840 98.3866 0.0000 -9.8425 0.0000
# 4 0.0000 0.0000 0.0000 41.7074 0.0000 -9.5722
# 5 -29.6857 -8.9234 -9.8425 0.0000 52.4672 0.0000
# 6 0.0000 0.0000 0.0000 -9.5722 0.0000 29.1252
#
#
#
# Elastic Compliance Matrix: (Units=1/GPa)
#
#
# Indices 1 2 3 4 5 6 
#
# 1 0.009898 -0.000345 -0.004062 0.000000 0.004779 0.000000
# 2 -0.000345 0.015243 -0.003347 0.000000 0.001769 0.000000
# 3 -0.004062 -0.003347 0.012824 0.000000 -0.000462 0.000000
# 4 0.000000 0.000000 0.000000 0.025933 0.000000 0.008523
# 5 0.004779 0.001769 -0.000462 0.000000 0.021978 0.000000
# 6 0.000000 0.000000 0.000000 0.008523 0.000000 0.037136
#
#
# Mechanical properties :
#
#
# Convention : Reuss Voigt Hill
#
# Bulk Modulus (GPa) = 44.52873 53.12188 48.82530
# Shear Modulus (GPa) = 34.24555 39.26661 36.75608
#
# Velocity S-wave (km/s) = 3.78149 4.04923 3.91765
# Velocity P-wave (km/s) = 6.13675 6.63652 6.39152
#
# Compressibility (1/GPa) = 0.02245741
#
# Stress axis : x y z
#
# Youngs Moduli (GPa) = 101.03268 65.60484 77.97690
#
# Poissons Ratio (x) = 0.02264 0.31674
# Poissons Ratio (y) = 0.03487 0.26095
# Poissons Ratio (z) = 0.41040 0.21955
#
# Static dielectric constant tensor:
#      x y z
#    x 4.546200 0.000000 -0.123570 
#    y 0.000000 4.163140 0.000000 
#    z -0.123570 0.000000 4.196150 
# 
# 
# High freq. dielectric constant tensor:
#      x y z
#    x 1.968040 0.000000 -0.014510 
#    y 0.000000 1.953040 0.000000 
#    z -0.014510 0.000000 1.948310 
# 
# From -- ./inp_files/59776.got.cif
#   From: 2010.06.25/outbox.cif.g09.slc.cpg/sg15_30_cif.got.tgz:59776.got - 2010.06.28 07:06:18.
