data_PCOD8150988
_publ_section_title
;
Structure prediction by ZEFSAII (Michael W. Deem and Ramdas Pophale) SiO2 
 PCOD8150988
Probable space group: C 2/C
;
_chemical_formula_sum "Si O2"
_cell_formula_units_Z 52
_cell_length_a 18.409469
_cell_length_b 13.390097
_cell_length_c 14.338505
_cell_angle_alpha 90.000000
_cell_angle_beta 129.921407
_cell_angle_gamma 90.000000
_cell_volume 2710.703399
_symmetry_space_group_name_H-M "C 2/C"
_symmetry_group_IT_number 15
_symmetry_cell_setting 'monoclinic'
loop_
_space_group_symop_operation_xyz
x,y,z
-x,y,1/2-z
-x,-y,-z
x,-y,1/2+z
1/2+x,1/2+y,z
1/2-x,1/2+y,1/2-z
1/2-x,1/2-y,-z
1/2+x,1/2-y,1/2+z
loop_
_atom_site_type_symbol
_atom_site_label
_atom_site_fract_x
_atom_site_fract_y
_atom_site_fract_z
Si Si1 0.893868 0.725151 0.640793
Si Si2 0.243585 0.113508 0.222281
Si Si3 0.000000 0.958048 0.250000
Si Si4 0.858459 0.779871 0.408422
Si Si5 0.682571 0.571828 0.364556
Si Si6 0.221059 0.557811 0.874522
Si Si7 0.032343 0.896262 0.479179
O O1 0.877273 0.713125 0.516414
O O2 0.821804 0.808910 0.619879
O O3 0.871596 0.623522 0.678930
O O4 0.000000 0.758028 0.750000
O O5 0.301090 0.216371 0.283775
O O6 0.237760 0.053512 0.314658
O O7 0.303950 0.041323 0.204070
O O8 0.137491 0.135259 0.098451
O O9 0.036401 0.895780 0.369191
O O10 0.078521 0.028632 0.269945
O O11 0.801434 0.880478 0.385594
O O12 0.959829 0.810095 0.450044
O O13 0.736587 0.518195 0.493194
O O14 0.000000 0.000000 0.500000
#
# Coordination Sequence:
#
# PCOD8150988 Si02
#       7
#     8   8   4   8   8   8   8
#     4  11  20  35  61  88 120 153 200 254 308 357
#     4  12  22  37  63  89 124 159 200 256 309 357
#     4  12  20  34  62  92 120 148 198 254 310 354
#     4  11  22  38  60  93 125 155 202 260 306 359
#     4  11  18  34  59  91 118 147 192 260 306 341
#     4  11  21  36  58  92 119 155 199 250 305 362
#     4  12  22  37  63  94 123 159 205 253 303 363
#
# _framework density 19.183212000000001
#
# number of rings (size 3 to 8) (size 9 to 14) (size 15 to 20)
#    0.000    0.615    8.462    2.769    0.000    0.000 
#    0.000    1.538    1.692    0.000    0.000    0.000 
#    0.000    0.000    0.000    0.000    0.000    0.000 
#
# Total GULP energy -322379.987152 kJ/mol
# GULP energy per Si atom -12399.230275 kJ/mol
# Density = 1.913955 g / cm^3
# Si number density = 19.183212 Si / 1000 Ang^3
#
#
#
# Elastic Constant Matrix: (Units=GPa)
#
#
# Indices 1 2 3 4 5 6 
#
# 1 77.3671 37.4021 34.5628 0.0000 -12.7011 0.0000
# 2 37.4021 51.1164 48.4236 0.0000 -5.3096 0.0000
# 3 34.5628 48.4236 118.1479 0.0000 -16.8973 0.0000
# 4 0.0000 0.0000 0.0000 31.0987 0.0000 3.9904
# 5 -12.7011 -5.3096 -16.8973 0.0000 29.8688 0.0000
# 6 0.0000 0.0000 0.0000 3.9904 0.0000 31.1778
#
#
#
# Elastic Compliance Matrix: (Units=1/GPa)
#
#
# Indices 1 2 3 4 5 6 
#
# 1 0.021251 -0.016151 0.001398 0.000000 0.006956 0.000000
# 2 -0.016151 0.044352 -0.014479 0.000000 -0.007175 0.000000
# 3 0.001398 -0.014479 0.014913 0.000000 0.006457 0.000000
# 4 0.000000 0.000000 0.000000 0.032693 0.000000 -0.004184
# 5 0.006956 -0.007175 0.006457 0.000000 0.038815 0.000000
# 6 0.000000 0.000000 0.000000 -0.004184 0.000000 0.032610
#
#
# Mechanical properties :
#
#
# Convention : Reuss Voigt Hill
#
# Bulk Modulus (GPa) = 45.34948 54.15648 49.75298
# Shear Modulus (GPa) = 19.96415 26.84525 23.40470
#
# Velocity S-wave (km/s) = 3.22950 3.74493 3.49673
# Velocity P-wave (km/s) = 6.13170 6.85506 6.50344
#
# Compressibility (1/GPa) = 0.02205097
#
# Stress axis : x y z
#
# Youngs Moduli (GPa) = 47.05691 22.54681 67.05552
#
# Poissons Ratio (x) = 0.36415 -0.09372
# Poissons Ratio (y) = 0.76001 0.97092
# Poissons Ratio (z) = -0.06577 0.32646
#
# Static dielectric constant tensor:
#      x y z
#    x 3.481830 0.000000 -0.146820 
#    y 0.000000 3.172820 0.000000 
#    z -0.146820 0.000000 3.697890 
# 
# 
# High freq. dielectric constant tensor:
#      x y z
#    x 1.740360 0.000000 -0.007840 
#    y 0.000000 1.705980 0.000000 
#    z -0.007840 0.000000 1.756610 
# 
# From -- ./inp_files/162038.got.cif
#   From: 2010.06.25/outbox.cif.g09.slc.cpg/sg15_82_cif.got.tgz:162038.got - 2010.06.28 07:06:18.
