data_PCOD8150321
_publ_section_title
;
Structure prediction by ZEFSAII (Michael W. Deem and Ramdas Pophale) SiO2 
 PCOD8150321
Probable space group: C 2/C
;
_chemical_formula_sum "Si O2"
_cell_formula_units_Z 40
_cell_length_a 12.642753
_cell_length_b 8.074118
_cell_length_c 18.911533
_cell_angle_alpha 90.000000
_cell_angle_beta 108.483605
_cell_angle_gamma 90.000000
_cell_volume 1830.887355
_symmetry_space_group_name_H-M "C 2/C"
_symmetry_group_IT_number 15
_symmetry_cell_setting 'monoclinic'
loop_
_space_group_symop_operation_xyz
x,y,z
-x,y,1/2-z
-x,-y,-z
x,-y,1/2+z
1/2+x,1/2+y,z
1/2-x,1/2+y,1/2-z
1/2-x,1/2-y,-z
1/2+x,1/2-y,1/2+z
loop_
_atom_site_type_symbol
_atom_site_label
_atom_site_fract_x
_atom_site_fract_y
_atom_site_fract_z
Si Si1 0.013045 0.949656 0.335400
Si Si2 0.987082 0.367589 0.437955
Si Si3 0.821963 0.110280 0.386294
Si Si4 0.069398 0.420257 0.830717
Si Si5 0.155490 0.109519 0.477049
O O1 0.021955 0.753151 0.349387
O O2 0.000000 0.995415 0.250000
O O3 0.124465 0.036878 0.392190
O O4 0.900411 0.005646 0.350908
O O5 0.860502 0.305329 0.396031
O O6 0.000000 0.500000 0.500000
O O7 0.053016 0.434600 0.384103
O O8 0.043295 0.199852 0.479457
O O9 0.696244 0.102003 0.331510
O O10 0.817382 0.040503 0.465213
O O11 0.000000 0.484202 0.750000
O O12 0.250000 0.250000 0.500000
#
# Coordination Sequence:
#
# PCOD8150321 Si02
#       5
#     8   8   8   8   8
#     4  10  24  46  65  98 137 173 221 277 336 401
#     4  11  23  40  67 100 125 172 226 273 331 404
#     4  11  24  45  66  96 138 175 218 281 335 392
#     4  11  25  44  64  98 134 175 227 273 336 403
#     4  11  22  42  68  96 132 175 219 276 331 395
#
# _framework density 21.847329999999999
#
# number of rings (size 3 to 8) (size 9 to 14) (size 15 to 20)
#    0.000    1.200    2.000    4.800    2.800    8.000 
#    7.200    0.000    0.000    0.000    0.000    0.000 
#    0.000    0.000    0.000    0.000    0.000    0.000 
#
# Total GULP energy -247884.569191 kJ/mol
# GULP energy per Si atom -12394.228460 kJ/mol
# Density = 2.179760 g / cm^3
# Si number density = 21.847330 Si / 1000 Ang^3
#
#
#
# Elastic Constant Matrix: (Units=GPa)
#
#
# Indices 1 2 3 4 5 6 
#
# 1 137.8453 32.0778 48.4724 0.0000 11.0641 0.0000
# 2 32.0778 87.2272 26.4561 0.0000 -2.8392 0.0000
# 3 48.4724 26.4561 113.0024 0.0000 8.4974 0.0000
# 4 0.0000 0.0000 0.0000 29.5350 0.0000 3.3930
# 5 11.0641 -2.8392 8.4974 0.0000 30.8502 0.0000
# 6 0.0000 0.0000 0.0000 3.3930 0.0000 42.7590
#
#
#
# Elastic Compliance Matrix: (Units=1/GPa)
#
#
# Indices 1 2 3 4 5 6 
#
# 1 0.009154 -0.002499 -0.003142 0.000000 -0.002647 0.000000
# 2 -0.002499 0.013142 -0.002209 0.000000 0.002714 0.000000
# 3 -0.003142 -0.002209 0.010870 0.000000 -0.002070 0.000000
# 4 0.000000 0.000000 0.000000 0.034170 0.000000 -0.002711
# 5 -0.002647 0.002714 -0.002070 0.000000 0.034184 0.000000
# 6 0.000000 0.000000 0.000000 -0.002711 0.000000 0.023602
#
#
# Mechanical properties :
#
#
# Convention : Reuss Voigt Hill
#
# Bulk Modulus (GPa) = 57.25836 61.34306 59.30071
# Shear Modulus (GPa) = 34.09634 36.03342 35.06488
#
# Velocity S-wave (km/s) = 3.95481 4.06560 4.01059
# Velocity P-wave (km/s) = 6.86435 7.08363 6.97485
#
# Compressibility (1/GPa) = 0.01746470
#
# Stress axis : x y z
#
# Youngs Moduli (GPa) = 109.24715 76.09355 91.99619
#
# Poissons Ratio (x) = 0.19019 0.28907
# Poissons Ratio (y) = 0.27305 0.20320
# Poissons Ratio (z) = 0.34328 0.16807
#
# Static dielectric constant tensor:
#      x y z
#    x 3.976660 0.000000 0.491260 
#    y 0.000000 4.101580 0.000000 
#    z 0.491260 0.000000 3.627800 
# 
# 
# High freq. dielectric constant tensor:
#      x y z
#    x 1.859050 0.000000 0.013960 
#    y 0.000000 1.871610 0.000000 
#    z 0.013960 0.000000 1.856990 
# 
# From -- ./inp_files/195226.got.cif
#   From: 2010.06.25/outbox.cif.g09.slc.cpg/sg15_98_cif.got.tgz:195226.got - 2010.06.28 07:06:18.
