data_PCOD8150760
_publ_section_title
;
Structure prediction by ZEFSAII (Michael W. Deem and Ramdas Pophale) SiO2 
 PCOD8150760
Probable space group: C 2/C
;
_chemical_formula_sum "Si O2"
_cell_formula_units_Z 48
_cell_length_a 8.759015
_cell_length_b 22.762573
_cell_length_c 12.673678
_cell_angle_alpha 90.000000
_cell_angle_beta 63.822708
_cell_angle_gamma 90.000000
_cell_volume 2267.678391
_symmetry_space_group_name_H-M "C 2/C"
_symmetry_group_IT_number 15
_symmetry_cell_setting 'monoclinic'
loop_
_space_group_symop_operation_xyz
x,y,z
-x,y,1/2-z
-x,-y,-z
x,-y,1/2+z
1/2+x,1/2+y,z
1/2-x,1/2+y,1/2-z
1/2-x,1/2-y,-z
1/2+x,1/2-y,1/2+z
loop_
_atom_site_type_symbol
_atom_site_label
_atom_site_fract_x
_atom_site_fract_y
_atom_site_fract_z
Si Si1 0.271835 0.918942 0.555577
Si Si2 0.837908 0.041938 0.861426
Si Si3 0.084621 0.377336 0.335251
Si Si4 0.330278 0.669436 0.244337
Si Si5 0.489160 0.373556 0.491801
Si Si6 0.652007 0.713610 0.784836
O O1 0.447534 0.888347 0.468192
O O2 0.227315 0.890318 0.681281
O O3 0.123472 0.911338 0.515924
O O4 0.284989 0.989296 0.563486
O O5 0.740951 0.078420 0.801562
O O6 0.000000 0.015629 0.750000
O O7 0.887569 0.084625 0.942777
O O8 0.168977 0.312403 0.315132
O O9 0.000000 0.390750 0.250000
O O10 0.500000 0.693378 0.250000
O O11 0.184463 0.718530 0.301913
O O12 0.355148 0.656078 0.112904
O O13 0.596609 0.321462 0.405584
O O14 0.500000 0.706376 0.750000
#
# Coordination Sequence:
#
# PCOD8150760 Si02
#       6
#     8   8   8   8   8   8
#     4  11  25  42  66 101 137 173 221 279 330 390
#     4  12  22  44  69  99 136 174 228 269 331 402
#     4  12  23  42  66  99 126 178 225 272 333 393
#     4  10  26  42  65 101 134 176 221 275 335 389
#     4  11  22  44  69  98 130 181 221 265 344 388
#     4  12  24  44  68  95 129 177 227 276 330 401
#
# _framework density 21.167023
#
# number of rings (size 3 to 8) (size 9 to 14) (size 15 to 20)
#    0.000    0.667    5.000    3.000    2.333    4.667 
#    0.000    0.833    0.000    0.000    0.000    0.000 
#    0.000    0.000    0.000    0.000    0.000    0.000 
#
# Total GULP energy -297658.507322 kJ/mol
# GULP energy per Si atom -12402.437805 kJ/mol
# Density = 2.111885 g / cm^3
# Si number density = 21.167023 Si / 1000 Ang^3
#
#
#
# Elastic Constant Matrix: (Units=GPa)
#
#
# Indices 1 2 3 4 5 6 
#
# 1 90.8120 36.0508 37.9637 0.0000 4.3001 0.0000
# 2 36.0508 121.7017 46.2448 0.0000 6.0429 0.0000
# 3 37.9637 46.2448 110.2326 0.0000 -2.5361 0.0000
# 4 0.0000 0.0000 0.0000 23.2195 0.0000 -5.3182
# 5 4.3001 6.0429 -2.5361 0.0000 33.5034 0.0000
# 6 0.0000 0.0000 0.0000 -5.3182 0.0000 32.3996
#
#
#
# Elastic Compliance Matrix: (Units=1/GPa)
#
#
# Indices 1 2 3 4 5 6 
#
# 1 0.013634 -0.002574 -0.003652 0.000000 -0.001562 0.000000
# 2 -0.002574 0.010407 -0.003521 0.000000 -0.001813 0.000000
# 3 -0.003652 -0.003521 0.011853 0.000000 0.002001 0.000000
# 4 0.000000 0.000000 0.000000 0.044750 0.000000 0.007345
# 5 -0.001562 -0.001813 0.002001 0.000000 0.030527 0.000000
# 6 0.000000 0.000000 0.000000 0.007345 0.000000 0.032070
#
#
# Mechanical properties :
#
#
# Convention : Reuss Voigt Hill
#
# Bulk Modulus (GPa) = 60.97384 62.58499 61.77942
# Shear Modulus (GPa) = 29.72631 31.32363 30.52497
#
# Velocity S-wave (km/s) = 3.75156 3.85103 3.80162
# Velocity P-wave (km/s) = 6.90175 7.02889 6.96561
#
# Compressibility (1/GPa) = 0.01640048
#
# Stress axis : x y z
#
# Youngs Moduli (GPa) = 73.34610 96.08644 84.36856
#
# Poissons Ratio (x) = 0.24728 0.30810
# Poissons Ratio (y) = 0.18876 0.29710
# Poissons Ratio (z) = 0.26784 0.33837
#
# Static dielectric constant tensor:
#      x y z
#    x 3.967140 0.000000 -0.020310 
#    y 0.000000 3.683750 0.000000 
#    z -0.020310 0.000000 3.975420 
# 
# 
# High freq. dielectric constant tensor:
#      x y z
#    x 1.834500 0.000000 0.000690 
#    y 0.000000 1.829970 0.000000 
#    z 0.000690 0.000000 1.832810 
# 
# From -- ./inp_files/79109.got.cif
#   From: 2010.06.25/outbox.cif.g09.slc.cpg/sg15_40_cif.got.tgz:79109.got - 2010.06.28 07:06:18.
