data_PCOD8150993
_publ_section_title
;
Structure prediction by ZEFSAII (Michael W. Deem and Ramdas Pophale) SiO2 
 PCOD8150993
Probable space group: C 2/C
;
_chemical_formula_sum "Si O2"
_cell_formula_units_Z 64
_cell_length_a 23.004803
_cell_length_b 30.657196
_cell_length_c 16.140755
_cell_angle_alpha 90.000000
_cell_angle_beta 160.409954
_cell_angle_gamma 90.000000
_cell_volume 3816.740879
_symmetry_space_group_name_H-M "C 2/C"
_symmetry_group_IT_number 15
_symmetry_cell_setting 'monoclinic'
loop_
_space_group_symop_operation_xyz
x,y,z
-x,y,1/2-z
-x,-y,-z
x,-y,1/2+z
1/2+x,1/2+y,z
1/2-x,1/2+y,1/2-z
1/2-x,1/2-y,-z
1/2+x,1/2-y,1/2+z
loop_
_atom_site_type_symbol
_atom_site_label
_atom_site_fract_x
_atom_site_fract_y
_atom_site_fract_z
Si Si1 0.537399 0.290041 0.162729
Si Si2 0.227163 0.289698 0.858859
Si Si3 0.378663 0.881651 0.735948
Si Si4 0.699144 0.069866 0.645532
Si Si5 0.403933 0.614289 0.785558
Si Si6 0.482106 0.021052 0.631563
Si Si7 0.682178 0.529453 0.532066
Si Si8 0.771207 0.938619 0.830241
O O1 0.653546 0.288632 0.400420
O O2 0.588800 0.249711 0.173027
O O3 0.565783 0.334982 0.149962
O O4 0.338242 0.285574 0.923974
O O5 0.127723 0.335536 0.726044
O O6 0.245440 0.887396 0.482857
O O7 0.352896 0.921185 0.764867
O O8 0.573728 0.888318 0.965552
O O9 0.861869 0.082600 0.806111
O O10 0.761745 0.064838 0.824082
O O11 0.597772 0.027230 0.478206
O O12 0.580380 0.596859 0.982998
O O13 0.500000 0.036054 0.750000
O O14 0.667940 0.023548 0.835347
O O15 0.346564 0.054546 0.408807
O O16 0.645140 0.484083 0.528991
O O17 0.500000 0.545591 0.250000
#
# Coordination Sequence:
#
# PCOD8150993 Si02
#       8
#     8   8   8   8   8   8   8   8
#     4   9  18  31  43  71 100 136 171 204 247 304
#     4   9  18  29  47  66 102 137 170 203 253 301
#     4  11  18  35  51  73 103 145 169 211 255 296
#     4  11  23  36  51  77 104 132 181 217 249 302
#     4  11  22  31  53  78 103 138 179 211 245 306
#     4  11  23  38  54  74 103 134 173 218 262 304
#     4  11  23  38  55  72 103 138 170 216 267 300
#     4  11  21  36  54  73 103 135 177 213 252 302
#
# _framework density 16.768232999999999
#
# number of rings (size 3 to 8) (size 9 to 14) (size 15 to 20)
#    0.000    1.500    3.750    3.000    5.250    1.000 
#    0.000    0.000    0.000    0.000    0.000    0.000 
#    0.000    6.000    0.000    0.000    0.000    0.000 
#
# Total GULP energy -396788.845552 kJ/mol
# GULP energy per Si atom -12399.651424 kJ/mol
# Density = 1.673007 g / cm^3
# Si number density = 16.768233 Si / 1000 Ang^3
#
#
#
# Elastic Constant Matrix: (Units=GPa)
#
#
# Indices 1 2 3 4 5 6 
#
# 1 84.2725 27.1637 22.1561 -0.0002 -0.6104 -0.0003
# 2 27.1637 83.1357 24.7819 0.0000 3.1121 0.0000
# 3 22.1561 24.7819 67.0630 -0.0007 -3.2836 -0.0012
# 4 -0.0002 0.0000 -0.0007 13.4190 -0.0004 0.0797
# 5 -0.6104 3.1121 -3.2836 -0.0004 23.8034 -0.0006
# 6 -0.0003 0.0000 -0.0012 0.0797 -0.0006 11.5299
#
#
#
# Elastic Compliance Matrix: (Units=1/GPa)
#
#
# Indices 1 2 3 4 5 6 
#
# 1 0.013876 -0.003581 -0.003242 0.000000 0.000377 0.000000
# 2 -0.003581 0.014588 -0.004335 0.000000 -0.002597 -0.000001
# 3 -0.003242 -0.004335 0.017728 0.000001 0.002929 0.000002
# 4 0.000000 0.000000 0.000001 0.074524 0.000001 -0.000515
# 5 0.000377 -0.002597 0.002929 0.000001 0.042764 0.000003
# 6 0.000000 -0.000001 0.000002 -0.000515 0.000003 0.086734
#
#
# Mechanical properties :
#
#
# Convention : Reuss Voigt Hill
#
# Bulk Modulus (GPa) = 41.88522 42.51940 42.20231
# Shear Modulus (GPa) = 17.82599 20.44178 19.13389
#
# Velocity S-wave (km/s) = 3.26403 3.49532 3.38165
# Velocity P-wave (km/s) = 6.26405 6.45769 6.36161
#
# Compressibility (1/GPa) = 0.02387477
#
# Stress axis : x y z
#
# Youngs Moduli (GPa) = 72.06778 68.54926 56.40857
#
# Poissons Ratio (x) = 0.24550 0.18290
# Poissons Ratio (y) = 0.25810 0.24452
# Poissons Ratio (z) = 0.23367 0.29714
#
# Static dielectric constant tensor:
#      x y z
#    x 3.112730 0.000000 0.189160 
#    y 0.000000 3.165490 0.000000 
#    z 0.189160 0.000000 3.011080 
# 
# 
# High freq. dielectric constant tensor:
#      x y z
#    x 1.641170 0.000000 0.029690 
#    y 0.000000 1.639210 0.000000 
#    z 0.029690 0.000000 1.625740 
# 
# From -- ./inp_files/149145.got.cif
#   From: 2010.06.25/outbox.cif.g09.slc.cpg/sg15_75_cif.got.tgz:149145.got - 2010.06.28 07:06:18.
