data_PCOD8150036
_publ_section_title
;
Structure prediction by ZEFSAII (Michael W. Deem and Ramdas Pophale) SiO2 
 PCOD8150036
Probable space group: C 2/C
;
_chemical_formula_sum "Si O2"
_cell_formula_units_Z 32
_cell_length_a 15.050728
_cell_length_b 12.607392
_cell_length_c 11.728595
_cell_angle_alpha 90.000000
_cell_angle_beta 40.404823
_cell_angle_gamma 90.000000
_cell_volume 1442.537335
_symmetry_space_group_name_H-M "C 2/C"
_symmetry_group_IT_number 15
_symmetry_cell_setting 'monoclinic'
loop_
_space_group_symop_operation_xyz
x,y,z
-x,y,1/2-z
-x,-y,-z
x,-y,1/2+z
1/2+x,1/2+y,z
1/2-x,1/2+y,1/2-z
1/2-x,1/2-y,-z
1/2+x,1/2-y,1/2+z
loop_
_atom_site_type_symbol
_atom_site_label
_atom_site_fract_x
_atom_site_fract_y
_atom_site_fract_z
Si Si1 0.636619 0.181976 0.043555
Si Si2 0.866961 0.177918 0.436225
Si Si3 0.472043 0.649900 0.007256
Si Si4 0.342604 0.493159 0.301924
O O1 0.500000 0.161114 0.250000
O O2 0.599382 0.243003 0.963778
O O3 0.750000 0.250000 0.000000
O O4 0.698322 0.068864 0.943857
O O5 0.750000 0.250000 0.500000
O O6 0.893178 0.176501 0.546486
O O7 0.852181 0.054895 0.412540
O O8 0.000000 0.230209 0.250000
O O9 0.530513 0.588534 0.839088
O O10 0.356933 0.580639 0.186379
#
# Coordination Sequence:
#
# PCOD8150036 Si02
#       4
#     8   8   8   8
#     4  12  26  44  72 108 144 183 243 296 352 430
#     4  10  24  44  69  99 138 181 229 286 350 424
#     4  10  24  44  74 100 140 190 232 287 367 421
#     4  10  24  43  73 100 138 186 239 284 360 416
#
# _framework density 22.183136000000001
#
# number of rings (size 3 to 8) (size 9 to 14) (size 15 to 20)
#    0.000    1.500    2.500    0.000   21.000    1.000 
#    0.000    5.000    0.000    0.000    0.000    0.000 
#    0.000    0.000    0.000    0.000    0.000    0.000 
#
# Total GULP energy -198268.822451 kJ/mol
# GULP energy per Si atom -12391.801403 kJ/mol
# Density = 2.213265 g / cm^3
# Si number density = 22.183136 Si / 1000 Ang^3
#
#
#
# Elastic Constant Matrix: (Units=GPa)
#
#
# Indices 1 2 3 4 5 6 
#
# 1 163.1574 94.0500 53.9649 0.0000 -0.0885 0.0000
# 2 94.0500 113.0334 54.0871 0.0000 -11.3022 0.0000
# 3 53.9649 54.0871 111.5123 0.0000 -24.1898 0.0000
# 4 0.0000 0.0000 0.0000 39.5046 0.0000 -14.1823
# 5 -0.0885 -11.3022 -24.1898 0.0000 38.6797 0.0000
# 6 0.0000 0.0000 0.0000 -14.1823 0.0000 56.0749
#
#
#
# Elastic Compliance Matrix: (Units=1/GPa)
#
#
# Indices 1 2 3 4 5 6 
#
# 1 0.012475 -0.009735 -0.002229 0.000000 -0.004210 0.000000
# 2 -0.009735 0.019117 -0.003881 0.000000 0.003137 0.000000
# 3 -0.002229 -0.003881 0.013515 0.000000 0.007313 0.000000
# 4 0.000000 0.000000 0.000000 0.027842 0.000000 0.007042
# 5 -0.004210 0.003137 0.007313 0.000000 0.031334 0.000000
# 6 0.000000 0.000000 0.000000 0.007042 0.000000 0.019614
#
#
# Mechanical properties :
#
#
# Convention : Reuss Voigt Hill
#
# Bulk Modulus (GPa) = 74.52404 87.98969 81.25687
# Shear Modulus (GPa) = 31.23829 39.22522 35.23176
#
# Velocity S-wave (km/s) = 3.75667 4.20961 3.98957
# Velocity P-wave (km/s) = 7.24463 7.96109 7.61130
#
# Compressibility (1/GPa) = 0.01341849
#
# Stress axis : x y z
#
# Youngs Moduli (GPa) = 80.15793 52.30811 73.99068
#
# Poissons Ratio (x) = 0.50920 0.16492
# Poissons Ratio (y) = 0.78030 0.28718
# Poissons Ratio (z) = 0.17867 0.20302
#
# Static dielectric constant tensor:
#      x y z
#    x 4.721730 0.000000 -0.687330 
#    y 0.000000 4.143690 0.000000 
#    z -0.687330 0.000000 4.923020 
# 
# 
# High freq. dielectric constant tensor:
#      x y z
#    x 1.866330 0.000000 0.009880 
#    y 0.000000 1.868820 0.000000 
#    z 0.009880 0.000000 1.876420 
# 
# From -- ./inp_files/94295.got.cif
#   From: 2010.06.25/outbox.cif.g09.slc.cpg/sg15_48_cif.got.tgz:94295.got - 2010.06.28 07:06:18.
