data_PCOD8150953
_publ_section_title
;
Structure prediction by ZEFSAII (Michael W. Deem and Ramdas Pophale) SiO2 
 PCOD8150953
Probable space group: C 2/C
;
_chemical_formula_sum "Si O2"
_cell_formula_units_Z 60
_cell_length_a 12.931372
_cell_length_b 24.348542
_cell_length_c 11.804754
_cell_angle_alpha 90.000000
_cell_angle_beta 65.563030
_cell_angle_gamma 90.000000
_cell_volume 3383.879005
_symmetry_space_group_name_H-M "C 2/C"
_symmetry_group_IT_number 15
_symmetry_cell_setting 'monoclinic'
loop_
_space_group_symop_operation_xyz
x,y,z
-x,y,1/2-z
-x,-y,-z
x,-y,1/2+z
1/2+x,1/2+y,z
1/2-x,1/2+y,1/2-z
1/2-x,1/2-y,-z
1/2+x,1/2-y,1/2+z
loop_
_atom_site_type_symbol
_atom_site_label
_atom_site_fract_x
_atom_site_fract_y
_atom_site_fract_z
Si Si1 0.784592 0.371771 0.427602
Si Si2 0.424575 0.083576 0.493651
Si Si3 0.125515 0.819362 0.663217
Si Si4 0.684807 0.177936 0.826941
Si Si5 0.817419 0.279733 0.735100
Si Si6 0.579223 0.972472 0.109071
Si Si7 0.500000 0.148806 0.250000
Si Si8 0.435866 0.217446 0.952645
O O1 0.670508 0.364028 0.552493
O O2 0.772447 0.346166 0.310203
O O3 0.813354 0.436158 0.401339
O O4 0.886164 0.342425 0.449745
O O5 0.329034 0.126946 0.579745
O O6 0.506920 0.064329 0.555740
O O7 0.499623 0.112627 0.363443
O O8 0.368724 0.028211 0.467804
O O9 0.208549 0.813123 0.734118
O O10 0.122333 0.759847 0.606353
O O11 0.000000 0.840201 0.750000
O O12 0.779133 0.223607 0.816796
O O13 0.569231 0.213134 0.869579
O O14 0.906857 0.265559 0.594275
O O15 0.884359 0.315282 0.798343
O O16 0.500000 0.988479 0.250000
#
# Coordination Sequence:
#
# PCOD8150953 Si02
#       8
#     8   8   8   8   8   8   4   8
#     4  11  18  30  54  85 114 138 181 248 293 330
#     4  11  23  35  56  81 119 152 193 240 287 353
#     4  11  19  32  55  90 115 146 195 247 289 327
#     4  12  19  33  56  83 113 152 188 232 288 345
#     4  11  22  33  55  79 119 163 187 225 288 354
#     4  11  20  36  60  86 108 149 194 250 303 332
#     4  12  24  42  50  84 132 160 188 220 286 366
#     4  11  17  32  52  85 115 142 191 245 289 320
#
# _framework density 17.73113
#
# number of rings (size 3 to 8) (size 9 to 14) (size 15 to 20)
#    0.000    0.800    8.667    2.000    0.000    0.533 
#    0.000    0.000    0.000    0.000    1.733    1.867 
#    0.000    0.000    0.000    0.000    0.000    0.000 
#
# Total GULP energy -371873.262110 kJ/mol
# GULP energy per Si atom -12395.775404 kJ/mol
# Density = 1.769077 g / cm^3
# Si number density = 17.731130 Si / 1000 Ang^3
#
#
#
# Elastic Constant Matrix: (Units=GPa)
#
#
# Indices 1 2 3 4 5 6 
#
# 1 63.9274 24.8218 20.8346 0.0000 -6.6143 0.0000
# 2 24.8218 92.6119 28.9574 0.0000 -6.5572 0.0000
# 3 20.8346 28.9574 90.3600 0.0000 -9.8066 0.0000
# 4 0.0000 0.0000 0.0000 35.6172 0.0000 -1.1071
# 5 -6.6143 -6.5572 -9.8066 0.0000 25.8001 0.0000
# 6 0.0000 0.0000 0.0000 -1.1071 0.0000 18.0709
#
#
#
# Elastic Compliance Matrix: (Units=1/GPa)
#
#
# Indices 1 2 3 4 5 6 
#
# 1 0.018301 -0.003875 -0.002686 0.000000 0.002686 0.000000
# 2 -0.003875 0.012889 -0.003118 0.000000 0.001097 0.000000
# 3 -0.002686 -0.003118 0.013064 0.000000 0.003484 0.000000
# 4 0.000000 0.000000 0.000000 0.028130 0.000000 0.001723
# 5 0.002686 0.001097 0.003484 0.000000 0.041051 0.000000
# 6 0.000000 0.000000 0.000000 0.001723 0.000000 0.055443
#
#
# Mechanical properties :
#
#
# Convention : Reuss Voigt Hill
#
# Bulk Modulus (GPa) = 40.16904 44.01412 42.09158
# Shear Modulus (GPa) = 25.44086 27.38332 26.41209
#
# Velocity S-wave (km/s) = 3.79200 3.93410 3.86371
# Velocity P-wave (km/s) = 6.47117 6.74635 6.61019
#
# Compressibility (1/GPa) = 0.02489479
#
# Stress axis : x y z
#
# Youngs Moduli (GPa) = 54.64277 77.58634 76.54856
#
# Poissons Ratio (x) = 0.30063 0.20564
# Poissons Ratio (y) = 0.21173 0.23867
# Poissons Ratio (z) = 0.14679 0.24191
#
# Static dielectric constant tensor:
#      x y z
#    x 2.957200 0.000000 -0.048670 
#    y 0.000000 3.400390 0.000000 
#    z -0.048670 0.000000 3.513560 
# 
# 
# High freq. dielectric constant tensor:
#      x y z
#    x 1.641300 0.000000 0.002390 
#    y 0.000000 1.678960 0.000000 
#    z 0.002390 0.000000 1.698440 
# 
# From -- ./inp_files/100464.got.cif
#   From: 2010.06.25/outbox.cif.g09.slc.cpg/sg15_51_cif.got.tgz:100464.got - 2010.06.28 07:06:18.
