data_PCOD8150228
_publ_section_title
;
Structure prediction by ZEFSAII (Michael W. Deem and Ramdas Pophale) SiO2 
 PCOD8150228
Probable space group: C 2/C
;
_chemical_formula_sum "Si O2"
_cell_formula_units_Z 40
_cell_length_a 6.939171
_cell_length_b 17.395338
_cell_length_c 15.559377
_cell_angle_alpha 90.000000
_cell_angle_beta 77.115512
_cell_angle_gamma 90.000000
_cell_volume 1830.871267
_symmetry_space_group_name_H-M "C 2/C"
_symmetry_group_IT_number 15
_symmetry_cell_setting 'monoclinic'
loop_
_space_group_symop_operation_xyz
x,y,z
-x,y,1/2-z
-x,-y,-z
x,-y,1/2+z
1/2+x,1/2+y,z
1/2-x,1/2+y,1/2-z
1/2-x,1/2-y,-z
1/2+x,1/2-y,1/2+z
loop_
_atom_site_type_symbol
_atom_site_label
_atom_site_fract_x
_atom_site_fract_y
_atom_site_fract_z
Si Si1 0.500000 0.497686 0.750000
Si Si2 0.927972 0.125000 0.894055
Si Si3 0.553557 0.916663 0.529872
Si Si4 0.710888 0.625000 0.328223
Si Si5 0.500000 0.247686 0.250000
Si Si6 0.166570 0.166664 0.029873
O O1 0.431428 0.548763 0.836661
O O2 0.323755 0.443501 0.735578
O O3 0.981911 0.201238 0.836661
O O4 0.092482 0.120641 0.952448
O O5 0.705068 0.129359 0.952447
O O6 0.649492 0.914460 0.614449
O O7 0.346486 0.875000 0.557028
O O8 0.500000 0.000000 0.500000
O O9 0.809332 0.693501 0.264422
O O10 0.513941 0.664461 0.385550
O O11 0.250000 0.250000 0.000000
#
# Coordination Sequence:
#
# PCOD8150228 Si02
#       6
#     4   8   8   8   4   8
#     4  11  24  44  64  95 140 172 216 285 332 400
#     4  10  24  45  64  98 136 172 224 276 336 401
#     4  11  23  43  70  96 129 177 223 275 330 401
#     4  11  26  41  66  99 132 172 226 269 336 403
#     4  11  24  44  64  95 140 172 216 285 332 400
#     4  11  23  43  70  96 129 177 223 275 330 401
#
# _framework density 21.847522000000001
#
# number of rings (size 3 to 8) (size 9 to 14) (size 15 to 20)
#    0.000    1.200    0.000    4.800    8.400    6.400 
#    0.000    2.000    0.000    0.000    0.000    0.000 
#    0.000    0.000    0.000    0.000    0.000    0.000 
#
# Total GULP energy -247959.177231 kJ/mol
# GULP energy per Si atom -12397.958862 kJ/mol
# Density = 2.179780 g / cm^3
# Si number density = 21.847522 Si / 1000 Ang^3
#
#
#
# Elastic Constant Matrix: (Units=GPa)
#
#
# Indices 1 2 3 4 5 6 
#
# 1 169.5765 68.7983 65.1334 0.0000 -0.1252 0.0000
# 2 68.7983 148.1607 54.6697 0.0000 -0.0586 0.0000
# 3 65.1334 54.6697 103.3111 0.0000 -0.1466 0.0000
# 4 0.0000 0.0000 0.0000 40.6941 0.0000 -0.0271
# 5 -0.1252 -0.0586 -0.1466 0.0000 36.9627 0.0000
# 6 0.0000 0.0000 0.0000 -0.0271 0.0000 47.2283
#
#
#
# Elastic Compliance Matrix: (Units=1/GPa)
#
#
# Indices 1 2 3 4 5 6 
#
# 1 0.008430 -0.002427 -0.004030 0.000000 0.000009 0.000000
# 2 -0.002427 0.009086 -0.003278 0.000000 -0.000007 0.000000
# 3 -0.004030 -0.003278 0.013955 0.000000 0.000036 0.000000
# 4 0.000000 0.000000 0.000000 0.024574 0.000000 0.000014
# 5 0.000009 -0.000007 0.000036 0.000000 0.027054 0.000000
# 6 0.000000 0.000000 0.000000 0.000014 0.000000 0.021174
#
#
# Mechanical properties :
#
#
# Convention : Reuss Voigt Hill
#
# Bulk Modulus (GPa) = 83.33166 88.69457 86.01312
# Shear Modulus (GPa) = 39.14107 40.47349 39.80728
#
# Velocity S-wave (km/s) = 4.23727 4.30879 4.27318
# Velocity P-wave (km/s) = 7.88444 8.08946 7.98761
#
# Compressibility (1/GPa) = 0.01200024
#
# Stress axis : x y z
#
# Youngs Moduli (GPa) = 118.62726 110.05941 71.65922
#
# Poissons Ratio (x) = 0.26714 0.28880
# Poissons Ratio (y) = 0.28794 0.23489
# Poissons Ratio (z) = 0.47809 0.36075
#
# Static dielectric constant tensor:
#      x y z
#    x 4.603620 0.000000 -0.002130 
#    y 0.000000 3.962620 0.000000 
#    z -0.002130 0.000000 4.086930 
# 
# 
# High freq. dielectric constant tensor:
#      x y z
#    x 1.868950 0.000000 0.000020 
#    y 0.000000 1.866710 0.000000 
#    z 0.000020 0.000000 1.872980 
# 
# From -- ./inp_files/184309.got.cif
#   From: 2010.06.25/outbox.cif.g09.slc.cpg/sg15_93_cif.got.tgz:184309.got - 2010.06.28 07:06:18.
