data_PCOD8150974
_publ_section_title
;
Structure prediction by ZEFSAII (Michael W. Deem and Ramdas Pophale) SiO2 
 PCOD8150974
Probable space group: C 2/C
;
_chemical_formula_sum "Si O2"
_cell_formula_units_Z 56
_cell_length_a 12.797213
_cell_length_b 30.758778
_cell_length_c 9.331953
_cell_angle_alpha 90.000000
_cell_angle_beta 128.963524
_cell_angle_gamma 90.000000
_cell_volume 2856.165438
_symmetry_space_group_name_H-M "C 2/C"
_symmetry_group_IT_number 15
_symmetry_cell_setting 'monoclinic'
loop_
_space_group_symop_operation_xyz
x,y,z
-x,y,1/2-z
-x,-y,-z
x,-y,1/2+z
1/2+x,1/2+y,z
1/2-x,1/2+y,1/2-z
1/2-x,1/2-y,-z
1/2+x,1/2-y,1/2+z
loop_
_atom_site_type_symbol
_atom_site_label
_atom_site_fract_x
_atom_site_fract_y
_atom_site_fract_z
Si Si1 0.863871 0.229844 0.698051
Si Si2 0.650254 0.914824 0.824286
Si Si3 0.396720 0.866147 0.991462
Si Si4 0.192927 0.599979 0.797123
Si Si5 0.139314 0.128593 0.800148
Si Si6 0.599845 0.991845 0.213009
Si Si7 0.382238 0.235806 0.535591
O O1 0.750000 0.250000 0.500000
O O2 0.846805 0.179005 0.656892
O O3 0.000000 0.248354 0.750000
O O4 0.873937 0.239611 0.875936
O O5 0.500000 0.914676 0.750000
O O6 0.672600 0.880820 0.715217
O O7 0.686879 0.964623 0.815394
O O8 0.743467 0.899782 0.031468
O O9 0.306444 0.889764 0.033789
O O10 0.552860 0.879618 0.118891
O O11 0.388738 0.814881 0.006735
O O12 0.328488 0.620341 0.841287
O O13 0.199873 0.548300 0.772013
O O14 0.000000 0.111516 0.750000
O O15 0.500000 0.976451 0.250000
O O16 0.500000 0.000000 0.000000
O O17 0.500000 0.249171 0.750000
O O18 0.250000 0.250000 0.500000
#
# Coordination Sequence:
#
# PCOD8150974 Si02
#       7
#     8   8   8   8   8   8   8
#     4  11  25  42  63  88 122 165 215 271 318 382
#     4  11  21  36  65  96 124 163 212 261 309 383
#     4  11  21  36  63  93 120 160 204 260 320 370
#     4  11  19  37  61  88 128 159 196 258 316 367
#     4  11  25  43  59  86 128 171 208 256 323 381
#     4  11  18  32  57  98 125 148 201 261 308 353
#     4  12  25  40  63  92 125 164 214 265 324 385
#
# _framework density 19.606707
#
# number of rings (size 3 to 8) (size 9 to 14) (size 15 to 20)
#    0.000    0.857    5.714    3.429    2.000    2.286 
#    0.000    1.429    0.000    0.000    0.000    0.000 
#    0.000    0.000    0.000    0.000    0.000    0.000 
#
# Total GULP energy -346960.149599 kJ/mol
# GULP energy per Si atom -12391.433914 kJ/mol
# Density = 1.956208 g / cm^3
# Si number density = 19.606707 Si / 1000 Ang^3
#
#
#
# Elastic Constant Matrix: (Units=GPa)
#
#
# Indices 1 2 3 4 5 6 
#
# 1 147.2800 31.6298 33.8207 0.0000 -4.9064 0.0000
# 2 31.6298 102.1146 27.6854 0.0000 14.0879 0.0000
# 3 33.8207 27.6854 82.4511 0.0000 -3.1584 0.0000
# 4 0.0000 0.0000 0.0000 27.0102 0.0000 -4.4819
# 5 -4.9064 14.0879 -3.1584 0.0000 30.5265 0.0000
# 6 0.0000 0.0000 0.0000 -4.4819 0.0000 24.3147
#
#
#
# Elastic Compliance Matrix: (Units=1/GPa)
#
#
# Indices 1 2 3 4 5 6 
#
# 1 0.007858 -0.002034 -0.002466 0.000000 0.001946 0.000000
# 2 -0.002034 0.012254 -0.003523 0.000000 -0.006347 0.000000
# 3 -0.002466 -0.003523 0.014427 0.000000 0.002722 0.000000
# 4 0.000000 0.000000 0.000000 0.038191 0.000000 0.007040
# 5 0.001946 -0.006347 0.002722 0.000000 0.036282 0.000000
# 6 0.000000 0.000000 0.000000 0.007040 0.000000 0.042425
#
#
# Mechanical properties :
#
#
# Convention : Reuss Voigt Hill
#
# Bulk Modulus (GPa) = 54.07543 57.56859 55.82201
# Shear Modulus (GPa) = 28.79408 32.28426 30.53917
#
# Velocity S-wave (km/s) = 3.83637 4.06222 3.95091
# Velocity P-wave (km/s) = 6.87485 7.17131 7.02464
#
# Compressibility (1/GPa) = 0.01849269
#
# Stress axis : x y z
#
# Youngs Moduli (GPa) = 127.26473 81.60756 69.31383
#
# Poissons Ratio (x) = 0.16599 0.17090
# Poissons Ratio (y) = 0.25885 0.24422
# Poissons Ratio (z) = 0.31379 0.28753
#
# Static dielectric constant tensor:
#      x y z
#    x 3.659240 0.000000 -0.226620 
#    y 0.000000 6.564160 0.000000 
#    z -0.226620 0.000000 3.534280 
# 
# 
# High freq. dielectric constant tensor:
#      x y z
#    x 1.758300 0.000000 -0.033450 
#    y 0.000000 1.778590 0.000000 
#    z -0.033450 0.000000 1.757770 
# 
# From -- ./inp_files/35758.got.cif
#   From: 2010.06.25/outbox.cif.g09.slc.cpg/sg15_18_cif.got.tgz:35758.got - 2010.06.28 07:06:18.
