data_PCOD8150202
_publ_section_title
;
Structure prediction by ZEFSAII (Michael W. Deem and Ramdas Pophale) SiO2 
 PCOD8150202
Probable space group: C 2/C
;
_chemical_formula_sum "Si O2"
_cell_formula_units_Z 44
_cell_length_a 12.361363
_cell_length_b 17.982077
_cell_length_c 8.913622
_cell_angle_alpha 90.000000
_cell_angle_beta 103.948294
_cell_angle_gamma 90.000000
_cell_volume 1922.923799
_symmetry_space_group_name_H-M "C 2/C"
_symmetry_group_IT_number 15
_symmetry_cell_setting 'monoclinic'
loop_
_space_group_symop_operation_xyz
x,y,z
-x,y,1/2-z
-x,-y,-z
x,-y,1/2+z
1/2+x,1/2+y,z
1/2-x,1/2+y,1/2-z
1/2-x,1/2-y,-z
1/2+x,1/2-y,1/2+z
loop_
_atom_site_type_symbol
_atom_site_label
_atom_site_fract_x
_atom_site_fract_y
_atom_site_fract_z
Si Si1 0.572238 0.868984 0.897585
Si Si2 0.771467 0.114718 0.254168
Si Si3 0.889106 0.732735 0.801816
Si Si4 0.081604 0.024763 0.653332
Si Si5 0.709555 0.107888 0.898189
Si Si6 0.500000 0.992138 0.250000
O O1 0.500000 0.821780 0.750000
O O2 0.690236 0.896283 0.868276
O O3 0.506194 0.949114 0.896334
O O4 0.584387 0.819407 0.047005
O O5 0.836687 0.188744 0.324426
O O6 0.856084 0.047128 0.261284
O O7 0.702994 0.116587 0.075356
O O8 0.801736 0.690832 0.667581
O O9 0.000000 0.749637 0.750000
O O10 0.000000 0.061883 0.750000
O O11 0.170452 0.082543 0.619540
O O12 0.000000 0.000000 0.500000
O O13 0.610171 0.059035 0.789428
#
# Coordination Sequence:
#
# PCOD8150202 Si02
#       6
#     8   8   8   8   8   4
#     4  10  24  44  73 104 143 183 243 308 369 435
#     4  12  26  49  70 105 152 192 247 301 368 447
#     4  12  27  46  72 107 148 198 240 305 378 444
#     4  12  26  47  72 107 149 198 247 303 366 447
#     4  12  26  45  78 107 147 194 249 308 372 436
#     4  10  24  44  78 110 146 176 258 314 374 418
#
# _framework density 22.881820999999999
#
# number of rings (size 3 to 8) (size 9 to 14) (size 15 to 20)
#    0.545    0.000    4.545    2.727    5.091    1.455 
#    0.000    0.000    0.000    0.000    0.000    0.000 
#    0.000    0.000    0.000    0.000    0.000    0.000 
#
# Total GULP energy -272563.478867 kJ/mol
# GULP energy per Si atom -12389.249039 kJ/mol
# Density = 2.282974 g / cm^3
# Si number density = 22.881821 Si / 1000 Ang^3
#
#
#
# Elastic Constant Matrix: (Units=GPa)
#
#
# Indices 1 2 3 4 5 6 
#
# 1 114.2562 2.5743 15.2747 0.0000 1.1764 0.0000
# 2 2.5743 64.6161 -0.0698 0.0000 0.2689 0.0000
# 3 15.2747 -0.0698 85.8692 0.0000 3.1648 0.0000
# 4 0.0000 0.0000 0.0000 19.8535 0.0000 5.2597
# 5 1.1764 0.2689 3.1648 0.0000 34.6895 0.0000
# 6 0.0000 0.0000 0.0000 5.2597 0.0000 29.7723
#
#
#
# Elastic Compliance Matrix: (Units=1/GPa)
#
#
# Indices 1 2 3 4 5 6 
#
# 1 0.008975 -0.000359 -0.001591 0.000000 -0.000156 0.000000
# 2 -0.000359 0.015491 0.000081 0.000000 -0.000115 0.000000
# 3 -0.001591 0.000081 0.011967 0.000000 -0.001038 0.000000
# 4 0.000000 0.000000 0.000000 0.052842 0.000000 -0.009335
# 5 -0.000156 -0.000115 -0.001038 0.000000 0.028928 0.000000
# 6 0.000000 0.000000 0.000000 -0.009335 0.000000 0.035237
#
#
# Mechanical properties :
#
#
# Convention : Reuss Voigt Hill
#
# Bulk Modulus (GPa) = 30.58612 33.36666 31.97639
# Shear Modulus (GPa) = 29.74841 33.32722 31.53781
#
# Velocity S-wave (km/s) = 3.60959 3.82054 3.71656
# Velocity P-wave (km/s) = 5.54691 5.83746 5.69403
#
# Compressibility (1/GPa) = 0.03269457
#
# Stress axis : x y z
#
# Youngs Moduli (GPa) = 111.42502 64.55417 83.56339
#
# Poissons Ratio (x) = 0.02315 0.13295
# Poissons Ratio (y) = 0.03996 -0.00674
# Poissons Ratio (z) = 0.17727 -0.00521
#
# Static dielectric constant tensor:
#      x y z
#    x 4.148640 0.000000 0.219620 
#    y 0.000000 4.060960 0.000000 
#    z 0.219620 0.000000 4.203830 
# 
# 
# High freq. dielectric constant tensor:
#      x y z
#    x 1.918480 0.000000 0.010390 
#    y 0.000000 1.895530 0.000000 
#    z 0.010390 0.000000 1.910380 
# 
# From -- ./inp_files/31053.got.cif
#   From: 2010.06.25/outbox.cif.g09.slc.cpg/sg15_16_cif.got.tgz:31053.got - 2010.06.28 07:06:18.
