data_PCOD8150813
_publ_section_title
;
Structure prediction by ZEFSAII (Michael W. Deem and Ramdas Pophale) SiO2 
 PCOD8150813
Probable space group: C 2/C
;
_chemical_formula_sum "Si O2"
_cell_formula_units_Z 52
_cell_length_a 11.145663
_cell_length_b 27.960628
_cell_length_c 8.960755
_cell_angle_alpha 90.000000
_cell_angle_beta 109.493731
_cell_angle_gamma 90.000000
_cell_volume 2632.454104
_symmetry_space_group_name_H-M "C 2/C"
_symmetry_group_IT_number 15
_symmetry_cell_setting 'monoclinic'
loop_
_space_group_symop_operation_xyz
x,y,z
-x,y,1/2-z
-x,-y,-z
x,-y,1/2+z
1/2+x,1/2+y,z
1/2-x,1/2+y,1/2-z
1/2-x,1/2-y,-z
1/2+x,1/2-y,1/2+z
loop_
_atom_site_type_symbol
_atom_site_label
_atom_site_fract_x
_atom_site_fract_y
_atom_site_fract_z
Si Si1 0.500000 0.492775 0.750000
Si Si2 0.715558 0.794748 0.384170
Si Si3 0.392913 0.563015 0.469436
Si Si4 0.479035 0.339981 0.415232
Si Si5 0.452791 0.828508 0.938685
Si Si6 0.875040 0.752262 0.953786
Si Si7 0.874679 0.611184 0.145493
O O1 0.411407 0.524469 0.607075
O O2 0.591777 0.460040 0.687129
O O3 0.750000 0.750000 0.500000
O O4 0.835294 0.827630 0.395955
O O5 0.619307 0.829680 0.433459
O O6 0.646626 0.773532 0.212082
O O7 0.494621 0.605349 0.528925
O O8 0.249134 0.580476 0.429590
O O9 0.500000 0.331836 0.250000
O O10 0.580356 0.307153 0.546894
O O11 0.581632 0.862184 0.990988
O O12 0.358510 0.846755 0.766185
O O13 0.503288 0.774853 0.921913
O O14 0.750000 0.750000 0.000000
O O15 0.000000 0.579761 0.250000
#
# Coordination Sequence:
#
# PCOD8150813 Si02
#       7
#     4   8   8   8   8   8   8
#     4  10  26  44  78  96 134 154 208 288 352 418
#     4  12  26  38  56  92 137 180 237 265 310 371
#     4  11  23  48  68 104 123 166 213 275 351 404
#     4  12  26  38  65  93 127 176 228 265 323 398
#     4   9  22  40  58  93 131 181 220 260 316 363
#     4  12  24  38  59  86 136 187 220 274 308 371
#     4   8  22  39  73  89 130 175 212 264 324 395
#
# _framework density 19.753430000000002
#
# number of rings (size 3 to 8) (size 9 to 14) (size 15 to 20)
#    0.923    0.308    3.846    1.385   10.769    0.000 
#    0.000    0.769    0.000    0.000    0.000    0.000 
#    0.000    0.000    0.000    0.000    0.000    0.000 
#
# Total GULP energy -322145.386916 kJ/mol
# GULP energy per Si atom -12390.207189 kJ/mol
# Density = 1.970847 g / cm^3
# Si number density = 19.753430 Si / 1000 Ang^3
#
#
#
# Elastic Constant Matrix: (Units=GPa)
#
#
# Indices 1 2 3 4 5 6 
#
# 1 147.3411 66.3686 67.9754 0.0000 -28.9110 0.0000
# 2 66.3686 96.9058 42.5587 0.0000 -7.9721 0.0000
# 3 67.9754 42.5587 102.6676 0.0000 -17.6392 0.0000
# 4 0.0000 0.0000 0.0000 18.4812 0.0000 0.6737
# 5 -28.9110 -7.9721 -17.6392 0.0000 32.6688 0.0000
# 6 0.0000 0.0000 0.0000 0.6737 0.0000 37.5441
#
#
#
# Elastic Compliance Matrix: (Units=1/GPa)
#
#
# Indices 1 2 3 4 5 6 
#
# 1 0.013463 -0.006423 -0.004931 0.000000 0.007684 0.000000
# 2 -0.006423 0.015682 -0.002830 0.000000 -0.003385 0.000000
# 3 -0.004931 -0.002830 0.014671 0.000000 0.002867 0.000000
# 4 0.000000 0.000000 0.000000 0.054144 0.000000 -0.000972
# 5 0.007684 -0.003385 0.002867 0.000000 0.038133 0.000000
# 6 0.000000 0.000000 0.000000 -0.000972 0.000000 0.026653
#
#
# Mechanical properties :
#
#
# Convention : Reuss Voigt Hill
#
# Bulk Modulus (GPa) = 64.73084 77.85776 71.29430
# Shear Modulus (GPa) = 25.47616 29.07295 27.27456
#
# Velocity S-wave (km/s) = 3.59515 3.84056 3.71988
# Velocity P-wave (km/s) = 7.07630 7.69200 7.39056
#
# Compressibility (1/GPa) = 0.01544859
#
# Stress axis : x y z
#
# Youngs Moduli (GPa) = 74.27973 63.76588 68.16357
#
# Poissons Ratio (x) = 0.40954 0.33611
# Poissons Ratio (y) = 0.47706 0.19291
# Poissons Ratio (z) = 0.36627 0.18046
#
# Static dielectric constant tensor:
#      x y z
#    x 3.686190 0.000000 -0.194050 
#    y 0.000000 3.521220 0.000000 
#    z -0.194050 0.000000 3.780430 
# 
# 
# High freq. dielectric constant tensor:
#      x y z
#    x 1.782760 0.000000 -0.005800 
#    y 0.000000 1.745900 0.000000 
#    z -0.005800 0.000000 1.768290 
# 
# From -- ./inp_files/33731.got.cif
#   From: 2010.06.25/outbox.cif.g09.slc.cpg/sg15_17_cif.got.tgz:33731.got - 2010.06.28 07:06:18.
