data_PCOD8150258
_publ_section_title
;
Structure prediction by ZEFSAII (Michael W. Deem and Ramdas Pophale) SiO2 
 PCOD8150258
Probable space group: C 2/C
;
_chemical_formula_sum "Si O2"
_cell_formula_units_Z 48
_cell_length_a 5.477062
_cell_length_b 24.717845
_cell_length_c 14.086233
_cell_angle_alpha 90.000000
_cell_angle_beta 87.923901
_cell_angle_gamma 90.000000
_cell_volume 1905.758923
_symmetry_space_group_name_H-M "C 2/C"
_symmetry_group_IT_number 15
_symmetry_cell_setting 'monoclinic'
loop_
_space_group_symop_operation_xyz
x,y,z
-x,y,1/2-z
-x,-y,-z
x,-y,1/2+z
1/2+x,1/2+y,z
1/2-x,1/2+y,1/2-z
1/2-x,1/2-y,-z
1/2+x,1/2-y,1/2+z
loop_
_atom_site_type_symbol
_atom_site_label
_atom_site_fract_x
_atom_site_fract_y
_atom_site_fract_z
Si Si1 0.500000 0.915228 0.750000
Si Si2 0.331183 0.646400 0.113088
Si Si3 0.290919 0.560441 0.416683
Si Si4 0.630289 0.462011 0.384551
Si Si5 0.755813 0.260280 0.192545
Si Si6 0.500000 0.074223 0.750000
Si Si7 0.234194 0.369521 0.408661
O O1 0.279340 0.877797 0.788867
O O2 0.416718 0.950534 0.659576
O O3 0.602985 0.621870 0.092803
O O4 0.341059 0.710582 0.125319
O O5 0.165863 0.632056 0.021707
O O6 0.517336 0.521081 0.393004
O O7 0.194368 0.547234 0.524514
O O8 0.771067 0.463540 0.281108
O O9 0.444252 0.412645 0.385957
O O10 0.500000 0.246404 0.250000
O O11 0.683888 0.310164 0.125804
O O12 0.000000 0.274386 0.250000
O O13 0.485394 0.111416 0.656054
#
# Coordination Sequence:
#
# PCOD8150258 Si02
#       7
#     4   8   8   8   8   4   8
#     4  12  22  43  70 102 134 184 239 290 354 432
#     4  11  25  44  68 103 144 187 235 298 363 434
#     4  10  24  45  69 102 142 184 236 295 362 434
#     4  10  24  45  69 102 142 184 236 295 362 434
#     4  12  25  48  75 110 144 192 251 304 373 446
#     4  12  22  43  70 102 134 184 239 290 354 432
#     4  11  25  44  68 103 144 187 235 298 363 434
#
# _framework density 25.186817000000001
#
# number of rings (size 3 to 8) (size 9 to 14) (size 15 to 20)
#    0.000    1.000    1.667    4.500    0.000    5.333 
#    0.000    6.667    0.000    3.000    0.000    0.000 
#    0.000    0.000    0.000    0.000    0.000    0.000 
#
# Total GULP energy -297480.192557 kJ/mol
# GULP energy per Si atom -12395.008023 kJ/mol
# Density = 2.512949 g / cm^3
# Si number density = 25.186817 Si / 1000 Ang^3
#
#
#
# Elastic Constant Matrix: (Units=GPa)
#
#
# Indices 1 2 3 4 5 6 
#
# 1 56.2593 3.2033 16.8680 0.0000 3.4915 0.0000
# 2 3.2033 106.9143 33.6350 0.0000 -0.8141 0.0000
# 3 16.8680 33.6350 142.3857 0.0000 10.7426 0.0000
# 4 0.0000 0.0000 0.0000 29.9731 0.0000 7.2803
# 5 3.4915 -0.8141 10.7426 0.0000 55.9607 0.0000
# 6 0.0000 0.0000 0.0000 7.2803 0.0000 17.7659
#
#
#
# Elastic Compliance Matrix: (Units=1/GPa)
#
#
# Indices 1 2 3 4 5 6 
#
# 1 0.018461 0.000121 -0.002160 0.000000 -0.000735 0.000000
# 2 0.000121 0.010126 -0.002452 0.000000 0.000611 0.000000
# 3 -0.002160 -0.002452 0.007966 0.000000 -0.001430 0.000000
# 4 0.000000 0.000000 0.000000 0.037051 0.000000 -0.015183
# 5 -0.000735 0.000611 -0.001430 0.000000 0.018199 0.000000
# 6 0.000000 0.000000 0.000000 -0.015183 0.000000 0.062510
#
#
# Mechanical properties :
#
#
# Convention : Reuss Voigt Hill
#
# Bulk Modulus (GPa) = 36.27116 45.88577 41.07847
# Shear Modulus (GPa) = 28.98778 37.53012 33.25895
#
# Velocity S-wave (km/s) = 3.39619 3.86433 3.63780
# Velocity P-wave (km/s) = 5.45994 6.17806 5.83007
#
# Compressibility (1/GPa) = 0.02757012
#
# Stress axis : x y z
#
# Youngs Moduli (GPa) = 54.16752 98.75751 125.52907
#
# Poissons Ratio (x) = -0.01193 0.27116
# Poissons Ratio (y) = -0.00655 0.30784
# Poissons Ratio (z) = 0.11701 0.24219
#
# Static dielectric constant tensor:
#      x y z
#    x 4.193090 0.000000 0.172400 
#    y 0.000000 4.503840 0.000000 
#    z 0.172400 0.000000 5.153430 
# 
# 
# High freq. dielectric constant tensor:
#      x y z
#    x 1.982870 0.000000 0.008050 
#    y 0.000000 2.010860 0.000000 
#    z 0.008050 0.000000 2.027530 
# 
# From -- ./inp_files/130087.got.cif
#   From: 2010.06.25/outbox.cif.g09.slc.cpg/sg15_66_cif.got.tgz:130087.got - 2010.06.28 07:06:18.
