data_PCOD8150004
_publ_section_title
;
Structure prediction by ZEFSAII (Michael W. Deem and Ramdas Pophale) SiO2 
 PCOD8150004
Probable space group: C 2/C
;
_chemical_formula_sum "Si O2"
_cell_formula_units_Z 48
_cell_length_a 15.176452
_cell_length_b 8.606606
_cell_length_c 26.082177
_cell_angle_alpha 90.000000
_cell_angle_beta 39.072941
_cell_angle_gamma 90.000000
_cell_volume 2147.334405
_symmetry_space_group_name_H-M "C 2/C"
_symmetry_group_IT_number 15
_symmetry_cell_setting 'monoclinic'
loop_
_space_group_symop_operation_xyz
x,y,z
-x,y,1/2-z
-x,-y,-z
x,-y,1/2+z
1/2+x,1/2+y,z
1/2-x,1/2+y,1/2-z
1/2-x,1/2-y,-z
1/2+x,1/2-y,1/2+z
loop_
_atom_site_type_symbol
_atom_site_label
_atom_site_fract_x
_atom_site_fract_y
_atom_site_fract_z
Si Si1 0.747315 0.287236 0.083627
Si Si2 0.856238 0.880597 0.843028
Si Si3 0.985347 0.710400 0.877542
Si Si4 0.089000 0.084015 0.416569
Si Si5 0.774673 0.792736 0.189053
Si Si6 0.951965 0.357199 0.903014
O O1 0.728034 0.462399 0.110499
O O2 0.786936 0.184465 0.114671
O O3 0.605417 0.218637 0.123473
O O4 0.873932 0.277471 0.986003
O O5 0.762706 0.767686 0.850634
O O6 0.000000 0.921864 0.750000
O O7 0.881705 0.796687 0.885489
O O8 0.986793 0.804800 0.930056
O O9 0.140700 0.696776 0.785325
O O10 0.923262 0.540593 0.915956
O O11 0.158004 0.962533 0.346237
O O12 0.000000 0.000000 0.500000
O O13 0.883749 0.677364 0.167111
#
# Coordination Sequence:
#
# PCOD8150004 Si02
#       6
#     8   8   8   8   8   8
#     4  11  25  42  64  96 133 170 216 273 325 392
#     4  10  24  43  68  98 130 172 220 272 329 394
#     4  11  25  43  68  97 132 176 220 272 329 394
#     4  12  25  42  67 100 131 172 218 273 327 390
#     4  11  23  45  68  96 134 171 223 271 329 398
#     4  11  24  42  66  96 130 174 217 265 333 387
#
# _framework density 22.353296
#
# number of rings (size 3 to 8) (size 9 to 14) (size 15 to 20)
#    0.000    1.000    1.667    4.000    4.667    7.333 
#    0.000    0.000    0.000    0.000    0.000    0.000 
#    0.000    0.000    0.000    0.000    0.000    0.000 
#
# Total GULP energy -297839.885107 kJ/mol
# GULP energy per Si atom -12409.995213 kJ/mol
# Density = 2.230242 g / cm^3
# Si number density = 22.353296 Si / 1000 Ang^3
#
#
#
# Elastic Constant Matrix: (Units=GPa)
#
#
# Indices 1 2 3 4 5 6 
#
# 1 123.1333 20.1795 15.9270 0.0000 5.0951 0.0000
# 2 20.1795 109.3206 12.0396 0.0000 7.3256 0.0001
# 3 15.9270 12.0396 37.7401 0.0000 0.3376 0.0000
# 4 0.0000 0.0000 0.0000 36.5686 0.0000 -2.7276
# 5 5.0951 7.3256 0.3376 0.0000 33.1482 0.0000
# 6 0.0000 0.0001 0.0000 -2.7276 0.0000 42.1820
#
#
#
# Elastic Compliance Matrix: (Units=1/GPa)
#
#
# Indices 1 2 3 4 5 6 
#
# 1 0.008789 -0.001186 -0.003321 0.000000 -0.001055 0.000000
# 2 -0.001186 0.009784 -0.002603 0.000000 -0.001953 0.000000
# 3 -0.003321 -0.002603 0.028722 0.000000 0.000793 0.000000
# 4 0.000000 0.000000 0.000000 0.027478 0.000000 0.001777
# 5 -0.001055 -0.001953 0.000793 0.000000 0.030753 0.000000
# 6 0.000000 0.000000 0.000000 0.001777 0.000000 0.023822
#
#
# Mechanical properties :
#
#
# Convention : Reuss Voigt Hill
#
# Bulk Modulus (GPa) = 30.23526 40.72069 35.47797
# Shear Modulus (GPa) = 32.34284 37.18298 34.76291
#
# Velocity S-wave (km/s) = 3.80793 4.08293 3.94783
# Velocity P-wave (km/s) = 5.73491 6.36267 6.05693
#
# Compressibility (1/GPa) = 0.03307396
#
# Stress axis : x y z
#
# Youngs Moduli (GPa) = 113.78013 102.20871 34.81643
#
# Poissons Ratio (x) = 0.12121 0.11564
# Poissons Ratio (y) = 0.13493 0.09064
# Poissons Ratio (z) = 0.37790 0.26608
#
# Static dielectric constant tensor:
#      x y z
#    x 4.151780 0.000000 0.016230 
#    y 0.000000 4.068740 0.000000 
#    z 0.016230 0.000000 3.818240 
# 
# 
# High freq. dielectric constant tensor:
#      x y z
#    x 1.894120 0.000000 -0.000950 
#    y 0.000000 1.894920 0.000000 
#    z -0.000950 0.000000 1.873620 
# 
# From -- ./inp_files/295378.got.cif
#   From: 2010.06.25/outbox.cif.g09.slc.cpg/sg15_148_cif.got.tgz:295378.got - 2010.06.28 07:06:18.
