data_PCOD8150441
_publ_section_title
;
Structure prediction by ZEFSAII (Michael W. Deem and Ramdas Pophale) SiO2 
 PCOD8150441
Probable space group: C 2/C
;
_chemical_formula_sum "Si O2"
_cell_formula_units_Z 40
_cell_length_a 8.207803
_cell_length_b 16.756103
_cell_length_c 11.587132
_cell_angle_alpha 90.000000
_cell_angle_beta 91.959948
_cell_angle_gamma 90.000000
_cell_volume 1592.655164
_symmetry_space_group_name_H-M "C 2/C"
_symmetry_group_IT_number 15
_symmetry_cell_setting 'monoclinic'
loop_
_space_group_symop_operation_xyz
x,y,z
-x,y,1/2-z
-x,-y,-z
x,-y,1/2+z
1/2+x,1/2+y,z
1/2-x,1/2+y,1/2-z
1/2-x,1/2-y,-z
1/2+x,1/2-y,1/2+z
loop_
_atom_site_type_symbol
_atom_site_label
_atom_site_fract_x
_atom_site_fract_y
_atom_site_fract_z
Si Si1 0.736735 0.131180 0.081747
Si Si2 0.000000 0.439700 0.750000
Si Si3 0.010514 0.746112 0.946573
Si Si4 0.295264 0.343676 0.095146
Si Si5 0.000000 0.954364 0.250000
Si Si6 0.737924 0.482989 0.576099
O O1 0.636142 0.116587 0.195636
O O2 0.897877 0.182295 0.119262
O O3 0.638669 0.178111 0.981577
O O4 0.782814 0.046763 0.026273
O O5 0.907049 0.494103 0.652418
O O6 0.865597 0.705312 0.868255
O O7 0.935835 0.781244 0.063924
O O8 0.353923 0.398836 0.200764
O O9 0.254960 0.395629 0.980014
O O10 0.921292 0.009961 0.346093
#
# Coordination Sequence:
#
# PCOD8150441 Si02
#       6
#     8   4   8   8   4   8
#     4  11  24  49  71 106 148 191 248 312 364 448
#     4  12  26  43  80 107 146 202 252 304 382 433
#     4  10  24  47  73 100 150 188 234 322 372 426
#     4  11  24  49  71 106 148 191 248 312 364 448
#     4  12  26  43  80 107 146 202 252 304 382 433
#     4  12  26  46  74 108 148 194 256 308 360 450
#
# _framework density 25.115290999999999
#
# number of rings (size 3 to 8) (size 9 to 14) (size 15 to 20)
#    0.000    0.800    4.000    2.400    5.600    0.800 
#    0.000    2.000    0.000    0.000    0.000    0.000 
#    0.000    0.000    0.000    0.000    0.000    0.000 
#
# Total GULP energy -248068.565227 kJ/mol
# GULP energy per Si atom -12403.428261 kJ/mol
# Density = 2.505813 g / cm^3
# Si number density = 25.115291 Si / 1000 Ang^3
#
#
#
# Elastic Constant Matrix: (Units=GPa)
#
#
# Indices 1 2 3 4 5 6 
#
# 1 154.7230 56.4893 45.2153 0.0000 -13.8970 0.0000
# 2 56.4893 108.7681 31.0445 0.0000 -7.7712 0.0000
# 3 45.2153 31.0445 88.8295 0.0000 -14.1512 0.0000
# 4 0.0000 0.0000 0.0000 -6.3598 0.0000 11.6904
# 5 -13.8970 -7.7712 -14.1512 0.0000 52.7124 0.0000
# 6 0.0000 0.0000 0.0000 11.6904 0.0000 51.8442
#
#
#
# Elastic Compliance Matrix: (Units=1/GPa)
#
#
# Indices 1 2 3 4 5 6 
#
# 1 0.008757 -0.003611 -0.003043 0.000000 0.000960 0.000000
# 2 -0.003611 0.011718 -0.002229 0.000000 0.000177 0.000000
# 3 -0.003043 -0.002229 0.014004 0.000000 0.002629 0.000000
# 4 0.000000 0.000000 0.000000 -0.111162 0.000000 0.025066
# 5 0.000960 0.000177 0.002629 0.000000 0.019956 0.000000
# 6 0.000000 0.000000 0.000000 0.025066 0.000000 0.013636
#
#
# Mechanical properties :
#
#
# Convention : Reuss Voigt Hill
#
# Bulk Modulus (GPa) = 59.83042 68.64653 64.23847
# Shear Modulus (GPa) = -253.09957 34.27748 -109.41105
#
# Velocity S-wave (km/s) = -10.04957 3.69833 -6.60743
# Velocity P-wave (km/s) = 10.52542 6.75491 5.70770
#
# Compressibility (1/GPa) = 0.01671390
#
# Stress axis : x y z
#
# Youngs Moduli (GPa) = 114.19657 85.33796 71.40824
#
# Poissons Ratio (x) = 0.30815 0.21726
# Poissons Ratio (y) = 0.41236 0.15917
# Poissons Ratio (z) = 0.34744 0.19022
#
# Static dielectric constant tensor:
#      x y z
#    x 4.786530 0.000000 -0.074090 
#    y 0.000000 4.602310 0.000000 
#    z -0.074090 0.000000 4.078770 
# 
# 
# High freq. dielectric constant tensor:
#      x y z
#    x 2.021050 0.000000 -0.005170 
#    y 0.000000 2.008380 0.000000 
#    z -0.005170 0.000000 1.970430 
# 
# From -- ./inp_files/76740.got.cif
#   From: 2010.06.25/outbox.cif.g09.slc.cpg/sg15_39_cif.got.tgz:76740.got - 2010.06.28 07:06:18.
