data_PCOD8150560
_publ_section_title
;
Structure prediction by ZEFSAII (Michael W. Deem and Ramdas Pophale) SiO2 
 PCOD8150560
Probable space group: C 2/C
;
_chemical_formula_sum "Si O2"
_cell_formula_units_Z 48
_cell_length_a 17.212658
_cell_length_b 11.177327
_cell_length_c 11.826640
_cell_angle_alpha 90.000000
_cell_angle_beta 112.222355
_cell_angle_gamma 90.000000
_cell_volume 2106.339496
_symmetry_space_group_name_H-M "C 2/C"
_symmetry_group_IT_number 15
_symmetry_cell_setting 'monoclinic'
loop_
_space_group_symop_operation_xyz
x,y,z
-x,y,1/2-z
-x,-y,-z
x,-y,1/2+z
1/2+x,1/2+y,z
1/2-x,1/2+y,1/2-z
1/2-x,1/2-y,-z
1/2+x,1/2-y,1/2+z
loop_
_atom_site_type_symbol
_atom_site_label
_atom_site_fract_x
_atom_site_fract_y
_atom_site_fract_z
Si Si1 0.379258 0.247969 0.976032
Si Si2 0.067123 0.160469 0.565668
Si Si3 0.595054 0.174260 0.271983
Si Si4 0.826679 0.955637 0.804505
Si Si5 0.164459 0.791964 0.897597
Si Si6 0.153222 0.421983 0.232362
O O1 0.315114 0.342482 0.883199
O O2 0.377239 0.121574 0.908003
O O3 0.469747 0.310086 0.019086
O O4 0.351378 0.217402 0.089142
O O5 0.121055 0.249672 0.676169
O O6 0.096157 0.174837 0.453188
O O7 0.086412 0.025876 0.621215
O O8 0.500000 0.202548 0.250000
O O9 0.602196 0.036225 0.244887
O O10 0.823482 0.909453 0.673878
O O11 0.751911 0.048396 0.786510
O O12 0.129127 0.683261 0.804795
O O13 0.250000 0.750000 0.000000
#
# Coordination Sequence:
#
# PCOD8150560 Si02
#       6
#     8   8   8   8   8   8
#     4  10  26  46  66  99 134 175 227 273 335 397
#     4  11  24  45  70  98 133 175 224 276 333 395
#     4  10  25  42  68  97 133 174 223 273 332 399
#     4  11  25  43  68  98 134 178 223 275 333 394
#     4  11  24  43  67 100 135 177 223 274 331 395
#     4  11  25  41  68  98 133 177 221 271 340 395
#
# _framework density 22.788347999999999
#
# number of rings (size 3 to 8) (size 9 to 14) (size 15 to 20)
#    0.000    1.333    1.667    1.500   11.667    4.000 
#    3.000    0.000    0.000    0.000    0.000    0.000 
#    0.000    0.000    0.000    0.000    0.000    0.000 
#
# Total GULP energy -297643.435542 kJ/mol
# GULP energy per Si atom -12401.809814 kJ/mol
# Density = 2.273648 g / cm^3
# Si number density = 22.788348 Si / 1000 Ang^3
#
#
#
# Elastic Constant Matrix: (Units=GPa)
#
#
# Indices 1 2 3 4 5 6 
#
# 1 49.2388 20.8064 23.7458 0.0000 -12.7953 0.0000
# 2 20.8064 125.6152 54.4044 0.0000 -13.6455 0.0000
# 3 23.7458 54.4044 138.7219 0.0000 -19.9011 0.0000
# 4 0.0000 0.0000 0.0000 56.1049 0.0000 3.2076
# 5 -12.7953 -13.6455 -19.9011 0.0000 32.5308 0.0000
# 6 0.0000 0.0000 0.0000 3.2076 0.0000 31.2927
#
#
#
# Elastic Compliance Matrix: (Units=1/GPa)
#
#
# Indices 1 2 3 4 5 6 
#
# 1 0.024212 -0.002265 -0.002221 0.000000 0.007214 0.000000
# 2 -0.002265 0.009908 -0.003321 0.000000 0.001234 0.000000
# 3 -0.002221 -0.003321 0.009390 0.000000 0.003478 0.000000
# 4 0.000000 0.000000 0.000000 0.017929 0.000000 -0.001838
# 5 0.007214 0.001234 0.003478 0.000000 0.036223 0.000000
# 6 0.000000 0.000000 0.000000 -0.001838 0.000000 0.032145
#
#
# Mechanical properties :
#
#
# Convention : Reuss Voigt Hill
#
# Bulk Modulus (GPa) = 35.84699 56.83211 46.33955
# Shear Modulus (GPa) = 32.31632 38.29363 35.30497
#
# Velocity S-wave (km/s) = 3.76986 4.10372 3.94033
# Velocity P-wave (km/s) = 5.89183 6.88820 6.40941
#
# Compressibility (1/GPa) = 0.02789634
#
# Stress axis : x y z
#
# Youngs Moduli (GPa) = 41.30158 100.92457 106.49182
#
# Poissons Ratio (x) = 0.22855 0.23656
# Poissons Ratio (y) = 0.09353 0.35369
# Poissons Ratio (z) = 0.09175 0.33520
#
# Static dielectric constant tensor:
#      x y z
#    x 3.756770 0.000000 -0.162520 
#    y 0.000000 4.196660 0.000000 
#    z -0.162520 0.000000 4.719220 
# 
# 
# High freq. dielectric constant tensor:
#      x y z
#    x 1.882510 0.000000 -0.002150 
#    y 0.000000 1.911220 0.000000 
#    z -0.002150 0.000000 1.918500 
# 
# From -- ./inp_files/104286.got.cif
#   From: 2010.06.25/outbox.cif.g09.slc.cpg/sg15_53_cif.got.tgz:104286.got - 2010.06.28 07:06:18.
