data_PCOD8150432
_publ_section_title
;
Structure prediction by ZEFSAII (Michael W. Deem and Ramdas Pophale) SiO2 
 PCOD8150432
Probable space group: C 2/C
;
_chemical_formula_sum "Si O2"
_cell_formula_units_Z 48
_cell_length_a 9.627170
_cell_length_b 10.445449
_cell_length_c 22.567309
_cell_angle_alpha 90.000000
_cell_angle_beta 110.439573
_cell_angle_gamma 90.000000
_cell_volume 2126.493844
_symmetry_space_group_name_H-M "C 2/C"
_symmetry_group_IT_number 15
_symmetry_cell_setting 'monoclinic'
loop_
_space_group_symop_operation_xyz
x,y,z
-x,y,1/2-z
-x,-y,-z
x,-y,1/2+z
1/2+x,1/2+y,z
1/2-x,1/2+y,1/2-z
1/2-x,1/2-y,-z
1/2+x,1/2-y,1/2+z
loop_
_atom_site_type_symbol
_atom_site_label
_atom_site_fract_x
_atom_site_fract_y
_atom_site_fract_z
Si Si1 0.806390 0.433848 0.416131
Si Si2 0.100578 0.707442 0.397011
Si Si3 0.656311 0.056146 0.291954
Si Si4 0.777260 0.817375 0.374287
Si Si5 0.837950 0.088989 0.205759
Si Si6 0.859936 0.437271 0.038047
O O1 0.713813 0.319036 0.430879
O O2 0.735003 0.475709 0.343475
O O3 0.806162 0.556032 0.461564
O O4 0.973398 0.383068 0.431023
O O5 0.118555 0.672862 0.330514
O O6 0.139049 0.583947 0.440879
O O7 0.936481 0.754968 0.388193
O O8 0.500000 0.991759 0.250000
O O9 0.737518 0.116743 0.247845
O O10 0.762833 0.950464 0.336974
O O11 0.653850 0.718818 0.331555
O O12 0.748844 0.847397 0.439755
O O13 0.000000 0.045033 0.250000
#
# Coordination Sequence:
#
# PCOD8150432 Si02
#       6
#     8   8   8   8   8   8
#     4  11  24  45  70  99 138 180 226 281 339 401
#     4  11  23  44  68  99 131 177 225 277 341 398
#     4  11  23  42  64  94 138 177 220 276 334 403
#     4  11  23  43  68  96 138 175 224 283 336 400
#     4  12  25  40  65 104 133 177 227 272 341 406
#     4  10  24  47  69 100 137 176 229 283 337 397
#
# _framework density 22.572368000000001
#
# number of rings (size 3 to 8) (size 9 to 14) (size 15 to 20)
#    0.000    1.000    3.333    3.000    4.667    2.000 
#    0.000    0.000    0.000    0.000    0.000    0.000 
#    0.000    0.000    0.000    0.000    0.000    0.000 
#
# Total GULP energy -297675.662512 kJ/mol
# GULP energy per Si atom -12403.152605 kJ/mol
# Density = 2.252099 g / cm^3
# Si number density = 22.572368 Si / 1000 Ang^3
#
#
#
# Elastic Constant Matrix: (Units=GPa)
#
#
# Indices 1 2 3 4 5 6 
#
# 1 121.5511 16.0732 40.2668 0.0000 -6.6756 0.0000
# 2 16.0732 33.2277 -14.4890 0.0000 1.4273 0.0000
# 3 40.2668 -14.4890 76.3761 0.0000 -4.0588 0.0000
# 4 0.0000 0.0000 0.0000 16.2480 0.0000 -1.0359
# 5 -6.6756 1.4273 -4.0588 0.0000 40.4978 0.0000
# 6 0.0000 0.0000 0.0000 -1.0359 0.0000 39.8939
#
#
#
# Elastic Compliance Matrix: (Units=1/GPa)
#
#
# Indices 1 2 3 4 5 6 
#
# 1 0.012309 -0.009609 -0.008230 0.000000 0.001543 0.000000
# 2 -0.009609 0.040323 0.012623 0.000000 -0.001740 0.000000
# 3 -0.008230 0.012623 0.019837 0.000000 0.000187 0.000000
# 4 0.000000 0.000000 0.000000 0.061648 0.000000 0.001601
# 5 0.001543 -0.001740 0.000187 0.000000 0.025027 0.000000
# 6 0.000000 0.000000 0.000000 0.001601 0.000000 0.025108
#
#
# Mechanical properties :
#
#
# Convention : Reuss Voigt Hill
#
# Bulk Modulus (GPa) = 16.11983 34.98410 25.55196
# Shear Modulus (GPa) = 23.21655 31.94818 27.58237
#
# Velocity S-wave (km/s) = 3.21056 3.76622 3.49944
# Velocity P-wave (km/s) = 4.57171 5.86897 5.26048
#
# Compressibility (1/GPa) = 0.06203540
#
# Stress axis : x y z
#
# Youngs Moduli (GPa) = 81.24176 24.79992 50.41103
#
# Poissons Ratio (x) = 0.23831 0.41491
# Poissons Ratio (y) = 0.78068 -0.63635
# Poissons Ratio (z) = 0.66866 -0.31305
#
# Static dielectric constant tensor:
#      x y z
#    x 4.078490 0.000000 -0.128090 
#    y 0.000000 3.875060 0.000000 
#    z -0.128090 0.000000 4.289260 
# 
# 
# High freq. dielectric constant tensor:
#      x y z
#    x 1.891580 0.000000 -0.009330 
#    y 0.000000 1.882320 0.000000 
#    z -0.009330 0.000000 1.903920 
# 
# From -- ./inp_files/263572.got.cif
#   From: 2010.06.25/outbox.cif.g09.slc.cpg/sg15_132_cif.got.tgz:263572.got - 2010.06.28 07:06:18.
