data_PCOD8150860
_publ_section_title
;
Structure prediction by ZEFSAII (Michael W. Deem and Ramdas Pophale) SiO2 
 PCOD8150860
Probable space group: C 2/C
;
_chemical_formula_sum "Si O2"
_cell_formula_units_Z 44
_cell_length_a 17.543032
_cell_length_b 10.342545
_cell_length_c 11.703606
_cell_angle_alpha 90.000000
_cell_angle_beta 58.434421
_cell_angle_gamma 90.000000
_cell_volume 1809.308201
_symmetry_space_group_name_H-M "C 2/C"
_symmetry_group_IT_number 15
_symmetry_cell_setting 'monoclinic'
loop_
_space_group_symop_operation_xyz
x,y,z
-x,y,1/2-z
-x,-y,-z
x,-y,1/2+z
1/2+x,1/2+y,z
1/2-x,1/2+y,1/2-z
1/2-x,1/2-y,-z
1/2+x,1/2-y,1/2+z
loop_
_atom_site_type_symbol
_atom_site_label
_atom_site_fract_x
_atom_site_fract_y
_atom_site_fract_z
Si Si1 0.572464 0.296829 0.968178
Si Si2 0.433993 0.270921 0.890012
Si Si3 0.349139 0.985386 0.360339
Si Si4 0.673844 0.555632 0.871436
Si Si5 0.735765 0.844518 0.403238
Si Si6 0.000000 0.314130 0.750000
O O1 0.494869 0.236565 0.951414
O O2 0.597610 0.445924 0.922967
O O3 0.662104 0.215279 0.875955
O O4 0.539334 0.280682 0.123532
O O5 0.500000 0.346982 0.750000
O O6 0.397057 0.150542 0.845989
O O7 0.351493 0.354154 0.001153
O O8 0.274809 0.990527 0.318150
O O9 0.300667 0.021061 0.517807
O O10 0.421127 0.092835 0.265661
O O11 0.677021 0.628176 0.744853
O O12 0.750000 0.750000 0.500000
#
# Coordination Sequence:
#
# PCOD8150860 Si02
#       6
#     8   8   8   8   8   4
#     4  11  27  46  76 109 152 200 253 317 382 454
#     4  12  28  46  71 110 152 197 254 316 383 445
#     4  11  25  48  76 106 148 199 258 312 372 464
#     4  12  28  45  78 107 154 201 252 317 384 457
#     4  11  26  46  76 106 146 197 258 307 379 455
#     4  10  26  46  78 106 150 194 258 306 384 448
#
# _framework density 24.318687000000001
#
# number of rings (size 3 to 8) (size 9 to 14) (size 15 to 20)
#    0.000    0.727    2.727    2.182   14.000    1.455 
#    0.000    0.000    0.000    0.000    0.000    0.000 
#    0.000    0.000    0.000    0.000    0.000    0.000 
#
# Total GULP energy -272694.054988 kJ/mol
# GULP energy per Si atom -12395.184318 kJ/mol
# Density = 2.426334 g / cm^3
# Si number density = 24.318687 Si / 1000 Ang^3
#
#
#
# Elastic Constant Matrix: (Units=GPa)
#
#
# Indices 1 2 3 4 5 6 
#
# 1 121.8873 15.5603 1.9847 0.0000 -5.2624 0.0000
# 2 15.5603 81.2505 52.3470 0.0000 -8.6260 0.0000
# 3 1.9847 52.3470 164.9091 0.0000 -22.4152 0.0000
# 4 0.0000 0.0000 0.0000 36.8419 0.0000 0.5690
# 5 -5.2624 -8.6260 -22.4152 0.0000 33.4984 0.0000
# 6 0.0000 0.0000 0.0000 0.5690 0.0000 24.7368
#
#
#
# Elastic Compliance Matrix: (Units=1/GPa)
#
#
# Indices 1 2 3 4 5 6 
#
# 1 0.008496 -0.001932 0.000687 0.000000 0.001297 0.000000
# 2 -0.001932 0.015929 -0.004969 0.000000 0.000474 0.000000
# 3 0.000687 -0.004969 0.008221 0.000000 0.004330 0.000000
# 4 0.000000 0.000000 0.000000 0.027153 0.000000 -0.000625
# 5 0.001297 0.000474 0.004330 0.000000 0.033075 0.000000
# 6 0.000000 0.000000 0.000000 -0.000625 0.000000 0.040440
#
#
# Mechanical properties :
#
#
# Convention : Reuss Voigt Hill
#
# Bulk Modulus (GPa) = 49.45790 56.42564 52.94177
# Shear Modulus (GPa) = 32.79100 38.89242 35.84171
#
# Velocity S-wave (km/s) = 3.67602 4.00344 3.84322
# Velocity P-wave (km/s) = 6.19670 6.68004 6.44291
#
# Compressibility (1/GPa) = 0.02021922
#
# Stress axis : x y z
#
# Youngs Moduli (GPa) = 117.70559 62.77809 121.63334
#
# Poissons Ratio (x) = 0.12130 -0.08361
# Poissons Ratio (y) = 0.22743 0.60437
# Poissons Ratio (z) = -0.08091 0.31193
#
# Static dielectric constant tensor:
#      x y z
#    x 4.489500 0.000000 -0.280880 
#    y 0.000000 4.246090 0.000000 
#    z -0.280880 0.000000 4.729250 
# 
# 
# High freq. dielectric constant tensor:
#      x y z
#    x 1.975830 0.000000 -0.013280 
#    y 0.000000 1.950140 0.000000 
#    z -0.013280 0.000000 1.979480 
# 
# From -- ./inp_files/104089.got.cif
#   From: 2010.06.25/outbox.cif.g09.slc.cpg/sg15_53_cif.got.tgz:104089.got - 2010.06.28 07:06:18.
