data_PCOD8150833
_publ_section_title
;
Structure prediction by ZEFSAII (Michael W. Deem and Ramdas Pophale) SiO2 
 PCOD8150833
Probable space group: C 2/C
;
_chemical_formula_sum "Si O2"
_cell_formula_units_Z 36
_cell_length_a 18.569209
_cell_length_b 9.212334
_cell_length_c 23.392977
_cell_angle_alpha 90.000000
_cell_angle_beta 24.532776
_cell_angle_gamma 90.000000
_cell_volume 1661.576213
_symmetry_space_group_name_H-M "C 2/C"
_symmetry_group_IT_number 15
_symmetry_cell_setting 'monoclinic'
loop_
_space_group_symop_operation_xyz
x,y,z
-x,y,1/2-z
-x,-y,-z
x,-y,1/2+z
1/2+x,1/2+y,z
1/2-x,1/2+y,1/2-z
1/2-x,1/2-y,-z
1/2+x,1/2-y,1/2+z
loop_
_atom_site_type_symbol
_atom_site_label
_atom_site_fract_x
_atom_site_fract_y
_atom_site_fract_z
Si Si1 0.500000 0.745366 0.250000
Si Si2 0.713203 0.957709 0.909129
Si Si3 0.648312 0.740812 0.858133
Si Si4 0.746516 0.265442 0.845602
Si Si5 0.927051 0.457573 0.207098
O O1 0.665273 0.644062 0.140375
O O2 0.533188 0.849673 0.171795
O O3 0.660282 0.886373 0.887403
O O4 0.807410 0.110419 0.826966
O O5 0.540060 0.991102 0.069657
O O6 0.746455 0.769032 0.728119
O O7 0.743509 0.611150 0.822178
O O8 0.448397 0.698320 0.993423
O O9 0.877221 0.390478 0.774301
#
# Coordination Sequence:
#
# PCOD8150833 Si02
#       5
#     4   8   8   8   8
#     4  10  26  46  66  86 122 180 222 260 320 372
#     4  11  23  44  65  93 134 169 211 268 311 380
#     4  11  22  40  69  97 135 166 205 258 331 380
#     4  12  22  40  67 101 130 166 207 266 324 378
#     4  11  23  43  66  95 129 170 216 263 312 384
#
# _framework density 21.666174999999999
#
# number of rings (size 3 to 8) (size 9 to 14) (size 15 to 20)
#    0.000    0.889    4.444    3.333    0.000    0.889 
#    8.000    2.222    0.000    0.000    0.000    0.000 
#    0.000    0.000    0.000    0.000    0.000    0.000 
#
# Total GULP energy -223251.540463 kJ/mol
# GULP energy per Si atom -12402.863359 kJ/mol
# Density = 2.161686 g / cm^3
# Si number density = 21.666175 Si / 1000 Ang^3
#
#
#
# Elastic Constant Matrix: (Units=GPa)
#
#
# Indices 1 2 3 4 5 6 
#
# 1 71.1041 44.6007 22.0942 0.0009 -1.2607 -0.0004
# 2 44.6007 178.1767 49.8704 0.0018 -2.5228 -0.0013
# 3 22.0942 49.8704 100.5907 0.0063 7.2409 -0.0035
# 4 0.0009 0.0018 0.0063 35.3906 -0.0011 7.7430
# 5 -1.2607 -2.5228 7.2409 -0.0011 21.5296 0.0002
# 6 -0.0004 -0.0013 -0.0035 7.7430 0.0002 19.2192
#
#
#
# Elastic Compliance Matrix: (Units=1/GPa)
#
#
# Indices 1 2 3 4 5 6 
#
# 1 0.017017 -0.003682 -0.002001 0.000000 0.001238 0.000000
# 2 -0.003682 0.007390 -0.002974 0.000000 0.001650 0.000000
# 3 -0.002001 -0.002974 0.012184 -0.000003 -0.004563 0.000003
# 4 0.000000 0.000000 -0.000003 0.030987 0.000003 -0.012484
# 5 0.001238 0.001650 -0.004563 0.000003 0.048248 -0.000002
# 6 0.000000 0.000000 0.000003 -0.012484 -0.000002 0.057061
#
#
# Mechanical properties :
#
#
# Convention : Reuss Voigt Hill
#
# Bulk Modulus (GPa) = 51.87691 64.77800 58.32746
# Shear Modulus (GPa) = 25.42882 30.78162 28.10522
#
# Velocity S-wave (km/s) = 3.42960 3.77334 3.60556
# Velocity P-wave (km/s) = 6.29909 6.99623 6.65679
#
# Compressibility (1/GPa) = 0.01927640
#
# Stress axis : x y z
#
# Youngs Moduli (GPa) = 58.76363 135.32207 82.07701
#
# Poissons Ratio (x) = 0.49826 0.16427
# Poissons Ratio (y) = 0.21637 0.24408
# Poissons Ratio (z) = 0.11761 0.40241
#
# Static dielectric constant tensor:
#      x y z
#    x 3.698980 0.000000 0.049990 
#    y 0.000000 4.207000 0.000010 
#    z 0.049990 0.000010 3.802590 
# 
# 
# High freq. dielectric constant tensor:
#      x y z
#    x 1.829590 0.000000 0.006300 
#    y 0.000000 1.871280 0.000000 
#    z 0.006300 0.000000 1.851100 
# 
# From -- ./inp_files/53592.got.cif
#   From: 2010.06.25/outbox.cif.g09.slc.cpg/sg15_27_cif.got.tgz:53592.got - 2010.06.28 07:06:18.
