data_PCOD8150664
_publ_section_title
;
Structure prediction by ZEFSAII (Michael W. Deem and Ramdas Pophale) SiO2 
 PCOD8150664
Probable space group: C 2/C
;
_chemical_formula_sum "Si O2"
_cell_formula_units_Z 32
_cell_length_a 30.882002
_cell_length_b 5.388742
_cell_length_c 8.895718
_cell_angle_alpha 90.000000
_cell_angle_beta 114.574195
_cell_angle_gamma 90.000000
_cell_volume 1346.294335
_symmetry_space_group_name_H-M "C 2/C"
_symmetry_group_IT_number 15
_symmetry_cell_setting 'monoclinic'
loop_
_space_group_symop_operation_xyz
x,y,z
-x,y,1/2-z
-x,-y,-z
x,-y,1/2+z
1/2+x,1/2+y,z
1/2-x,1/2+y,1/2-z
1/2-x,1/2-y,-z
1/2+x,1/2-y,1/2+z
loop_
_atom_site_type_symbol
_atom_site_label
_atom_site_fract_x
_atom_site_fract_y
_atom_site_fract_z
Si Si1 0.876031 0.803442 0.329863
Si Si2 0.955682 0.178760 0.447311
Si Si3 0.766405 0.789424 0.193778
Si Si4 0.923293 0.505854 0.156770
O O1 0.821489 0.866165 0.279385
O O2 0.880488 0.624435 0.192369
O O3 0.899659 0.689623 0.512045
O O4 0.904998 0.052942 0.336188
O O5 0.961757 0.388106 0.327798
O O6 0.953212 0.287993 0.610865
O O7 0.000000 0.000000 0.500000
O O8 0.760061 0.528783 0.273311
O O9 0.750000 0.750000 0.000000
#
# Coordination Sequence:
#
# PCOD8150664 Si02
#       4
#     8   8   8   8
#     4  11  25  44  75 102 148 192 247 311 377 455
#     4  11  26  46  73 108 145 195 247 308 379 456
#     4  12  29  49  79 116 158 206 268 327 402 472
#     4  10  25  45  72 104 145 189 248 303 380 446
#
# _framework density 23.768946
#
# number of rings (size 3 to 8) (size 9 to 14) (size 15 to 20)
#    0.000    1.000    0.000    3.750   14.000   10.000 
#    0.000    3.750    0.000    0.000    0.000    0.000 
#    0.000    0.000    0.000    0.000    0.000    0.000 
#
# Total GULP energy -198459.383912 kJ/mol
# GULP energy per Si atom -12403.711495 kJ/mol
# Density = 2.371485 g / cm^3
# Si number density = 23.768946 Si / 1000 Ang^3
#
#
#
# Elastic Constant Matrix: (Units=GPa)
#
#
# Indices 1 2 3 4 5 6 
#
# 1 150.6641 50.1144 53.6734 0.0000 9.9187 0.0000
# 2 50.1144 113.4264 33.6970 0.0000 -11.7091 0.0000
# 3 53.6734 33.6970 126.8340 0.0000 -24.3048 0.0000
# 4 0.0000 0.0000 0.0000 31.5191 0.0000 -5.3029
# 5 9.9187 -11.7091 -24.3048 0.0000 41.5585 0.0000
# 6 0.0000 0.0000 0.0000 -5.3029 0.0000 45.1370
#
#
#
# Elastic Compliance Matrix: (Units=1/GPa)
#
#
# Indices 1 2 3 4 5 6 
#
# 1 0.009763 -0.003645 -0.004287 0.000000 -0.005864 0.000000
# 2 -0.003645 0.011002 -0.000698 0.000000 0.003562 0.000000
# 3 -0.004287 -0.000698 0.011310 0.000000 0.007441 0.000000
# 4 0.000000 0.000000 0.000000 0.032367 0.000000 0.003803
# 5 -0.005864 0.003562 0.007441 0.000000 0.030817 0.000000
# 6 0.000000 0.000000 0.000000 0.003803 0.000000 0.022602
#
#
# Mechanical properties :
#
#
# Convention : Reuss Voigt Hill
#
# Bulk Modulus (GPa) = 67.50062 73.98825 70.74444
# Shear Modulus (GPa) = 35.69955 40.53890 38.11923
#
# Velocity S-wave (km/s) = 3.87969 4.13430 4.00902
# Velocity P-wave (km/s) = 6.96632 7.34749 7.15944
#
# Compressibility (1/GPa) = 0.01481468
#
# Stress axis : x y z
#
# Youngs Moduli (GPa) = 102.42745 90.89358 88.42044
#
# Poissons Ratio (x) = 0.33134 0.37904
# Poissons Ratio (y) = 0.37339 0.06170
# Poissons Ratio (z) = 0.43908 0.06342
#
# Static dielectric constant tensor:
#      x y z
#    x 4.431980 0.000000 -0.292870 
#    y 0.000000 4.612280 0.000000 
#    z -0.292870 0.000000 4.429750 
# 
# 
# High freq. dielectric constant tensor:
#      x y z
#    x 1.946430 0.000000 -0.016040 
#    y 0.000000 1.955850 0.000000 
#    z -0.016040 0.000000 1.960370 
# 
# From -- ./inp_files/67876.got.cif
#   From: 2010.06.25/outbox.cif.g09.slc.cpg/sg15_34_cif.got.tgz:67876.got - 2010.06.28 07:06:18.
