data_PCOD8150194
_publ_section_title
;
Structure prediction by ZEFSAII (Michael W. Deem and Ramdas Pophale) SiO2 
 PCOD8150194
Probable space group: C 2/C
;
_chemical_formula_sum "Si O2"
_cell_formula_units_Z 44
_cell_length_a 7.923897
_cell_length_b 27.827838
_cell_length_c 11.463892
_cell_angle_alpha 90.000000
_cell_angle_beta 130.008378
_cell_angle_gamma 90.000000
_cell_volume 1936.203703
_symmetry_space_group_name_H-M "C 2/C"
_symmetry_group_IT_number 15
_symmetry_cell_setting 'monoclinic'
loop_
_space_group_symop_operation_xyz
x,y,z
-x,y,1/2-z
-x,-y,-z
x,-y,1/2+z
1/2+x,1/2+y,z
1/2-x,1/2+y,1/2-z
1/2-x,1/2-y,-z
1/2+x,1/2-y,1/2+z
loop_
_atom_site_type_symbol
_atom_site_label
_atom_site_fract_x
_atom_site_fract_y
_atom_site_fract_z
Si Si1 0.044982 0.717455 0.929063
Si Si2 0.630940 0.010817 0.181191
Si Si3 0.500000 0.866586 0.250000
Si Si4 0.744027 0.893248 0.818377
Si Si5 0.086518 0.921933 0.165709
Si Si6 0.675257 0.791168 0.731282
O O1 0.095955 0.666839 0.892648
O O2 0.832178 0.745008 0.785205
O O3 0.250000 0.750000 0.000000
O O4 0.015685 0.704680 0.050217
O O5 0.500000 0.007261 0.250000
O O6 0.846416 0.977363 0.284394
O O7 0.723496 0.065462 0.209897
O O8 0.500000 0.000000 0.000000
O O9 0.308669 0.898136 0.219583
O O10 0.500000 0.880319 0.750000
O O11 0.824173 0.840296 0.811445
O O12 0.892078 0.915280 0.986944
O O13 0.000000 0.900026 0.250000
O O14 0.500000 0.778876 0.750000
#
# Coordination Sequence:
#
# PCOD8150194 Si02
#       6
#     8   8   4   8   8   8
#     4  12  24  47  66 101 145 186 238 304 361 435
#     4  11  24  47  75 109 155 194 249 313 373 449
#     4  12  28  44  76 110 146 190 250 298 374 436
#     4  10  24  44  72 108 144 192 251 299 370 440
#     4  12  26  47  77 107 151 196 247 307 371 442
#     4  11  25  43  72 102 141 188 245 297 365 430
#
# _framework density 22.724881
#
# number of rings (size 3 to 8) (size 9 to 14) (size 15 to 20)
#    0.000    0.727    2.727    4.364    7.636    0.727 
#    0.000    3.636    0.000    0.000    0.000    0.000 
#    0.000    0.000    0.000    0.000    0.000    0.000 
#
# Total GULP energy -272551.083944 kJ/mol
# GULP energy per Si atom -12388.685634 kJ/mol
# Density = 2.267316 g / cm^3
# Si number density = 22.724881 Si / 1000 Ang^3
#
#
#
# Elastic Constant Matrix: (Units=GPa)
#
#
# Indices 1 2 3 4 5 6 
#
# 1 114.1390 21.4197 23.3014 0.0000 -6.4535 0.0000
# 2 21.4197 98.0848 6.5803 0.0000 2.6941 0.0000
# 3 23.3014 6.5803 124.4248 0.0000 -15.0027 0.0000
# 4 0.0000 0.0000 0.0000 36.0968 0.0000 -6.2359
# 5 -6.4535 2.6941 -15.0027 0.0000 43.4052 0.0000
# 6 0.0000 0.0000 0.0000 -6.2359 0.0000 26.1965
#
#
#
# Elastic Compliance Matrix: (Units=1/GPa)
#
#
# Indices 1 2 3 4 5 6 
#
# 1 0.009511 -0.002000 -0.001555 0.000000 0.001001 0.000000
# 2 -0.002000 0.010683 -0.000320 0.000000 -0.001071 0.000000
# 3 -0.001555 -0.000320 0.008681 0.000000 0.002789 0.000000
# 4 0.000000 0.000000 0.000000 0.028891 0.000000 0.006877
# 5 0.001001 -0.001071 0.002789 0.000000 0.024218 0.000000
# 6 0.000000 0.000000 0.000000 0.006877 0.000000 0.039810
#
#
# Mechanical properties :
#
#
# Convention : Reuss Voigt Hill
#
# Bulk Modulus (GPa) = 47.33439 48.80572 48.07005
# Shear Modulus (GPa) = 36.60720 40.16283 38.38502
#
# Velocity S-wave (km/s) = 4.01794 4.20855 4.11435
# Velocity P-wave (km/s) = 6.51150 6.71857 6.61585
#
# Compressibility (1/GPa) = 0.02112629
#
# Stress axis : x y z
#
# Youngs Moduli (GPa) = 105.14636 93.60764 115.18943
#
# Poissons Ratio (x) = 0.18723 0.17908
# Poissons Ratio (y) = 0.21030 0.03681
# Poissons Ratio (z) = 0.16346 0.02991
#
# Static dielectric constant tensor:
#      x y z
#    x 4.195770 0.000000 0.123340 
#    y 0.000000 1.002740 0.000000 
#    z 0.123340 0.000000 6.033520 
# 
# 
# High freq. dielectric constant tensor:
#      x y z
#    x 1.893150 0.000000 -0.007750 
#    y 0.000000 1.914240 0.000000 
#    z -0.007750 0.000000 1.907100 
# 
# From -- ./inp_files/81570.got.cif
#   From: 2010.06.25/outbox.cif.g09.slc.cpg/sg15_41_cif.got.tgz:81570.got - 2010.06.28 07:06:18.
