data_PCOD8150230
_publ_section_title
;
Structure prediction by ZEFSAII (Michael W. Deem and Ramdas Pophale) SiO2 
 PCOD8150230
Probable space group: C 2/C
;
_chemical_formula_sum "Si O2"
_cell_formula_units_Z 48
_cell_length_a 16.294792
_cell_length_b 8.691993
_cell_length_c 17.301684
_cell_angle_alpha 90.000000
_cell_angle_beta 83.569843
_cell_angle_gamma 90.000000
_cell_volume 2435.094594
_symmetry_space_group_name_H-M "C 2/C"
_symmetry_group_IT_number 15
_symmetry_cell_setting 'monoclinic'
loop_
_space_group_symop_operation_xyz
x,y,z
-x,y,1/2-z
-x,-y,-z
x,-y,1/2+z
1/2+x,1/2+y,z
1/2-x,1/2+y,1/2-z
1/2-x,1/2-y,-z
1/2+x,1/2-y,1/2+z
loop_
_atom_site_type_symbol
_atom_site_label
_atom_site_fract_x
_atom_site_fract_y
_atom_site_fract_z
Si Si1 0.510365 0.798408 0.661940
Si Si2 0.342233 0.027079 0.152895
Si Si3 0.667502 0.986170 0.669071
Si Si4 0.421658 0.546582 0.962327
Si Si5 0.201668 0.780180 0.926989
Si Si6 0.296449 0.295897 0.918292
O O1 0.500000 0.730244 0.750000
O O2 0.550052 0.667894 0.604730
O O3 0.426104 0.871810 0.636044
O O4 0.575946 0.933654 0.658741
O O5 0.325089 0.976120 0.241780
O O6 0.341791 0.873283 0.101163
O O7 0.266273 0.130144 0.134999
O O8 0.671742 0.140380 0.621016
O O9 0.737087 0.859651 0.640810
O O10 0.373562 0.408655 0.925105
O O11 0.500000 0.500000 0.000000
O O12 0.369597 0.606474 0.040276
O O13 0.250000 0.750000 0.000000
O O14 0.250000 0.250000 0.000000
#
# Coordination Sequence:
#
# PCOD8150230 Si02
#       6
#     8   8   8   8   8   8
#     4  10  24  45  65  93 132 170 211 265 324 379
#     4  11  24  42  66  96 127 172 212 261 323 382
#     4  11  23  43  66  94 131 167 213 265 319 385
#     4  12  26  43  64  95 129 169 216 268 320 379
#     4  12  22  44  67  93 128 171 214 261 323 378
#     4  12  23  42  66  98 126 165 219 263 317 383
#
# _framework density 19.711759000000001
#
# number of rings (size 3 to 8) (size 9 to 14) (size 15 to 20)
#    0.000    0.667    5.000    2.000    2.333    2.000 
#    3.000    0.000    0.000    0.000    0.000    0.000 
#    0.000    0.000    0.000    0.000    0.000    0.000 
#
# Total GULP energy -297531.464719 kJ/mol
# GULP energy per Si atom -12397.144363 kJ/mol
# Density = 1.966689 g / cm^3
# Si number density = 19.711759 Si / 1000 Ang^3
#
#
#
# Elastic Constant Matrix: (Units=GPa)
#
#
# Indices 1 2 3 4 5 6 
#
# 1 123.3236 21.7777 40.1530 0.0000 19.3757 0.0000
# 2 21.7777 73.2801 41.4512 0.0000 10.9927 0.0000
# 3 40.1530 41.4512 109.9257 0.0000 7.2774 0.0000
# 4 0.0000 0.0000 0.0000 37.2183 0.0000 -3.5796
# 5 19.3757 10.9927 7.2774 0.0000 39.1722 0.0000
# 6 0.0000 0.0000 0.0000 -3.5796 0.0000 42.3455
#
#
#
# Elastic Compliance Matrix: (Units=1/GPa)
#
#
# Indices 1 2 3 4 5 6 
#
# 1 0.009875 -0.000543 -0.003128 0.000000 -0.004151 0.000000
# 2 -0.000543 0.017922 -0.006322 0.000000 -0.003586 0.000000
# 3 -0.003128 -0.006322 0.012558 0.000000 0.000988 0.000000
# 4 0.000000 0.000000 0.000000 0.027089 0.000000 0.002290
# 5 -0.004151 -0.003586 0.000988 0.000000 0.028404 0.000000
# 6 0.000000 0.000000 0.000000 0.002290 0.000000 0.023809
#
#
# Mechanical properties :
#
#
# Convention : Reuss Voigt Hill
#
# Bulk Modulus (GPa) = 49.09308 57.03257 53.06283
# Shear Modulus (GPa) = 34.14545 37.29037 35.71791
#
# Velocity S-wave (km/s) = 4.16653 4.35418 4.26139
# Velocity P-wave (km/s) = 6.93586 7.36713 7.15475
#
# Compressibility (1/GPa) = 0.02036947
#
# Stress axis : x y z
#
# Youngs Moduli (GPa) = 101.26449 55.79794 79.62987
#
# Poissons Ratio (x) = 0.03029 0.24905
# Poissons Ratio (y) = 0.05497 0.50344
# Poissons Ratio (z) = 0.31671 0.35277
#
# Static dielectric constant tensor:
#      x y z
#    x 5.033640 0.000000 1.516810 
#    y 0.000000 3.651360 0.000000 
#    z 1.516810 0.000000 5.430950 
# 
# 
# High freq. dielectric constant tensor:
#      x y z
#    x 1.786490 0.000000 0.000860 
#    y 0.000000 1.776000 0.000000 
#    z 0.000860 0.000000 1.784180 
# 
# From -- ./inp_files/202999.got.cif
#   From: 2010.06.25/outbox.cif.g09.slc.cpg/sg15_102_cif.got.tgz:202999.got - 2010.06.28 07:06:18.
