data_PCOD8150552
_publ_section_title
;
Structure prediction by ZEFSAII (Michael W. Deem and Ramdas Pophale) SiO2 
 PCOD8150552
Probable space group: C 2/C
;
_chemical_formula_sum "Si O2"
_cell_formula_units_Z 56
_cell_length_a 26.909833
_cell_length_b 8.953589
_cell_length_c 12.523393
_cell_angle_alpha 90.000000
_cell_angle_beta 58.490258
_cell_angle_gamma 90.000000
_cell_volume 2572.472222
_symmetry_space_group_name_H-M "C 2/C"
_symmetry_group_IT_number 15
_symmetry_cell_setting 'monoclinic'
loop_
_space_group_symop_operation_xyz
x,y,z
-x,y,1/2-z
-x,-y,-z
x,-y,1/2+z
1/2+x,1/2+y,z
1/2-x,1/2+y,1/2-z
1/2-x,1/2-y,-z
1/2+x,1/2-y,1/2+z
loop_
_atom_site_type_symbol
_atom_site_label
_atom_site_fract_x
_atom_site_fract_y
_atom_site_fract_z
Si Si1 0.699048 0.412578 0.748182
Si Si2 0.436085 0.206655 0.850548
Si Si3 0.132645 0.270296 0.501525
Si Si4 0.263267 0.369965 0.128908
Si Si5 0.851201 0.505268 0.335223
Si Si6 0.627450 0.475871 0.625481
Si Si7 0.067352 0.480841 0.949543
O O1 0.727963 0.563846 0.761242
O O2 0.748955 0.307594 0.638737
O O3 0.647881 0.467620 0.726100
O O4 0.676137 0.303870 0.868091
O O5 0.500000 0.145684 0.750000
O O6 0.431370 0.382809 0.832446
O O7 0.386228 0.139883 0.831555
O O8 0.423509 0.162399 0.985795
O O9 0.162252 0.382547 0.552498
O O10 0.084756 0.363266 0.488721
O O11 0.108843 0.139373 0.605563
O O12 0.211557 0.464626 0.136835
O O13 0.321718 0.398258 0.999197
O O14 0.892300 0.568094 0.194625
O O15 0.000000 0.500000 0.000000
#
# Coordination Sequence:
#
# PCOD8150552 Si02
#       7
#     8   8   8   8   8   8   8
#     4  11  24  41  64  95 140 173 223 276 338 405
#     4  11  23  42  66  94 131 180 225 274 335 403
#     4  10  25  42  66 100 131 172 226 273 337 404
#     4  11  25  38  68  96 130 178 229 274 344 404
#     4  11  23  42  69  95 132 172 227 287 331 397
#     4  11  25  43  63  96 141 175 219 278 344 406
#     4  11  22  42  69  93 127 172 228 281 327 388
#
# _framework density 21.768943
#
# number of rings (size 3 to 8) (size 9 to 14) (size 15 to 20)
#    0.000    1.143    4.286    0.429    6.000    2.286 
#    2.571    0.714    0.000    0.000    0.000    0.000 
#    0.000    0.000    0.000    0.000    0.000    0.000 
#
# Total GULP energy -347017.851384 kJ/mol
# GULP energy per Si atom -12393.494692 kJ/mol
# Density = 2.171940 g / cm^3
# Si number density = 21.768943 Si / 1000 Ang^3
#
#
#
# Elastic Constant Matrix: (Units=GPa)
#
#
# Indices 1 2 3 4 5 6 
#
# 1 92.1973 21.2356 14.4863 0.0000 20.7666 0.0000
# 2 21.2356 74.9404 -0.2326 0.0000 15.4362 0.0000
# 3 14.4863 -0.2326 72.5035 0.0000 16.6654 0.0000
# 4 0.0000 0.0000 0.0000 35.9663 0.0000 3.0570
# 5 20.7666 15.4362 16.6654 0.0000 29.2442 0.0000
# 6 0.0000 0.0000 0.0000 3.0570 0.0000 26.2019
#
#
#
# Elastic Compliance Matrix: (Units=1/GPa)
#
#
# Indices 1 2 3 4 5 6 
#
# 1 0.013226 -0.002151 -0.000865 0.000000 -0.007764 0.000000
# 2 -0.002151 0.015617 0.002329 0.000000 -0.008043 0.000000
# 3 -0.000865 0.002329 0.016242 0.000000 -0.009870 0.000000
# 4 0.000000 0.000000 0.000000 0.028082 0.000000 -0.003276
# 5 -0.007764 -0.008043 -0.009870 0.000000 0.049578 0.000000
# 6 0.000000 0.000000 0.000000 -0.003276 0.000000 0.038547
#
#
# Mechanical properties :
#
#
# Convention : Reuss Voigt Hill
#
# Bulk Modulus (GPa) = 22.87821 34.51331 28.69576
# Shear Modulus (GPa) = 28.21051 31.89259 30.05155
#
# Velocity S-wave (km/s) = 3.60378 3.83175 3.71951
# Velocity P-wave (km/s) = 5.27718 5.95527 5.62645
#
# Compressibility (1/GPa) = 0.04370971
#
# Stress axis : x y z
#
# Youngs Moduli (GPa) = 75.60599 64.03090 61.57054
#
# Poissons Ratio (x) = 0.13776 0.05326
# Poissons Ratio (y) = 0.16266 -0.14338
# Poissons Ratio (z) = 0.06540 -0.14910
#
# Static dielectric constant tensor:
#      x y z
#    x 3.985550 0.000000 0.290580 
#    y 0.000000 4.069510 0.000000 
#    z 0.290580 0.000000 4.169380 
# 
# 
# High freq. dielectric constant tensor:
#      x y z
#    x 1.855720 0.000000 0.019270 
#    y 0.000000 1.853530 0.000000 
#    z 0.019270 0.000000 1.861030 
# 
# From -- ./inp_files/121876.got.cif
#   From: 2010.06.25/outbox.cif.g09.slc.cpg/sg15_61_cif.got.tgz:121876.got - 2010.06.28 07:06:18.
