data_PCOD8150720
_publ_section_title
;
Structure prediction by ZEFSAII (Michael W. Deem and Ramdas Pophale) SiO2 
 PCOD8150720
Probable space group: C 2/C
;
_chemical_formula_sum "Si O2"
_cell_formula_units_Z 52
_cell_length_a 5.036196
_cell_length_b 20.475374
_cell_length_c 20.971590
_cell_angle_alpha 90.000000
_cell_angle_beta 118.241152
_cell_angle_gamma 90.000000
_cell_volume 1905.126855
_symmetry_space_group_name_H-M "C 2/C"
_symmetry_group_IT_number 15
_symmetry_cell_setting 'monoclinic'
loop_
_space_group_symop_operation_xyz
x,y,z
-x,y,1/2-z
-x,-y,-z
x,-y,1/2+z
1/2+x,1/2+y,z
1/2-x,1/2+y,1/2-z
1/2-x,1/2-y,-z
1/2+x,1/2-y,1/2+z
loop_
_atom_site_type_symbol
_atom_site_label
_atom_site_fract_x
_atom_site_fract_y
_atom_site_fract_z
Si Si1 0.289882 0.000268 0.887087
Si Si2 0.500000 0.128084 0.750000
Si Si3 0.086287 0.936233 0.556104
Si Si4 0.000000 0.220679 0.750000
Si Si5 0.423885 0.397824 0.399781
Si Si6 0.904388 0.755202 0.448636
Si Si7 0.500000 0.419866 0.750000
Si Si8 0.509569 0.172187 0.348673
O O1 0.629120 0.986198 0.902893
O O2 0.215486 0.960474 0.943335
O O3 0.032355 0.968607 0.812809
O O4 0.216781 0.078027 0.890558
O O5 0.252020 0.175117 0.750685
O O6 0.364957 0.082446 0.677696
O O7 0.193175 0.865344 0.592179
O O8 0.962449 0.936069 0.470184
O O9 0.868560 0.266587 0.678461
O O10 0.366141 0.322370 0.406066
O O11 0.750000 0.750000 0.500000
O O12 0.818297 0.697125 0.389125
O O13 0.250000 0.750000 0.500000
O O14 0.205409 0.373055 0.719541
#
# Coordination Sequence:
#
# PCOD8150720 Si02
#       8
#     8   4   8   4   8   8   4   8
#     4  11  27  50  76 115 142 203 253 315 383 444
#     4  12  31  44  71 108 157 205 240 308 396 456
#     4  11  26  47  80 108 145 198 257 315 375 445
#     4  12  26  47  67 112 154 196 254 304 384 468
#     4  12  28  51  77 110 160 196 254 319 378 464
#     4  12  29  46  75 114 153 202 254 314 388 453
#     4  10  25  47  80 106 153 195 258 320 380 462
#     4  11  24  47  77 109 152 197 259 316 380 455
#
# _framework density 27.294768999999999
#
# number of rings (size 3 to 8) (size 9 to 14) (size 15 to 20)
#    0.000    0.615    3.077    2.308    6.462    9.846 
#    0.000    0.000    0.000    0.000    0.000    0.000 
#    0.000    0.000    0.000    0.000    0.000    0.000 
#
# Total GULP energy -322092.180084 kJ/mol
# GULP energy per Si atom -12388.160772 kJ/mol
# Density = 2.723264 g / cm^3
# Si number density = 27.294769 Si / 1000 Ang^3
#
#
#
# Elastic Constant Matrix: (Units=GPa)
#
#
# Indices 1 2 3 4 5 6 
#
# 1 108.8733 24.2334 16.6579 0.0000 -5.6463 0.0000
# 2 24.2334 108.6822 32.3143 0.0000 -4.5822 0.0000
# 3 16.6579 32.3143 161.6522 0.0000 8.6985 0.0000
# 4 0.0000 0.0000 0.0000 43.1441 0.0000 10.3951
# 5 -5.6463 -4.5822 8.6985 0.0000 34.7699 0.0000
# 6 0.0000 0.0000 0.0000 10.3951 0.0000 30.8301
#
#
#
# Elastic Compliance Matrix: (Units=1/GPa)
#
#
# Indices 1 2 3 4 5 6 
#
# 1 0.009797 -0.001910 -0.000709 0.000000 0.001517 0.000000
# 2 -0.001910 0.010268 -0.001938 0.000000 0.001528 0.000000
# 3 -0.000709 -0.001938 0.006758 0.000000 -0.002061 0.000000
# 4 0.000000 0.000000 0.000000 0.025228 0.000000 -0.008506
# 5 0.001517 0.001528 -0.002061 0.000000 0.029724 0.000000
# 6 0.000000 0.000000 0.000000 -0.008506 0.000000 0.035304
#
#
# Mechanical properties :
#
#
# Convention : Reuss Voigt Hill
#
# Bulk Modulus (GPa) = 56.47073 58.40210 57.43642
# Shear Modulus (GPa) = 37.85171 42.14894 40.00033
#
# Velocity S-wave (km/s) = 3.72798 3.93391 3.83233
# Velocity P-wave (km/s) = 6.26615 6.48671 6.37738
#
# Compressibility (1/GPa) = 0.01770829
#
# Stress axis : x y z
#
# Youngs Moduli (GPa) = 102.06937 97.39418 147.98307
#
# Poissons Ratio (x) = 0.18599 0.10499
# Poissons Ratio (y) = 0.19492 0.28678
# Poissons Ratio (z) = 0.07241 0.18874
#
# Static dielectric constant tensor:
#      x y z
#    x 4.400830 0.000000 -0.115170 
#    y 0.000000 5.065970 0.000000 
#    z -0.115170 0.000000 5.627840 
# 
# 
# High freq. dielectric constant tensor:
#      x y z
#    x 2.084320 0.000000 -0.007510 
#    y 0.000000 2.114930 0.000000 
#    z -0.007510 0.000000 2.131630 
# 
# From -- ./inp_files/228237.got.cif
#   From: 2010.06.25/outbox.cif.g09.slc.cpg/sg15_115_cif.got.tgz:228237.got - 2010.06.28 07:06:18.
