data_PCOD8150361
_publ_section_title
;
Structure prediction by ZEFSAII (Michael W. Deem and Ramdas Pophale) SiO2 
 PCOD8150361
Probable space group: C 2/C
;
_chemical_formula_sum "Si O2"
_cell_formula_units_Z 60
_cell_length_a 19.546231
_cell_length_b 13.180963
_cell_length_c 11.539936
_cell_angle_alpha 90.000000
_cell_angle_beta 62.466577
_cell_angle_gamma 90.000000
_cell_volume 2636.395227
_symmetry_space_group_name_H-M "C 2/C"
_symmetry_group_IT_number 15
_symmetry_cell_setting 'monoclinic'
loop_
_space_group_symop_operation_xyz
x,y,z
-x,y,1/2-z
-x,-y,-z
x,-y,1/2+z
1/2+x,1/2+y,z
1/2-x,1/2+y,1/2-z
1/2-x,1/2-y,-z
1/2+x,1/2-y,1/2+z
loop_
_atom_site_type_symbol
_atom_site_label
_atom_site_fract_x
_atom_site_fract_y
_atom_site_fract_z
Si Si1 0.378366 0.136414 0.420491
Si Si2 0.077061 0.159356 0.747967
Si Si3 0.512547 0.388226 0.534754
Si Si4 0.861624 0.962790 0.907269
Si Si5 0.841416 0.182328 0.232395
Si Si6 0.625947 0.105882 0.811612
Si Si7 0.500000 0.023252 0.750000
Si Si8 0.757832 0.441600 0.852907
O O1 0.399418 0.234348 0.328007
O O2 0.380411 0.155500 0.555347
O O3 0.294849 0.100109 0.442624
O O4 0.437529 0.045030 0.360967
O O5 0.000000 0.119692 0.750000
O O6 0.133630 0.067489 0.670314
O O7 0.061973 0.173516 0.898048
O O8 0.500000 0.500000 0.500000
O O9 0.560798 0.402917 0.615396
O O10 0.429984 0.336856 0.621951
O O11 0.816855 0.887024 0.858650
O O12 0.811459 0.982302 0.061509
O O13 0.832472 0.298667 0.283070
O O14 0.777648 0.155044 0.185187
O O15 0.542402 0.089781 0.816534
O O16 0.677138 0.003680 0.770479
#
# Coordination Sequence:
#
# PCOD8150361 Si02
#       8
#     8   8   8   8   8   8   4   8
#     4  11  24  43  71  95 132 177 226 277 332 402
#     4  12  21  38  66 101 128 169 224 277 330 395
#     4  12  22  39  65 101 136 174 218 283 338 393
#     4  12  23  40  65  94 141 176 221 278 340 403
#     4  12  25  42  67 100 137 177 225 277 341 404
#     4  11  26  46  69  98 136 177 227 278 337 399
#     4  10  24  46  70  98 130 178 224 282 336 402
#     4  11  25  45  64  97 135 181 223 278 333 404
#
# _framework density 22.758347000000001
#
# number of rings (size 3 to 8) (size 9 to 14) (size 15 to 20)
#    0.000    0.533    4.667    3.200    1.867    4.800 
#    0.000    0.000    0.000    0.000    0.000    0.000 
#    0.000    0.000    0.000    0.000    0.000    0.000 
#
# Total GULP energy -371823.102240 kJ/mol
# GULP energy per Si atom -12394.103408 kJ/mol
# Density = 2.270655 g / cm^3
# Si number density = 22.758347 Si / 1000 Ang^3
#
#
#
# Elastic Constant Matrix: (Units=GPa)
#
#
# Indices 1 2 3 4 5 6 
#
# 1 131.6005 39.9655 11.1882 0.0000 12.4105 0.0000
# 2 39.9655 120.8036 15.0017 0.0000 13.0993 0.0000
# 3 11.1882 15.0017 62.0301 0.0000 7.8640 0.0000
# 4 0.0000 0.0000 0.0000 26.7535 0.0000 14.0670
# 5 12.4105 13.0993 7.8640 0.0000 30.4152 0.0000
# 6 0.0000 0.0000 0.0000 14.0670 0.0000 17.5242
#
#
#
# Elastic Compliance Matrix: (Units=1/GPa)
#
#
# Indices 1 2 3 4 5 6 
#
# 1 0.008637 -0.002530 -0.000659 0.000000 -0.002264 0.000000
# 2 -0.002530 0.009597 -0.001521 0.000000 -0.002708 0.000000
# 3 -0.000659 -0.001521 0.017050 0.000000 -0.003484 0.000000
# 4 0.000000 0.000000 0.000000 0.064676 0.000000 -0.051917
# 5 -0.002264 -0.002708 -0.003484 0.000000 0.035869 0.000000
# 6 0.000000 0.000000 0.000000 -0.051917 0.000000 0.098739
#
#
# Mechanical properties :
#
#
# Convention : Reuss Voigt Hill
#
# Bulk Modulus (GPa) = 38.66502 49.63833 44.15168
# Shear Modulus (GPa) = 19.79343 31.49050 25.64196
#
# Velocity S-wave (km/s) = 2.95230 3.72383 3.36029
# Velocity P-wave (km/s) = 5.35236 6.35198 5.87347
#
# Compressibility (1/GPa) = 0.02586317
#
# Stress axis : x y z
#
# Youngs Moduli (GPa) = 115.78641 104.19456 58.65197
#
# Poissons Ratio (x) = 0.26360 0.03864
# Poissons Ratio (y) = 0.29293 0.08924
# Poissons Ratio (z) = 0.07629 0.15853
#
# Static dielectric constant tensor:
#      x y z
#    x -11.109970 0.000000 -11.565630 
#    y 0.000000 4.265230 0.000000 
#    z -11.565630 0.000000 -4.759900 
# 
# 
# High freq. dielectric constant tensor:
#      x y z
#    x 1.904340 0.000000 0.010100 
#    y 0.000000 1.900640 0.000000 
#    z 0.010100 0.000000 1.887680 
# 
# From -- ./inp_files/105707.got.cif
#   From: 2010.06.25/outbox.cif.g09.slc.cpg/sg15_53_cif.got.tgz:105707.got - 2010.06.28 07:06:18.
