data_PCOD8150909
_publ_section_title
;
Structure prediction by ZEFSAII (Michael W. Deem and Ramdas Pophale) SiO2 
 PCOD8150909
Probable space group: C 2/C
;
_chemical_formula_sum "Si O2"
_cell_formula_units_Z 44
_cell_length_a 25.674326
_cell_length_b 8.820149
_cell_length_c 10.839616
_cell_angle_alpha 90.000000
_cell_angle_beta 56.340807
_cell_angle_gamma 90.000000
_cell_volume 2043.122350
_symmetry_space_group_name_H-M "C 2/C"
_symmetry_group_IT_number 15
_symmetry_cell_setting 'monoclinic'
loop_
_space_group_symop_operation_xyz
x,y,z
-x,y,1/2-z
-x,-y,-z
x,-y,1/2+z
1/2+x,1/2+y,z
1/2-x,1/2+y,1/2-z
1/2-x,1/2-y,-z
1/2+x,1/2-y,1/2+z
loop_
_atom_site_type_symbol
_atom_site_label
_atom_site_fract_x
_atom_site_fract_y
_atom_site_fract_z
Si Si1 0.822043 0.472633 0.701256
Si Si2 0.177180 0.240794 0.606450
Si Si3 0.284257 0.696476 0.576823
Si Si4 0.500000 0.611355 0.750000
Si Si5 0.398268 0.759507 0.034169
Si Si6 0.384005 0.548785 0.286705
O O1 0.843808 0.397822 0.802428
O O2 0.763015 0.585619 0.788665
O O3 0.801742 0.340284 0.636098
O O4 0.884140 0.562362 0.574739
O O5 0.250000 0.250000 0.500000
O O6 0.149987 0.208376 0.507484
O O7 0.154348 0.096352 0.717301
O O8 0.250000 0.750000 0.500000
O O9 0.348297 0.613728 0.453536
O O10 0.532565 0.723588 0.607730
O O11 0.547152 0.501964 0.760856
O O12 0.386699 0.671883 0.176019
#
# Coordination Sequence:
#
# PCOD8150909 Si02
#       6
#     8   8   8   4   8   8
#     4  12  26  41  70 107 150 183 230 297 362 433
#     4  11  24  39  68 108 143 184 227 287 370 424
#     4  12  26  43  71 112 146 186 236 293 375 427
#     4  10  26  50  76 102 136 202 250 284 354 424
#     4  11  25  47  68 101 143 183 244 294 346 423
#     4  11  25  46  76 101 145 189 244 297 349 435
#
# _framework density 21.535665999999999
#
# number of rings (size 3 to 8) (size 9 to 14) (size 15 to 20)
#    0.000    0.727    3.636    2.727   10.182    0.000 
#    0.000    4.545    0.000    0.000    0.000    0.000 
#    0.000    0.000    0.000    0.000    0.000    0.000 
#
# Total GULP energy -272722.984703 kJ/mol
# GULP energy per Si atom -12396.499305 kJ/mol
# Density = 2.148665 g / cm^3
# Si number density = 21.535666 Si / 1000 Ang^3
#
#
#
# Elastic Constant Matrix: (Units=GPa)
#
#
# Indices 1 2 3 4 5 6 
#
# 1 110.8276 55.7271 44.3564 0.0000 -11.6336 0.0000
# 2 55.7271 167.5232 68.4654 0.0000 -1.5947 0.0000
# 3 44.3564 68.4654 118.3931 0.0000 -8.5224 0.0000
# 4 0.0000 0.0000 0.0000 59.6383 0.0000 1.6180
# 5 -11.6336 -1.5947 -8.5224 0.0000 33.4722 0.0000
# 6 0.0000 0.0000 0.0000 1.6180 0.0000 48.4093
#
#
#
# Elastic Compliance Matrix: (Units=1/GPa)
#
#
# Indices 1 2 3 4 5 6 
#
# 1 0.011828 -0.002868 -0.002534 0.000000 0.003329 0.000000
# 2 -0.002868 0.008533 -0.003975 0.000000 -0.001602 0.000000
# 3 -0.002534 -0.003975 0.011834 0.000000 0.001943 0.000000
# 4 0.000000 0.000000 0.000000 0.016783 0.000000 -0.000561
# 5 0.003329 -0.001602 0.001943 0.000000 0.031451 0.000000
# 6 0.000000 0.000000 0.000000 -0.000561 0.000000 0.020676
#
#
# Mechanical properties :
#
#
# Convention : Reuss Voigt Hill
#
# Bulk Modulus (GPa) = 74.39113 81.53797 77.96455
# Shear Modulus (GPa) = 40.21249 43.51695 41.86472
#
# Velocity S-wave (km/s) = 4.32586 4.50009 4.41383
# Velocity P-wave (km/s) = 7.71809 8.05885 7.89031
#
# Compressibility (1/GPa) = 0.01344246
#
# Stress axis : x y z
#
# Youngs Moduli (GPa) = 84.54203 117.19655 84.49920
#
# Poissons Ratio (x) = 0.33607 0.21409
# Poissons Ratio (y) = 0.24243 0.33591
# Poissons Ratio (z) = 0.21420 0.46590
#
# Static dielectric constant tensor:
#      x y z
#    x 4.062250 0.000000 0.055700 
#    y 0.000000 -5.066070 0.000000 
#    z 0.055700 0.000000 4.193110 
# 
# 
# High freq. dielectric constant tensor:
#      x y z
#    x 1.834140 0.000000 0.010210 
#    y 0.000000 1.861090 0.000000 
#    z 0.010210 0.000000 1.856970 
# 
# From -- ./inp_files/121776.got.cif
#   From: 2010.06.25/outbox.cif.g09.slc.cpg/sg15_61_cif.got.tgz:121776.got - 2010.06.28 07:06:18.
