data_PCOD8150781
_publ_section_title
;
Structure prediction by ZEFSAII (Michael W. Deem and Ramdas Pophale) SiO2 
 PCOD8150781
Probable space group: C 2/C
;
_chemical_formula_sum "Si O2"
_cell_formula_units_Z 40
_cell_length_a 10.735801
_cell_length_b 8.904426
_cell_length_c 18.781129
_cell_angle_alpha 90.000000
_cell_angle_beta 99.380230
_cell_angle_gamma 90.000000
_cell_volume 1771.396229
_symmetry_space_group_name_H-M "C 2/C"
_symmetry_group_IT_number 15
_symmetry_cell_setting 'monoclinic'
loop_
_space_group_symop_operation_xyz
x,y,z
-x,y,1/2-z
-x,-y,-z
x,-y,1/2+z
1/2+x,1/2+y,z
1/2-x,1/2+y,1/2-z
1/2-x,1/2-y,-z
1/2+x,1/2-y,1/2+z
loop_
_atom_site_type_symbol
_atom_site_label
_atom_site_fract_x
_atom_site_fract_y
_atom_site_fract_z
Si Si1 0.354309 0.865256 0.532383
Si Si2 0.749829 0.003361 0.836376
Si Si3 0.225419 0.094169 0.432231
Si Si4 0.089908 0.847802 0.048960
Si Si5 0.353107 0.318695 0.721465
O O1 0.250000 0.750000 0.500000
O O2 0.484367 0.776257 0.544870
O O3 0.336467 0.934549 0.608777
O O4 0.343801 0.990497 0.468756
O O5 0.890581 0.044111 0.881099
O O6 0.680288 0.145202 0.794781
O O7 0.770074 0.874810 0.779995
O O8 0.100787 0.063762 0.473333
O O9 0.272031 0.265848 0.438758
O O10 0.180357 0.068136 0.347336
O O11 0.500000 0.332802 0.750000
#
# Coordination Sequence:
#
# PCOD8150781 Si02
#       5
#     8   8   8   8   8
#     4  11  24  38  70  99 131 168 224 276 335 388
#     4  10  26  44  61 104 129 178 227 267 337 401
#     4   9  21  40  63  97 124 174 219 268 329 387
#     4   9  20  42  66  92 132 164 221 277 320 388
#     4  11  26  43  69  92 142 177 221 272 334 398
#
# _framework density 22.581057999999999
#
# number of rings (size 3 to 8) (size 9 to 14) (size 15 to 20)
#    0.000    2.000    0.000    1.800    8.400    4.800 
#    0.000    0.000    0.000    0.000    0.000    0.000 
#    0.000    0.000    0.000    0.000    0.000    0.000 
#
# Total GULP energy -247778.393876 kJ/mol
# GULP energy per Si atom -12388.919694 kJ/mol
# Density = 2.252966 g / cm^3
# Si number density = 22.581058 Si / 1000 Ang^3
#
#
#
# Elastic Constant Matrix: (Units=GPa)
#
#
# Indices 1 2 3 4 5 6 
#
# 1 81.8870 19.6776 51.9829 0.0000 1.1340 0.0000
# 2 19.6776 83.9711 61.1621 0.0000 -6.0709 0.0000
# 3 51.9829 61.1621 160.9872 0.0000 5.8518 0.0000
# 4 0.0000 0.0000 0.0000 50.4675 0.0000 3.9719
# 5 1.1340 -6.0709 5.8518 0.0000 23.8511 0.0000
# 6 0.0000 0.0000 0.0000 3.9719 0.0000 45.1329
#
#
#
# Elastic Compliance Matrix: (Units=1/GPa)
#
#
# Indices 1 2 3 4 5 6 
#
# 1 0.015367 0.000090 -0.005015 0.000000 0.000523 0.000000
# 2 0.000090 0.017294 -0.006820 0.000000 0.006071 0.000000
# 3 -0.005015 -0.006820 0.010571 0.000000 -0.004091 0.000000
# 4 0.000000 0.000000 0.000000 0.019953 0.000000 -0.001756
# 5 0.000523 0.006071 -0.004091 0.000000 0.044451 0.000000
# 6 0.000000 0.000000 0.000000 -0.001756 0.000000 0.022311
#
#
# Mechanical properties :
#
#
# Convention : Reuss Voigt Hill
#
# Bulk Modulus (GPa) = 50.65621 65.83228 58.24425
# Shear Modulus (GPa) = 31.24644 36.82514 34.03579
#
# Velocity S-wave (km/s) = 3.72391 4.04269 3.88657
# Velocity P-wave (km/s) = 6.40092 7.14200 6.78159
#
# Compressibility (1/GPa) = 0.01974092
#
# Stress axis : x y z
#
# Youngs Moduli (GPa) = 65.07551 57.82258 94.60059
#
# Poissons Ratio (x) = -0.00518 0.47442
# Poissons Ratio (y) = -0.00582 0.64518
# Poissons Ratio (z) = 0.32635 0.39435
#
# Static dielectric constant tensor:
#      x y z
#    x -3.881870 0.000000 0.385390 
#    y 0.000000 1.779190 0.000000 
#    z 0.385390 0.000000 3.783300 
# 
# 
# High freq. dielectric constant tensor:
#      x y z
#    x 1.880230 0.000000 0.009090 
#    y 0.000000 1.902620 0.000000 
#    z 0.009090 0.000000 1.901910 
# 
# From -- ./inp_files/195159.got.cif
#   From: 2010.06.25/outbox.cif.g09.slc.cpg/sg15_98_cif.got.tgz:195159.got - 2010.06.28 07:06:18.
