data_PCOD8150055
_publ_section_title
;
Structure prediction by ZEFSAII (Michael W. Deem and Ramdas Pophale) SiO2 
 PCOD8150055
Probable space group: C 2/C
;
_chemical_formula_sum "Si O2"
_cell_formula_units_Z 48
_cell_length_a 14.087311
_cell_length_b 13.886400
_cell_length_c 15.143635
_cell_angle_alpha 90.000000
_cell_angle_beta 49.385521
_cell_angle_gamma 90.000000
_cell_volume 2248.799857
_symmetry_space_group_name_H-M "C 2/C"
_symmetry_group_IT_number 15
_symmetry_cell_setting 'monoclinic'
loop_
_space_group_symop_operation_xyz
x,y,z
-x,y,1/2-z
-x,-y,-z
x,-y,1/2+z
1/2+x,1/2+y,z
1/2-x,1/2+y,1/2-z
1/2-x,1/2-y,-z
1/2+x,1/2-y,1/2+z
loop_
_atom_site_type_symbol
_atom_site_label
_atom_site_fract_x
_atom_site_fract_y
_atom_site_fract_z
Si Si1 0.775435 0.056325 0.324097
Si Si2 0.120236 0.572120 0.793618
Si Si3 0.339644 0.028344 0.923930
Si Si4 0.033577 0.110318 0.826970
Si Si5 0.230423 0.158337 0.452740
Si Si6 0.753590 0.747030 0.253513
O O1 0.760288 0.053769 0.439445
O O2 0.772339 0.171017 0.308952
O O3 0.662041 0.008713 0.338245
O O4 0.900069 0.995373 0.220876
O O5 0.193539 0.568093 0.654455
O O6 0.140613 0.677205 0.822740
O O7 0.973990 0.563495 0.870871
O O8 0.340390 0.913015 0.915857
O O9 0.119345 0.189055 0.825922
O O10 0.000000 0.149836 0.750000
O O11 0.903556 0.104413 0.958323
O O12 0.250000 0.250000 0.500000
O O13 0.250765 0.181234 0.339989
#
# Coordination Sequence:
#
# PCOD8150055 Si02
#       6
#     8   8   8   8   8   8
#     4  11  23  43  66  96 133 177 217 277 333 388
#     4  10  24  44  62 104 132 170 226 271 326 405
#     4  11  23  42  68  91 140 174 213 278 336 386
#     4  11  23  43  64 100 134 163 231 276 320 401
#     4  12  23  40  70  99 125 179 221 278 330 381
#     4  11  25  42  67  99 130 174 228 269 332 398
#
# _framework density 21.344719000000001
#
# number of rings (size 3 to 8) (size 9 to 14) (size 15 to 20)
#    0.000    1.000    5.000    1.500    4.667    1.333 
#    3.000    0.000    0.000    0.000    0.000    0.000 
#    0.000    0.000    0.000    0.000    0.000    0.000 
#
# Total GULP energy -297432.365143 kJ/mol
# GULP energy per Si atom -12393.015214 kJ/mol
# Density = 2.129614 g / cm^3
# Si number density = 21.344719 Si / 1000 Ang^3
#
#
#
# Elastic Constant Matrix: (Units=GPa)
#
#
# Indices 1 2 3 4 5 6 
#
# 1 71.2635 29.1311 0.0288 0.0000 -8.7255 0.0000
# 2 29.1311 121.0708 1.8540 0.0000 -12.4007 0.0000
# 3 0.0288 1.8540 50.6233 0.0000 3.1625 0.0000
# 4 0.0000 0.0000 0.0000 24.2801 0.0000 7.0428
# 5 -8.7255 -12.4007 3.1625 0.0000 32.2693 0.0000
# 6 0.0000 0.0000 0.0000 7.0428 0.0000 43.0109
#
#
#
# Elastic Compliance Matrix: (Units=1/GPa)
#
#
# Indices 1 2 3 4 5 6 
#
# 1 0.015825 -0.003506 -0.000064 0.000000 0.002938 0.000000
# 2 -0.003506 0.009389 -0.000511 0.000000 0.002710 0.000000
# 3 -0.000064 -0.000511 0.019908 0.000000 -0.002165 0.000000
# 4 0.000000 0.000000 0.000000 0.043240 0.000000 -0.007080
# 5 0.002938 0.002710 -0.002165 0.000000 0.033037 0.000000
# 6 0.000000 0.000000 0.000000 -0.007080 0.000000 0.024409
#
#
# Mechanical properties :
#
#
# Convention : Reuss Voigt Hill
#
# Bulk Modulus (GPa) = 27.05675 33.88728 30.47202
# Shear Modulus (GPa) = 30.06794 34.04163 32.05478
#
# Velocity S-wave (km/s) = 3.75731 3.99789 3.87947
# Velocity P-wave (km/s) = 5.61487 6.10094 5.86295
#
# Compressibility (1/GPa) = 0.03695935
#
# Stress axis : x y z
#
# Youngs Moduli (GPa) = 63.18992 106.51237 50.23168
#
# Poissons Ratio (x) = 0.37342 0.00322
# Poissons Ratio (y) = 0.22153 0.02568
# Poissons Ratio (z) = 0.00405 0.05444
#
# Static dielectric constant tensor:
#      x y z
#    x 3.827450 0.000000 0.000670 
#    y 0.000000 0.003050 0.000000 
#    z 0.000670 0.000000 3.834250 
# 
# 
# High freq. dielectric constant tensor:
#      x y z
#    x 1.842950 0.000000 0.011590 
#    y 0.000000 1.838680 0.000000 
#    z 0.011590 0.000000 1.829790 
# 
# From -- ./inp_files/153789.got.cif
#   From: 2010.06.25/outbox.cif.g09.slc.cpg/sg15_77_cif.got.tgz:153789.got - 2010.06.28 07:06:18.
