data_PCOD8150169
_publ_section_title
;
Structure prediction by ZEFSAII (Michael W. Deem and Ramdas Pophale) SiO2 
 PCOD8150169
Probable space group: C 2/C
;
_chemical_formula_sum "Si O2"
_cell_formula_units_Z 60
_cell_length_a 27.216728
_cell_length_b 9.238368
_cell_length_c 24.821278
_cell_angle_alpha 90.000000
_cell_angle_beta 152.906644
_cell_angle_gamma 90.000000
_cell_volume 2842.418873
_symmetry_space_group_name_H-M "C 2/C"
_symmetry_group_IT_number 15
_symmetry_cell_setting 'monoclinic'
loop_
_space_group_symop_operation_xyz
x,y,z
-x,y,1/2-z
-x,-y,-z
x,-y,1/2+z
1/2+x,1/2+y,z
1/2-x,1/2+y,1/2-z
1/2-x,1/2-y,-z
1/2+x,1/2-y,1/2+z
loop_
_atom_site_type_symbol
_atom_site_label
_atom_site_fract_x
_atom_site_fract_y
_atom_site_fract_z
Si Si1 0.953025 0.317965 0.920385
Si Si2 0.332300 0.084288 0.924341
Si Si3 0.500000 0.879570 0.250000
Si Si4 0.516385 0.243381 0.593724
Si Si5 0.336782 0.101691 0.675710
Si Si6 0.349226 0.193120 0.510434
Si Si7 0.741992 0.609557 0.158562
Si Si8 0.143990 0.000889 0.666928
O O1 0.849683 0.402035 0.799112
O O2 0.926919 0.145629 0.899920
O O3 0.049363 0.359034 0.974882
O O4 0.986210 0.361784 0.013866
O O5 0.270812 0.231705 0.879407
O O6 0.264851 0.015889 0.808765
O O7 0.336623 0.975501 0.979606
O O8 0.589203 0.964902 0.300693
O O9 0.571946 0.785578 0.361391
O O10 0.586136 0.144057 0.700516
O O11 0.403955 0.281568 0.514234
O O12 0.582279 0.384277 0.642589
O O13 0.267419 0.240995 0.588681
O O14 0.250963 0.986254 0.613604
O O15 0.649602 0.556109 0.110321
#
# Coordination Sequence:
#
# PCOD8150169 Si02
#       8
#     8   8   4   8   8   8   8   8
#     4  11  22  35  57  88 134 176 212 237 296 368
#     4  11  23  40  59  91 131 170 206 255 311 375
#     4  10  24  44  70  92 112 152 222 278 326 376
#     4  11  21  35  58  92 125 170 208 248 298 363
#     4  11  23  42  66  91 123 161 213 269 321 368
#     4  11  23  41  68  89 121 156 210 271 328 373
#     4  11  24  38  60  93 132 175 211 249 306 378
#     4  11  22  37  55  94 135 171 211 248 292 375
#
# _framework density 21.108782999999999
#
# number of rings (size 3 to 8) (size 9 to 14) (size 15 to 20)
#    0.000    1.067    2.667    4.800    3.733    1.600 
#    0.000    0.667    0.000    1.600    0.000    0.000 
#    0.000    0.000    0.000    0.000    0.000    0.000 
#
# Total GULP energy -371740.879285 kJ/mol
# GULP energy per Si atom -12391.362643 kJ/mol
# Density = 2.106074 g / cm^3
# Si number density = 21.108783 Si / 1000 Ang^3
#
#
#
# Elastic Constant Matrix: (Units=GPa)
#
#
# Indices 1 2 3 4 5 6 
#
# 1 117.5105 51.2690 30.6016 0.0000 3.6345 0.0000
# 2 51.2690 82.2162 25.6677 0.0000 3.5547 0.0000
# 3 30.6016 25.6677 97.2493 0.0000 2.0607 0.0000
# 4 0.0000 0.0000 0.0000 21.2168 0.0000 7.5600
# 5 3.6345 3.5547 2.0607 0.0000 33.1207 0.0000
# 6 0.0000 0.0000 0.0000 7.5600 0.0000 19.2270
#
#
#
# Elastic Compliance Matrix: (Units=1/GPa)
#
#
# Indices 1 2 3 4 5 6 
#
# 1 0.012033 -0.006871 -0.001963 0.000000 -0.000461 0.000000
# 2 -0.006871 0.017227 -0.002365 0.000000 -0.000948 0.000000
# 3 -0.001963 -0.002365 0.011530 0.000000 -0.000248 0.000000
# 4 0.000000 0.000000 0.000000 0.054812 0.000000 -0.021552
# 5 -0.000461 -0.000948 -0.000248 0.000000 0.030360 0.000000
# 6 0.000000 0.000000 0.000000 -0.021552 0.000000 0.060485
#
#
# Mechanical properties :
#
#
# Convention : Reuss Voigt Hill
#
# Bulk Modulus (GPa) = 54.37011 56.89473 55.63242
# Shear Modulus (GPa) = 23.25850 27.34207 25.30029
#
# Velocity S-wave (km/s) = 3.32300 3.60292 3.46579
# Velocity P-wave (km/s) = 6.36680 6.65730 6.51367
#
# Compressibility (1/GPa) = 0.01839246
#
# Stress axis : x y z
#
# Youngs Moduli (GPa) = 83.10425 58.04898 86.73022
#
# Poissons Ratio (x) = 0.39884 0.17027
# Poissons Ratio (y) = 0.57100 0.20509
# Poissons Ratio (z) = 0.16315 0.13727
#
# Static dielectric constant tensor:
#      x y z
#    x 3.983990 0.000000 0.168370 
#    y 0.000000 3.800970 0.000000 
#    z 0.168370 0.000000 4.112060 
# 
# 
# High freq. dielectric constant tensor:
#      x y z
#    x 1.812770 0.000000 0.023310 
#    y 0.000000 1.813770 0.000000 
#    z 0.023310 0.000000 1.843820 
# 
# From -- ./inp_files/283398.got.cif
#   From: 2010.06.25/outbox.cif.g09.slc.cpg/sg15_142_cif.got.tgz:283398.got - 2010.06.28 07:06:18.
