data_PCOD8150071
_publ_section_title
;
Structure prediction by ZEFSAII (Michael W. Deem and Ramdas Pophale) SiO2 
 PCOD8150071
Probable space group: C 2/C
;
_chemical_formula_sum "Si O2"
_cell_formula_units_Z 56
_cell_length_a 24.565333
_cell_length_b 9.229857
_cell_length_c 14.752483
_cell_angle_alpha 90.000000
_cell_angle_beta 57.988355
_cell_angle_gamma 90.000000
_cell_volume 2836.273233
_symmetry_space_group_name_H-M "C 2/C"
_symmetry_group_IT_number 15
_symmetry_cell_setting 'monoclinic'
loop_
_space_group_symop_operation_xyz
x,y,z
-x,y,1/2-z
-x,-y,-z
x,-y,1/2+z
1/2+x,1/2+y,z
1/2-x,1/2+y,1/2-z
1/2-x,1/2-y,-z
1/2+x,1/2-y,1/2+z
loop_
_atom_site_type_symbol
_atom_site_label
_atom_site_fract_x
_atom_site_fract_y
_atom_site_fract_z
Si Si1 0.049008 0.833305 0.126268
Si Si2 0.670666 0.840468 0.998595
Si Si3 0.759153 0.418459 0.390543
Si Si4 0.306058 0.298091 0.517167
Si Si5 0.832915 0.584650 0.643738
Si Si6 0.527286 0.159818 0.969832
Si Si7 0.042648 0.170010 0.124586
O O1 0.121596 0.779633 0.086813
O O2 0.000000 0.804159 0.250000
O O3 0.050400 0.000789 0.096717
O O4 0.019901 0.737676 0.072256
O O5 0.691081 0.932479 0.069345
O O6 0.611578 0.741021 0.080043
O O7 0.730358 0.742770 0.913068
O O8 0.652377 0.945509 0.932119
O O9 0.702067 0.532917 0.453379
O O10 0.791829 0.458360 0.266839
O O11 0.250000 0.250000 0.500000
O O12 0.296347 0.205106 0.616859
O O13 0.898508 0.651953 0.623826
O O14 0.490472 0.256327 0.930891
O O15 0.500000 0.000000 0.000000
O O16 0.000000 0.198210 0.250000
#
# Coordination Sequence:
#
# PCOD8150071 Si02
#       7
#     8   8   8   8   8   8   8
#     4  10  24  44  64  90 127 169 210 255 316 380
#     4  11  22  41  63  90 125 161 210 259 311 374
#     4  11  23  40  63  89 125 165 207 257 313 374
#     4  11  22  42  63  92 127 161 209 259 311 376
#     4  11  23  41  61  93 126 163 203 260 319 371
#     4  11  23  40  62  93 125 156 209 259 311 376
#     4  11  22  42  65  89 121 170 210 256 312 377
#
# _framework density 19.744218
#
# number of rings (size 3 to 8) (size 9 to 14) (size 15 to 20)
#    0.000    1.143    4.286    2.143    0.000    1.714 
#    2.571    1.429    0.000    0.000    0.000    0.000 
#    0.000    0.000    0.000    0.000    0.000    0.000 
#
# Total GULP energy -347268.414919 kJ/mol
# GULP energy per Si atom -12402.443390 kJ/mol
# Density = 1.969928 g / cm^3
# Si number density = 19.744218 Si / 1000 Ang^3
#
#
#
# Elastic Constant Matrix: (Units=GPa)
#
#
# Indices 1 2 3 4 5 6 
#
# 1 110.8189 31.3144 55.9720 0.0000 3.6415 0.0000
# 2 31.3144 99.4555 49.9087 0.0000 6.6585 0.0000
# 3 55.9720 49.9087 126.0949 0.0000 -0.6221 0.0000
# 4 0.0000 0.0000 0.0000 17.3379 0.0000 -6.4809
# 5 3.6415 6.6585 -0.6221 0.0000 21.2407 0.0000
# 6 0.0000 0.0000 0.0000 -6.4809 0.0000 39.1811
#
#
#
# Elastic Compliance Matrix: (Units=1/GPa)
#
#
# Indices 1 2 3 4 5 6 
#
# 1 0.011842 -0.001206 -0.004788 0.000000 -0.001792 0.000000
# 2 -0.001206 0.013033 -0.004643 0.000000 -0.004015 0.000000
# 3 -0.004788 -0.004643 0.011907 0.000000 0.002625 0.000000
# 4 0.000000 0.000000 0.000000 0.061478 0.000000 0.010169
# 5 -0.001792 -0.004015 0.002625 0.000000 0.048722 0.000000
# 6 0.000000 0.000000 0.000000 0.010169 0.000000 0.027205
#
#
# Mechanical properties :
#
#
# Convention : Reuss Voigt Hill
#
# Bulk Modulus (GPa) = 64.48423 67.86217 66.17320
# Shear Modulus (GPa) = 24.92156 28.83022 26.87589
#
# Velocity S-wave (km/s) = 3.55663 3.82538 3.69345
# Velocity P-wave (km/s) = 7.04250 7.34552 7.19561
#
# Compressibility (1/GPa) = 0.01550767
#
# Stress axis : x y z
#
# Youngs Moduli (GPa) = 84.44791 76.72701 83.98716
#
# Poissons Ratio (x) = 0.09251 0.40213
# Poissons Ratio (y) = 0.10182 0.38997
# Poissons Ratio (z) = 0.40433 0.35626
#
# Static dielectric constant tensor:
#      x y z
#    x 4.080630 0.000000 0.058040 
#    y 0.000000 2.617620 0.000000 
#    z 0.058040 0.000000 3.336360 
# 
# 
# High freq. dielectric constant tensor:
#      x y z
#    x 1.781660 0.000000 -0.003030 
#    y 0.000000 1.785930 0.000000 
#    z -0.003030 0.000000 1.763420 
# 
# From -- ./inp_files/172300.got.cif
#   From: 2010.06.25/outbox.cif.g09.slc.cpg/sg15_87_cif.got.tgz:172300.got - 2010.06.28 07:06:18.
