data_PCOD8150889
_publ_section_title
;
Structure prediction by ZEFSAII (Michael W. Deem and Ramdas Pophale) SiO2 
 PCOD8150889
Probable space group: C 2/C
;
_chemical_formula_sum "Si O2"
_cell_formula_units_Z 28
_cell_length_a 4.818488
_cell_length_b 27.397783
_cell_length_c 7.734586
_cell_angle_alpha 90.000000
_cell_angle_beta 92.328293
_cell_angle_gamma 90.000000
_cell_volume 1020.245291
_symmetry_space_group_name_H-M "C 2/C"
_symmetry_group_IT_number 15
_symmetry_cell_setting 'monoclinic'
loop_
_space_group_symop_operation_xyz
x,y,z
-x,y,1/2-z
-x,-y,-z
x,-y,1/2+z
1/2+x,1/2+y,z
1/2-x,1/2+y,1/2-z
1/2-x,1/2-y,-z
1/2+x,1/2-y,1/2+z
loop_
_atom_site_type_symbol
_atom_site_label
_atom_site_fract_x
_atom_site_fract_y
_atom_site_fract_z
Si Si1 0.544958 0.385231 0.445808
Si Si2 0.946877 0.554976 0.447437
Si Si3 0.835154 0.688748 0.399065
Si Si4 0.000000 0.725796 0.750000
O O1 0.500000 0.367534 0.250000
O O2 0.362888 0.432291 0.498049
O O3 0.450013 0.339909 0.564679
O O4 0.861738 0.403019 0.462958
O O5 0.000000 0.559377 0.250000
O O6 0.000000 0.500000 0.500000
O O7 0.038938 0.693231 0.575281
O O8 0.763602 0.741147 0.310436
O O9 0.000000 0.659956 0.250000
#
# Coordination Sequence:
#
# PCOD8150889 Si02
#       4
#     8   8   8   4
#     4  12  28  47  77 114 155 201 258 321 385 470
#     4  12  27  51  79 112 152 201 252 319 395 468
#     4  11  26  47  77 110 159 207 273 321 402 456
#     4  10  26  48  74 112 154 214 266 330 394 468
#
# _framework density 27.444382000000001
#
# number of rings (size 3 to 8) (size 9 to 14) (size 15 to 20)
#    0.000    0.571    0.000    6.000   12.000    4.571 
#    0.000    0.000    0.000    0.000    0.000    0.000 
#    0.000    0.000    0.000    0.000    0.000    0.000 
#
# Total GULP energy -173569.539562 kJ/mol
# GULP energy per Si atom -12397.824254 kJ/mol
# Density = 2.738192 g / cm^3
# Si number density = 27.444382 Si / 1000 Ang^3
#
#
#
# Elastic Constant Matrix: (Units=GPa)
#
#
# Indices 1 2 3 4 5 6 
#
# 1 60.1697 -10.3159 31.1167 0.0000 -1.7640 0.0000
# 2 -10.3159 124.9894 29.7893 0.0000 -0.7961 0.0000
# 3 31.1167 29.7893 192.9955 0.0000 -2.7991 0.0000
# 4 0.0000 0.0000 0.0000 41.5259 0.0000 4.0476
# 5 -1.7640 -0.7961 -2.7991 0.0000 55.1054 0.0000
# 6 0.0000 0.0000 0.0000 4.0476 0.0000 33.0557
#
#
#
# Elastic Compliance Matrix: (Units=1/GPa)
#
#
# Indices 1 2 3 4 5 6 
#
# 1 0.018790 0.002361 -0.003387 0.000000 0.000464 0.000000
# 2 0.002361 0.008603 -0.001707 0.000000 0.000113 0.000000
# 3 -0.003387 -0.001707 0.005994 0.000000 0.000171 0.000000
# 4 0.000000 0.000000 0.000000 0.024372 0.000000 -0.002984
# 5 0.000464 0.000113 0.000171 0.000000 0.018172 0.000000
# 6 0.000000 0.000000 0.000000 -0.002984 0.000000 0.030617
#
#
# Mechanical properties :
#
#
# Convention : Reuss Voigt Hill
#
# Bulk Modulus (GPa) = 35.81642 53.25944 44.53793
# Shear Modulus (GPa) = 41.21297 47.77505 44.49401
#
# Velocity S-wave (km/s) = 3.87937 4.17681 4.03083
# Velocity P-wave (km/s) = 5.75716 6.53525 6.15850
#
# Compressibility (1/GPa) = 0.02792016
#
# Stress axis : x y z
#
# Youngs Moduli (GPa) = 53.22064 116.23735 166.84641
#
# Poissons Ratio (x) = -0.27444 0.56514
# Poissons Ratio (y) = -0.12566 0.28480
# Poissons Ratio (z) = 0.18027 0.19841
#
# Static dielectric constant tensor:
#      x y z
#    x 4.540890 0.000000 -0.385000 
#    y 0.000000 4.850010 0.000000 
#    z -0.385000 0.000000 5.222720 
# 
# 
# High freq. dielectric constant tensor:
#      x y z
#    x 2.102120 0.000000 -0.006320 
#    y 0.000000 2.117780 0.000000 
#    z -0.006320 0.000000 2.130900 
# 
# From -- ./inp_files/19755.got.cif
#   From: 2010.06.25/outbox.cif.g09.slc.cpg/sg15_10_cif.got.tgz:19755.got - 2010.06.28 07:06:18.
