data_PCOD8150405
_publ_section_title
;
Structure prediction by ZEFSAII (Michael W. Deem and Ramdas Pophale) SiO2 
 PCOD8150405
Probable space group: C 2/C
;
_chemical_formula_sum "Si O2"
_cell_formula_units_Z 32
_cell_length_a 19.037917
_cell_length_b 9.010111
_cell_length_c 15.233644
_cell_angle_alpha 90.000000
_cell_angle_beta 151.075359
_cell_angle_gamma 90.000000
_cell_volume 1263.841199
_symmetry_space_group_name_H-M "C 2/C"
_symmetry_group_IT_number 15
_symmetry_cell_setting 'monoclinic'
loop_
_space_group_symop_operation_xyz
x,y,z
-x,y,1/2-z
-x,-y,-z
x,-y,1/2+z
1/2+x,1/2+y,z
1/2-x,1/2+y,1/2-z
1/2-x,1/2-y,-z
1/2+x,1/2-y,1/2+z
loop_
_atom_site_type_symbol
_atom_site_label
_atom_site_fract_x
_atom_site_fract_y
_atom_site_fract_z
Si Si1 0.842544 0.054856 0.793981
Si Si2 0.671808 0.971732 0.768665
Si Si3 0.920147 0.279913 0.444262
Si Si4 0.838083 0.900338 0.603054
O O1 0.777904 0.944033 0.799652
O O2 0.007928 0.116666 0.997314
O O3 0.734351 0.201203 0.671998
O O4 0.833173 0.965263 0.694523
O O5 0.593600 0.132438 0.663471
O O6 0.543914 0.853159 0.641410
O O7 0.766517 0.978055 0.960086
O O8 0.750000 0.750000 0.500000
O O9 0.000000 0.867349 0.750000
#
# Coordination Sequence:
#
# PCOD8150405 Si02
#       4
#     8   8   8   8
#     4  10  24  46  76 105 146 191 245 296 367 437
#     4   9  24  45  71 105 149 187 238 299 371 421
#     4   9  22  45  75 102 145 192 233 301 365 429
#     4  12  31  45  72 108 146 193 248 302 371 437
#
# _framework density 25.319637
#
# number of rings (size 3 to 8) (size 9 to 14) (size 15 to 20)
#    1.500    0.500    0.000    0.000   14.000    2.000 
#    0.000    0.000    0.000    0.000    0.000    0.000 
#    0.000    0.000    0.000    0.000    0.000    0.000 
#
# Total GULP energy -198345.971196 kJ/mol
# GULP energy per Si atom -12396.623200 kJ/mol
# Density = 2.526201 g / cm^3
# Si number density = 25.319637 Si / 1000 Ang^3
#
#
#
# Elastic Constant Matrix: (Units=GPa)
#
#
# Indices 1 2 3 4 5 6 
#
# 1 140.1701 59.7538 66.1386 0.0000 -2.5290 0.0000
# 2 59.7538 119.7796 49.4388 0.0000 18.2554 0.0000
# 3 66.1386 49.4388 176.4468 0.0000 17.8652 0.0000
# 4 0.0000 0.0000 0.0000 50.7313 0.0000 2.9941
# 5 -2.5290 18.2554 17.8652 0.0000 66.6099 0.0000
# 6 0.0000 0.0000 0.0000 2.9941 0.0000 22.8455
#
#
#
# Elastic Compliance Matrix: (Units=1/GPa)
#
#
# Indices 1 2 3 4 5 6 
#
# 1 0.010410 -0.004348 -0.002924 0.000000 0.002371 0.000000
# 2 -0.004348 0.011504 -0.001293 0.000000 -0.002971 0.000000
# 3 -0.002924 -0.001293 0.007299 0.000000 -0.001714 0.000000
# 4 0.000000 0.000000 0.000000 0.019865 0.000000 -0.002604
# 5 0.002371 -0.002971 -0.001714 0.000000 0.016377 0.000000
# 6 0.000000 0.000000 0.000000 -0.002604 0.000000 0.044114
#
#
# Mechanical properties :
#
#
# Convention : Reuss Voigt Hill
#
# Bulk Modulus (GPa) = 82.75142 87.45099 85.10120
# Shear Modulus (GPa) = 38.24790 45.44168 41.84479
#
# Velocity S-wave (km/s) = 3.89086 4.24101 4.06970
# Velocity P-wave (km/s) = 7.27590 7.65476 7.46773
#
# Compressibility (1/GPa) = 0.01208439
#
# Stress axis : x y z
#
# Youngs Moduli (GPa) = 96.06138 86.92615 137.00057
#
# Poissons Ratio (x) = 0.37793 0.40058
# Poissons Ratio (y) = 0.41765 0.17712
# Poissons Ratio (z) = 0.28088 0.11238
#
# Static dielectric constant tensor:
#      x y z
#    x 4.520960 0.000000 0.561590 
#    y 0.000000 4.902990 0.000000 
#    z 0.561590 0.000000 5.334550 
# 
# 
# High freq. dielectric constant tensor:
#      x y z
#    x 1.984640 0.000000 0.037410 
#    y 0.000000 2.053860 0.000000 
#    z 0.037410 0.000000 2.051870 
# 
# From -- ./inp_files/45819.got.cif
#   From: 2010.06.25/outbox.cif.g09.slc.cpg/sg15_23_cif.got.tgz:45819.got - 2010.06.28 07:06:18.
