data_PCOD8150937
_publ_section_title
;
Structure prediction by ZEFSAII (Michael W. Deem and Ramdas Pophale) SiO2 
 PCOD8150937
Probable space group: C 2/C
;
_chemical_formula_sum "Si O2"
_cell_formula_units_Z 52
_cell_length_a 15.298503
_cell_length_b 15.048464
_cell_length_c 14.691466
_cell_angle_alpha 90.000000
_cell_angle_beta 35.999602
_cell_angle_gamma 90.000000
_cell_volume 1988.020128
_symmetry_space_group_name_H-M "C 2/C"
_symmetry_group_IT_number 15
_symmetry_cell_setting 'monoclinic'
loop_
_space_group_symop_operation_xyz
x,y,z
-x,y,1/2-z
-x,-y,-z
x,-y,1/2+z
1/2+x,1/2+y,z
1/2-x,1/2+y,1/2-z
1/2-x,1/2-y,-z
1/2+x,1/2-y,1/2+z
loop_
_atom_site_type_symbol
_atom_site_label
_atom_site_fract_x
_atom_site_fract_y
_atom_site_fract_z
Si Si1 0.933022 0.179086 0.631155
Si Si2 0.000000 0.082727 0.750000
Si Si3 0.274005 0.858221 0.805829
Si Si4 0.165962 0.382083 0.245181
Si Si5 0.788847 0.519365 0.447086
Si Si6 0.154245 0.207356 0.158093
Si Si7 0.864003 0.558123 0.061447
O O1 0.914889 0.144747 0.749377
O O2 0.877525 0.281023 0.677823
O O3 0.827937 0.117938 0.655846
O O4 0.102131 0.172809 0.452649
O O5 0.110749 0.018251 0.602865
O O6 0.330849 0.889516 0.857776
O O7 0.298131 0.947459 0.720535
O O8 0.161673 0.433504 0.151998
O O9 0.116984 0.280975 0.265867
O O10 0.040116 0.418983 0.421586
O O11 0.854922 0.521830 0.494493
O O12 0.255699 0.131330 0.112093
O O13 0.000000 0.167687 0.250000
O O14 0.250000 0.250000 0.000000
#
# Coordination Sequence:
#
# PCOD8150937 Si02
#       7
#     8   4   8   8   8   8   8
#     4  11  26  50  80 110 149 200 263 313 372 460
#     4  10  28  52  74 110 148 210 256 310 384 458
#     4  11  27  49  78 114 147 205 258 318 374 457
#     4  12  25  46  70 116 152 193 254 316 378 458
#     4  11  27  46  73 112 157 201 246 314 389 456
#     4  12  23  39  69 105 150 194 243 303 371 454
#     4  12  26  46  72 113 155 200 251 311 387 449
#
# _framework density 26.156676999999998
#
# number of rings (size 3 to 8) (size 9 to 14) (size 15 to 20)
#    0.000    0.615    4.615    1.385    7.538    4.308 
#   11.077    0.000    0.000    0.000    0.000    0.000 
#    0.000    0.000    0.000    0.000    0.000    0.000 
#
# Total GULP energy -322219.927828 kJ/mol
# GULP energy per Si atom -12393.074147 kJ/mol
# Density = 2.609714 g / cm^3
# Si number density = 26.156677 Si / 1000 Ang^3
#
#
#
# Elastic Constant Matrix: (Units=GPa)
#
#
# Indices 1 2 3 4 5 6 
#
# 1 123.6511 23.9873 51.4175 -0.0006 -6.5353 0.0003
# 2 23.9873 45.7739 43.1067 -0.0008 -13.7126 0.0004
# 3 51.4175 43.1067 160.6759 -0.0018 0.4903 0.0008
# 4 -0.0006 -0.0008 -0.0018 34.0235 0.0011 -4.5370
# 5 -6.5353 -13.7126 0.4903 0.0011 48.1418 -0.0004
# 6 0.0003 0.0004 0.0008 -4.5370 -0.0004 35.8810
#
#
#
# Elastic Compliance Matrix: (Units=1/GPa)
#
#
# Indices 1 2 3 4 5 6 
#
# 1 0.009615 -0.002630 -0.002373 0.000000 0.000580 0.000000
# 2 -0.002630 0.033801 -0.008255 0.000000 0.009355 0.000000
# 3 -0.002373 -0.008255 0.009206 0.000000 -0.002767 0.000000
# 4 0.000000 0.000000 0.000000 0.029896 -0.000001 0.003780
# 5 0.000580 0.009355 -0.002767 -0.000001 0.023544 0.000000
# 6 0.000000 0.000000 0.000000 0.003780 0.000000 0.028348
#
#
# Mechanical properties :
#
#
# Convention : Reuss Voigt Hill
#
# Bulk Modulus (GPa) = 38.30536 63.01377 50.65957
# Shear Modulus (GPa) = 29.47623 37.71523 33.59573
#
# Velocity S-wave (km/s) = 3.36059 3.80135 3.58775
# Velocity P-wave (km/s) = 5.45293 6.58864 6.04751
#
# Compressibility (1/GPa) = 0.02610600
#
# Stress axis : x y z
#
# Youngs Moduli (GPa) = 104.00522 29.58455 108.62133
#
# Poissons Ratio (x) = 0.07781 0.25776
# Poissons Ratio (y) = 0.27353 0.89670
# Poissons Ratio (z) = 0.24681 0.24423
#
# Static dielectric constant tensor:
#      x y z
#    x 3.104250 -0.000020 -3.192760 
#    y -0.000020 4.877050 -0.000030 
#    z -3.192760 -0.000030 -0.258030 
# 
# 
# High freq. dielectric constant tensor:
#      x y z
#    x 2.061130 0.000000 0.006190 
#    y 0.000000 2.041640 0.000000 
#    z 0.006190 0.000000 2.065360 
# 
# From -- ./inp_files/155415.got.cif
#   From: 2010.06.25/outbox.cif.g09.slc.cpg/sg15_78_cif.got.tgz:155415.got - 2010.06.28 07:06:18.
