data_PCOD8150041
_publ_section_title
;
Structure prediction by ZEFSAII (Michael W. Deem and Ramdas Pophale) SiO2 
 PCOD8150041
Probable space group: C 2/C
;
_chemical_formula_sum "Si O2"
_cell_formula_units_Z 52
_cell_length_a 15.664679
_cell_length_b 13.450316
_cell_length_c 11.646183
_cell_angle_alpha 90.000000
_cell_angle_beta 109.861454
_cell_angle_gamma 90.000000
_cell_volume 2307.832070
_symmetry_space_group_name_H-M "C 2/C"
_symmetry_group_IT_number 15
_symmetry_cell_setting 'monoclinic'
loop_
_space_group_symop_operation_xyz
x,y,z
-x,y,1/2-z
-x,-y,-z
x,-y,1/2+z
1/2+x,1/2+y,z
1/2-x,1/2+y,1/2-z
1/2-x,1/2-y,-z
1/2+x,1/2-y,1/2+z
loop_
_atom_site_type_symbol
_atom_site_label
_atom_site_fract_x
_atom_site_fract_y
_atom_site_fract_z
Si Si1 0.325000 0.692379 0.107948
Si Si2 0.584722 0.945850 0.087659
Si Si3 0.007259 0.883596 0.377679
Si Si4 0.500000 0.815160 0.250000
Si Si5 0.139907 0.030348 0.548074
Si Si6 0.580735 0.833500 0.860367
Si Si7 0.778521 0.595963 0.243225
O O1 0.422261 0.748242 0.153907
O O2 0.288260 0.670066 0.218816
O O3 0.250000 0.750000 0.000000
O O4 0.336545 0.584013 0.059102
O O5 0.555580 0.881011 0.184276
O O6 0.657989 0.030849 0.145389
O O7 0.617811 0.880237 0.995149
O O8 0.500000 0.000000 0.000000
O O9 0.040589 0.772411 0.375709
O O10 0.000000 0.937003 0.250000
O O11 0.907837 0.888938 0.389859
O O12 0.075660 0.937227 0.494437
O O13 0.229180 0.988376 0.647202
O O14 0.500000 0.890447 0.750000
O O15 0.666456 0.829595 0.814672
#
# Coordination Sequence:
#
# PCOD8150041 Si02
#       7
#     8   8   8   4   8   8   8
#     4  12  28  47  72 109 151 185 246 309 363 442
#     4  12  23  46  75 103 144 191 243 297 364 441
#     4  10  24  43  73  97 139 186 233 287 360 432
#     4  12  28  46  80 106 146 202 238 298 384 440
#     4  11  25  46  70 102 143 188 235 296 356 439
#     4  11  24  44  72 106 141 189 241 299 359 431
#     4  12  26  45  74 109 142 188 246 298 369 426
#
# _framework density 22.531967999999999
#
# number of rings (size 3 to 8) (size 9 to 14) (size 15 to 20)
#    0.000    0.615    1.538    5.538   11.846    0.615 
#    2.769    0.000    0.000    0.000    0.000    0.000 
#    0.000    0.000    0.000    0.000    0.000    0.000 
#
# Total GULP energy -322340.631961 kJ/mol
# GULP energy per Si atom -12397.716614 kJ/mol
# Density = 2.248068 g / cm^3
# Si number density = 22.531968 Si / 1000 Ang^3
#
#
#
# Elastic Constant Matrix: (Units=GPa)
#
#
# Indices 1 2 3 4 5 6 
#
# 1 96.2878 12.5715 13.5324 0.0000 -7.9753 0.0000
# 2 12.5715 63.6059 11.3569 0.0000 3.8942 0.0000
# 3 13.5324 11.3569 87.0717 0.0000 -0.6503 0.0000
# 4 0.0000 0.0000 0.0000 45.7529 0.0000 -7.6546
# 5 -7.9753 3.8942 -0.6503 0.0000 56.7631 0.0000
# 6 0.0000 0.0000 0.0000 -7.6546 0.0000 38.3179
#
#
#
# Elastic Compliance Matrix: (Units=1/GPa)
#
#
# Indices 1 2 3 4 5 6 
#
# 1 0.010988 -0.002018 -0.001432 0.000000 0.001666 0.000000
# 2 -0.002018 0.016540 -0.001854 0.000000 -0.001440 0.000000
# 3 -0.001432 -0.001854 0.011950 0.000000 0.000063 0.000000
# 4 0.000000 0.000000 0.000000 0.022612 0.000000 0.004517
# 5 0.001666 -0.001440 0.000063 0.000000 0.017951 0.000000
# 6 0.000000 0.000000 0.000000 0.004517 0.000000 0.027000
#
#
# Mechanical properties :
#
#
# Convention : Reuss Voigt Hill
#
# Bulk Modulus (GPa) = 34.63964 35.76522 35.20243
# Shear Modulus (GPa) = 39.28571 42.13376 40.70974
#
# Velocity S-wave (km/s) = 4.18012 4.32899 4.25520
# Velocity P-wave (km/s) = 6.22132 6.39487 6.30869
#
# Compressibility (1/GPa) = 0.02886866
#
# Stress axis : x y z
#
# Youngs Moduli (GPa) = 91.00617 60.45982 83.68408
#
# Poissons Ratio (x) = 0.12201 0.11984
# Poissons Ratio (y) = 0.18366 0.15519
# Poissons Ratio (z) = 0.13033 0.11212
#
# Static dielectric constant tensor:
#      x y z
#    x 4.225890 0.000000 -0.060850 
#    y 0.000000 3.673310 0.000000 
#    z -0.060850 0.000000 4.176960 
# 
# 
# High freq. dielectric constant tensor:
#      x y z
#    x 1.898220 0.000000 -0.005080 
#    y 0.000000 1.885590 0.000000 
#    z -0.005080 0.000000 1.906900 
# 
# From -- ./inp_files/97108.got.cif
#   From: 2010.06.25/outbox.cif.g09.slc.cpg/sg15_49_cif.got.tgz:97108.got - 2010.06.28 07:06:18.
