data_PCOD8150932
_publ_section_title
;
Structure prediction by ZEFSAII (Michael W. Deem and Ramdas Pophale) SiO2 
 PCOD8150932
Probable space group: C 2/C
;
_chemical_formula_sum "Si O2"
_cell_formula_units_Z 52
_cell_length_a 20.381754
_cell_length_b 9.451872
_cell_length_c 23.198935
_cell_angle_alpha 90.000000
_cell_angle_beta 32.508558
_cell_angle_gamma 90.000000
_cell_volume 2401.849360
_symmetry_space_group_name_H-M "C 2/C"
_symmetry_group_IT_number 15
_symmetry_cell_setting 'monoclinic'
loop_
_space_group_symop_operation_xyz
x,y,z
-x,y,1/2-z
-x,-y,-z
x,-y,1/2+z
1/2+x,1/2+y,z
1/2-x,1/2+y,1/2-z
1/2-x,1/2-y,-z
1/2+x,1/2-y,1/2+z
loop_
_atom_site_type_symbol
_atom_site_label
_atom_site_fract_x
_atom_site_fract_y
_atom_site_fract_z
Si Si1 0.038446 0.986706 0.039347
Si Si2 0.295805 0.070295 0.337912
Si Si3 0.500000 0.108158 0.750000
Si Si4 0.763913 0.302502 0.289242
Si Si5 0.311407 0.644068 0.773933
Si Si6 0.389590 0.934359 0.546455
Si Si7 0.972728 0.260871 0.385801
O O1 0.085872 0.130790 0.036161
O O2 0.927903 0.925320 0.157778
O O3 0.158918 0.890537 0.961679
O O4 0.000000 0.000000 0.000000
O O5 0.356662 0.220410 0.276800
O O6 0.389410 0.990200 0.310233
O O7 0.260734 0.966486 0.310753
O O8 0.562309 0.208802 0.654929
O O9 0.776485 0.297996 0.211135
O O10 0.645957 0.214219 0.396876
O O11 0.883693 0.227241 0.224338
O O12 0.229682 0.534376 0.871045
O O13 0.439158 0.904313 0.445413
O O14 0.500000 0.000000 0.500000
#
# Coordination Sequence:
#
# PCOD8150932 Si02
#       7
#     8   8   4   8   8   8   8
#     4  12  23  42  72 110 142 175 233 307 377 420
#     4  11  25  44  67  97 142 190 232 291 354 423
#     4  10  28  50  70  96 144 202 250 278 334 448
#     4  11  21  39  65 101 144 175 229 292 359 433
#     4  12  24  38  67 110 143 173 231 302 376 419
#     4  12  24  38  68 108 142 180 232 301 367 427
#     4  11  23  45  69  99 139 189 241 285 346 428
#
# _framework density 21.649982999999999
#
# number of rings (size 3 to 8) (size 9 to 14) (size 15 to 20)
#    0.000    0.615    6.154    1.846    4.308    0.615 
#    0.000    3.846    0.000    0.000    0.000    0.000 
#    0.000    0.000    0.000    0.000    0.000    0.000 
#
# Total GULP energy -322113.968976 kJ/mol
# GULP energy per Si atom -12388.998807 kJ/mol
# Density = 2.160071 g / cm^3
# Si number density = 21.649983 Si / 1000 Ang^3
#
#
#
# Elastic Constant Matrix: (Units=GPa)
#
#
# Indices 1 2 3 4 5 6 
#
# 1 108.8606 43.3163 43.0099 0.0000 13.5982 0.0000
# 2 43.3163 115.0193 43.8574 0.0000 13.4790 0.0001
# 3 43.0099 43.8574 116.3966 0.0000 -0.6061 0.0000
# 4 0.0000 0.0000 0.0000 40.0953 0.0000 2.5667
# 5 13.5982 13.4790 -0.6061 0.0000 40.9188 0.0000
# 6 0.0000 0.0001 0.0000 2.5667 0.0000 33.6630
#
#
#
# Elastic Compliance Matrix: (Units=1/GPa)
#
#
# Indices 1 2 3 4 5 6 
#
# 1 0.012060 -0.002887 -0.003385 0.000000 -0.003107 0.000000
# 2 -0.002887 0.011341 -0.003221 0.000000 -0.002824 0.000000
# 3 -0.003385 -0.003221 0.011068 0.000000 0.002350 0.000000
# 4 0.000000 0.000000 0.000000 0.025063 0.000000 -0.001911
# 5 -0.003107 -0.002824 0.002350 0.000000 0.026436 0.000000
# 6 0.000000 0.000000 0.000000 -0.001911 0.000000 0.029852
#
#
# Mechanical properties :
#
#
# Convention : Reuss Voigt Hill
#
# Bulk Modulus (GPa) = 64.58662 66.73822 65.66242
# Shear Modulus (GPa) = 35.72287 36.94162 36.33224
#
# Velocity S-wave (km/s) = 4.06645 4.13523 4.10099
# Velocity P-wave (km/s) = 7.20728 7.32756 7.26767
#
# Compressibility (1/GPa) = 0.01548308
#
# Stress axis : x y z
#
# Youngs Moduli (GPa) = 82.91694 88.17883 90.35175
#
# Poissons Ratio (x) = 0.25459 0.30581
# Poissons Ratio (y) = 0.23940 0.29101
# Poissons Ratio (z) = 0.28065 0.28402
#
# Static dielectric constant tensor:
#      x y z
#    x 3.673410 0.000000 0.037180 
#    y 0.000000 4.082880 0.000000 
#    z 0.037180 0.000000 4.305110 
# 
# 
# High freq. dielectric constant tensor:
#      x y z
#    x 1.810860 0.000000 -0.006740 
#    y 0.000000 1.851300 0.000000 
#    z -0.006740 0.000000 1.873980 
# 
# From -- ./inp_files/301977.got.cif
#   From: 2010.06.25/outbox.cif.g09.slc.cpg/sg15_151_cif.got.tgz:301977.got - 2010.06.28 07:06:18.
