data_PCOD8150072
_publ_section_title
;
Structure prediction by ZEFSAII (Michael W. Deem and Ramdas Pophale) SiO2 
 PCOD8150072
Probable space group: C 2/C
;
_chemical_formula_sum "Si O2"
_cell_formula_units_Z 36
_cell_length_a 14.315496
_cell_length_b 7.664943
_cell_length_c 20.185493
_cell_angle_alpha 90.000000
_cell_angle_beta 135.146237
_cell_angle_gamma 90.000000
_cell_volume 1562.170389
_symmetry_space_group_name_H-M "C 2/C"
_symmetry_group_IT_number 15
_symmetry_cell_setting 'monoclinic'
loop_
_space_group_symop_operation_xyz
x,y,z
-x,y,1/2-z
-x,-y,-z
x,-y,1/2+z
1/2+x,1/2+y,z
1/2-x,1/2+y,1/2-z
1/2-x,1/2-y,-z
1/2+x,1/2-y,1/2+z
loop_
_atom_site_type_symbol
_atom_site_label
_atom_site_fract_x
_atom_site_fract_y
_atom_site_fract_z
Si Si1 0.806224 0.226847 0.456243
Si Si2 0.185992 0.923817 0.276182
Si Si3 0.599808 0.179240 0.115484
Si Si4 0.747310 0.333082 0.070276
Si Si5 0.000000 0.802893 0.750000
O O1 0.750000 0.250000 0.500000
O O2 0.706181 0.300109 0.350370
O O3 0.943871 0.333281 0.522808
O O4 0.822300 0.019976 0.455773
O O5 0.126090 0.825450 0.183447
O O6 0.329385 0.000310 0.324779
O O7 0.080153 0.075421 0.238779
O O8 0.667314 0.208270 0.078533
O O9 0.902104 0.333185 0.165819
O O10 0.750000 0.250000 0.000000
#
# Coordination Sequence:
#
# PCOD8150072 Si02
#       5
#     8   8   8   8   4
#     4  12  25  41  66  97 129 169 215 269 322 382
#     4  11  23  42  65  96 131 171 216 267 322 384
#     4  11  24  42  65  94 130 171 213 264 322 385
#     4  11  24  43  66  93 128 172 216 267 323 383
#     4  10  24  44  64  92 130 170 218 270 324 384
#
# _framework density 23.044861000000001
#
# number of rings (size 3 to 8) (size 9 to 14) (size 15 to 20)
#    0.000    0.889    0.000    8.000    0.000    9.778 
#    0.000    0.000    0.000    0.000    0.000    0.000 
#    0.000    0.000    0.000    0.000    0.000    0.000 
#
# Total GULP energy -223155.964371 kJ/mol
# GULP energy per Si atom -12397.553576 kJ/mol
# Density = 2.299241 g / cm^3
# Si number density = 23.044861 Si / 1000 Ang^3
#
#
#
# Elastic Constant Matrix: (Units=GPa)
#
#
# Indices 1 2 3 4 5 6 
#
# 1 106.1868 -8.4057 44.8555 0.0000 0.3872 0.0000
# 2 -8.4057 51.5620 -4.2466 0.0000 0.8620 0.0000
# 3 44.8555 -4.2466 101.1222 0.0000 -0.6886 0.0000
# 4 0.0000 0.0000 0.0000 36.8196 0.0000 5.5071
# 5 0.3872 0.8620 -0.6886 0.0000 43.3433 0.0000
# 6 0.0000 0.0000 0.0000 5.5071 0.0000 33.6237
#
#
#
# Elastic Compliance Matrix: (Units=1/GPa)
#
#
# Indices 1 2 3 4 5 6 
#
# 1 0.011703 0.001489 -0.005130 0.000000 -0.000216 0.000000
# 2 0.001489 0.019657 0.000162 0.000000 -0.000402 0.000000
# 3 -0.005130 0.000162 0.012173 0.000000 0.000236 0.000000
# 4 0.000000 0.000000 0.000000 0.027842 0.000000 -0.004560
# 5 -0.000216 -0.000402 0.000236 0.000000 0.023085 0.000000
# 6 0.000000 0.000000 0.000000 -0.004560 0.000000 0.030488
#
#
# Mechanical properties :
#
#
# Convention : Reuss Voigt Hill
#
# Bulk Modulus (GPa) = 27.34090 35.91971 31.63030
# Shear Modulus (GPa) = 34.69876 37.86849 36.28363
#
# Velocity S-wave (km/s) = 3.88455 4.05810 3.97227
# Velocity P-wave (km/s) = 5.65770 6.13011 5.89864
#
# Compressibility (1/GPa) = 0.03657524
#
# Stress axis : x y z
#
# Youngs Moduli (GPa) = 85.44737 50.87265 82.14850
#
# Poissons Ratio (x) = -0.07575 0.42144
# Poissons Ratio (y) = -0.12723 -0.01333
# Poissons Ratio (z) = 0.43836 -0.00826
#
# Static dielectric constant tensor:
#      x y z
#    x 4.331920 0.000000 0.412410 
#    y 0.000000 3.910520 0.000000 
#    z 0.412410 0.000000 5.096180 
# 
# 
# High freq. dielectric constant tensor:
#      x y z
#    x 1.917140 0.000000 -0.002000 
#    y 0.000000 1.910340 0.000000 
#    z -0.002000 0.000000 1.927580 
# 
# From -- ./inp_files/242751.got.cif
#   From: 2010.06.25/outbox.cif.g09.slc.cpg/sg15_122_cif.got.tgz:242751.got - 2010.06.28 07:06:18.
