data_PCOD8150248
_publ_section_title
;
Structure prediction by ZEFSAII (Michael W. Deem and Ramdas Pophale) SiO2 
 PCOD8150248
Probable space group: C 2/C
;
_chemical_formula_sum "Si O2"
_cell_formula_units_Z 64
_cell_length_a 8.667474
_cell_length_b 22.397723
_cell_length_c 15.546050
_cell_angle_alpha 90.000000
_cell_angle_beta 91.489012
_cell_angle_gamma 90.000000
_cell_volume 3016.961740
_symmetry_space_group_name_H-M "C 2/C"
_symmetry_group_IT_number 15
_symmetry_cell_setting 'monoclinic'
loop_
_space_group_symop_operation_xyz
x,y,z
-x,y,1/2-z
-x,-y,-z
x,-y,1/2+z
1/2+x,1/2+y,z
1/2-x,1/2+y,1/2-z
1/2-x,1/2-y,-z
1/2+x,1/2-y,1/2+z
loop_
_atom_site_type_symbol
_atom_site_label
_atom_site_fract_x
_atom_site_fract_y
_atom_site_fract_z
Si Si1 0.653573 0.045280 0.716818
Si Si2 0.404446 0.377670 0.065410
Si Si3 0.299028 0.953788 0.552218
Si Si4 0.134762 0.717388 0.872924
Si Si5 0.416684 0.480532 0.332321
Si Si6 0.317071 0.823604 0.315353
Si Si7 0.141334 0.549224 0.080759
Si Si8 0.305386 0.336451 0.530896
O O1 0.500000 0.014572 0.750000
O O2 0.774149 0.058389 0.794455
O O3 0.611718 0.109655 0.677753
O O4 0.716348 0.997720 0.648633
O O5 0.474805 0.435630 0.113628
O O6 0.343560 0.327446 0.132973
O O7 0.255168 0.401151 0.011529
O O8 0.523892 0.346371 0.003971
O O9 0.461703 0.933840 0.597535
O O10 0.154568 0.964681 0.614452
O O11 0.337838 0.018182 0.511429
O O12 0.212695 0.699206 0.782566
O O13 0.190987 0.782983 0.900678
O O14 0.948200 0.717098 0.862070
O O15 0.189175 0.673173 0.949441
O O16 0.500000 0.508470 0.250000
O O17 0.246831 0.607593 0.085066
#
# Coordination Sequence:
#
# PCOD8150248 Si02
#       8
#     8   8   8   8   8   8   8   8
#     4  12  22  38  63 102 129 170 225 275 333 409
#     4  12  24  37  65 102 131 164 217 289 335 397
#     4  11  23  38  61 101 137 179 212 260 347 413
#     4  10  24  45  68  91 122 183 232 277 322 401
#     4  12  23  35  57  96 146 172 212 265 340 410
#     4  11  22  41  72  96 125 169 234 279 327 404
#     4  11  23  39  67  94 138 178 214 271 339 418
#     4  11  25  42  66  95 134 173 225 279 344 388
#
# _framework density 21.213395999999999
#
# number of rings (size 3 to 8) (size 9 to 14) (size 15 to 20)
#    0.000    0.750    6.250    1.875    3.500    0.500 
#    0.000    2.500    5.500    0.000    0.000    0.000 
#    0.000    0.000    0.000    0.000    0.000    0.000 
#
# Total GULP energy -396653.710830 kJ/mol
# GULP energy per Si atom -12395.428463 kJ/mol
# Density = 2.116511 g / cm^3
# Si number density = 21.213396 Si / 1000 Ang^3
#
#
#
# Elastic Constant Matrix: (Units=GPa)
#
#
# Indices 1 2 3 4 5 6 
#
# 1 94.7860 25.4186 37.7859 0.0000 -7.5611 0.0000
# 2 25.4186 90.6494 46.2981 0.0000 -9.0442 0.0000
# 3 37.7859 46.2981 98.3227 0.0000 -2.6892 0.0000
# 4 0.0000 0.0000 0.0000 35.1855 0.0000 -3.7802
# 5 -7.5611 -9.0442 -2.6892 0.0000 44.0221 0.0000
# 6 0.0000 0.0000 0.0000 -3.7802 0.0000 25.9815
#
#
#
# Elastic Compliance Matrix: (Units=1/GPa)
#
#
# Indices 1 2 3 4 5 6 
#
# 1 0.012711 -0.001219 -0.004265 0.000000 0.001672 0.000000
# 2 -0.001219 0.014938 -0.006498 0.000000 0.002463 0.000000
# 3 -0.004265 -0.006498 0.014838 0.000000 -0.001161 0.000000
# 4 0.000000 0.000000 0.000000 0.028872 0.000000 0.004201
# 5 0.001672 0.002463 -0.001161 0.000000 0.023438 0.000000
# 6 0.000000 0.000000 0.000000 0.004201 0.000000 0.039100
#
#
# Mechanical properties :
#
#
# Convention : Reuss Voigt Hill
#
# Bulk Modulus (GPa) = 53.98998 55.86259 54.92629
# Shear Modulus (GPa) = 30.48135 32.65484 31.56810
#
# Velocity S-wave (km/s) = 3.79475 3.92771 3.86180
# Velocity P-wave (km/s) = 6.68628 6.85274 6.77002
#
# Compressibility (1/GPa) = 0.01852196
#
# Stress axis : x y z
#
# Youngs Moduli (GPa) = 78.67455 66.94402 67.39582
#
# Poissons Ratio (x) = 0.08160 0.28744
# Poissons Ratio (y) = 0.09590 0.43794
# Poissons Ratio (z) = 0.33555 0.43501
#
# Static dielectric constant tensor:
#      x y z
#    x 4.074110 0.000000 -0.119460 
#    y 0.000000 3.469470 0.000000 
#    z -0.119460 0.000000 3.950640 
# 
# 
# High freq. dielectric constant tensor:
#      x y z
#    x 1.848170 0.000000 -0.000640 
#    y 0.000000 1.793010 0.000000 
#    z -0.000640 0.000000 1.832540 
# 
# From -- ./inp_files/193014.got.cif
#   From: 2010.06.25/outbox.cif.g09.slc.cpg/sg15_97_cif.got.tgz:193014.got - 2010.06.28 07:06:18.
