data_PCOD8150564
_publ_section_title
;
Structure prediction by ZEFSAII (Michael W. Deem and Ramdas Pophale) SiO2 
 PCOD8150564
Probable space group: C 2/C
;
_chemical_formula_sum "Si O2"
_cell_formula_units_Z 60
_cell_length_a 9.766257
_cell_length_b 21.280925
_cell_length_c 13.916797
_cell_angle_alpha 90.000000
_cell_angle_beta 102.599464
_cell_angle_gamma 90.000000
_cell_volume 2822.744875
_symmetry_space_group_name_H-M "C 2/C"
_symmetry_group_IT_number 15
_symmetry_cell_setting 'monoclinic'
loop_
_space_group_symop_operation_xyz
x,y,z
-x,y,1/2-z
-x,-y,-z
x,-y,1/2+z
1/2+x,1/2+y,z
1/2-x,1/2+y,1/2-z
1/2-x,1/2-y,-z
1/2+x,1/2-y,1/2+z
loop_
_atom_site_type_symbol
_atom_site_label
_atom_site_fract_x
_atom_site_fract_y
_atom_site_fract_z
Si Si1 0.659782 0.239207 0.276148
Si Si2 0.706689 0.549562 0.197917
Si Si3 0.873631 0.143133 0.595642
Si Si4 0.000000 0.952530 0.250000
Si Si5 0.420858 0.669077 0.396213
Si Si6 0.832104 0.452821 0.516615
Si Si7 0.653810 0.926100 0.591274
Si Si8 0.780185 0.206906 0.093552
O O1 0.500000 0.212115 0.250000
O O2 0.660533 0.307806 0.325009
O O3 0.766590 0.197403 0.353702
O O4 0.713336 0.241240 0.175252
O O5 0.634735 0.492412 0.241505
O O6 0.585899 0.598272 0.145997
O O7 0.792270 0.527628 0.118490
O O8 0.817763 0.578959 0.290191
O O9 0.951144 0.174034 0.515432
O O10 0.734405 0.111562 0.531729
O O11 0.972116 0.089455 0.652621
O O12 0.551500 0.702117 0.363306
O O13 0.777200 0.511258 0.443897
O O14 0.993689 0.434848 0.538005
O O15 0.716279 0.861567 0.558390
O O16 0.750000 0.250000 0.000000
#
# Coordination Sequence:
#
# PCOD8150564 Si02
#       8
#     8   8   8   4   8   8   8   8
#     4  12  26  45  71  99 137 184 236 287 343 418
#     4  11  23  42  72  96 134 173 231 284 345 408
#     4  11  25  43  70  99 138 175 237 284 355 411
#     4  12  24  42  70 104 136 178 226 294 352 414
#     4  11  26  45  70 101 137 186 234 285 346 417
#     4  10  25  42  70 100 132 185 220 296 340 418
#     4  11  23  45  66 101 140 171 238 273 356 411
#     4  12  28  44  69 101 142 188 230 288 347 417
#
# _framework density 21.255907000000001
#
# number of rings (size 3 to 8) (size 9 to 14) (size 15 to 20)
#    0.000    0.800    3.333    2.800    7.467    1.067 
#    0.000    0.000    0.000    0.000    0.000    0.000 
#    0.000    0.000    0.000    0.000    0.000    0.000 
#
# Total GULP energy -371939.714301 kJ/mol
# GULP energy per Si atom -12397.990477 kJ/mol
# Density = 2.120753 g / cm^3
# Si number density = 21.255907 Si / 1000 Ang^3
#
#
#
# Elastic Constant Matrix: (Units=GPa)
#
#
# Indices 1 2 3 4 5 6 
#
# 1 113.1199 43.1928 49.4111 0.0000 -3.5493 0.0000
# 2 43.1928 95.1959 50.3368 0.0000 -6.8629 0.0000
# 3 49.4111 50.3368 123.8722 0.0000 -6.2762 0.0000
# 4 0.0000 0.0000 0.0000 44.5651 0.0000 -0.2144
# 5 -3.5493 -6.8629 -6.2762 0.0000 32.9127 0.0000
# 6 0.0000 0.0000 0.0000 -0.2144 0.0000 23.6199
#
#
#
# Elastic Compliance Matrix: (Units=1/GPa)
#
#
# Indices 1 2 3 4 5 6 
#
# 1 0.011593 -0.003591 -0.003170 0.000000 -0.000103 0.000000
# 2 -0.003591 0.014595 -0.004406 0.000000 0.001816 0.000000
# 3 -0.003170 -0.004406 0.011172 0.000000 0.000870 0.000000
# 4 0.000000 0.000000 0.000000 0.022440 0.000000 0.000204
# 5 -0.000103 0.001816 0.000870 0.000000 0.030917 0.000000
# 6 0.000000 0.000000 0.000000 0.000204 0.000000 0.042339
#
#
# Mechanical properties :
#
#
# Convention : Reuss Voigt Hill
#
# Bulk Modulus (GPa) = 66.55801 68.67437 67.61619
# Shear Modulus (GPa) = 31.17226 32.83604 32.00415
#
# Velocity S-wave (km/s) = 3.83367 3.93465 3.88449
# Velocity P-wave (km/s) = 7.13980 7.28152 7.21101
#
# Compressibility (1/GPa) = 0.01502449
#
# Stress axis : x y z
#
# Youngs Moduli (GPa) = 86.25979 68.51723 89.50940
#
# Poissons Ratio (x) = 0.24605 0.28376
# Poissons Ratio (y) = 0.30977 0.39441
# Poissons Ratio (z) = 0.27346 0.30191
#
# Static dielectric constant tensor:
#      x y z
#    x 3.840860 0.000000 -0.036540 
#    y 0.000000 3.991420 0.000000 
#    z -0.036540 0.000000 4.103360 
# 
# 
# High freq. dielectric constant tensor:
#      x y z
#    x 1.831150 0.000000 0.004030 
#    y 0.000000 1.833430 0.000000 
#    z 0.004030 0.000000 1.854320 
# 
# From -- ./inp_files/137895.got.cif
#   From: 2010.06.25/outbox.cif.g09.slc.cpg/sg15_69_cif.got.tgz:137895.got - 2010.06.28 07:06:18.
