data_PCOD8150431
_publ_section_title
;
Structure prediction by ZEFSAII (Michael W. Deem and Ramdas Pophale) SiO2 
 PCOD8150431
Probable space group: C 2/C
;
_chemical_formula_sum "Si O2"
_cell_formula_units_Z 40
_cell_length_a 8.508967
_cell_length_b 18.297425
_cell_length_c 12.038725
_cell_angle_alpha 90.000000
_cell_angle_beta 95.105989
_cell_angle_gamma 90.000000
_cell_volume 1866.897608
_symmetry_space_group_name_H-M "C 2/C"
_symmetry_group_IT_number 15
_symmetry_cell_setting 'monoclinic'
loop_
_space_group_symop_operation_xyz
x,y,z
-x,y,1/2-z
-x,-y,-z
x,-y,1/2+z
1/2+x,1/2+y,z
1/2-x,1/2+y,1/2-z
1/2-x,1/2-y,-z
1/2+x,1/2-y,1/2+z
loop_
_atom_site_type_symbol
_atom_site_label
_atom_site_fract_x
_atom_site_fract_y
_atom_site_fract_z
Si Si1 0.325014 0.066812 0.238749
Si Si2 0.852274 0.164721 0.107368
Si Si3 0.388563 0.569629 0.476466
Si Si4 0.638995 0.166343 0.884536
Si Si5 0.809417 0.408128 0.327746
O O1 0.500000 0.102491 0.250000
O O2 0.201546 0.121874 0.286782
O O3 0.260661 0.049138 0.110980
O O4 0.339576 0.993446 0.311162
O O5 0.877577 0.248255 0.141844
O O6 0.018069 0.135342 0.074283
O O7 0.720672 0.152231 0.006125
O O8 0.500000 0.500000 0.500000
O O9 0.328248 0.599916 0.590722
O O10 0.741625 0.130630 0.790961
O O11 0.468754 0.129097 0.881259
#
# Coordination Sequence:
#
# PCOD8150431 Si02
#       5
#     8   8   8   8   8
#     4  12  25  43  71 101 138 189 234 286 344 424
#     4  11  25  45  70 100 143 175 241 290 348 410
#     4  12  26  41  71 106 140 175 238 297 344 401
#     4  10  24  47  68  98 139 191 223 288 351 428
#     4  11  24  43  73  95 141 185 231 275 357 417
#
# _framework density 21.425922
#
# number of rings (size 3 to 8) (size 9 to 14) (size 15 to 20)
#    0.000    0.800    4.000    3.000    5.600    4.800 
#    7.200    0.000    0.000    0.000    0.000    0.000 
#    0.000    0.000    0.000    0.000    0.000    0.000 
#
# Total GULP energy -248090.297199 kJ/mol
# GULP energy per Si atom -12404.514860 kJ/mol
# Density = 2.137716 g / cm^3
# Si number density = 21.425922 Si / 1000 Ang^3
#
#
#
# Elastic Constant Matrix: (Units=GPa)
#
#
# Indices 1 2 3 4 5 6 
#
# 1 75.6027 41.8415 28.4781 0.0000 -26.5273 0.0000
# 2 41.8415 116.7265 40.7029 0.0000 -11.0407 0.0000
# 3 28.4781 40.7029 97.4808 0.0000 -21.4027 0.0000
# 4 0.0000 0.0000 0.0000 35.5736 0.0000 -9.5061
# 5 -26.5273 -11.0407 -21.4027 0.0000 53.4283 0.0000
# 6 0.0000 0.0000 0.0000 -9.5061 0.0000 -18.9358
#
#
#
# Elastic Compliance Matrix: (Units=1/GPa)
#
#
# Indices 1 2 3 4 5 6 
#
# 1 0.019856 -0.005794 -0.001623 0.000000 0.008011 0.000000
# 2 -0.005794 0.011727 -0.003622 0.000000 -0.001904 0.000000
# 3 -0.001623 -0.003622 0.013051 0.000000 0.003674 0.000000
# 4 0.000000 0.000000 0.000000 0.024786 0.000000 -0.012443
# 5 0.008011 -0.001904 0.003674 0.000000 0.023773 0.000000
# 6 0.000000 0.000000 0.000000 -0.012443 0.000000 -0.046563
#
#
# Mechanical properties :
#
#
# Convention : Reuss Voigt Hill
#
# Bulk Modulus (GPa) = 44.33176 56.87278 50.60227
# Shear Modulus (GPa) = 65.59557 25.93239 45.76398
#
# Velocity S-wave (km/s) = 5.53909 3.48275 4.62661
# Velocity P-wave (km/s) = 7.85139 6.54020 7.22560
#
# Compressibility (1/GPa) = 0.02255719
#
# Stress axis : x y z
#
# Youngs Moduli (GPa) = 50.36331 85.27492 76.61976
#
# Poissons Ratio (x) = 0.49408 0.12432
# Poissons Ratio (y) = 0.29180 0.27751
# Poissons Ratio (z) = 0.08171 0.30886
#
# Static dielectric constant tensor:
#      x y z
#    x 4.090300 0.000000 -0.018000 
#    y 0.000000 3.923110 0.000000 
#    z -0.018000 0.000000 4.156400 
# 
# 
# High freq. dielectric constant tensor:
#      x y z
#    x 1.841330 0.000000 0.007630 
#    y 0.000000 1.842580 0.000000 
#    z 0.007630 0.000000 1.857940 
# 
# From -- ./inp_files/76800.got.cif
#   From: 2010.06.25/outbox.cif.g09.slc.cpg/sg15_39_cif.got.tgz:76800.got - 2010.06.28 07:06:18.
