data_PCOD8150485
_publ_section_title
;
Structure prediction by ZEFSAII (Michael W. Deem and Ramdas Pophale) SiO2 
 PCOD8150485
Probable space group: C 2/C
;
_chemical_formula_sum "Si O2"
_cell_formula_units_Z 60
_cell_length_a 30.141545
_cell_length_b 11.471096
_cell_length_c 9.076837
_cell_angle_alpha 90.000000
_cell_angle_beta 62.733604
_cell_angle_gamma 90.000000
_cell_volume 2789.658648
_symmetry_space_group_name_H-M "C 2/C"
_symmetry_group_IT_number 15
_symmetry_cell_setting 'monoclinic'
loop_
_space_group_symop_operation_xyz
x,y,z
-x,y,1/2-z
-x,-y,-z
x,-y,1/2+z
1/2+x,1/2+y,z
1/2-x,1/2+y,1/2-z
1/2-x,1/2-y,-z
1/2+x,1/2-y,1/2+z
loop_
_atom_site_type_symbol
_atom_site_label
_atom_site_fract_x
_atom_site_fract_y
_atom_site_fract_z
Si Si1 0.559652 0.872075 0.902145
Si Si2 0.656451 0.989046 0.229594
Si Si3 0.132893 0.809595 0.229018
Si Si4 0.282979 0.298246 0.162591
Si Si5 0.169808 0.732333 0.865238
Si Si6 0.780064 0.542299 0.119781
Si Si7 0.320583 0.452669 0.844897
Si Si8 0.500000 0.010926 0.750000
O O1 0.576519 0.734612 0.863188
O O2 0.612811 0.929090 0.845293
O O3 0.534593 0.924268 0.792744
O O4 0.528085 0.900364 0.096593
O O5 0.641200 0.858244 0.302109
O O6 0.709146 0.027090 0.224658
O O7 0.669675 0.003330 0.037651
O O8 0.176165 0.770480 0.275344
O O9 0.135550 0.950636 0.204236
O O10 0.143146 0.742564 0.061797
O O11 0.226062 0.320741 0.307490
O O12 0.274776 0.178738 0.080928
O O13 0.305259 0.400132 0.025610
O O14 0.163724 0.856366 0.796458
O O15 0.727711 0.479983 0.153500
#
# Coordination Sequence:
#
# PCOD8150485 Si02
#       8
#     8   8   8   8   8   8   8   4
#     4  11  24  43  68 103 116 155 196 269 341 404
#     4  12  21  37  61  92 128 160 218 258 305 366
#     4  12  24  36  61  93 123 160 228 260 307 376
#     4  11  21  40  53  85 133 188 226 244 290 342
#     4  11  22  37  55  87 133 186 216 255 290 341
#     4  11  22  34  55  85 133 180 218 259 286 343
#     4  11  23  39  53  83 134 190 222 251 288 344
#     4  10  24  48  72  92 132 142 190 276 368 404
#
# _framework density 21.508008
#
# number of rings (size 3 to 8) (size 9 to 14) (size 15 to 20)
#    0.000    0.800    4.000    5.200    3.733    0.000 
#    0.000    0.000    0.000    0.000    0.000   31.733 
#    0.000    0.000    0.000    0.000    0.000    0.000 
#
# Total GULP energy -371770.076338 kJ/mol
# GULP energy per Si atom -12392.335878 kJ/mol
# Density = 2.145905 g / cm^3
# Si number density = 21.508008 Si / 1000 Ang^3
#
#
#
# Elastic Constant Matrix: (Units=GPa)
#
#
# Indices 1 2 3 4 5 6 
#
# 1 56.3391 20.9792 27.3923 0.0000 -1.5960 0.0000
# 2 20.9792 93.8795 9.9854 0.0000 -11.5452 0.0000
# 3 27.3923 9.9854 99.5472 0.0000 -2.5509 0.0000
# 4 0.0000 0.0000 0.0000 23.9343 0.0000 -12.8376
# 5 -1.5960 -11.5452 -2.5509 0.0000 25.2901 0.0000
# 6 0.0000 0.0000 0.0000 -12.8376 0.0000 31.7393
#
#
#
# Elastic Compliance Matrix: (Units=1/GPa)
#
#
# Indices 1 2 3 4 5 6 
#
# 1 0.022149 -0.004497 -0.005675 0.000000 -0.001228 0.000000
# 2 -0.004497 0.012299 0.000141 0.000000 0.005345 0.000000
# 3 -0.005675 0.000141 0.011615 0.000000 0.000878 0.000000
# 4 0.000000 0.000000 0.000000 0.053356 0.000000 0.021581
# 5 -0.001228 0.005345 0.000878 0.000000 0.041992 0.000000
# 6 0.000000 0.000000 0.000000 0.021581 0.000000 0.040236
#
#
# Mechanical properties :
#
#
# Convention : Reuss Voigt Hill
#
# Bulk Modulus (GPa) = 38.46027 40.71997 39.59012
# Shear Modulus (GPa) = 23.76684 28.95333 26.36008
#
# Velocity S-wave (km/s) = 3.32779 3.67299 3.50465
# Velocity P-wave (km/s) = 5.71719 6.07959 5.90117
#
# Compressibility (1/GPa) = 0.02600086
#
# Stress axis : x y z
#
# Youngs Moduli (GPa) = 45.14954 81.30580 86.09221
#
# Poissons Ratio (x) = 0.36562 0.48857
# Poissons Ratio (y) = 0.20303 -0.01211
# Poissons Ratio (z) = 0.25622 -0.01144
#
# Static dielectric constant tensor:
#      x y z
#    x 3.606740 0.000000 0.099250 
#    y 0.000000 4.392140 0.000000 
#    z 0.099250 0.000000 3.948550 
# 
# 
# High freq. dielectric constant tensor:
#      x y z
#    x 1.794920 0.000000 0.028060 
#    y 0.000000 1.867740 0.000000 
#    z 0.028060 0.000000 1.855580 
# 
# From -- ./inp_files/69355.got.cif
#   From: 2010.06.25/outbox.cif.g09.slc.cpg/sg15_35_cif.got.tgz:69355.got - 2010.06.28 07:06:18.
