data_PCOD8150967
_publ_section_title
;
Structure prediction by ZEFSAII (Michael W. Deem and Ramdas Pophale) SiO2 
 PCOD8150967
Probable space group: C 2/C
;
_chemical_formula_sum "Si O2"
_cell_formula_units_Z 60
_cell_length_a 10.810852
_cell_length_b 20.943373
_cell_length_c 16.629999
_cell_angle_alpha 90.000000
_cell_angle_beta 59.965256
_cell_angle_gamma 90.000000
_cell_volume 3259.697127
_symmetry_space_group_name_H-M "C 2/C"
_symmetry_group_IT_number 15
_symmetry_cell_setting 'monoclinic'
loop_
_space_group_symop_operation_xyz
x,y,z
-x,y,1/2-z
-x,-y,-z
x,-y,1/2+z
1/2+x,1/2+y,z
1/2-x,1/2+y,1/2-z
1/2-x,1/2-y,-z
1/2+x,1/2-y,1/2+z
loop_
_atom_site_type_symbol
_atom_site_label
_atom_site_fract_x
_atom_site_fract_y
_atom_site_fract_z
Si Si1 0.000000 0.828442 0.250000
Si Si2 0.225963 0.383994 0.272205
Si Si3 0.650724 0.779487 0.171887
Si Si4 0.127724 0.725519 0.096194
Si Si5 0.586542 0.111739 0.568074
Si Si6 0.831909 0.621999 0.296988
Si Si7 0.645331 0.835873 0.883564
Si Si8 0.663172 0.015854 0.669346
O O1 0.865918 0.875046 0.280419
O O2 0.962718 0.783370 0.337207
O O3 0.210602 0.320008 0.226039
O O4 0.253259 0.443601 0.204308
O O5 0.085374 0.395544 0.372279
O O6 0.500000 0.750072 0.250000
O O7 0.632251 0.823917 0.099697
O O8 0.759262 0.722865 0.117184
O O9 0.212341 0.683461 0.135978
O O10 0.017336 0.684147 0.080555
O O11 0.250000 0.750000 0.000000
O O12 0.638339 0.113824 0.458997
O O13 0.666025 0.050129 0.581291
O O14 0.786371 0.631599 0.218539
O O15 0.769425 0.555553 0.353381
O O16 0.000000 0.617922 0.250000
O O17 0.500000 0.015781 0.750000
#
# Coordination Sequence:
#
# PCOD8150967 Si02
#       8
#     4   8   8   8   8   8   8   8
#     4  12  18  34  52  80 116 136 180 222 272 324
#     4   9  17  31  52  76 104 145 173 218 265 319
#     4   9  17  31  50  75 107 138 173 214 269 320
#     4  11  21  33  52  80 111 144 175 215 275 325
#     4   9  18  30  51  82 105 132 183 218 263 322
#     4   9  18  35  53  74 107 141 175 224 268 309
#     4  11  18  31  51  80 107 135 176 219 273 316
#     4   8  16  34  55  72 101 140 178 222 266 307
#
# _framework density 18.406618000000002
#
# number of rings (size 3 to 8) (size 9 to 14) (size 15 to 20)
#    0.000    2.400    3.333    2.800    0.000    1.067 
#    0.000   12.000    1.467    0.800    0.000    0.000 
#    0.000    0.000    0.000    0.000    0.000    0.000 
#
# Total GULP energy -371838.928785 kJ/mol
# GULP energy per Si atom -12394.630960 kJ/mol
# Density = 1.836472 g / cm^3
# Si number density = 18.406618 Si / 1000 Ang^3
#
#
#
# Elastic Constant Matrix: (Units=GPa)
#
#
# Indices 1 2 3 4 5 6 
#
# 1 63.5828 33.0936 28.4575 0.0000 11.6342 0.0000
# 2 33.0936 99.0120 45.1422 0.0000 6.5713 0.0000
# 3 28.4575 45.1422 108.4400 0.0000 13.3154 0.0000
# 4 0.0000 0.0000 0.0000 18.0821 0.0000 -0.1504
# 5 11.6342 6.5713 13.3154 0.0000 23.2788 0.0000
# 6 0.0000 0.0000 0.0000 -0.1504 0.0000 12.0120
#
#
#
# Elastic Compliance Matrix: (Units=1/GPa)
#
#
# Indices 1 2 3 4 5 6 
#
# 1 0.020997 -0.005463 -0.002298 0.000000 -0.007637 0.000000
# 2 -0.005463 0.013895 -0.004522 0.000000 0.001395 0.000000
# 3 -0.002298 -0.004522 0.012271 0.000000 -0.004594 0.000000
# 4 0.000000 0.000000 0.000000 0.055309 0.000000 0.000693
# 5 -0.007637 0.001395 -0.004594 0.000000 0.049009 0.000000
# 6 0.000000 0.000000 0.000000 0.000693 0.000000 0.083259
#
#
# Mechanical properties :
#
#
# Convention : Reuss Voigt Hill
#
# Bulk Modulus (GPa) = 44.25419 53.82459 49.03939
# Shear Modulus (GPa) = 18.73794 21.63069 20.18431
#
# Velocity S-wave (km/s) = 3.19407 3.43178 3.31506
# Velocity P-wave (km/s) = 6.13983 6.70882 6.43062
#
# Compressibility (1/GPa) = 0.02259673
#
# Stress axis : x y z
#
# Youngs Moduli (GPa) = 47.62570 71.96888 81.49146
#
# Poissons Ratio (x) = 0.39319 0.18727
# Poissons Ratio (y) = 0.26020 0.36849
# Poissons Ratio (z) = 0.10945 0.32543
#
# Static dielectric constant tensor:
#      x y z
#    x 3.198700 0.000000 0.234090 
#    y 0.000000 3.875710 0.000000 
#    z 0.234090 0.000000 3.244880 
# 
# 
# High freq. dielectric constant tensor:
#      x y z
#    x 1.692540 0.000000 0.019460 
#    y 0.000000 1.705210 0.000000 
#    z 0.019460 0.000000 1.697930 
# 
# From -- ./inp_files/199123.got.cif
#   From: 2010.06.25/outbox.cif.g09.slc.cpg/sg15_100_cif.got.tgz:199123.got - 2010.06.28 07:06:18.
