data_PCOD8150905
_publ_section_title
;
Structure prediction by ZEFSAII (Michael W. Deem and Ramdas Pophale) SiO2 
 PCOD8150905
Probable space group: C 2/C
;
_chemical_formula_sum "Si O2"
_cell_formula_units_Z 44
_cell_length_a 8.335414
_cell_length_b 30.363366
_cell_length_c 8.957089
_cell_angle_alpha 90.000000
_cell_angle_beta 121.997194
_cell_angle_gamma 90.000000
_cell_volume 1922.550482
_symmetry_space_group_name_H-M "C 2/C"
_symmetry_group_IT_number 15
_symmetry_cell_setting 'monoclinic'
loop_
_space_group_symop_operation_xyz
x,y,z
-x,y,1/2-z
-x,-y,-z
x,-y,1/2+z
1/2+x,1/2+y,z
1/2-x,1/2+y,1/2-z
1/2-x,1/2-y,-z
1/2+x,1/2-y,1/2+z
loop_
_atom_site_type_symbol
_atom_site_label
_atom_site_fract_x
_atom_site_fract_y
_atom_site_fract_z
Si Si1 0.560920 0.303507 0.480447
Si Si2 0.608783 0.129716 0.959402
Si Si3 0.539824 0.792607 0.934004
Si Si4 0.500000 0.996476 0.250000
Si Si5 0.000000 0.878989 0.250000
Si Si6 0.500000 0.656783 0.250000
Si Si7 0.142430 0.440665 0.061616
O O1 0.453349 0.256544 0.417852
O O2 0.732887 0.295779 0.448622
O O3 0.450826 0.346763 0.365780
O O4 0.606964 0.312993 0.677992
O O5 0.500000 0.120180 0.750000
O O6 0.540683 0.091194 0.037350
O O7 0.546078 0.177916 0.978890
O O8 0.838925 0.128357 0.082713
O O9 0.500000 0.811304 0.750000
O O10 0.636141 0.025657 0.421118
O O11 0.640646 0.967103 0.217731
O O12 0.824336 0.910339 0.132965
#
# Coordination Sequence:
#
# PCOD8150905 Si02
#       7
#     8   8   8   4   4   4   8
#     4  11  25  41  65 108 142 192 246 296 342 426
#     4  12  26  47  72 105 148 194 238 307 348 431
#     4  11  23  45  66  96 150 199 246 291 353 408
#     4  10  26  50  72 100 138 178 227 307 374 450
#     4  12  24  44  76 104 142 192 239 297 354 436
#     4  12  28  40  70 106 140 194 250 280 366 412
#     4  11  25  48  74 103 139 180 233 297 376 431
#
# _framework density 22.886265000000002
#
# number of rings (size 3 to 8) (size 9 to 14) (size 15 to 20)
#    0.000    0.727    5.455    1.091    5.091    1.455 
#    0.000    3.636    0.000    0.000    0.000    0.000 
#    0.000    0.000    0.000    0.000    0.000    0.000 
#
# Total GULP energy -272590.284303 kJ/mol
# GULP energy per Si atom -12390.467468 kJ/mol
# Density = 2.283417 g / cm^3
# Si number density = 22.886265 Si / 1000 Ang^3
#
#
#
# Elastic Constant Matrix: (Units=GPa)
#
#
# Indices 1 2 3 4 5 6 
#
# 1 77.1468 42.6982 31.7011 0.0000 8.3174 0.0000
# 2 42.6982 149.8451 43.4179 0.0000 0.2310 0.0000
# 3 31.7011 43.4179 108.9205 0.0000 -3.9988 0.0000
# 4 0.0000 0.0000 0.0000 34.7827 0.0000 -0.9935
# 5 8.3174 0.2310 -3.9988 0.0000 36.9720 0.0000
# 6 0.0000 0.0000 0.0000 -0.9935 0.0000 18.7488
#
#
#
# Elastic Compliance Matrix: (Units=1/GPa)
#
#
# Indices 1 2 3 4 5 6 
#
# 1 0.016987 -0.003795 -0.003585 0.000000 -0.004186 0.000000
# 2 -0.003795 0.008398 -0.002222 0.000000 0.000561 0.000000
# 3 -0.003585 -0.002222 0.011185 0.000000 0.002030 0.000000
# 4 0.000000 0.000000 0.000000 0.028793 0.000000 0.001526
# 5 -0.004186 0.000561 0.002030 0.000000 0.028205 0.000000
# 6 0.000000 0.000000 0.000000 0.001526 0.000000 0.053418
#
#
# Mechanical properties :
#
#
# Convention : Reuss Voigt Hill
#
# Bulk Modulus (GPa) = 57.58743 63.50521 60.54632
# Shear Modulus (GPa) = 29.07315 32.64037 30.85676
#
# Velocity S-wave (km/s) = 3.56804 3.78060 3.67586
# Velocity P-wave (km/s) = 6.49551 6.84585 6.67298
#
# Compressibility (1/GPa) = 0.01736490
#
# Stress axis : x y z
#
# Youngs Moduli (GPa) = 58.86775 119.07424 89.40684
#
# Poissons Ratio (x) = 0.45192 0.32051
# Poissons Ratio (y) = 0.22342 0.19870
# Poissons Ratio (z) = 0.21103 0.26464
#
# Static dielectric constant tensor:
#      x y z
#    x 4.115430 0.000000 -0.137240 
#    y 0.000000 4.350850 0.000000 
#    z -0.137240 0.000000 4.147720 
# 
# 
# High freq. dielectric constant tensor:
#      x y z
#    x 1.889000 0.000000 -0.011850 
#    y 0.000000 1.908990 0.000000 
#    z -0.011850 0.000000 1.907400 
# 
# From -- ./inp_files/26293.got.cif
#   From: 2010.06.25/outbox.cif.g09.slc.cpg/sg15_14_cif.got.tgz:26293.got - 2010.06.28 07:06:18.
