data_PCOD8150138
_publ_section_title
;
Structure prediction by ZEFSAII (Michael W. Deem and Ramdas Pophale) SiO2 
 PCOD8150138
Probable space group: C 2/C
;
_chemical_formula_sum "Si O2"
_cell_formula_units_Z 44
_cell_length_a 11.676298
_cell_length_b 14.083124
_cell_length_c 12.912603
_cell_angle_alpha 90.000000
_cell_angle_beta 105.320524
_cell_angle_gamma 90.000000
_cell_volume 2047.875117
_symmetry_space_group_name_H-M "C 2/C"
_symmetry_group_IT_number 15
_symmetry_cell_setting 'monoclinic'
loop_
_space_group_symop_operation_xyz
x,y,z
-x,y,1/2-z
-x,-y,-z
x,-y,1/2+z
1/2+x,1/2+y,z
1/2-x,1/2+y,1/2-z
1/2-x,1/2-y,-z
1/2+x,1/2-y,1/2+z
loop_
_atom_site_type_symbol
_atom_site_label
_atom_site_fract_x
_atom_site_fract_y
_atom_site_fract_z
Si Si1 0.803006 0.900069 0.689001
Si Si2 0.886389 0.542187 0.528499
Si Si3 0.384315 0.751550 0.066908
Si Si4 0.000000 0.951616 0.250000
Si Si5 0.300097 0.136249 0.120235
Si Si6 0.568908 0.693306 0.940114
O O1 0.716032 0.938530 0.579641
O O2 0.890532 0.815971 0.669061
O O3 0.725919 0.857460 0.764159
O O4 0.884924 0.985391 0.748983
O O5 0.921913 0.639286 0.597394
O O6 0.842762 0.469420 0.604795
O O7 0.000000 0.500000 0.500000
O O8 0.250000 0.750000 0.000000
O O9 0.465159 0.710241 0.996112
O O10 0.023864 0.889292 0.355774
O O11 0.403438 0.211647 0.118641
O O12 0.184591 0.158950 0.026794
#
# Coordination Sequence:
#
# PCOD8150138 Si02
#       6
#     8   8   8   4   8   8
#     4  11  26  43  69 106 135 190 231 288 351 420
#     4  11  23  47  70 101 140 185 228 295 348 420
#     4  10  24  44  68  98 140 181 231 280 353 410
#     4  12  26  42  74 102 140 184 240 280 370 406
#     4  11  25  46  70 105 142 177 247 285 355 422
#     4  11  25  44  72 101 142 185 230 303 342 425
#
# _framework density 21.485685
#
# number of rings (size 3 to 8) (size 9 to 14) (size 15 to 20)
#    0.000    1.091    3.636    1.091   10.182    2.182 
#    0.000    1.818    0.000    0.000    0.000    0.000 
#    0.000    0.000    0.000    0.000    0.000    0.000 
#
# Total GULP energy -272861.230972 kJ/mol
# GULP energy per Si atom -12402.783226 kJ/mol
# Density = 2.143678 g / cm^3
# Si number density = 21.485685 Si / 1000 Ang^3
#
#
#
# Elastic Constant Matrix: (Units=GPa)
#
#
# Indices 1 2 3 4 5 6 
#
# 1 113.0058 54.7324 38.4369 0.0000 -31.8889 0.0000
# 2 54.7324 162.9303 56.1450 0.0000 -22.8757 0.0000
# 3 38.4369 56.1450 96.4967 0.0000 -32.2216 0.0000
# 4 0.0000 0.0000 0.0000 2.6341 0.0000 -34.2682
# 5 -31.8889 -22.8757 -32.2216 0.0000 50.5836 0.0000
# 6 0.0000 0.0000 0.0000 -34.2682 0.0000 24.3476
#
#
#
# Elastic Compliance Matrix: (Units=1/GPa)
#
#
# Indices 1 2 3 4 5 6 
#
# 1 0.012275 -0.002874 -0.001356 0.000000 0.005575 0.000000
# 2 -0.002874 0.008375 -0.003897 0.000000 -0.000507 0.000000
# 3 -0.001356 -0.003897 0.015619 0.000000 0.007332 0.000000
# 4 0.000000 0.000000 0.000000 -0.021931 0.000000 -0.030867
# 5 0.005575 -0.000507 0.007332 0.000000 0.027725 0.000000
# 6 0.000000 0.000000 0.000000 -0.030867 0.000000 -0.002373
#
#
# Mechanical properties :
#
#
# Convention : Reuss Voigt Hill
#
# Bulk Modulus (GPa) = 49.96137 74.56237 62.26187
# Shear Modulus (GPa) = 79.85195 30.38761 55.11978
#
# Velocity S-wave (km/s) = 6.10294 3.76482 5.07049
# Velocity P-wave (km/s) = 8.54195 7.32647 7.95745
#
# Compressibility (1/GPa) = 0.02001547
#
# Stress axis : x y z
#
# Youngs Moduli (GPa) = 81.46388 119.40664 64.02467
#
# Poissons Ratio (x) = 0.34312 0.08681
# Poissons Ratio (y) = 0.23409 0.24952
# Poissons Ratio (z) = 0.11046 0.46537
#
# Static dielectric constant tensor:
#      x y z
#    x 3.920550 0.000000 -0.010370 
#    y 0.000000 4.850480 0.000000 
#    z -0.010370 0.000000 3.765930 
# 
# 
# High freq. dielectric constant tensor:
#      x y z
#    x 1.860660 0.000000 -0.005160 
#    y 0.000000 1.864690 0.000000 
#    z -0.005160 0.000000 1.832140 
# 
# From -- ./inp_files/86142.got.cif
#   From: 2010.06.25/outbox.cif.g09.slc.cpg/sg15_44_cif.got.tgz:86142.got - 2010.06.28 07:06:18.
