data_PCOD8150736
_publ_section_title
;
Structure prediction by ZEFSAII (Michael W. Deem and Ramdas Pophale) SiO2 
 PCOD8150736
Probable space group: C 2/C
;
_chemical_formula_sum "Si O2"
_cell_formula_units_Z 40
_cell_length_a 9.853380
_cell_length_b 10.385371
_cell_length_c 14.373561
_cell_angle_alpha 90.000000
_cell_angle_beta 94.867679
_cell_angle_gamma 90.000000
_cell_volume 1465.556048
_symmetry_space_group_name_H-M "C 2/C"
_symmetry_group_IT_number 15
_symmetry_cell_setting 'monoclinic'
loop_
_space_group_symop_operation_xyz
x,y,z
-x,y,1/2-z
-x,-y,-z
x,-y,1/2+z
1/2+x,1/2+y,z
1/2-x,1/2+y,1/2-z
1/2-x,1/2-y,-z
1/2+x,1/2-y,1/2+z
loop_
_atom_site_type_symbol
_atom_site_label
_atom_site_fract_x
_atom_site_fract_y
_atom_site_fract_z
Si Si1 0.500000 0.884201 0.750000
Si Si2 0.834543 0.811600 0.594834
Si Si3 0.728333 0.088032 0.772743
Si Si4 0.728417 0.086155 0.569566
Si Si5 0.022273 0.740282 0.443167
Si Si6 0.500000 0.446617 0.750000
O O1 0.529231 0.792958 0.663318
O O2 0.627708 0.970191 0.787582
O O3 0.771038 0.692718 0.646846
O O4 0.964347 0.857394 0.660669
O O5 0.884410 0.766447 0.495224
O O6 0.728557 0.930874 0.578560
O O7 0.691730 0.147370 0.668773
O O8 0.880064 0.035696 0.778789
O O9 0.878884 0.134816 0.548374
O O10 0.610058 0.122847 0.491126
#
# Coordination Sequence:
#
# PCOD8150736 Si02
#       6
#     4   8   8   8   8   4
#     4  12  29  51  80 120 164 214 278 338 412 480
#     4  11  24  51  82 118 158 213 271 332 400 486
#     4  11  26  50  82 119 163 211 267 338 406 488
#     4  10  25  48  81 117 161 213 270 333 406 483
#     4  11  26  50  80 115 165 214 270 339 402 483
#     4  10  25  49  82 120 168 208 264 334 404 482
#
# _framework density 27.293393999999999
#
# number of rings (size 3 to 8) (size 9 to 14) (size 15 to 20)
#    0.000    1.200    0.000    3.600   11.200    6.400 
#    3.600    5.000    0.000    0.000    0.000    0.000 
#    0.000    0.000    0.000    0.000    0.000    0.000 
#
# Total GULP energy -248118.873322 kJ/mol
# GULP energy per Si atom -12405.943666 kJ/mol
# Density = 2.723127 g / cm^3
# Si number density = 27.293394 Si / 1000 Ang^3
#
#
#
# Elastic Constant Matrix: (Units=GPa)
#
#
# Indices 1 2 3 4 5 6 
#
# 1 128.4995 57.1919 43.4932 0.0000 -23.3048 0.0000
# 2 57.1919 147.1656 80.4016 0.0000 -7.9214 0.0000
# 3 43.4932 80.4016 223.6903 0.0000 -9.6376 0.0000
# 4 0.0000 0.0000 0.0000 52.5341 0.0000 -11.5608
# 5 -23.3048 -7.9214 -9.6376 0.0000 57.1130 0.0000
# 6 0.0000 0.0000 0.0000 -11.5608 0.0000 19.5788
#
#
#
# Elastic Compliance Matrix: (Units=1/GPa)
#
#
# Indices 1 2 3 4 5 6 
#
# 1 0.010157 -0.003435 -0.000587 0.000000 0.003569 0.000000
# 2 -0.003435 0.009642 -0.002821 0.000000 -0.000540 0.000000
# 3 -0.000587 -0.002821 0.005612 0.000000 0.000316 0.000000
# 4 0.000000 0.000000 0.000000 0.021878 0.000000 0.012919
# 5 0.003569 -0.000540 0.000316 0.000000 0.018944 0.000000
# 6 0.000000 0.000000 0.000000 0.012919 0.000000 0.058704
#
#
# Mechanical properties :
#
#
# Convention : Reuss Voigt Hill
#
# Bulk Modulus (GPa) = 85.27820 95.72544 90.50182
# Shear Modulus (GPa) = 35.08042 47.06308 41.07175
#
# Velocity S-wave (km/s) = 3.58901 4.15702 3.88341
# Velocity P-wave (km/s) = 6.96329 7.62824 7.30334
#
# Compressibility (1/GPa) = 0.01172633
#
# Stress axis : x y z
#
# Youngs Moduli (GPa) = 98.45853 103.71280 178.18474
#
# Poissons Ratio (x) = 0.35620 0.10451
# Poissons Ratio (y) = 0.33816 0.50268
# Poissons Ratio (z) = 0.05775 0.29259
#
# Static dielectric constant tensor:
#      x y z
#    x 5.108260 0.000000 0.044430 
#    y 0.000000 4.943940 0.000000 
#    z 0.044430 0.000000 5.401830 
# 
# 
# High freq. dielectric constant tensor:
#      x y z
#    x 2.119160 0.000000 0.009910 
#    y 0.000000 2.103230 0.000000 
#    z 0.009910 0.000000 2.119610 
# 
# From -- ./inp_files/141872.got.cif
#   From: 2010.06.25/outbox.cif.g09.slc.cpg/sg15_71_cif.got.tgz:141872.got - 2010.06.28 07:06:18.
