data_PCOD8150057
_publ_section_title
;
Structure prediction by ZEFSAII (Michael W. Deem and Ramdas Pophale) SiO2 
 PCOD8150057
Probable space group: C 2/C
;
_chemical_formula_sum "Si O2"
_cell_formula_units_Z 56
_cell_length_a 14.555755
_cell_length_b 9.217287
_cell_length_c 24.414286
_cell_angle_alpha 90.000000
_cell_angle_beta 123.735770
_cell_angle_gamma 90.000000
_cell_volume 2723.957381
_symmetry_space_group_name_H-M "C 2/C"
_symmetry_group_IT_number 15
_symmetry_cell_setting 'monoclinic'
loop_
_space_group_symop_operation_xyz
x,y,z
-x,y,1/2-z
-x,-y,-z
x,-y,1/2+z
1/2+x,1/2+y,z
1/2-x,1/2+y,1/2-z
1/2-x,1/2-y,-z
1/2+x,1/2-y,1/2+z
loop_
_atom_site_type_symbol
_atom_site_label
_atom_site_fract_x
_atom_site_fract_y
_atom_site_fract_z
Si Si1 0.500000 0.607594 0.750000
Si Si2 0.541991 0.138136 0.345127
Si Si3 0.593425 0.904457 0.595716
Si Si4 0.839878 0.137823 0.174189
Si Si5 0.781185 0.140165 0.462733
Si Si6 0.967273 0.713045 0.953904
Si Si7 0.500000 0.892525 0.250000
Si Si8 0.347491 0.643012 0.047853
O O1 0.487487 0.710102 0.693213
O O2 0.604943 0.500719 0.777611
O O3 0.496027 0.152507 0.390953
O O4 0.673139 0.110163 0.390253
O O5 0.486410 0.998808 0.297654
O O6 0.714285 0.850521 0.652538
O O7 0.562297 0.839455 0.526726
O O8 0.595062 0.078080 0.593853
O O9 0.893300 0.290187 0.209676
O O10 0.848307 0.109946 0.112271
O O11 0.750000 0.250000 0.500000
O O12 0.875774 0.190994 0.452970
O O13 0.827227 0.999552 0.506737
O O14 0.030808 0.798193 0.926989
O O15 0.250000 0.750000 0.000000
#
# Coordination Sequence:
#
# PCOD8150057 Si02
#       8
#     4   8   8   8   8   8   4   8
#     4  10  24  44  62  86 124 172 222 256 314 368
#     4  11  23  42  65  91 125 170 212 266 312 382
#     4  11  22  38  66  94 129 165 208 265 319 382
#     4  11  23  42  65  91 125 170 212 266 312 382
#     4  12  23  40  66  96 132 167 208 268 330 385
#     4  11  23  38  60 104 133 161 205 257 337 389
#     4  10  24  44  62  86 124 172 222 256 314 368
#     4  12  23  40  66  96 132 167 208 268 330 385
#
# _framework density 20.558323999999999
#
# number of rings (size 3 to 8) (size 9 to 14) (size 15 to 20)
#    0.000    0.857    2.857    5.571    0.000    1.143 
#    0.000    5.714    0.000    0.000    0.000    0.000 
#    0.000    0.000    0.000    0.000    0.000    0.000 
#
# Total GULP energy -347322.456952 kJ/mol
# GULP energy per Si atom -12404.373463 kJ/mol
# Density = 2.051153 g / cm^3
# Si number density = 20.558324 Si / 1000 Ang^3
#
#
#
# Elastic Constant Matrix: (Units=GPa)
#
#
# Indices 1 2 3 4 5 6 
#
# 1 120.7677 28.5522 14.9401 0.0000 18.8444 0.0000
# 2 28.5522 103.0046 17.2353 0.0000 7.2775 0.0000
# 3 14.9401 17.2353 68.4877 0.0000 14.1894 0.0000
# 4 0.0000 0.0000 0.0000 37.3050 0.0000 -1.5804
# 5 18.8444 7.2775 14.1894 0.0000 34.8402 0.0000
# 6 0.0000 0.0000 0.0000 -1.5804 0.0000 26.4824
#
#
#
# Elastic Compliance Matrix: (Units=1/GPa)
#
#
# Indices 1 2 3 4 5 6 
#
# 1 0.009582 -0.002240 -0.000600 0.000000 -0.004470 0.000000
# 2 -0.002240 0.010703 -0.002176 0.000000 -0.000138 0.000000
# 3 -0.000600 -0.002176 0.016512 0.000000 -0.005945 0.000000
# 4 0.000000 0.000000 0.000000 0.026874 0.000000 0.001604
# 5 -0.004470 -0.000138 -0.005945 0.000000 0.033571 0.000000
# 6 0.000000 0.000000 0.000000 0.001604 0.000000 0.037857
#
#
# Mechanical properties :
#
#
# Convention : Reuss Voigt Hill
#
# Bulk Modulus (GPa) = 37.36437 45.96836 41.66637
# Shear Modulus (GPa) = 32.45670 35.16102 33.80886
#
# Velocity S-wave (km/s) = 3.97767 4.14007 4.05968
# Velocity P-wave (km/s) = 6.26978 6.72771 6.50278
#
# Compressibility (1/GPa) = 0.02676346
#
# Stress axis : x y z
#
# Youngs Moduli (GPa) = 104.36595 93.43152 60.56352
#
# Poissons Ratio (x) = 0.20926 0.03636
# Poissons Ratio (y) = 0.23375 0.13181
# Poissons Ratio (z) = 0.06266 0.20334
#
# Static dielectric constant tensor:
#      x y z
#    x 3.650980 0.000000 0.118630 
#    y 0.000000 3.753590 0.000000 
#    z 0.118630 0.000000 3.882250 
# 
# 
# High freq. dielectric constant tensor:
#      x y z
#    x 1.801610 0.000000 0.007900 
#    y 0.000000 1.819120 0.000000 
#    z 0.007900 0.000000 1.808190 
# 
# From -- ./inp_files/273094.got.cif
#   From: 2010.06.25/outbox.cif.g09.slc.cpg/sg15_137_cif.got.tgz:273094.got - 2010.06.28 07:06:18.
