data_PCOD8150320
_publ_section_title
;
Structure prediction by ZEFSAII (Michael W. Deem and Ramdas Pophale) SiO2 
 PCOD8150320
Probable space group: C 2/C
;
_chemical_formula_sum "Si O2"
_cell_formula_units_Z 32
_cell_length_a 7.675137
_cell_length_b 10.375771
_cell_length_c 17.678711
_cell_angle_alpha 90.000000
_cell_angle_beta 92.559374
_cell_angle_gamma 90.000000
_cell_volume 1406.447996
_symmetry_space_group_name_H-M "C 2/C"
_symmetry_group_IT_number 15
_symmetry_cell_setting 'monoclinic'
loop_
_space_group_symop_operation_xyz
x,y,z
-x,y,1/2-z
-x,-y,-z
x,-y,1/2+z
1/2+x,1/2+y,z
1/2-x,1/2+y,1/2-z
1/2-x,1/2-y,-z
1/2+x,1/2-y,1/2+z
loop_
_atom_site_type_symbol
_atom_site_label
_atom_site_fract_x
_atom_site_fract_y
_atom_site_fract_z
Si Si1 0.315352 0.626606 0.778913
Si Si2 0.903374 0.704899 0.415013
Si Si3 0.047186 0.880499 0.949966
Si Si4 0.261949 0.862568 0.672077
O O1 0.500000 0.586776 0.750000
O O2 0.331365 0.674313 0.865569
O O3 0.235117 0.739271 0.725517
O O4 0.207869 0.492555 0.777738
O O5 0.962681 0.751653 0.499198
O O6 0.744172 0.602973 0.421021
O O7 0.067657 0.642638 0.376762
O O8 0.913867 0.869297 0.878875
O O9 0.000000 0.000000 0.000000
#
# Coordination Sequence:
#
# PCOD8150320 Si02
#       4
#     8   8   8   8
#     4  10  24  46  67 104 140 175 235 278 338 417
#     4  10  24  46  65 105 133 176 236 276 338 416
#     4  11  23  45  72  96 140 180 228 286 336 403
#     4  11  24  47  72  99 141 184 220 290 344 398
#
# _framework density 22.752351999999998
#
# number of rings (size 3 to 8) (size 9 to 14) (size 15 to 20)
#    0.000    1.500    2.500    0.750    3.500    1.000 
#   18.000    0.000    0.000    0.000    0.000    0.000 
#    0.000    0.000    0.000    0.000    0.000    0.000 
#
# Total GULP energy -198382.171681 kJ/mol
# GULP energy per Si atom -12398.885730 kJ/mol
# Density = 2.270057 g / cm^3
# Si number density = 22.752352 Si / 1000 Ang^3
#
#
#
# Elastic Constant Matrix: (Units=GPa)
#
#
# Indices 1 2 3 4 5 6 
#
# 1 117.1600 65.9697 38.6759 0.0000 0.4655 0.0000
# 2 65.9697 146.6206 47.6316 0.0000 0.3968 0.0000
# 3 38.6759 47.6316 101.5739 0.0000 5.9844 0.0000
# 4 0.0000 0.0000 0.0000 -5.1464 0.0000 7.3265
# 5 0.4655 0.3968 5.9844 0.0000 37.3478 0.0000
# 6 0.0000 0.0000 0.0000 7.3265 0.0000 23.9766
#
#
#
# Elastic Compliance Matrix: (Units=1/GPa)
#
#
# Indices 1 2 3 4 5 6 
#
# 1 0.011904 -0.004576 -0.002404 0.000000 0.000285 0.000000
# 2 -0.004576 0.009815 -0.002885 0.000000 0.000415 0.000000
# 3 -0.002404 -0.002885 0.012225 0.000000 -0.001898 0.000000
# 4 0.000000 0.000000 0.000000 -0.135406 0.000000 0.041376
# 5 0.000285 0.000415 -0.001898 0.000000 0.027072 0.000000
# 6 0.000000 0.000000 0.000000 0.041376 0.000000 0.029064
#
#
# Mechanical properties :
#
#
# Convention : Reuss Voigt Hill
#
# Bulk Modulus (GPa) = 70.34603 74.43433 72.39018
# Shear Modulus (GPa) = -239.71058 25.44074 -107.13492
#
# Velocity S-wave (km/s) = -10.27546 3.34752 -6.86947
# Velocity P-wave (km/s) = 10.47831 6.90849 5.57080
#
# Compressibility (1/GPa) = 0.01421544
#
# Stress axis : x y z
#
# Youngs Moduli (GPa) = 84.00274 101.88174 81.80023
#
# Poissons Ratio (x) = 0.46622 0.19662
# Poissons Ratio (y) = 0.38440 0.23598
# Poissons Ratio (z) = 0.20192 0.29391
#
# Static dielectric constant tensor:
#      x y z
#    x 4.556600 0.000000 -0.141550 
#    y 0.000000 4.198980 0.000000 
#    z -0.141550 0.000000 4.430160 
# 
# 
# High freq. dielectric constant tensor:
#      x y z
#    x 1.901620 0.000000 -0.011700 
#    y 0.000000 1.891410 0.000000 
#    z -0.011700 0.000000 1.913240 
# 
# From -- ./inp_files/229268.got.cif
#   From: 2010.06.25/outbox.cif.g09.slc.cpg/sg15_115_cif.got.tgz:229268.got - 2010.06.28 07:06:18.
