data_PCOD8150269
_publ_section_title
;
Structure prediction by ZEFSAII (Michael W. Deem and Ramdas Pophale) SiO2 
 PCOD8150269
Probable space group: C 2/C
;
_chemical_formula_sum "Si O2"
_cell_formula_units_Z 40
_cell_length_a 30.821243
_cell_length_b 9.533487
_cell_length_c 9.849396
_cell_angle_alpha 90.000000
_cell_angle_beta 141.745737
_cell_angle_gamma 90.000000
_cell_volume 1791.880619
_symmetry_space_group_name_H-M "C 2/C"
_symmetry_group_IT_number 15
_symmetry_cell_setting 'monoclinic'
loop_
_space_group_symop_operation_xyz
x,y,z
-x,y,1/2-z
-x,-y,-z
x,-y,1/2+z
1/2+x,1/2+y,z
1/2-x,1/2+y,1/2-z
1/2-x,1/2-y,-z
1/2+x,1/2-y,1/2+z
loop_
_atom_site_type_symbol
_atom_site_label
_atom_site_fract_x
_atom_site_fract_y
_atom_site_fract_z
Si Si1 0.422825 0.204377 0.550012
Si Si2 0.078971 0.971782 0.479643
Si Si3 0.783622 0.975336 0.327222
Si Si4 0.643841 0.255742 0.838210
Si Si5 0.306557 0.023542 0.156650
O O1 0.500000 0.140927 0.750000
O O2 0.421690 0.362740 0.489063
O O3 0.399919 0.186000 0.649407
O O4 0.376854 0.115718 0.330561
O O5 0.140171 0.952279 0.514661
O O6 0.000000 0.923195 0.250000
O O7 0.098418 0.877292 0.655533
O O8 0.790379 0.831270 0.428826
O O9 0.733548 0.066284 0.302015
O O10 0.744912 0.937789 0.092437
O O11 0.670872 0.139730 0.798663
#
# Coordination Sequence:
#
# PCOD8150269 Si02
#       5
#     8   8   8   8   8
#     4  10  25  46  68  99 137 181 230 280 335 411
#     4  10  24  45  69  99 138 180 225 278 342 403
#     4  11  24  42  73 100 135 178 228 280 340 403
#     4  11  24  46  67 101 141 174 233 279 343 400
#     4  12  24  46  71 102 136 181 227 285 339 402
#
# _framework density 22.322915999999999
#
# number of rings (size 3 to 8) (size 9 to 14) (size 15 to 20)
#    0.000    1.200    4.000    0.600    0.000   13.600 
#    7.200    0.000    0.000    0.000    0.000    0.000 
#    0.000    0.000    0.000    0.000    0.000    0.000 
#
# Total GULP energy -247834.533810 kJ/mol
# GULP energy per Si atom -12391.726690 kJ/mol
# Density = 2.227211 g / cm^3
# Si number density = 22.322916 Si / 1000 Ang^3
#
#
#
# Elastic Constant Matrix: (Units=GPa)
#
#
# Indices 1 2 3 4 5 6 
#
# 1 92.7556 28.0570 75.3163 0.0000 11.8421 0.0000
# 2 28.0570 74.0122 61.2902 0.0000 8.3744 0.0000
# 3 75.3163 61.2902 175.0243 0.0000 19.4902 0.0000
# 4 0.0000 0.0000 0.0000 16.8883 0.0000 -9.1838
# 5 11.8421 8.3744 19.4902 0.0000 39.9062 0.0000
# 6 0.0000 0.0000 0.0000 -9.1838 0.0000 19.8597
#
#
#
# Elastic Compliance Matrix: (Units=1/GPa)
#
#
# Indices 1 2 3 4 5 6 
#
# 1 0.016671 -0.000489 -0.006835 0.000000 -0.001506 0.000000
# 2 -0.000489 0.019067 -0.006384 0.000000 -0.000738 0.000000
# 3 -0.006835 -0.006384 0.011120 0.000000 -0.002063 0.000000
# 4 0.000000 0.000000 0.000000 0.079105 0.000000 0.036581
# 5 -0.001506 -0.000738 -0.002063 0.000000 0.026668 0.000000
# 6 0.000000 0.000000 0.000000 0.036581 0.000000 0.067269
#
#
# Mechanical properties :
#
#
# Convention : Reuss Voigt Hill
#
# Bulk Modulus (GPa) = 51.43632 74.56878 63.00255
# Shear Modulus (GPa) = 19.70072 27.13943 23.42008
#
# Velocity S-wave (km/s) = 2.97397 3.49057 3.24257
# Velocity P-wave (km/s) = 5.90632 7.05142 6.50412
#
# Compressibility (1/GPa) = 0.01944152
#
# Stress axis : x y z
#
# Youngs Moduli (GPa) = 59.98391 52.44641 89.92819
#
# Poissons Ratio (x) = 0.02567 0.61464
# Poissons Ratio (y) = 0.02936 0.57411
# Poissons Ratio (z) = 0.40998 0.33483
#
# Static dielectric constant tensor:
#      x y z
#    x 4.383010 0.000000 0.235660 
#    y 0.000000 3.775430 0.000000 
#    z 0.235660 0.000000 4.116260 
# 
# 
# High freq. dielectric constant tensor:
#      x y z
#    x 1.887940 0.000000 0.010540 
#    y 0.000000 1.859610 0.000000 
#    z 0.010540 0.000000 1.886120 
# 
# From -- ./inp_files/69241.got.cif
#   From: 2010.06.25/outbox.cif.g09.slc.cpg/sg15_35_cif.got.tgz:69241.got - 2010.06.28 07:06:18.
