data_PCOD8150685
_publ_section_title
;
Structure prediction by ZEFSAII (Michael W. Deem and Ramdas Pophale) SiO2 
 PCOD8150685
Probable space group: C 2/C
;
_chemical_formula_sum "Si O2"
_cell_formula_units_Z 48
_cell_length_a 18.376498
_cell_length_b 5.551453
_cell_length_c 22.542135
_cell_angle_alpha 90.000000
_cell_angle_beta 68.331444
_cell_angle_gamma 90.000000
_cell_volume 2137.159434
_symmetry_space_group_name_H-M "C 2/C"
_symmetry_group_IT_number 15
_symmetry_cell_setting 'monoclinic'
loop_
_space_group_symop_operation_xyz
x,y,z
-x,y,1/2-z
-x,-y,-z
x,-y,1/2+z
1/2+x,1/2+y,z
1/2-x,1/2+y,1/2-z
1/2-x,1/2-y,-z
1/2+x,1/2-y,1/2+z
loop_
_atom_site_type_symbol
_atom_site_label
_atom_site_fract_x
_atom_site_fract_y
_atom_site_fract_z
Si Si1 0.650633 0.766620 0.097084
Si Si2 0.189570 0.559642 0.707300
Si Si3 0.716627 0.045177 0.969720
Si Si4 0.004079 0.003470 0.102263
Si Si5 0.560790 0.209751 0.985520
Si Si6 0.149147 0.063305 0.782025
O O1 0.664357 0.956259 0.145794
O O2 0.713182 0.554450 0.092104
O O3 0.560216 0.682354 0.122286
O O4 0.673219 0.851763 0.024615
O O5 0.156865 0.307823 0.741921
O O6 0.283449 0.564652 0.687914
O O7 0.152863 0.807683 0.745613
O O8 0.750000 0.250000 0.000000
O O9 0.649847 0.133756 0.944537
O O10 0.058755 0.800581 0.055066
O O11 0.937603 0.904949 0.165466
O O12 0.958308 0.103156 0.059422
O O13 0.500000 0.000000 0.000000
#
# Coordination Sequence:
#
# PCOD8150685 Si02
#       6
#     8   8   8   8   8   8
#     4  11  25  42  66 101 135 176 229 283 341 412
#     4  10  25  46  71 100 132 180 235 285 344 410
#     4  11  24  41  66 100 139 178 219 278 344 416
#     4  11  25  42  66 101 135 176 229 283 341 412
#     4  11  24  41  66 100 139 178 219 278 344 416
#     4  10  25  46  71 100 132 180 235 285 344 410
#
# _framework density 22.459717000000001
#
# number of rings (size 3 to 8) (size 9 to 14) (size 15 to 20)
#    0.000    1.333    3.333    0.000    9.333    2.000 
#    0.000    1.667    0.000    0.000    0.000    0.000 
#    0.000    0.000    0.000    0.000    0.000    0.000 
#
# Total GULP energy -297425.847051 kJ/mol
# GULP energy per Si atom -12392.743627 kJ/mol
# Density = 2.240860 g / cm^3
# Si number density = 22.459717 Si / 1000 Ang^3
#
#
#
# Elastic Constant Matrix: (Units=GPa)
#
#
# Indices 1 2 3 4 5 6 
#
# 1 140.7943 21.6123 43.3535 -0.0191 -17.2648 -0.0181
# 2 21.6123 101.6929 21.8991 -0.0300 -11.9537 -0.0119
# 3 43.3535 21.8991 80.9478 -0.0075 -7.9067 -0.0117
# 4 -0.0191 -0.0300 -0.0075 29.8789 -0.0092 -3.8689
# 5 -17.2648 -11.9537 -7.9067 -0.0092 36.6720 -0.0097
# 6 -0.0181 -0.0119 -0.0117 -3.8689 -0.0097 35.5475
#
#
#
# Elastic Compliance Matrix: (Units=1/GPa)
#
#
# Indices 1 2 3 4 5 6 
#
# 1 0.008895 -0.000604 -0.004302 0.000006 0.003064 0.000004
# 2 -0.000604 0.010784 -0.002327 0.000011 0.002729 0.000004
# 3 -0.004302 -0.002327 0.015338 -0.000001 0.000523 0.000002
# 4 0.000006 0.000011 -0.000001 0.033947 0.000016 0.003695
# 5 0.003064 0.002729 0.000523 0.000016 0.029713 0.000012
# 6 0.000004 0.000004 0.000002 0.003695 0.000012 0.028534
#
#
# Mechanical properties :
#
#
# Convention : Reuss Voigt Hill
#
# Bulk Modulus (GPa) = 48.65786 55.24054 51.94920
# Shear Modulus (GPa) = 33.66373 36.19099 34.92736
#
# Velocity S-wave (km/s) = 3.87570 4.01855 3.94777
# Velocity P-wave (km/s) = 6.46062 6.79562 6.63023
#
# Compressibility (1/GPa) = 0.02055167
#
# Stress axis : x y z
#
# Youngs Moduli (GPa) = 112.41652 92.73103 65.19685
#
# Poissons Ratio (x) = 0.05602 0.28045
# Poissons Ratio (y) = 0.06791 0.15173
# Poissons Ratio (z) = 0.48356 0.21581
#
# Static dielectric constant tensor:
#      x y z
#    x 4.139280 -0.000060 -0.143490 
#    y -0.000060 4.287220 0.000010 
#    z -0.143490 0.000010 4.081830 
# 
# 
# High freq. dielectric constant tensor:
#      x y z
#    x 1.903070 0.000000 -0.003760 
#    y 0.000000 1.892160 0.000000 
#    z -0.003760 0.000000 1.864930 
# 
# From -- ./inp_files/261296.got.cif
#   From: 2010.06.25/outbox.cif.g09.slc.cpg/sg15_131_cif.got.tgz:261296.got - 2010.06.28 07:06:18.
