data_PCOD8150621
_publ_section_title
;
Structure prediction by ZEFSAII (Michael W. Deem and Ramdas Pophale) SiO2 
 PCOD8150621
Probable space group: C 2/C
;
_chemical_formula_sum "Si O2"
_cell_formula_units_Z 40
_cell_length_a 12.768692
_cell_length_b 13.607275
_cell_length_c 14.413971
_cell_angle_alpha 90.000000
_cell_angle_beta 46.596362
_cell_angle_gamma 90.000000
_cell_volume 1819.513962
_symmetry_space_group_name_H-M "C 2/C"
_symmetry_group_IT_number 15
_symmetry_cell_setting 'monoclinic'
loop_
_space_group_symop_operation_xyz
x,y,z
-x,y,1/2-z
-x,-y,-z
x,-y,1/2+z
1/2+x,1/2+y,z
1/2-x,1/2+y,1/2-z
1/2-x,1/2-y,-z
1/2+x,1/2-y,1/2+z
loop_
_atom_site_type_symbol
_atom_site_label
_atom_site_fract_x
_atom_site_fract_y
_atom_site_fract_z
Si Si1 0.000000 0.568771 0.750000
Si Si2 0.579737 0.058257 0.033280
Si Si3 0.820915 0.267550 0.266817
Si Si4 0.000000 0.893729 0.750000
Si Si5 0.606291 0.580386 0.614468
Si Si6 0.482337 0.733660 0.973899
O O1 0.922289 0.499995 0.870376
O O2 0.880717 0.632895 0.772651
O O3 0.513102 0.165998 0.087799
O O4 0.748110 0.076002 0.913941
O O5 0.500000 0.000000 0.000000
O O6 0.864683 0.173213 0.302064
O O7 0.651469 0.288664 0.379400
O O8 0.894447 0.252936 0.121932
O O9 0.050890 0.966428 0.634422
O O10 0.500000 0.637178 0.750000
O O11 0.605073 0.643726 0.521004
#
# Coordination Sequence:
#
# PCOD8150621 Si02
#       6
#     4   8   8   4   8   8
#     4  11  28  43  72 100 142 181 244 279 360 416
#     4  12  25  47  71 101 142 185 234 289 354 422
#     4  11  26  45  69 103 140 187 227 297 344 428
#     4   9  24  43  68  96 142 177 238 279 356 410
#     4  10  25  44  70 101 138 177 233 291 347 418
#     4  12  26  44  72 101 143 178 236 285 362 406
#
# _framework density 21.983892000000001
#
# number of rings (size 3 to 8) (size 9 to 14) (size 15 to 20)
#    0.600    0.400    2.000    3.000    7.000    2.400 
#    0.000    0.000    0.000    0.000    0.000    0.000 
#    0.000    0.000    0.000    0.000    0.000    0.000 
#
# Total GULP energy -247780.524520 kJ/mol
# GULP energy per Si atom -12389.026226 kJ/mol
# Density = 2.193386 g / cm^3
# Si number density = 21.983892 Si / 1000 Ang^3
#
#
#
# Elastic Constant Matrix: (Units=GPa)
#
#
# Indices 1 2 3 4 5 6 
#
# 1 129.9468 43.4212 53.7776 0.0000 -14.8009 0.0000
# 2 43.4212 136.6124 23.1115 0.0000 13.2692 0.0000
# 3 53.7776 23.1115 114.4277 0.0000 1.9533 0.0000
# 4 0.0000 0.0000 0.0000 -4.0545 0.0000 -71.0621
# 5 -14.8009 13.2692 1.9533 0.0000 45.3608 0.0000
# 6 0.0000 0.0000 0.0000 -71.0621 0.0000 -161.1880
#
#
#
# Elastic Compliance Matrix: (Units=1/GPa)
#
#
# Indices 1 2 3 4 5 6 
#
# 1 0.011295 -0.003260 -0.004732 0.000000 0.004843 0.000000
# 2 -0.003260 0.008736 -0.000171 0.000000 -0.003612 0.000000
# 3 -0.004732 -0.000171 0.011031 0.000000 -0.001969 0.000000
# 4 0.000000 0.000000 0.000000 0.036665 0.000000 -0.016164
# 5 0.004843 -0.003612 -0.001969 0.000000 0.024767 0.000000
# 6 0.000000 0.000000 0.000000 -0.016164 0.000000 0.000922
#
#
# Mechanical properties :
#
#
# Convention : Reuss Voigt Hill
#
# Bulk Modulus (GPa) = 67.86133 69.06751 68.46442
# Shear Modulus (GPa) = 43.60959 -6.59791 18.50584
#
# Velocity S-wave (km/s) = 4.45871 -1.73429 2.90451
# Velocity P-wave (km/s) = 7.57908 5.24168 6.51605
#
# Compressibility (1/GPa) = 0.01473593
#
# Stress axis : x y z
#
# Youngs Moduli (GPa) = 88.53656 114.47214 90.65050
#
# Poissons Ratio (x) = 0.37315 0.42900
# Poissons Ratio (y) = 0.28860 0.01548
# Poissons Ratio (z) = 0.41900 0.01955
#
# Static dielectric constant tensor:
#      x y z
#    x 3.991590 0.000000 -0.050820 
#    y 0.000000 4.255030 0.000000 
#    z -0.050820 0.000000 3.771090 
# 
# 
# High freq. dielectric constant tensor:
#      x y z
#    x 1.867800 0.000000 -0.014450 
#    y 0.000000 1.884930 0.000000 
#    z -0.014450 0.000000 1.857150 
# 
# From -- ./inp_files/143320.got.cif
#   From: 2010.06.25/outbox.cif.g09.slc.cpg/sg15_72_cif.got.tgz:143320.got - 2010.06.28 07:06:18.
