data_PCOD8150275
_publ_section_title
;
Structure prediction by ZEFSAII (Michael W. Deem and Ramdas Pophale) SiO2 
 PCOD8150275
Probable space group: C 2/C
;
_chemical_formula_sum "Si O2"
_cell_formula_units_Z 56
_cell_length_a 15.006683
_cell_length_b 12.242216
_cell_length_c 13.162412
_cell_angle_alpha 90.000000
_cell_angle_beta 92.829806
_cell_angle_gamma 90.000000
_cell_volume 2415.184545
_symmetry_space_group_name_H-M "C 2/C"
_symmetry_group_IT_number 15
_symmetry_cell_setting 'monoclinic'
loop_
_space_group_symop_operation_xyz
x,y,z
-x,y,1/2-z
-x,-y,-z
x,-y,1/2+z
1/2+x,1/2+y,z
1/2-x,1/2+y,1/2-z
1/2-x,1/2-y,-z
1/2+x,1/2-y,1/2+z
loop_
_atom_site_type_symbol
_atom_site_label
_atom_site_fract_x
_atom_site_fract_y
_atom_site_fract_z
Si Si1 0.763449 0.605545 0.802055
Si Si2 0.647781 0.222821 0.985438
Si Si3 0.640167 0.523614 0.150536
Si Si4 0.401584 0.261471 0.730198
Si Si5 0.801060 0.483284 0.520484
Si Si6 0.018641 0.823633 0.134466
Si Si7 0.835373 0.260604 0.580417
O O1 0.708176 0.517582 0.738597
O O2 0.843557 0.653131 0.741544
O O3 0.697818 0.708866 0.816523
O O4 0.801868 0.547411 0.902936
O O5 0.610653 0.295167 0.888884
O O6 0.642861 0.093465 0.962618
O O7 0.750000 0.250000 0.000000
O O8 0.596818 0.252603 0.086709
O O9 0.615849 0.644926 0.186457
O O10 0.696124 0.517529 0.048680
O O11 0.549989 0.450852 0.135810
O O12 0.500000 0.218708 0.750000
O O13 0.854477 0.390186 0.588204
O O14 0.000000 0.785286 0.250000
O O15 0.928399 0.804358 0.061200
O O16 0.750000 0.250000 0.500000
#
# Coordination Sequence:
#
# PCOD8150275 Si02
#       7
#     8   8   8   8   8   8   8
#     4  11  23  45  72 102 152 196 244 310 383 447
#     4  12  26  50  75 111 153 196 254 313 376 450
#     4  12  24  47  75 114 143 198 259 306 387 444
#     4  12  28  46  74 112 155 190 255 323 375 447
#     4  11  24  44  76 105 144 205 250 300 385 453
#     4  12  26  47  76 112 148 193 255 311 372 451
#     4  10  24  45  70 101 148 193 242 306 374 448
#
# _framework density 23.186634000000002
#
# number of rings (size 3 to 8) (size 9 to 14) (size 15 to 20)
#    0.000    0.571    5.714    1.286    4.000    1.714 
#    0.000    4.286    0.000    0.000    0.000    0.000 
#    0.000    0.000    0.000    0.000    0.000    0.000 
#
# Total GULP energy -346967.421307 kJ/mol
# GULP energy per Si atom -12391.693618 kJ/mol
# Density = 2.313386 g / cm^3
# Si number density = 23.186634 Si / 1000 Ang^3
#
#
#
# Elastic Constant Matrix: (Units=GPa)
#
#
# Indices 1 2 3 4 5 6 
#
# 1 115.4936 -2.0762 30.3888 0.0000 2.1960 0.0000
# 2 -2.0762 70.5389 11.7535 0.0000 -0.5007 0.0000
# 3 30.3888 11.7535 99.1423 0.0000 -17.8467 0.0000
# 4 0.0000 0.0000 0.0000 27.3432 0.0000 8.4228
# 5 2.1960 -0.5007 -17.8467 0.0000 37.5770 0.0000
# 6 0.0000 0.0000 0.0000 8.4228 0.0000 21.3928
#
#
#
# Elastic Compliance Matrix: (Units=1/GPa)
#
#
# Indices 1 2 3 4 5 6 
#
# 1 0.009621 0.000841 -0.003442 0.000000 -0.002186 0.000000
# 2 0.000841 0.014552 -0.002140 0.000000 -0.000872 0.000000
# 3 -0.003442 -0.002140 0.012495 0.000000 0.006107 0.000000
# 4 0.000000 0.000000 0.000000 0.041620 0.000000 -0.016387
# 5 -0.002186 -0.000872 0.006107 0.000000 0.029628 0.000000
# 6 0.000000 0.000000 0.000000 -0.016387 0.000000 0.053197
#
#
# Mechanical properties :
#
#
# Convention : Reuss Voigt Hill
#
# Bulk Modulus (GPa) = 36.78433 40.58967 38.68700
# Shear Modulus (GPa) = 27.83102 33.60318 30.71710
#
# Velocity S-wave (km/s) = 3.46830 3.81103 3.64370
# Velocity P-wave (km/s) = 5.65134 6.07527 5.86714
#
# Compressibility (1/GPa) = 0.02718549
#
# Stress axis : x y z
#
# Youngs Moduli (GPa) = 103.94067 68.72048 80.03475
#
# Poissons Ratio (x) = -0.05781 0.27549
# Poissons Ratio (y) = -0.08744 0.17126
# Poissons Ratio (z) = 0.35778 0.14705
#
# Static dielectric constant tensor:
#      x y z
#    x 4.363830 0.000000 -0.303990 
#    y 0.000000 5.352140 0.000000 
#    z -0.303990 0.000000 4.566260 
# 
# 
# High freq. dielectric constant tensor:
#      x y z
#    x 1.915200 0.000000 -0.010280 
#    y 0.000000 1.915690 0.000000 
#    z -0.010280 0.000000 1.920730 
# 
# From -- ./inp_files/152592.got.cif
#   From: 2010.06.25/outbox.cif.g09.slc.cpg/sg15_77_cif.got.tgz:152592.got - 2010.06.28 07:06:18.
