data_PCOD8150578
_publ_section_title
;
Structure prediction by ZEFSAII (Michael W. Deem and Ramdas Pophale) SiO2 
 PCOD8150578
Probable space group: C 2/C
;
_chemical_formula_sum "Si O2"
_cell_formula_units_Z 44
_cell_length_a 17.220173
_cell_length_b 20.591007
_cell_length_c 8.232236
_cell_angle_alpha 90.000000
_cell_angle_beta 133.546936
_cell_angle_gamma 90.000000
_cell_volume 2115.715300
_symmetry_space_group_name_H-M "C 2/C"
_symmetry_group_IT_number 15
_symmetry_cell_setting 'monoclinic'
loop_
_space_group_symop_operation_xyz
x,y,z
-x,y,1/2-z
-x,-y,-z
x,-y,1/2+z
1/2+x,1/2+y,z
1/2-x,1/2+y,1/2-z
1/2-x,1/2-y,-z
1/2+x,1/2-y,1/2+z
loop_
_atom_site_type_symbol
_atom_site_label
_atom_site_fract_x
_atom_site_fract_y
_atom_site_fract_z
Si Si1 0.446272 0.187417 0.351311
Si Si2 0.452203 0.668771 0.849058
Si Si3 0.712925 0.968386 0.599866
Si Si4 0.940514 0.940722 0.829238
Si Si5 0.739846 0.093161 0.477675
Si Si6 0.500000 0.113266 0.750000
O O1 0.500000 0.180047 0.250000
O O2 0.426329 0.260860 0.388706
O O3 0.331152 0.155058 0.165025
O O4 0.507464 0.153639 0.591733
O O5 0.500000 0.691269 0.750000
O O6 0.352769 0.620093 0.699813
O O7 0.548253 0.629025 0.068559
O O8 0.813560 0.952380 0.626704
O O9 0.751716 0.952230 0.836479
O O10 0.605709 0.930817 0.397226
O O11 0.690839 0.045990 0.547062
O O12 0.000000 0.930287 0.750000
O O13 0.000000 0.000000 0.000000
#
# Coordination Sequence:
#
# PCOD8150578 Si02
#       6
#     8   8   8   8   8   4
#     4  10  25  43  66  90 130 179 221 263 323 392
#     4  11  22  42  64  90 130 167 214 267 326 392
#     4  11  24  40  65  95 130 170 214 274 328 386
#     4  12  23  38  64  98 129 166 214 273 332 386
#     4  11  23  40  65  95 128 167 215 268 332 387
#     4  10  26  46  64  94 138 170 226 274 318 392
#
# _framework density 20.796748999999998
#
# number of rings (size 3 to 8) (size 9 to 14) (size 15 to 20)
#    0.000    1.091    3.636    2.182    5.091    1.455 
#    0.000    0.909    0.000    0.000    0.000    0.000 
#    0.000    0.000    0.000    0.000    0.000    0.000 
#
# Total GULP energy -272593.305375 kJ/mol
# GULP energy per Si atom -12390.604790 kJ/mol
# Density = 2.074941 g / cm^3
# Si number density = 20.796749 Si / 1000 Ang^3
#
#
#
# Elastic Constant Matrix: (Units=GPa)
#
#
# Indices 1 2 3 4 5 6 
#
# 1 81.9675 32.4735 34.2681 0.0000 8.6734 0.0000
# 2 32.4735 164.7681 47.2532 0.0000 14.0618 0.0000
# 3 34.2681 47.2532 87.8773 0.0000 19.1463 0.0000
# 4 0.0000 0.0000 0.0000 527.4833 0.0000 -18.0649
# 5 8.6734 14.0618 19.1463 0.0000 32.4230 0.0000
# 6 0.0000 0.0000 0.0000 -18.0649 0.0000 33.1569
#
#
#
# Elastic Compliance Matrix: (Units=1/GPa)
#
#
# Indices 1 2 3 4 5 6 
#
# 1 0.014889 -0.001489 -0.004910 0.000000 -0.000438 0.000000
# 2 -0.001489 0.007351 -0.003172 0.000000 -0.000916 0.000000
# 3 -0.004910 -0.003172 0.016542 0.000000 -0.007079 0.000000
# 4 0.000000 0.000000 0.000000 0.001932 0.000000 0.001053
# 5 -0.000438 -0.000916 -0.007079 0.000000 0.035537 0.000000
# 6 0.000000 0.000000 0.000000 0.001053 0.000000 0.030733
#
#
# Mechanical properties :
#
#
# Convention : Reuss Voigt Hill
#
# Bulk Modulus (GPa) = 50.91799 62.51140 56.71470
# Shear Modulus (GPa) = 37.68673 133.32052 85.50362
#
# Velocity S-wave (km/s) = 4.26155 8.01533 6.41897
# Velocity P-wave (km/s) = 6.98220 10.76031 9.07016
#
# Compressibility (1/GPa) = 0.01963942
#
# Stress axis : x y z
#
# Youngs Moduli (GPa) = 67.16431 136.04441 60.45087
#
# Poissons Ratio (x) = 0.20256 0.29681
# Poissons Ratio (y) = 0.10000 0.19177
# Poissons Ratio (z) = 0.32978 0.43157
#
# Static dielectric constant tensor:
#      x y z
#    x 3.875150 0.000000 -0.193280 
#    y 0.000000 3.889700 0.000000 
#    z -0.193280 0.000000 3.848710 
# 
# 
# High freq. dielectric constant tensor:
#      x y z
#    x 1.808610 0.000000 -0.000050 
#    y 0.000000 1.831830 0.000000 
#    z -0.000050 0.000000 1.817400 
# 
# From -- ./inp_files/30726.got.cif
#   From: 2010.06.25/outbox.cif.g09.slc.cpg/sg15_16_cif.got.tgz:30726.got - 2010.06.28 07:06:18.
