data_PCOD8150297
_publ_section_title
;
Structure prediction by ZEFSAII (Michael W. Deem and Ramdas Pophale) SiO2 
 PCOD8150297
Probable space group: C 2/C
;
_chemical_formula_sum "Si O2"
_cell_formula_units_Z 24
_cell_length_a 4.855804
_cell_length_b 19.555578
_cell_length_c 10.963674
_cell_angle_alpha 90.000000
_cell_angle_beta 84.570666
_cell_angle_gamma 90.000000
_cell_volume 1036.418459
_symmetry_space_group_name_H-M "C 2/C"
_symmetry_group_IT_number 15
_symmetry_cell_setting 'monoclinic'
loop_
_space_group_symop_operation_xyz
x,y,z
-x,y,1/2-z
-x,-y,-z
x,-y,1/2+z
1/2+x,1/2+y,z
1/2-x,1/2+y,1/2-z
1/2-x,1/2-y,-z
1/2+x,1/2-y,1/2+z
loop_
_atom_site_type_symbol
_atom_site_label
_atom_site_fract_x
_atom_site_fract_y
_atom_site_fract_z
Si Si1 0.135711 0.885346 0.122635
Si Si2 0.500000 0.891769 0.750000
Si Si3 0.324878 0.171348 0.008946
Si Si4 0.500000 0.516030 0.250000
O O1 0.436552 0.852290 0.094296
O O2 0.000000 0.851197 0.250000
O O3 0.146373 0.967816 0.141037
O O4 0.949840 0.870903 0.011591
O O5 0.584641 0.843433 0.857548
O O6 0.239765 0.938233 0.800357
O O7 0.250000 0.250000 0.000000
#
# Coordination Sequence:
#
# PCOD8150297 Si02
#       4
#     8   4   8   4
#     4  10  24  47  71 102 136 193 230 287 365 410
#     4  12  26  43  70 111 138 186 242 294 350 414
#     4  12  26  45  71 101 149 188 233 292 347 434
#     4  10  24  45  72 109 138 182 240 292 358 420
#
# _framework density 23.156668
#
# number of rings (size 3 to 8) (size 9 to 14) (size 15 to 20)
#    1.000    0.000    0.000    6.000    2.333    8.000 
#    6.000    0.000    0.000    0.000    0.000    0.000 
#    0.000    0.000    0.000    0.000    0.000    0.000 
#
# Total GULP energy -148792.278991 kJ/mol
# GULP energy per Si atom -12399.356583 kJ/mol
# Density = 2.310396 g / cm^3
# Si number density = 23.156668 Si / 1000 Ang^3
#
#
#
# Elastic Constant Matrix: (Units=GPa)
#
#
# Indices 1 2 3 4 5 6 
#
# 1 129.7802 72.1052 12.5542 0.0000 10.4907 0.0000
# 2 72.1052 174.3866 67.6658 0.0000 10.7190 0.0000
# 3 12.5542 67.6658 105.6091 0.0000 19.8296 0.0000
# 4 0.0000 0.0000 0.0000 20.4166 0.0000 14.1413
# 5 10.4907 10.7190 19.8296 0.0000 50.6020 0.0000
# 6 0.0000 0.0000 0.0000 14.1413 0.0000 38.3668
#
#
#
# Elastic Compliance Matrix: (Units=1/GPa)
#
#
# Indices 1 2 3 4 5 6 
#
# 1 0.010504 -0.005167 0.002445 0.000000 -0.002041 0.000000
# 2 -0.005167 0.010178 -0.006156 0.000000 0.001328 0.000000
# 3 0.002445 -0.006156 0.014003 0.000000 -0.004690 0.000000
# 4 0.000000 0.000000 0.000000 0.065771 0.000000 -0.024242
# 5 -0.002041 0.001328 -0.004690 0.000000 0.021742 0.000000
# 6 0.000000 0.000000 0.000000 -0.024242 0.000000 0.034999
#
#
# Mechanical properties :
#
#
# Convention : Reuss Voigt Hill
#
# Bulk Modulus (GPa) = 59.06756 79.38072 69.22414
# Shear Modulus (GPa) = 27.68601 39.04046 33.36324
#
# Velocity S-wave (km/s) = 3.46149 4.11046 3.79985
# Velocity P-wave (km/s) = 6.44508 7.54202 7.01503
#
# Compressibility (1/GPa) = 0.01692977
#
# Stress axis : x y z
#
# Youngs Moduli (GPa) = 95.19880 98.25338 71.41162
#
# Poissons Ratio (x) = 0.50763 -0.17459
# Poissons Ratio (y) = 0.49185 0.43962
# Poissons Ratio (z) = -0.23275 0.60487
#
# Static dielectric constant tensor:
#      x y z
#    x 4.113700 0.000000 0.463020 
#    y 0.000000 3.991180 0.000000 
#    z 0.463020 0.000000 3.355920 
# 
# 
# High freq. dielectric constant tensor:
#      x y z
#    x 1.928230 0.000000 0.011940 
#    y 0.000000 1.908800 0.000000 
#    z 0.011940 0.000000 1.914640 
# 
# From -- ./inp_files/71267.got.cif
#   From: 2010.06.25/outbox.cif.g09.slc.cpg/sg15_36_cif.got.tgz:71267.got - 2010.06.28 07:06:18.
