data_PCOD8150206
_publ_section_title
;
Structure prediction by ZEFSAII (Michael W. Deem and Ramdas Pophale) SiO2 
 PCOD8150206
Probable space group: C 2/C
;
_chemical_formula_sum "Si O2"
_cell_formula_units_Z 60
_cell_length_a 22.804963
_cell_length_b 11.277759
_cell_length_c 21.323700
_cell_angle_alpha 90.000000
_cell_angle_beta 150.074322
_cell_angle_gamma 90.000000
_cell_volume 2735.946077
_symmetry_space_group_name_H-M "C 2/C"
_symmetry_group_IT_number 15
_symmetry_cell_setting 'monoclinic'
loop_
_space_group_symop_operation_xyz
x,y,z
-x,y,1/2-z
-x,-y,-z
x,-y,1/2+z
1/2+x,1/2+y,z
1/2-x,1/2+y,1/2-z
1/2-x,1/2-y,-z
1/2+x,1/2-y,1/2+z
loop_
_atom_site_type_symbol
_atom_site_label
_atom_site_fract_x
_atom_site_fract_y
_atom_site_fract_z
Si Si1 0.500000 0.982697 0.750000
Si Si2 0.805037 0.018082 0.429916
Si Si3 0.743255 0.109529 0.994117
Si Si4 0.760750 0.074806 0.152403
Si Si5 0.083862 0.324426 0.720770
Si Si6 0.266423 0.682715 0.799534
Si Si7 0.074705 0.406319 0.032510
Si Si8 0.560273 0.598543 0.640978
O O1 0.503163 0.892922 0.694881
O O2 0.610209 0.069062 0.857805
O O3 0.716192 0.128663 0.348464
O O4 0.922694 0.070786 0.508950
O O5 0.823115 0.956938 0.515370
O O6 0.746611 0.922017 0.330618
O O7 0.750000 0.250000 0.000000
O O8 0.788904 0.079428 0.105140
O O9 0.723686 0.196776 0.151586
O O10 0.659197 0.978360 0.064777
O O11 0.878345 0.028863 0.294809
O O12 0.087760 0.180724 0.728621
O O13 0.019659 0.331978 0.593878
O O14 0.152025 0.680924 0.648351
O O15 0.386715 0.661874 0.872339
O O16 0.000000 0.500000 0.000000
#
# Coordination Sequence:
#
# PCOD8150206 Si02
#       8
#     4   8   8   8   8   8   8   8
#     4  10  24  44  74 100 140 186 242 292 350 426
#     4  11  25  45  69 105 138 188 235 291 358 414
#     4  11  23  45  72 104 142 182 238 297 357 425
#     4  11  25  45  69 107 137 186 234 288 366 413
#     4  11  24  45  69  99 136 186 235 286 347 418
#     4  11  24  44  69 100 142 180 230 296 352 420
#     4  11  22  40  69  95 135 182 230 273 352 426
#     4  11  28  43  72 100 146 182 238 292 347 430
#
# _framework density 21.930256
#
# number of rings (size 3 to 8) (size 9 to 14) (size 15 to 20)
#    0.000    1.067    4.000    1.200    5.600    4.800 
#    0.000    2.667    0.000    0.000    0.000    0.000 
#    0.000    0.000    0.000    0.000    0.000    0.000 
#
# Total GULP energy -371856.226247 kJ/mol
# GULP energy per Si atom -12395.207542 kJ/mol
# Density = 2.188034 g / cm^3
# Si number density = 21.930256 Si / 1000 Ang^3
#
#
#
# Elastic Constant Matrix: (Units=GPa)
#
#
# Indices 1 2 3 4 5 6 
#
# 1 104.5241 21.5646 43.7503 0.0000 -8.5164 0.0000
# 2 21.5646 96.1813 24.7475 0.0000 -8.3829 0.0000
# 3 43.7503 24.7475 79.9635 0.0000 -3.9147 0.0000
# 4 0.0000 0.0000 0.0000 23.3802 0.0000 -5.4764
# 5 -8.5164 -8.3829 -3.9147 0.0000 39.0575 0.0000
# 6 0.0000 0.0000 0.0000 -5.4764 0.0000 37.9871
#
#
#
# Elastic Compliance Matrix: (Units=1/GPa)
#
#
# Indices 1 2 3 4 5 6 
#
# 1 0.012658 -0.000994 -0.006525 0.000000 0.001893 0.000000
# 2 -0.000994 0.011546 -0.002933 0.000000 0.001967 0.000000
# 3 -0.006525 -0.002933 0.016966 0.000000 -0.000352 0.000000
# 4 0.000000 0.000000 0.000000 0.044266 0.000000 0.006382
# 5 0.001893 0.001967 -0.000352 0.000000 0.026403 0.000000
# 6 0.000000 0.000000 0.000000 0.006382 0.000000 0.027245
#
#
# Mechanical properties :
#
#
# Convention : Reuss Voigt Hill
#
# Bulk Modulus (GPa) = 49.34501 51.19930 50.27216
# Shear Modulus (GPa) = 29.98623 32.79208 31.38916
#
# Velocity S-wave (km/s) = 3.70177 3.87109 3.78738
# Velocity P-wave (km/s) = 6.38910 6.58617 6.48838
#
# Compressibility (1/GPa) = 0.02026547
#
# Stress axis : x y z
#
# Youngs Moduli (GPa) = 79.00367 86.60949 58.94046
#
# Poissons Ratio (x) = 0.08610 0.38459
# Poissons Ratio (y) = 0.07854 0.17288
# Poissons Ratio (z) = 0.51550 0.25404
#
# Static dielectric constant tensor:
#      x y z
#    x 4.088420 0.000000 -0.189890 
#    y 0.000000 6.055140 0.000000 
#    z -0.189890 0.000000 3.606220 
# 
# 
# High freq. dielectric constant tensor:
#      x y z
#    x 1.870100 0.000000 0.002320 
#    y 0.000000 1.877570 0.000000 
#    z 0.002320 0.000000 1.854730 
# 
# From -- ./inp_files/255573.got.cif
#   From: 2010.06.25/outbox.cif.g09.slc.cpg/sg15_128_cif.got.tgz:255573.got - 2010.06.28 07:06:18.
