data_PCOD8150233
_publ_section_title
;
Structure prediction by ZEFSAII (Michael W. Deem and Ramdas Pophale) SiO2 
 PCOD8150233
Probable space group: C 2/C
;
_chemical_formula_sum "Si O2"
_cell_formula_units_Z 56
_cell_length_a 15.599841
_cell_length_b 11.535633
_cell_length_c 29.438186
_cell_angle_alpha 90.000000
_cell_angle_beta 28.393336
_cell_angle_gamma 90.000000
_cell_volume 2519.086996
_symmetry_space_group_name_H-M "C 2/C"
_symmetry_group_IT_number 15
_symmetry_cell_setting 'monoclinic'
loop_
_space_group_symop_operation_xyz
x,y,z
-x,y,1/2-z
-x,-y,-z
x,-y,1/2+z
1/2+x,1/2+y,z
1/2-x,1/2+y,1/2-z
1/2-x,1/2-y,-z
1/2+x,1/2-y,1/2+z
loop_
_atom_site_type_symbol
_atom_site_label
_atom_site_fract_x
_atom_site_fract_y
_atom_site_fract_z
Si Si1 0.158002 0.989179 0.488239
Si Si2 0.958506 0.384673 0.192557
Si Si3 0.724214 0.566576 0.358074
Si Si4 0.784325 0.057017 0.944027
Si Si5 0.308419 0.686593 0.847175
Si Si6 0.559715 0.619452 0.273204
Si Si7 0.609437 0.033320 0.872711
O O1 0.325563 0.900734 0.411653
O O2 0.960860 0.927679 0.585202
O O3 0.161608 0.052506 0.438954
O O4 0.182141 0.082894 0.518097
O O5 0.864773 0.471066 0.273370
O O6 0.931097 0.253619 0.218819
O O7 0.864157 0.404541 0.188168
O O8 0.823780 0.689369 0.315190
O O9 0.788244 0.174659 0.911587
O O10 0.926401 0.956360 0.865917
O O11 0.591906 0.002849 0.025140
O O12 0.500000 0.623343 0.750000
O O13 0.152414 0.618240 0.894298
O O14 0.500000 0.605443 0.250000
O O15 0.763631 0.578269 0.185423
#
# Coordination Sequence:
#
# PCOD8150233 Si02
#       7
#     8   8   8   8   8   8   8
#     4  10  24  45  66 101 133 182 233 269 348 402
#     4  11  26  44  71 100 139 179 236 279 337 412
#     4  11  25  45  70  97 140 179 224 284 345 407
#     4  11  24  43  66  99 140 170 234 281 332 412
#     4  12  24  43  68  98 141 177 219 282 348 403
#     4  12  24  45  71  98 138 182 230 286 339 411
#     4  11  25  42  68 106 128 185 222 282 348 392
#
# _framework density 22.230277000000001
#
# number of rings (size 3 to 8) (size 9 to 14) (size 15 to 20)
#    0.000    0.857    2.857    3.429    6.000    4.000 
#    0.000    0.000    0.000    0.000    0.000    0.000 
#    0.000    0.000    0.000    0.000    0.000    0.000 
#
# Total GULP energy -346967.825369 kJ/mol
# GULP energy per Si atom -12391.708049 kJ/mol
# Density = 2.217968 g / cm^3
# Si number density = 22.230277 Si / 1000 Ang^3
#
#
#
# Elastic Constant Matrix: (Units=GPa)
#
#
# Indices 1 2 3 4 5 6 
#
# 1 133.4907 19.3709 35.3270 0.0004 -7.1742 0.0007
# 2 19.3709 97.4287 22.6268 -0.0011 -5.6348 0.0004
# 3 35.3270 22.6268 153.0386 -0.0077 -37.5078 -0.0039
# 4 0.0004 -0.0011 -0.0077 21.3385 -0.0009 4.1758
# 5 -7.1742 -5.6348 -37.5078 -0.0009 51.9901 0.0001
# 6 0.0007 0.0004 -0.0039 4.1758 0.0001 28.4209
#
#
#
# Elastic Compliance Matrix: (Units=1/GPa)
#
#
# Indices 1 2 3 4 5 6 
#
# 1 0.008120 -0.001221 -0.001763 -0.000001 -0.000284 0.000000
# 2 -0.001221 0.010813 -0.001301 0.000000 0.000065 0.000000
# 3 -0.001763 -0.001301 0.008552 0.000003 0.005785 0.000001
# 4 -0.000001 0.000000 0.000003 0.048251 0.000003 -0.007089
# 5 -0.000284 0.000065 0.005785 0.000003 0.023376 0.000000
# 6 0.000000 0.000000 0.000001 -0.007089 0.000000 0.036227
#
#
# Mechanical properties :
#
#
# Convention : Reuss Voigt Hill
#
# Bulk Modulus (GPa) = 52.87401 59.84527 56.35964
# Shear Modulus (GPa) = 33.28601 40.79211 37.03906
#
# Velocity S-wave (km/s) = 3.87373 4.28831 4.08628
# Velocity P-wave (km/s) = 6.62148 7.17625 6.90444
#
# Compressibility (1/GPa) = 0.01891288
#
# Stress axis : x y z
#
# Youngs Moduli (GPa) = 123.15605 92.48483 116.93795
#
# Poissons Ratio (x) = 0.11295 0.20621
# Poissons Ratio (y) = 0.15041 0.15212
# Poissons Ratio (z) = 0.21717 0.12031
#
# Static dielectric constant tensor:
#      x y z
#    x 4.606460 0.000000 -0.071710 
#    y 0.000000 3.776620 0.000000 
#    z -0.071710 0.000000 4.137150 
# 
# 
# High freq. dielectric constant tensor:
#      x y z
#    x 1.904500 0.000000 -0.005550 
#    y 0.000000 1.851210 0.000000 
#    z -0.005550 0.000000 1.888770 
# 
# From -- ./inp_files/313720.got.cif
#   From: 2010.06.25/outbox.cif.g09.slc.cpg/sg15_157_cif.got.tgz:313720.got - 2010.06.28 07:06:18.
