data_PCOD8150196
_publ_section_title
;
Structure prediction by ZEFSAII (Michael W. Deem and Ramdas Pophale) SiO2 
 PCOD8150196
Probable space group: C 2/C
;
_chemical_formula_sum "Si O2"
_cell_formula_units_Z 52
_cell_length_a 6.407612
_cell_length_b 18.944315
_cell_length_c 24.420648
_cell_angle_alpha 90.000000
_cell_angle_beta 126.006097
_cell_angle_gamma 90.000000
_cell_volume 2398.039654
_symmetry_space_group_name_H-M "C 2/C"
_symmetry_group_IT_number 15
_symmetry_cell_setting 'monoclinic'
loop_
_space_group_symop_operation_xyz
x,y,z
-x,y,1/2-z
-x,-y,-z
x,-y,1/2+z
1/2+x,1/2+y,z
1/2-x,1/2+y,1/2-z
1/2-x,1/2-y,-z
1/2+x,1/2-y,1/2+z
loop_
_atom_site_type_symbol
_atom_site_label
_atom_site_fract_x
_atom_site_fract_y
_atom_site_fract_z
Si Si1 0.855181 0.272601 0.171898
Si Si2 0.544871 0.386428 0.843197
Si Si3 0.936022 0.364463 0.083150
Si Si4 0.070781 0.880526 0.555287
Si Si5 0.477169 0.983033 0.866065
Si Si6 0.000000 0.554317 0.250000
Si Si7 0.224683 0.765869 0.432066
O O1 0.866297 0.190568 0.160085
O O2 0.988984 0.317803 0.144875
O O3 0.554852 0.293350 0.129564
O O4 0.000000 0.291819 0.250000
O O5 0.585683 0.400951 0.914040
O O6 0.711687 0.442492 0.835401
O O7 0.245176 0.394610 0.781810
O O8 0.050701 0.442019 0.109081
O O9 0.072272 0.326864 0.052615
O O10 0.629533 0.371160 0.025226
O O11 0.280986 0.939706 0.571501
O O12 0.214119 0.806772 0.590163
O O13 0.521246 0.993909 0.807575
O O14 0.250000 0.750000 0.500000
#
# Coordination Sequence:
#
# PCOD8150196 Si02
#       7
#     8   8   8   8   8   4   8
#     4  12  26  43  72 104 140 182 236 288 348 419
#     4  11  23  44  72 100 133 186 235 284 340 420
#     4  12  27  44  69 107 141 178 230 293 353 409
#     4  11  23  44  73 101 134 183 236 282 343 423
#     4  11  25  44  69 102 140 181 228 289 349 413
#     4  10  24  44  72  94 140 184 238 272 354 418
#     4  12  24  46  74  99 141 186 231 286 350 410
#
# _framework density 21.684377000000001
#
# number of rings (size 3 to 8) (size 9 to 14) (size 15 to 20)
#    0.000    0.615    4.615    3.231    3.231    3.692 
#    2.769    0.000    0.000    0.000    0.000    0.000 
#    0.000    0.000    0.000    0.000    0.000    0.000 
#
# Total GULP energy -322551.952026 kJ/mol
# GULP energy per Si atom -12405.844309 kJ/mol
# Density = 2.163502 g / cm^3
# Si number density = 21.684377 Si / 1000 Ang^3
#
#
#
# Elastic Constant Matrix: (Units=GPa)
#
#
# Indices 1 2 3 4 5 6 
#
# 1 120.6774 55.6787 48.6218 0.0000 5.9734 0.0000
# 2 55.6787 145.3833 36.4653 0.0000 -2.4572 0.0000
# 3 48.6218 36.4653 130.9393 0.0000 4.7150 0.0000
# 4 0.0000 0.0000 0.0000 18.5776 0.0000 -5.9217
# 5 5.9734 -2.4572 4.7150 0.0000 39.2773 0.0000
# 6 0.0000 0.0000 0.0000 -5.9217 0.0000 26.4261
#
#
#
# Elastic Compliance Matrix: (Units=1/GPa)
#
#
# Indices 1 2 3 4 5 6 
#
# 1 0.011268 -0.003555 -0.003138 0.000000 -0.001559 0.000000
# 2 -0.003555 0.008536 -0.001101 0.000000 0.001207 0.000000
# 3 -0.003138 -0.001101 0.009134 0.000000 -0.000688 0.000000
# 4 0.000000 0.000000 0.000000 0.057969 0.000000 0.012990
# 5 -0.001559 0.001207 -0.000688 0.000000 0.025855 0.000000
# 6 0.000000 0.000000 0.000000 0.012990 0.000000 0.040752
#
#
# Mechanical properties :
#
#
# Convention : Reuss Voigt Hill
#
# Bulk Modulus (GPa) = 74.90072 75.39239 75.14655
# Shear Modulus (GPa) = 28.80978 33.93847 31.37412
#
# Velocity S-wave (km/s) = 3.64895 3.96044 3.80788
# Velocity P-wave (km/s) = 7.23667 7.46706 7.35277
#
# Compressibility (1/GPa) = 0.01335101
#
# Stress axis : x y z
#
# Youngs Moduli (GPa) = 88.74516 117.14763 109.48427
#
# Poissons Ratio (x) = 0.41643 0.34358
# Poissons Ratio (y) = 0.31547 0.12051
# Poissons Ratio (z) = 0.27849 0.12895
#
# Static dielectric constant tensor:
#      x y z
#    x 4.007170 0.000000 -0.051460 
#    y 0.000000 3.771820 0.000000 
#    z -0.051460 0.000000 3.962530 
# 
# 
# High freq. dielectric constant tensor:
#      x y z
#    x 1.862010 0.000000 -0.001160 
#    y 0.000000 1.841920 0.000000 
#    z -0.001160 0.000000 1.855490 
# 
# From -- ./inp_files/227479.got.cif
#   From: 2010.06.25/outbox.cif.g09.slc.cpg/sg15_114_cif.got.tgz:227479.got - 2010.06.28 07:06:18.
