data_PCOD8150429
_publ_section_title
;
Structure prediction by ZEFSAII (Michael W. Deem and Ramdas Pophale) SiO2 
 PCOD8150429
Probable space group: C 2/C
;
_chemical_formula_sum "Si O2"
_cell_formula_units_Z 44
_cell_length_a 25.984274
_cell_length_b 8.023381
_cell_length_c 12.458848
_cell_angle_alpha 90.000000
_cell_angle_beta 131.213886
_cell_angle_gamma 90.000000
_cell_volume 1953.939521
_symmetry_space_group_name_H-M "C 2/C"
_symmetry_group_IT_number 15
_symmetry_cell_setting 'monoclinic'
loop_
_space_group_symop_operation_xyz
x,y,z
-x,y,1/2-z
-x,-y,-z
x,-y,1/2+z
1/2+x,1/2+y,z
1/2-x,1/2+y,1/2-z
1/2-x,1/2-y,-z
1/2+x,1/2-y,1/2+z
loop_
_atom_site_type_symbol
_atom_site_label
_atom_site_fract_x
_atom_site_fract_y
_atom_site_fract_z
Si Si1 0.170301 0.768105 0.865527
Si Si2 0.500000 0.205911 0.250000
Si Si3 0.371792 0.359993 0.144001
Si Si4 0.570398 0.887425 0.386379
Si Si5 0.809987 0.854607 0.837817
Si Si6 0.335228 0.733109 0.820563
O O1 0.127340 0.627537 0.869587
O O2 0.159827 0.752000 0.722485
O O3 0.142999 0.944934 0.869861
O O4 0.250000 0.750000 0.000000
O O5 0.453713 0.326234 0.260799
O O6 0.552871 0.082660 0.385699
O O7 0.338257 0.259438 0.196109
O O8 0.341179 0.285271 0.991299
O O9 0.500000 0.796931 0.250000
O O10 0.596255 0.807728 0.532628
O O11 0.728131 0.842642 0.726785
O O12 0.828757 0.046225 0.852164
#
# Coordination Sequence:
#
# PCOD8150429 Si02
#       6
#     8   4   8   8   8   8
#     4  11  22  44  74 101 139 183 229 283 352 416
#     4  10  28  44  68  96 146 188 230 290 332 424
#     4  11  25  43  67 108 135 179 236 280 348 405
#     4  10  24  47  67  95 139 190 228 270 364 408
#     4  11  23  40  70 104 136 175 225 296 349 409
#     4  11  24  42  70  99 140 179 226 294 341 424
#
# _framework density 22.518608
#
# number of rings (size 3 to 8) (size 9 to 14) (size 15 to 20)
#    0.545    0.727    3.636    0.545    3.818    5.091 
#    0.000    3.636    0.000    0.000    0.000    0.000 
#    0.000    0.000    0.000    0.000    0.000    0.000 
#
# Total GULP energy -272688.969787 kJ/mol
# GULP energy per Si atom -12394.953172 kJ/mol
# Density = 2.246735 g / cm^3
# Si number density = 22.518608 Si / 1000 Ang^3
#
#
#
# Elastic Constant Matrix: (Units=GPa)
#
#
# Indices 1 2 3 4 5 6 
#
# 1 142.2008 41.0289 66.6822 0.0000 1.4525 0.0000
# 2 41.0289 73.2949 35.5282 0.0000 11.7725 0.0000
# 3 66.6822 35.5282 152.8224 0.0000 -20.7673 0.0000
# 4 0.0000 0.0000 0.0000 21.5197 0.0000 21.9751
# 5 1.4525 11.7725 -20.7673 0.0000 53.3504 0.0000
# 6 0.0000 0.0000 0.0000 21.9751 0.0000 39.3558
#
#
#
# Elastic Compliance Matrix: (Units=1/GPa)
#
#
# Indices 1 2 3 4 5 6 
#
# 1 0.009733 -0.003606 -0.003523 0.000000 -0.000841 0.000000
# 2 -0.003606 0.018120 -0.003346 0.000000 -0.005203 0.000000
# 3 -0.003523 -0.003346 0.009473 0.000000 0.004522 0.000000
# 4 0.000000 0.000000 0.000000 0.108115 0.000000 -0.060368
# 5 -0.000841 -0.005203 0.004522 0.000000 0.021675 0.000000
# 6 0.000000 0.000000 0.000000 -0.060368 0.000000 0.059117
#
#
# Mechanical properties :
#
#
# Convention : Reuss Voigt Hill
#
# Bulk Modulus (GPa) = 61.06393 72.75517 66.90955
# Shear Modulus (GPa) = 19.79086 37.85042 28.82064
#
# Velocity S-wave (km/s) = 2.96779 4.10427 3.58139
# Velocity P-wave (km/s) = 6.23856 7.40534 6.84685
#
# Compressibility (1/GPa) = 0.01637628
#
# Stress axis : x y z
#
# Youngs Moduli (GPa) = 102.74016 55.18895 105.56168
#
# Poissons Ratio (x) = 0.19900 0.37189
# Poissons Ratio (y) = 0.37046 0.35322
# Poissons Ratio (z) = 0.36195 0.18467
#
# Static dielectric constant tensor:
#      x y z
#    x 4.352080 0.000000 -0.096730 
#    y 0.000000 3.837440 0.000000 
#    z -0.096730 0.000000 4.161790 
# 
# 
# High freq. dielectric constant tensor:
#      x y z
#    x 1.896110 0.000000 -0.000910 
#    y 0.000000 1.878710 0.000000 
#    z -0.000910 0.000000 1.885310 
# 
# From -- ./inp_files/110063.got.cif
#   From: 2010.06.25/outbox.cif.g09.slc.cpg/sg15_56_cif.got.tgz:110063.got - 2010.06.28 07:06:18.
