data_PCOD8150389
_publ_section_title
;
Structure prediction by ZEFSAII (Michael W. Deem and Ramdas Pophale) SiO2 
 PCOD8150389
Probable space group: C 2/C
;
_chemical_formula_sum "Si O2"
_cell_formula_units_Z 40
_cell_length_a 15.172727
_cell_length_b 13.072511
_cell_length_c 13.605230
_cell_angle_alpha 90.000000
_cell_angle_beta 142.750479
_cell_angle_gamma 90.000000
_cell_volume 1633.390906
_symmetry_space_group_name_H-M "C 2/C"
_symmetry_group_IT_number 15
_symmetry_cell_setting 'monoclinic'
loop_
_space_group_symop_operation_xyz
x,y,z
-x,y,1/2-z
-x,-y,-z
x,-y,1/2+z
1/2+x,1/2+y,z
1/2-x,1/2+y,1/2-z
1/2-x,1/2-y,-z
1/2+x,1/2-y,1/2+z
loop_
_atom_site_type_symbol
_atom_site_label
_atom_site_fract_x
_atom_site_fract_y
_atom_site_fract_z
Si Si1 0.046736 0.001168 0.687972
Si Si2 0.409038 0.858522 0.872583
Si Si3 0.231745 0.330206 0.184251
Si Si4 0.233487 0.351284 0.550522
Si Si5 0.734719 0.955084 0.358066
O O1 0.171921 0.072056 0.756739
O O2 0.000000 0.049930 0.750000
O O3 0.113891 0.886365 0.763313
O O4 0.902636 0.993003 0.492533
O O5 0.308030 0.776464 0.726596
O O6 0.388770 0.849825 0.973019
O O7 0.372109 0.968576 0.795101
O O8 0.575478 0.833041 0.993006
O O9 0.215213 0.343741 0.288034
O O10 0.250000 0.250000 0.500000
O O11 0.192683 0.441418 0.435188
#
# Coordination Sequence:
#
# PCOD8150389 Si02
#       5
#     8   8   8   8   8
#     4  10  24  46  73 103 143 193 236 292 355 423
#     4  12  27  45  72 109 143 188 238 294 355 428
#     4  12  25  45  73 100 147 188 235 292 360 418
#     4  11  24  44  74 112 142 182 239 290 356 422
#     4  11  24  45  72 103 148 186 231 294 353 423
#
# _framework density 24.488931999999998
#
# number of rings (size 3 to 8) (size 9 to 14) (size 15 to 20)
#    0.000    0.800    4.000    2.400    2.800    2.400 
#    3.600    9.000    0.000    0.000    0.000    0.000 
#    0.000    0.000    0.000    0.000    0.000    0.000 
#
# Total GULP energy -247931.132009 kJ/mol
# GULP energy per Si atom -12396.556600 kJ/mol
# Density = 2.443319 g / cm^3
# Si number density = 24.488932 Si / 1000 Ang^3
#
#
#
# Elastic Constant Matrix: (Units=GPa)
#
#
# Indices 1 2 3 4 5 6 
#
# 1 63.9118 25.9773 38.4260 -0.0001 15.2193 0.0000
# 2 25.9773 83.5948 20.9945 0.0000 0.5211 0.0000
# 3 38.4260 20.9945 110.4753 -0.0001 20.9407 -0.0001
# 4 -0.0001 0.0000 -0.0001 48.5393 -0.0001 -3.1405
# 5 15.2193 0.5211 20.9407 -0.0001 33.0063 -0.0001
# 6 0.0000 0.0000 -0.0001 -3.1405 -0.0001 26.5825
#
#
#
# Elastic Compliance Matrix: (Units=1/GPa)
#
#
# Indices 1 2 3 4 5 6 
#
# 1 0.022980 -0.005693 -0.005592 0.000000 -0.006958 0.000000
# 2 -0.005693 0.014038 -0.001299 0.000000 0.003228 0.000000
# 3 -0.005592 -0.001299 0.012221 0.000000 -0.005154 0.000000
# 4 0.000000 0.000000 0.000000 0.020761 0.000000 0.002453
# 5 -0.006958 0.003228 -0.005154 0.000000 0.036725 0.000000
# 6 0.000000 0.000000 0.000000 0.002453 0.000000 0.037908
#
#
# Mechanical properties :
#
#
# Convention : Reuss Voigt Hill
#
# Bulk Modulus (GPa) = 41.54689 47.64196 44.59442
# Shear Modulus (GPa) = 28.11759 33.13123 30.62441
#
# Velocity S-wave (km/s) = 3.39215 3.68218 3.54014
# Velocity P-wave (km/s) = 5.68724 6.12981 5.91267
#
# Compressibility (1/GPa) = 0.02406919
#
# Stress axis : x y z
#
# Youngs Moduli (GPa) = 43.51662 71.23594 81.82782
#
# Poissons Ratio (x) = 0.40556 0.45758
# Poissons Ratio (y) = 0.24775 0.10632
# Poissons Ratio (z) = 0.24335 0.09256
#
# Static dielectric constant tensor:
#      x y z
#    x 4.614740 0.000000 -0.084070 
#    y 0.000000 4.234280 0.000000 
#    z -0.084070 0.000000 4.428590 
# 
# 
# High freq. dielectric constant tensor:
#      x y z
#    x 1.972530 0.000000 0.000960 
#    y 0.000000 1.964400 0.000000 
#    z 0.000960 0.000000 1.979870 
# 
# From -- ./inp_files/162659.got.cif
#   From: 2010.06.25/outbox.cif.g09.slc.cpg/sg15_82_cif.got.tgz:162659.got - 2010.06.28 07:06:18.
