data_PCOD8150587
_publ_section_title
;
Structure prediction by ZEFSAII (Michael W. Deem and Ramdas Pophale) SiO2 
 PCOD8150587
Probable space group: C 2/C
;
_chemical_formula_sum "Si O2"
_cell_formula_units_Z 36
_cell_length_a 21.791979
_cell_length_b 8.119004
_cell_length_c 9.736427
_cell_angle_alpha 90.000000
_cell_angle_beta 62.409010
_cell_angle_gamma 90.000000
_cell_volume 1526.751079
_symmetry_space_group_name_H-M "C 2/C"
_symmetry_group_IT_number 15
_symmetry_cell_setting 'monoclinic'
loop_
_space_group_symop_operation_xyz
x,y,z
-x,y,1/2-z
-x,-y,-z
x,-y,1/2+z
1/2+x,1/2+y,z
1/2-x,1/2+y,1/2-z
1/2-x,1/2-y,-z
1/2+x,1/2-y,1/2+z
loop_
_atom_site_type_symbol
_atom_site_label
_atom_site_fract_x
_atom_site_fract_y
_atom_site_fract_z
Si Si1 0.500000 0.092913 0.750000
Si Si2 0.760545 0.594892 0.085960
Si Si3 0.608980 0.258305 0.471445
Si Si4 0.182924 0.913739 0.954046
Si Si5 0.574391 0.221374 0.209748
O O1 0.531953 0.210304 0.600705
O O2 0.438344 0.975595 0.754885
O O3 0.840197 0.602038 0.052804
O O4 0.714308 0.607519 0.271106
O O5 0.750000 0.750000 0.000000
O O6 0.741963 0.432017 0.014123
O O7 0.636589 0.421537 0.517155
O O8 0.604553 0.300253 0.316117
O O9 0.132011 0.759203 0.033575
O O10 0.500000 0.304092 0.250000
#
# Coordination Sequence:
#
# PCOD8150587 Si02
#       5
#     4   8   8   8   8
#     4  10  26  42  64 100 140 184 228 284 350 408
#     4  10  25  43  72 106 139 182 232 295 347 411
#     4  11  24  46  68 101 144 183 236 289 351 421
#     4  11  23  47  74 103 137 189 239 285 351 417
#     4  10  25  43  68 106 137 189 231 287 353 418
#
# _framework density 23.579481999999999
#
# number of rings (size 3 to 8) (size 9 to 14) (size 15 to 20)
#    0.667    0.889    2.222    0.667    4.667    8.889 
#    0.000    0.000    0.000    0.000    0.000    0.000 
#    0.000    0.000    0.000    0.000    0.000    0.000 
#
# Total GULP energy -223068.309735 kJ/mol
# GULP energy per Si atom -12392.683874 kJ/mol
# Density = 2.352581 g / cm^3
# Si number density = 23.579482 Si / 1000 Ang^3
#
#
#
# Elastic Constant Matrix: (Units=GPa)
#
#
# Indices 1 2 3 4 5 6 
#
# 1 106.2620 27.9746 52.7961 0.0000 7.3049 0.0000
# 2 27.9746 59.3352 33.2990 0.0000 -21.0978 0.0000
# 3 52.7961 33.2990 184.5371 0.0000 -14.6386 0.0000
# 4 0.0000 0.0000 0.0000 34.6065 0.0000 -14.9001
# 5 7.3049 -21.0978 -14.6386 0.0000 42.8832 0.0000
# 6 0.0000 0.0000 0.0000 -14.9001 0.0000 23.6165
#
#
#
# Elastic Compliance Matrix: (Units=1/GPa)
#
#
# Indices 1 2 3 4 5 6 
#
# 1 0.013205 -0.006880 -0.003066 0.000000 -0.006681 0.000000
# 2 -0.006880 0.025727 -0.001621 0.000000 0.013276 0.000000
# 3 -0.003066 -0.001621 0.006750 0.000000 0.002029 0.000000
# 4 0.000000 0.000000 0.000000 0.039674 0.000000 0.025031
# 5 -0.006681 0.013276 0.002029 0.000000 0.031682 0.000000
# 6 0.000000 0.000000 0.000000 0.025031 0.000000 0.058136
#
#
# Mechanical properties :
#
#
# Convention : Reuss Voigt Hill
#
# Bulk Modulus (GPa) = 44.35201 64.25264 54.30232
# Shear Modulus (GPa) = 24.29267 35.95888 30.12578
#
# Velocity S-wave (km/s) = 3.21323 3.90937 3.57827
# Velocity P-wave (km/s) = 5.71112 6.90551 6.33652
#
# Compressibility (1/GPa) = 0.02254689
#
# Stress axis : x y z
#
# Youngs Moduli (GPa) = 75.72979 38.86894 148.15546
#
# Poissons Ratio (x) = 0.26743 0.45430
# Poissons Ratio (y) = 0.52105 0.24013
# Poissons Ratio (z) = 0.23221 0.06300
#
# Static dielectric constant tensor:
#      x y z
#    x 4.511140 0.000000 0.005510 
#    y 0.000000 4.011690 0.000000 
#    z 0.005510 0.000000 4.108510 
# 
# 
# High freq. dielectric constant tensor:
#      x y z
#    x 1.938770 0.000000 -0.005910 
#    y 0.000000 1.916150 0.000000 
#    z -0.005910 0.000000 1.936020 
# 
# From -- ./inp_files/59869.got.cif
#   From: 2010.06.25/outbox.cif.g09.slc.cpg/sg15_30_cif.got.tgz:59869.got - 2010.06.28 07:06:18.
