data_PCOD8150145
_publ_section_title
;
Structure prediction by ZEFSAII (Michael W. Deem and Ramdas Pophale) SiO2 
 PCOD8150145
Probable space group: C 2/C
;
_chemical_formula_sum "Si O2"
_cell_formula_units_Z 56
_cell_length_a 23.443937
_cell_length_b 8.546410
_cell_length_c 14.767275
_cell_angle_alpha 90.000000
_cell_angle_beta 59.594672
_cell_angle_gamma 90.000000
_cell_volume 2551.860454
_symmetry_space_group_name_H-M "C 2/C"
_symmetry_group_IT_number 15
_symmetry_cell_setting 'monoclinic'
loop_
_space_group_symop_operation_xyz
x,y,z
-x,y,1/2-z
-x,-y,-z
x,-y,1/2+z
1/2+x,1/2+y,z
1/2-x,1/2+y,1/2-z
1/2-x,1/2-y,-z
1/2+x,1/2-y,1/2+z
loop_
_atom_site_type_symbol
_atom_site_label
_atom_site_fract_x
_atom_site_fract_y
_atom_site_fract_z
Si Si1 0.728525 0.048961 0.327460
Si Si2 0.983741 0.458461 0.661255
Si Si3 0.798693 0.903293 0.109389
Si Si4 0.409206 0.123375 0.567520
Si Si5 0.205999 0.898986 0.057954
Si Si6 0.068874 0.138545 0.741761
Si Si7 0.576250 0.476017 0.915160
O O1 0.728755 0.230640 0.352962
O O2 0.761096 0.027546 0.203419
O O3 0.655856 0.978384 0.387222
O O4 0.774738 0.956638 0.358911
O O5 0.947111 0.588366 0.631194
O O6 0.937116 0.306153 0.704229
O O7 0.000000 0.520582 0.750000
O O8 0.050691 0.413786 0.555754
O O9 0.877708 0.903744 0.065567
O O10 0.782819 0.959381 0.020881
O O11 0.395189 0.306963 0.581848
O O12 0.128236 0.852380 0.121325
O O13 0.250000 0.750000 0.000000
O O14 0.000000 0.095265 0.750000
O O15 0.085315 0.005005 0.801302
O O16 0.500000 0.500000 0.000000
#
# Coordination Sequence:
#
# PCOD8150145 Si02
#       7
#     8   8   8   8   8   8   8
#     4  12  27  47  74 103 145 185 242 300 361 429
#     4  10  24  44  69 101 142 181 235 282 355 418
#     4  12  27  48  71 104 141 188 239 297 359 430
#     4  11  25  43  71 105 137 188 233 293 353 422
#     4  12  27  46  74 107 142 190 237 295 362 427
#     4  11  24  45  70 104 142 184 234 291 356 429
#     4  12  23  44  71 100 143 180 236 291 353 427
#
# _framework density 21.944775
#
# number of rings (size 3 to 8) (size 9 to 14) (size 15 to 20)
#    0.000    0.571    2.857    4.714   10.000    0.571 
#    2.571    0.000    0.000    0.000    0.000    0.000 
#    0.000    0.000    0.000    0.000    0.000    0.000 
#
# Total GULP energy -347307.790334 kJ/mol
# GULP energy per Si atom -12403.849655 kJ/mol
# Density = 2.189483 g / cm^3
# Si number density = 21.944775 Si / 1000 Ang^3
#
#
#
# Elastic Constant Matrix: (Units=GPa)
#
#
# Indices 1 2 3 4 5 6 
#
# 1 77.4376 25.5935 38.0173 0.0000 -8.2901 0.0001
# 2 25.5935 72.6318 22.4472 0.0000 -10.3959 0.0002
# 3 38.0173 22.4472 127.1047 0.0000 -9.0875 0.0000
# 4 0.0000 0.0000 0.0000 35.2439 0.0000 0.2461
# 5 -8.2901 -10.3959 -9.0875 0.0000 47.6796 0.0000
# 6 0.0001 0.0002 0.0000 0.2461 0.0000 35.2186
#
#
#
# Elastic Compliance Matrix: (Units=1/GPa)
#
#
# Indices 1 2 3 4 5 6 
#
# 1 0.016486 -0.004388 -0.004075 0.000000 0.001133 0.000000
# 2 -0.004388 0.016088 -0.001351 0.000000 0.002487 0.000000
# 3 -0.004075 -0.001351 0.009381 0.000000 0.000785 0.000000
# 4 0.000000 0.000000 0.000000 0.028375 0.000000 -0.000198
# 5 0.001133 0.002487 0.000785 0.000000 0.021862 0.000000
# 6 0.000000 0.000000 0.000000 -0.000198 0.000000 0.028396
#
#
# Mechanical properties :
#
#
# Convention : Reuss Voigt Hill
#
# Bulk Modulus (GPa) = 44.78823 49.92114 47.35468
# Shear Modulus (GPa) = 33.86233 36.36949 35.11591
#
# Velocity S-wave (km/s) = 3.93246 4.07543 4.00458
# Velocity P-wave (km/s) = 6.40880 6.70399 6.55806
#
# Compressibility (1/GPa) = 0.02232730
#
# Stress axis : x y z
#
# Youngs Moduli (GPa) = 60.65896 62.15943 106.59752
#
# Poissons Ratio (x) = 0.27273 0.43439
# Poissons Ratio (y) = 0.26614 0.14401
# Poissons Ratio (z) = 0.24719 0.08398
#
# Static dielectric constant tensor:
#      x y z
#    x 4.256640 0.000000 -0.530040 
#    y 0.000000 3.900570 0.000000 
#    z -0.530040 0.000000 5.519240 
# 
# 
# High freq. dielectric constant tensor:
#      x y z
#    x 1.876680 0.000000 -0.002880 
#    y 0.000000 1.857850 0.000000 
#    z -0.002880 0.000000 1.878360 
# 
# From -- ./inp_files/172256.got.cif
#   From: 2010.06.25/outbox.cif.g09.slc.cpg/sg15_87_cif.got.tgz:172256.got - 2010.06.28 07:06:18.
