data_PCOD8150595
_publ_section_title
;
Structure prediction by ZEFSAII (Michael W. Deem and Ramdas Pophale) SiO2 
 PCOD8150595
Probable space group: C 2/C
;
_chemical_formula_sum "Si O2"
_cell_formula_units_Z 40
_cell_length_a 24.554187
_cell_length_b 7.284978
_cell_length_c 9.651400
_cell_angle_alpha 90.000000
_cell_angle_beta 83.205548
_cell_angle_gamma 90.000000
_cell_volume 1714.286063
_symmetry_space_group_name_H-M "C 2/C"
_symmetry_group_IT_number 15
_symmetry_cell_setting 'monoclinic'
loop_
_space_group_symop_operation_xyz
x,y,z
-x,y,1/2-z
-x,-y,-z
x,-y,1/2+z
1/2+x,1/2+y,z
1/2-x,1/2+y,1/2-z
1/2-x,1/2-y,-z
1/2+x,1/2-y,1/2+z
loop_
_atom_site_type_symbol
_atom_site_label
_atom_site_fract_x
_atom_site_fract_y
_atom_site_fract_z
Si Si1 0.566117 0.125962 0.848450
Si Si2 0.844020 0.834887 0.032251
Si Si3 0.703740 0.382627 0.159787
Si Si4 0.046460 0.294683 0.047821
Si Si5 0.676470 0.905983 0.450918
O O1 0.517126 0.267964 0.911329
O O2 0.567029 0.104381 0.682661
O O3 0.625578 0.189076 0.885503
O O4 0.549965 0.929159 0.915586
O O5 0.824859 0.909376 0.185335
O O6 0.833142 0.619148 0.018246
O O7 0.909952 0.869918 0.994291
O O8 0.809942 0.940723 0.927574
O O9 0.769440 0.373766 0.158360
O O10 0.682595 0.194347 0.096915
#
# Coordination Sequence:
#
# PCOD8150595 Si02
#       5
#     8   8   8   8   8
#     4   9  19  37  67  95 130 172 226 276 331 401
#     4  11  26  43  70  98 139 178 225 285 333 410
#     4  11  27  43  66 104 136 180 226 276 342 406
#     4   9  20  38  65  99 128 172 225 281 332 395
#     4  10  25  43  70  97 136 181 224 279 338 406
#
# _framework density 23.33333
#
# number of rings (size 3 to 8) (size 9 to 14) (size 15 to 20)
#    0.000    2.000    0.000    0.600   19.600    0.000 
#    0.000    1.000    0.000    0.000    0.000    0.000 
#    0.000    0.000    0.000    0.000    0.000    0.000 
#
# Total GULP energy -247917.519552 kJ/mol
# GULP energy per Si atom -12395.875978 kJ/mol
# Density = 2.328022 g / cm^3
# Si number density = 23.333330 Si / 1000 Ang^3
#
#
#
# Elastic Constant Matrix: (Units=GPa)
#
#
# Indices 1 2 3 4 5 6 
#
# 1 216.7139 40.4564 85.6009 0.0000 1.3855 0.0000
# 2 40.4564 63.3224 33.6940 0.0000 0.4713 0.0000
# 3 85.6009 33.6940 141.3847 0.0000 -14.3324 0.0000
# 4 0.0000 0.0000 0.0000 13.5984 0.0000 -2.7244
# 5 1.3855 0.4713 -14.3324 0.0000 31.1866 0.0000
# 6 0.0000 0.0000 0.0000 -2.7244 0.0000 24.3339
#
#
#
# Elastic Compliance Matrix: (Units=1/GPa)
#
#
# Indices 1 2 3 4 5 6 
#
# 1 0.006449 -0.002206 -0.003571 0.000000 -0.001894 0.000000
# 2 -0.002206 0.019008 -0.003370 0.000000 -0.001738 0.000000
# 3 -0.003571 -0.003370 0.010551 0.000000 0.005058 0.000000
# 4 0.000000 0.000000 0.000000 0.075226 0.000000 0.008422
# 5 -0.001894 -0.001738 0.005058 0.000000 0.034500 0.000000
# 6 0.000000 0.000000 0.000000 0.008422 0.000000 0.042038
#
#
# Mechanical properties :
#
#
# Convention : Reuss Voigt Hill
#
# Bulk Modulus (GPa) = 56.45501 82.32485 69.38993
# Shear Modulus (GPa) = 23.58827 31.26839 27.42833
#
# Velocity S-wave (km/s) = 3.18296 3.66467 3.43228
# Velocity P-wave (km/s) = 6.14458 7.29830 6.74614
#
# Compressibility (1/GPa) = 0.01771322
#
# Stress axis : x y z
#
# Youngs Moduli (GPa) = 155.07031 52.60944 94.78018
#
# Poissons Ratio (x) = 0.11606 0.33842
# Poissons Ratio (y) = 0.34209 0.31945
# Poissons Ratio (z) = 0.55370 0.17732
#
# Static dielectric constant tensor:
#      x y z
#    x 5.254330 0.000000 -0.211970 
#    y 0.000000 3.740710 0.000000 
#    z -0.211970 0.000000 4.132370 
# 
# 
# High freq. dielectric constant tensor:
#      x y z
#    x 1.955380 0.000000 -0.009900 
#    y 0.000000 1.878990 0.000000 
#    z -0.009900 0.000000 1.927520 
# 
# From -- ./inp_files/60030.got.cif
#   From: 2010.06.25/outbox.cif.g09.slc.cpg/sg15_31_cif.got.tgz:60030.got - 2010.06.28 07:06:18.
