data_PCOD8150737
_publ_section_title
;
Structure prediction by ZEFSAII (Michael W. Deem and Ramdas Pophale) SiO2 
 PCOD8150737
Probable space group: C 2/C
;
_chemical_formula_sum "Si O2"
_cell_formula_units_Z 52
_cell_length_a 9.945434
_cell_length_b 25.268047
_cell_length_c 11.451780
_cell_angle_alpha 90.000000
_cell_angle_beta 54.229935
_cell_angle_gamma 90.000000
_cell_volume 2335.000608
_symmetry_space_group_name_H-M "C 2/C"
_symmetry_group_IT_number 15
_symmetry_cell_setting 'monoclinic'
loop_
_space_group_symop_operation_xyz
x,y,z
-x,y,1/2-z
-x,-y,-z
x,-y,1/2+z
1/2+x,1/2+y,z
1/2-x,1/2+y,1/2-z
1/2-x,1/2-y,-z
1/2+x,1/2-y,1/2+z
loop_
_atom_site_type_symbol
_atom_site_label
_atom_site_fract_x
_atom_site_fract_y
_atom_site_fract_z
Si Si1 0.500000 0.753439 0.250000
Si Si2 0.000000 0.444640 0.250000
Si Si3 0.356259 0.790597 0.558854
Si Si4 0.716005 0.031770 0.242633
Si Si5 0.187066 0.900341 0.015577
Si Si6 0.997610 0.399599 0.499282
Si Si7 0.500000 0.516094 0.750000
Si Si8 0.917732 0.216534 0.915566
O O1 0.428124 0.791024 0.389648
O O2 0.339123 0.715772 0.311911
O O3 0.838002 0.480350 0.304126
O O4 0.969089 0.407131 0.376119
O O5 0.402212 0.847069 0.590505
O O6 0.451276 0.740899 0.563180
O O7 0.565156 0.048263 0.402606
O O8 0.868856 0.021454 0.251700
O O9 0.739049 0.081320 0.144924
O O10 0.103435 0.843988 0.034791
O O11 0.062604 0.946571 0.114541
O O12 0.311953 0.893040 0.060919
O O13 0.000000 0.219432 0.750000
O O14 0.750000 0.250000 0.000000
#
# Coordination Sequence:
#
# PCOD8150737 Si02
#       8
#     4   4   8   8   8   8   4   8
#     4  10  25  49  66 100 148 188 237 295 360 430
#     4  12  23  46  74 102 142 194 242 293 366 434
#     4  11  25  46  74 101 148 188 240 297 363 438
#     4  12  26  46  74 104 143 189 242 303 355 438
#     4  12  25  46  72 110 143 189 240 304 370 436
#     4  12  25  44  77 104 142 189 247 292 376 434
#     4  12  26  49  68 106 150 186 247 298 370 428
#     4  12  26  44  76 109 146 188 241 302 367 440
#
# _framework density 22.269801000000001
#
# number of rings (size 3 to 8) (size 9 to 14) (size 15 to 20)
#    0.000    0.308    5.385    3.231    4.308    0.615 
#    8.308    0.000    0.000    0.000    0.000    0.000 
#    0.000    0.000    0.000    0.000    0.000    0.000 
#
# Total GULP energy -322306.701933 kJ/mol
# GULP energy per Si atom -12396.411613 kJ/mol
# Density = 2.221911 g / cm^3
# Si number density = 22.269801 Si / 1000 Ang^3
#
#
#
# Elastic Constant Matrix: (Units=GPa)
#
#
# Indices 1 2 3 4 5 6 
#
# 1 122.0289 56.4814 16.9792 0.0000 -4.8488 0.0000
# 2 56.4814 102.3110 44.2855 0.0000 3.5907 0.0000
# 3 16.9792 44.2855 95.1026 0.0000 -7.5986 0.0000
# 4 0.0000 0.0000 0.0000 33.2674 0.0000 2.4351
# 5 -4.8488 3.5907 -7.5986 0.0000 41.5416 0.0000
# 6 0.0000 0.0000 0.0000 2.4351 0.0000 35.3087
#
#
#
# Elastic Compliance Matrix: (Units=1/GPa)
#
#
# Indices 1 2 3 4 5 6 
#
# 1 0.011283 -0.006898 0.001371 0.000000 0.002164 0.000000
# 2 -0.006898 0.016648 -0.006799 0.000000 -0.003488 0.000000
# 3 0.001371 -0.006799 0.013696 0.000000 0.003253 0.000000
# 4 0.000000 0.000000 0.000000 0.030212 0.000000 -0.002084
# 5 0.002164 -0.003488 0.003253 0.000000 0.025221 0.000000
# 6 0.000000 0.000000 0.000000 -0.002084 0.000000 0.028465
#
#
# Mechanical properties :
#
#
# Convention : Reuss Voigt Hill
#
# Bulk Modulus (GPa) = 58.91531 61.65941 60.28736
# Shear Modulus (GPa) = 32.08490 35.46996 33.77743
#
# Velocity S-wave (km/s) = 3.79982 3.99524 3.89876
# Velocity P-wave (km/s) = 6.76492 7.00215 6.88456
#
# Compressibility (1/GPa) = 0.01697352
#
# Stress axis : x y z
#
# Youngs Moduli (GPa) = 88.63059 60.06847 73.01225
#
# Poissons Ratio (x) = 0.41435 -0.10007
# Poissons Ratio (y) = 0.61137 0.49643
# Poissons Ratio (z) = -0.12148 0.40842
#
# Static dielectric constant tensor:
#      x y z
#    x 4.032580 0.000000 -0.069520 
#    y 0.000000 4.043810 0.000000 
#    z -0.069520 0.000000 5.855000 
# 
# 
# High freq. dielectric constant tensor:
#      x y z
#    x 1.880520 0.000000 0.004130 
#    y 0.000000 1.886410 0.000000 
#    z 0.004130 0.000000 1.886310 
# 
# From -- ./inp_files/81218.got.cif
#   From: 2010.06.25/outbox.cif.g09.slc.cpg/sg15_41_cif.got.tgz:81218.got - 2010.06.28 07:06:18.
