data_PCOD8150734
_publ_section_title
;
Structure prediction by ZEFSAII (Michael W. Deem and Ramdas Pophale) SiO2 
 PCOD8150734
Probable space group: C 2/C
;
_chemical_formula_sum "Si O2"
_cell_formula_units_Z 56
_cell_length_a 17.957654
_cell_length_b 18.419060
_cell_length_c 8.097392
_cell_angle_alpha 90.000000
_cell_angle_beta 71.259507
_cell_angle_gamma 90.000000
_cell_volume 2536.323330
_symmetry_space_group_name_H-M "C 2/C"
_symmetry_group_IT_number 15
_symmetry_cell_setting 'monoclinic'
loop_
_space_group_symop_operation_xyz
x,y,z
-x,y,1/2-z
-x,-y,-z
x,-y,1/2+z
1/2+x,1/2+y,z
1/2-x,1/2+y,1/2-z
1/2-x,1/2-y,-z
1/2+x,1/2-y,1/2+z
loop_
_atom_site_type_symbol
_atom_site_label
_atom_site_fract_x
_atom_site_fract_y
_atom_site_fract_z
Si Si1 0.407173 0.919963 0.783488
Si Si2 0.682493 0.795028 0.462704
Si Si3 0.523509 0.263472 0.040970
Si Si4 0.428802 0.398061 0.037901
Si Si5 0.237776 0.170918 0.923816
Si Si6 0.865218 0.427595 0.441247
Si Si7 0.500000 0.834399 0.250000
Si Si8 0.000000 0.011564 0.750000
O O1 0.500000 0.917500 0.750000
O O2 0.401907 0.921983 0.593322
O O3 0.362400 0.989104 0.890289
O O4 0.361264 0.850616 0.885106
O O5 0.750000 0.750000 0.500000
O O6 0.617281 0.736881 0.453568
O O7 0.718551 0.834871 0.280937
O O8 0.500000 0.245685 0.250000
O O9 0.500724 0.342614 0.995920
O O10 0.485978 0.208982 0.931751
O O11 0.352035 0.351016 0.047525
O O12 0.432681 0.439000 0.211102
O O13 0.444778 0.460983 0.897934
O O14 0.278315 0.108332 0.005285
O O15 0.250000 0.250000 0.000000
O O16 0.922733 0.383581 0.276030
#
# Coordination Sequence:
#
# PCOD8150734 Si02
#       8
#     8   8   8   8   8   8   4   4
#     4  12  26  47  73 104 147 195 245 303 373 457
#     4  12  26  45  71 105 143 193 241 305 378 436
#     4  12  24  45  75 106 147 195 251 308 368 455
#     4  11  25  48  74 107 142 192 254 311 377 454
#     4  12  27  47  70 109 150 190 244 308 380 446
#     4  12  25  44  70 106 145 190 245 300 372 452
#     4  12  23  42  70 105 142 200 242 294 372 445
#     4  10  25  48  78 103 138 198 250 312 378 449
#
# _framework density 22.079201999999999
#
# number of rings (size 3 to 8) (size 9 to 14) (size 15 to 20)
#    0.000    0.286    2.857    6.429    2.000    2.286 
#    2.571    0.000    0.000    0.000    0.000    0.000 
#    0.000    0.000    0.000    0.000    0.000    0.000 
#
# Total GULP energy -347058.349502 kJ/mol
# GULP energy per Si atom -12394.941054 kJ/mol
# Density = 2.202895 g / cm^3
# Si number density = 22.079202 Si / 1000 Ang^3
#
#
#
# Elastic Constant Matrix: (Units=GPa)
#
#
# Indices 1 2 3 4 5 6 
#
# 1 153.1678 81.1552 30.4904 0.0000 3.4662 0.0000
# 2 81.1552 156.7440 31.0101 0.0000 1.0115 0.0000
# 3 30.4904 31.0101 69.8482 0.0000 15.4273 0.0000
# 4 0.0000 0.0000 0.0000 112.4303 0.0000 10.2787
# 5 3.4662 1.0115 15.4273 0.0000 33.6650 0.0000
# 6 0.0000 0.0000 0.0000 10.2787 0.0000 51.0261
#
#
#
# Elastic Compliance Matrix: (Units=1/GPa)
#
#
# Indices 1 2 3 4 5 6 
#
# 1 0.009270 -0.004378 -0.002138 0.000000 0.000157 0.000000
# 2 -0.004378 0.009117 -0.002421 0.000000 0.001286 0.000000
# 3 -0.002138 -0.002421 0.018091 0.000000 -0.007998 0.000000
# 4 0.000000 0.000000 0.000000 0.009061 0.000000 -0.001825
# 5 0.000157 0.001286 -0.007998 0.000000 0.033315 0.000000
# 6 0.000000 0.000000 0.000000 -0.001825 0.000000 0.019966
#
#
# Mechanical properties :
#
#
# Convention : Reuss Voigt Hill
#
# Bulk Modulus (GPa) = 53.74623 73.89682 63.82152
# Shear Modulus (GPa) = 40.68528 55.23123 47.95825
#
# Velocity S-wave (km/s) = 4.29732 5.00693 4.66564
# Velocity P-wave (km/s) = 7.00128 8.18336 7.61529
#
# Compressibility (1/GPa) = 0.01860596
#
# Stress axis : x y z
#
# Youngs Moduli (GPa) = 107.87033 109.68384 55.27592
#
# Poissons Ratio (x) = 0.48018 0.11816
# Poissons Ratio (y) = 0.47224 0.13381
# Poissons Ratio (z) = 0.23060 0.26551
#
# Static dielectric constant tensor:
#      x y z
#    x 4.092910 0.000000 0.111760 
#    y 0.000000 4.064240 0.000000 
#    z 0.111760 0.000000 4.217310 
# 
# 
# High freq. dielectric constant tensor:
#      x y z
#    x 1.875330 0.000000 0.015710 
#    y 0.000000 1.884740 0.000000 
#    z 0.015710 0.000000 1.874590 
# 
# From -- ./inp_files/49045.got.cif
#   From: 2010.06.25/outbox.cif.g09.slc.cpg/sg15_25_cif.got.tgz:49045.got - 2010.06.28 07:06:18.
