data_PCOD8150083
_publ_section_title
;
Structure prediction by ZEFSAII (Michael W. Deem and Ramdas Pophale) SiO2 
 PCOD8150083
Probable space group: C 2/C
;
_chemical_formula_sum "Si O2"
_cell_formula_units_Z 56
_cell_length_a 10.752440
_cell_length_b 22.438269
_cell_length_c 13.031032
_cell_angle_alpha 90.000000
_cell_angle_beta 123.021158
_cell_angle_gamma 90.000000
_cell_volume 2636.103155
_symmetry_space_group_name_H-M "C 2/C"
_symmetry_group_IT_number 15
_symmetry_cell_setting 'monoclinic'
loop_
_space_group_symop_operation_xyz
x,y,z
-x,y,1/2-z
-x,-y,-z
x,-y,1/2+z
1/2+x,1/2+y,z
1/2-x,1/2+y,1/2-z
1/2-x,1/2-y,-z
1/2+x,1/2-y,1/2+z
loop_
_atom_site_type_symbol
_atom_site_label
_atom_site_fract_x
_atom_site_fract_y
_atom_site_fract_z
Si Si1 0.973371 0.242643 0.121043
Si Si2 0.500000 0.529366 0.750000
Si Si3 0.778161 0.535889 0.460058
Si Si4 0.767800 0.241777 0.627971
Si Si5 0.500000 0.836815 0.750000
Si Si6 0.274839 0.621819 0.714476
Si Si7 0.751888 0.344569 0.067818
Si Si8 0.958684 0.425382 0.548086
O O1 0.116193 0.258934 0.121257
O O2 0.000000 0.222270 0.250000
O O3 0.877625 0.302929 0.075327
O O4 0.902723 0.186628 0.029999
O O5 0.386908 0.487155 0.638530
O O6 0.402986 0.571527 0.782390
O O7 0.759446 0.589131 0.529736
O O8 0.874304 0.483212 0.556070
O O9 0.870612 0.558425 0.401773
O O10 0.750000 0.250000 0.500000
O O11 0.840686 0.176782 0.677698
O O12 0.864500 0.294388 0.720990
O O13 0.454690 0.875053 0.631844
O O14 0.226694 0.648969 0.801470
O O15 0.129205 0.594906 0.593549
#
# Coordination Sequence:
#
# PCOD8150083 Si02
#       8
#     8   4   8   8   4   8   8   8
#     4  11  26  45  66 108 138 174 229 286 341 420
#     4  10  25  42  68 100 141 168 234 292 340 400
#     4  10  24  44  68  96 131 181 223 287 335 408
#     4  12  26  42  72 100 138 182 223 282 351 409
#     4  12  27  40  70 100 131 182 228 286 336 412
#     4  11  23  45  66 100 139 181 224 283 347 417
#     4  11  26  42  75  96 138 183 225 277 350 414
#     4  10  24  44  65  96 136 174 234 275 336 411
#
# _framework density 21.243479000000001
#
# number of rings (size 3 to 8) (size 9 to 14) (size 15 to 20)
#    0.000    1.143    2.857    1.286    7.000    4.000 
#    0.000    0.000    0.000    0.000    0.000    0.000 
#    0.000    0.000    0.000    0.000    0.000    0.000 
#
# Total GULP energy -347206.302275 kJ/mol
# GULP energy per Si atom -12400.225081 kJ/mol
# Density = 2.119513 g / cm^3
# Si number density = 21.243479 Si / 1000 Ang^3
#
#
#
# Elastic Constant Matrix: (Units=GPa)
#
#
# Indices 1 2 3 4 5 6 
#
# 1 101.7138 41.6884 47.3632 0.0000 6.3171 0.0000
# 2 41.6884 161.3505 62.5259 0.0000 2.4483 0.0000
# 3 47.3632 62.5259 110.8928 0.0000 -0.9302 0.0000
# 4 0.0000 0.0000 0.0000 37.0496 0.0000 -3.3937
# 5 6.3171 2.4483 -0.9302 0.0000 31.8278 0.0000
# 6 0.0000 0.0000 0.0000 -3.3937 0.0000 31.7046
#
#
#
# Elastic Compliance Matrix: (Units=1/GPa)
#
#
# Indices 1 2 3 4 5 6 
#
# 1 0.012750 -0.001455 -0.004647 0.000000 -0.002555 0.000000
# 2 -0.001455 0.008114 -0.003957 0.000000 -0.000451 0.000000
# 3 -0.004647 -0.003957 0.013247 0.000000 0.001614 0.000000
# 4 0.000000 0.000000 0.000000 0.027258 0.000000 0.002918
# 5 -0.002555 -0.000451 0.001614 0.000000 0.032008 0.000000
# 6 0.000000 0.000000 0.000000 0.002918 0.000000 0.031854
#
#
# Mechanical properties :
#
#
# Convention : Reuss Voigt Hill
#
# Bulk Modulus (GPa) = 71.46252 75.23467 73.34860
# Shear Modulus (GPa) = 33.33026 34.94170 34.13598
#
# Velocity S-wave (km/s) = 3.96531 4.06004 4.01295
# Velocity P-wave (km/s) = 7.39444 7.58095 7.48828
#
# Compressibility (1/GPa) = 0.01399335
#
# Stress axis : x y z
#
# Youngs Moduli (GPa) = 78.42976 123.24417 75.48687
#
# Poissons Ratio (x) = 0.17929 0.35078
# Poissons Ratio (y) = 0.11410 0.29873
# Poissons Ratio (z) = 0.36446 0.48773
#
# Static dielectric constant tensor:
#      x y z
#    x 3.807670 0.000000 0.282620 
#    y 0.000000 4.270930 0.000000 
#    z 0.282620 0.000000 3.692430 
# 
# 
# High freq. dielectric constant tensor:
#      x y z
#    x 1.835010 0.000000 0.010990 
#    y 0.000000 1.860500 0.000000 
#    z 0.010990 0.000000 1.821000 
# 
# From -- ./inp_files/90943.got.cif
#   From: 2010.06.25/outbox.cif.g09.slc.cpg/sg15_46_cif.got.tgz:90943.got - 2010.06.28 07:06:18.
