data_PCOD8150843
_publ_section_title
;
Structure prediction by ZEFSAII (Michael W. Deem and Ramdas Pophale) SiO2 
 PCOD8150843
Probable space group: C 2/C
;
_chemical_formula_sum "Si O2"
_cell_formula_units_Z 48
_cell_length_a 8.536985
_cell_length_b 11.603756
_cell_length_c 20.239468
_cell_angle_alpha 90.000000
_cell_angle_beta 78.150335
_cell_angle_gamma 90.000000
_cell_volume 1962.217947
_symmetry_space_group_name_H-M "C 2/C"
_symmetry_group_IT_number 15
_symmetry_cell_setting 'monoclinic'
loop_
_space_group_symop_operation_xyz
x,y,z
-x,y,1/2-z
-x,-y,-z
x,-y,1/2+z
1/2+x,1/2+y,z
1/2-x,1/2+y,1/2-z
1/2-x,1/2-y,-z
1/2+x,1/2-y,1/2+z
loop_
_atom_site_type_symbol
_atom_site_label
_atom_site_fract_x
_atom_site_fract_y
_atom_site_fract_z
Si Si1 0.500000 0.798138 0.750000
Si Si2 0.012552 0.680501 0.650582
Si Si3 0.500000 0.624319 0.250000
Si Si4 0.789416 0.742224 0.384069
Si Si5 0.628327 0.528677 0.575224
Si Si6 0.303338 0.977997 0.694588
Si Si7 0.275214 0.491901 0.077387
O O1 0.632909 0.727806 0.695997
O O2 0.419324 0.871279 0.698198
O O3 0.065297 0.792957 0.686462
O O4 0.900570 0.729341 0.601575
O O5 0.901751 0.593385 0.703862
O O6 0.168326 0.615126 0.610394
O O7 0.350679 0.541183 0.243680
O O8 0.863472 0.831450 0.430379
O O9 0.821140 0.610805 0.402678
O O10 0.739060 0.481125 0.624732
O O11 0.691754 0.471617 0.502723
O O12 0.441734 0.499467 0.603116
#
# Coordination Sequence:
#
# PCOD8150843 Si02
#       7
#     4   8   4   8   8   8   8
#     4  12  23  45  66 102 140 176 233 285 342 406
#     4  11  25  40  71 100 134 186 226 279 355 402
#     4  12  25  43  66 102 138 178 223 285 350 404
#     4  11  24  45  68 102 136 185 224 285 343 410
#     4  10  26  46  70 104 135 186 227 286 349 402
#     4  11  25  44  68  99 140 177 227 287 337 413
#     4  11  24  48  70 101 143 174 237 285 335 421
#
# _framework density 24.462112999999999
#
# number of rings (size 3 to 8) (size 9 to 14) (size 15 to 20)
#    0.000    1.000    3.333    2.000    2.333    5.333 
#    3.000    2.500    0.000    0.000    0.000    0.000 
#    0.000    0.000    0.000    0.000    0.000    0.000 
#
# Total GULP energy -297426.252217 kJ/mol
# GULP energy per Si atom -12392.760509 kJ/mol
# Density = 2.440644 g / cm^3
# Si number density = 24.462113 Si / 1000 Ang^3
#
#
#
# Elastic Constant Matrix: (Units=GPa)
#
#
# Indices 1 2 3 4 5 6 
#
# 1 114.4783 17.3847 42.2091 0.0000 -12.1112 0.0000
# 2 17.3847 57.7596 16.3415 0.0000 -13.6571 0.0000
# 3 42.2091 16.3415 80.2612 0.0000 -15.6067 0.0000
# 4 0.0000 0.0000 0.0000 33.4071 0.0000 -0.0340
# 5 -12.1112 -13.6571 -15.6067 0.0000 43.0979 0.0000
# 6 0.0000 0.0000 0.0000 -0.0340 0.0000 37.5886
#
#
#
# Elastic Compliance Matrix: (Units=1/GPa)
#
#
# Indices 1 2 3 4 5 6 
#
# 1 0.011021 -0.001657 -0.005334 0.000000 0.000641 0.000000
# 2 -0.001657 0.019595 -0.002153 0.000000 0.004964 0.000000
# 3 -0.005334 -0.002153 0.016436 0.000000 0.003771 0.000000
# 4 0.000000 0.000000 0.000000 0.029934 0.000000 0.000027
# 5 0.000641 0.004964 0.003771 0.000000 0.026321 0.000000
# 6 0.000000 0.000000 0.000000 0.000027 0.000000 0.026604
#
#
# Mechanical properties :
#
#
# Convention : Reuss Voigt Hill
#
# Bulk Modulus (GPa) = 34.76537 44.92998 39.84767
# Shear Modulus (GPa) = 31.68822 34.58964 33.13893
#
# Velocity S-wave (km/s) = 3.60307 3.76441 3.68462
# Velocity P-wave (km/s) = 5.61714 6.10749 5.86744
#
# Compressibility (1/GPa) = 0.02876425
#
# Stress axis : x y z
#
# Youngs Moduli (GPa) = 90.73238 51.03435 60.84149
#
# Poissons Ratio (x) = 0.08455 0.32455
# Poissons Ratio (y) = 0.15031 0.13100
# Poissons Ratio (z) = 0.48399 0.10988
#
# Static dielectric constant tensor:
#      x y z
#    x 4.589070 0.000000 -0.129430 
#    y 0.000000 4.505730 0.000000 
#    z -0.129430 0.000000 4.045840 
# 
# 
# High freq. dielectric constant tensor:
#      x y z
#    x 1.986150 0.000000 -0.007240 
#    y 0.000000 1.977410 0.000000 
#    z -0.007240 0.000000 1.947480 
# 
# From -- ./inp_files/263287.got.cif
#   From: 2010.06.25/outbox.cif.g09.slc.cpg/sg15_132_cif.got.tgz:263287.got - 2010.06.28 07:06:18.
