data_PCOD8150875
_publ_section_title
;
Structure prediction by ZEFSAII (Michael W. Deem and Ramdas Pophale) SiO2 
 PCOD8150875
Probable space group: C 2/C
;
_chemical_formula_sum "Si O2"
_cell_formula_units_Z 44
_cell_length_a 31.422176
_cell_length_b 5.047282
_cell_length_c 16.421255
_cell_angle_alpha 90.000000
_cell_angle_beta 50.312280
_cell_angle_gamma 90.000000
_cell_volume 2004.146032
_symmetry_space_group_name_H-M "C 2/C"
_symmetry_group_IT_number 15
_symmetry_cell_setting 'monoclinic'
loop_
_space_group_symop_operation_xyz
x,y,z
-x,y,1/2-z
-x,-y,-z
x,-y,1/2+z
1/2+x,1/2+y,z
1/2-x,1/2+y,1/2-z
1/2-x,1/2-y,-z
1/2+x,1/2-y,1/2+z
loop_
_atom_site_type_symbol
_atom_site_label
_atom_site_fract_x
_atom_site_fract_y
_atom_site_fract_z
Si Si1 0.000000 0.254108 0.250000
Si Si2 0.905793 0.565260 0.971861
Si Si3 0.155296 0.062615 0.515082
Si Si4 0.406381 0.553932 0.255393
Si Si5 0.239655 0.533474 0.210335
Si Si6 0.885857 0.433466 0.676645
O O1 0.963806 0.442906 0.352972
O O2 0.961556 0.063559 0.242646
O O3 0.864169 0.357239 0.982894
O O4 0.878675 0.855686 0.998791
O O5 0.915726 0.501865 0.054664
O O6 0.220287 0.035707 0.416964
O O7 0.145791 0.009874 0.622392
O O8 0.413368 0.330943 0.178802
O O9 0.396217 0.834691 0.227143
O O10 0.237564 0.240746 0.251079
O O11 0.179034 0.616763 0.256223
#
# Coordination Sequence:
#
# PCOD8150875 Si02
#       6
#     4   8   8   8   8   8
#     4  10  26  48  68  92 130 188 216 266 352 382
#     4  11  23  42  71  94 131 174 225 269 318 397
#     4  11  22  43  66  97 135 180 212 259 331 400
#     4  11  26  42  66  97 137 168 223 277 322 386
#     4  12  22  40  70  99 132 179 210 260 334 396
#     4  12  24  41  67 105 130 166 225 280 310 387
#
# _framework density 21.954488999999999
#
# number of rings (size 3 to 8) (size 9 to 14) (size 15 to 20)
#    0.000    0.727    3.636    4.364    0.000    9.455 
#    0.000    0.000    0.000    0.000    0.000    0.000 
#    0.000    0.000    0.000    0.000    0.000    0.000 
#
# Total GULP energy -272954.760732 kJ/mol
# GULP energy per Si atom -12407.034579 kJ/mol
# Density = 2.190452 g / cm^3
# Si number density = 21.954489 Si / 1000 Ang^3
#
#
#
# Elastic Constant Matrix: (Units=GPa)
#
#
# Indices 1 2 3 4 5 6 
#
# 1 98.8867 24.7024 43.2178 -0.0088 2.9477 0.0121
# 2 24.7024 84.7138 6.7062 -0.0655 -5.6149 0.0465
# 3 43.2178 6.7062 154.2666 -0.0218 -18.6648 0.0218
# 4 -0.0088 -0.0655 -0.0218 27.9179 -0.0182 3.0768
# 5 2.9477 -5.6149 -18.6648 -0.0182 28.2620 0.0222
# 6 0.0121 0.0465 0.0218 3.0768 0.0222 33.4068
#
#
#
# Elastic Compliance Matrix: (Units=1/GPa)
#
#
# Indices 1 2 3 4 5 6 
#
# 1 0.012967 -0.003777 -0.004046 -0.000012 -0.004775 0.000007
# 2 -0.003777 0.013071 0.000926 0.000035 0.003602 -0.000023
# 3 -0.004046 0.000926 0.008313 0.000013 0.006096 -0.000010
# 4 -0.000012 0.000035 0.000013 0.036187 0.000042 -0.003333
# 5 -0.004775 0.003602 0.006096 0.000042 0.040623 -0.000038
# 6 0.000007 -0.000023 -0.000010 -0.003333 -0.000038 0.030241
#
#
# Mechanical properties :
#
#
# Convention : Reuss Voigt Hill
#
# Bulk Modulus (GPa) = 48.64734 54.12443 51.38588
# Shear Modulus (GPa) = 30.85472 35.46672 33.16072
#
# Velocity S-wave (km/s) = 3.75293 4.02365 3.89064
# Velocity P-wave (km/s) = 6.40200 6.80388 6.60600
#
# Compressibility (1/GPa) = 0.02055611
#
# Stress axis : x y z
#
# Youngs Moduli (GPa) = 77.11946 76.50268 120.29107
#
# Poissons Ratio (x) = 0.28898 0.48672
# Poissons Ratio (y) = 0.29131 -0.11137
# Poissons Ratio (z) = 0.31204 -0.07083
#
# Static dielectric constant tensor:
#      x y z
#    x 3.840290 -0.000050 0.036330 
#    y -0.000050 4.016580 0.000000 
#    z 0.036330 0.000000 4.411360 
# 
# 
# High freq. dielectric constant tensor:
#      x y z
#    x 1.844820 -0.000020 0.001580 
#    y -0.000020 1.874910 0.000000 
#    z 0.001580 0.000000 1.881420 
# 
# From -- ./inp_files/175622.got.cif
#   From: 2010.06.25/outbox.cif.g09.slc.cpg/sg15_88_cif.got.tgz:175622.got - 2010.06.28 07:06:18.
