data_PCOD8150324
_publ_section_title
;
Structure prediction by ZEFSAII (Michael W. Deem and Ramdas Pophale) SiO2 
 PCOD8150324
Probable space group: C 2/C
;
_chemical_formula_sum "Si O2"
_cell_formula_units_Z 60
_cell_length_a 15.530235
_cell_length_b 9.441676
_cell_length_c 21.067644
_cell_angle_alpha 90.000000
_cell_angle_beta 112.021652
_cell_angle_gamma 90.000000
_cell_volume 2863.799491
_symmetry_space_group_name_H-M "C 2/C"
_symmetry_group_IT_number 15
_symmetry_cell_setting 'monoclinic'
loop_
_space_group_symop_operation_xyz
x,y,z
-x,y,1/2-z
-x,-y,-z
x,-y,1/2+z
1/2+x,1/2+y,z
1/2-x,1/2+y,1/2-z
1/2-x,1/2-y,-z
1/2+x,1/2-y,1/2+z
loop_
_atom_site_type_symbol
_atom_site_label
_atom_site_fract_x
_atom_site_fract_y
_atom_site_fract_z
Si Si1 0.513877 0.550953 0.433249
Si Si2 0.000000 0.391292 0.750000
Si Si3 0.547910 0.140390 0.596439
Si Si4 0.221792 0.889228 0.955318
Si Si5 0.516204 0.262322 0.125212
Si Si6 0.277187 0.185830 0.330332
Si Si7 0.831110 0.452871 0.254000
Si Si8 0.891831 0.558086 0.020999
O O1 0.500000 0.500000 0.500000
O O2 0.454729 0.691764 0.409821
O O3 0.619252 0.574944 0.445831
O O4 0.476902 0.431532 0.374941
O O5 0.001610 0.285982 0.809044
O O6 0.095474 0.482837 0.776785
O O7 0.604840 0.115819 0.675211
O O8 0.596303 0.061830 0.551331
O O9 0.445962 0.070020 0.571730
O O10 0.228993 0.868455 0.881233
O O11 0.250000 0.750000 0.000000
O O12 0.283293 0.021478 0.998756
O O13 0.612689 0.200142 0.124841
O O14 0.428702 0.207020 0.059049
O O15 0.233300 0.336223 0.297400
O O16 0.265885 0.073111 0.269111
#
# Coordination Sequence:
#
# PCOD8150324 Si02
#       8
#     8   4   8   8   8   8   8   8
#     4  12  26  44  64 104 136 170 220 286 353 393
#     4  10  24  46  66  96 136 190 226 264 352 416
#     4  11  21  43  71  94 134 179 220 275 344 402
#     4  12  25  41  70 104 132 172 233 283 337 409
#     4  11  24  47  68  95 143 179 218 283 347 401
#     4  11  25  46  67 100 135 180 228 279 335 414
#     4  11  25  44  68  99 134 184 231 275 344 407
#     4  11  20  44  74  95 130 180 226 274 337 405
#
# _framework density 20.951188999999999
#
# number of rings (size 3 to 8) (size 9 to 14) (size 15 to 20)
#    0.000    0.800    6.667    1.600    5.600    2.667 
#    0.000    0.000    0.000    0.000    0.000    0.000 
#    0.000    0.000    0.000    0.000    0.000    0.000 
#
# Total GULP energy -371906.790127 kJ/mol
# GULP energy per Si atom -12396.893004 kJ/mol
# Density = 2.090350 g / cm^3
# Si number density = 20.951189 Si / 1000 Ang^3
#
#
#
# Elastic Constant Matrix: (Units=GPa)
#
#
# Indices 1 2 3 4 5 6 
#
# 1 113.5324 28.6997 42.9310 0.0000 -17.6155 0.0000
# 2 28.6997 131.0435 32.9117 0.0000 -2.6551 0.0000
# 3 42.9310 32.9117 76.7485 0.0000 -7.0846 0.0000
# 4 0.0000 0.0000 0.0000 38.5104 0.0000 11.0618
# 5 -17.6155 -2.6551 -7.0846 0.0000 25.0950 0.0000
# 6 0.0000 0.0000 0.0000 11.0618 0.0000 30.1738
#
#
#
# Elastic Compliance Matrix: (Units=1/GPa)
#
#
# Indices 1 2 3 4 5 6 
#
# 1 0.012354 -0.001110 -0.005796 0.000000 0.006918 0.000000
# 2 -0.001110 0.008652 -0.003159 0.000000 -0.000755 0.000000
# 3 -0.005796 -0.003159 0.017681 0.000000 0.000589 0.000000
# 4 0.000000 0.000000 0.000000 0.029023 0.000000 -0.010640
# 5 0.006918 -0.000755 0.000589 0.000000 0.044791 0.000000
# 6 0.000000 0.000000 0.000000 -0.010640 0.000000 0.037042
#
#
# Mechanical properties :
#
#
# Convention : Reuss Voigt Hill
#
# Bulk Modulus (GPa) = 53.88824 58.93436 56.41130
# Shear Modulus (GPa) = 28.43204 33.20798 30.82001
#
# Velocity S-wave (km/s) = 3.68783 3.98555 3.83957
# Velocity P-wave (km/s) = 6.62647 7.02637 6.82935
#
# Compressibility (1/GPa) = 0.01855692
#
# Stress axis : x y z
#
# Youngs Moduli (GPa) = 80.94820 115.57690 56.55891
#
# Poissons Ratio (x) = 0.12826 0.32780
# Poissons Ratio (y) = 0.08983 0.17868
# Poissons Ratio (z) = 0.46916 0.36514
#
# Static dielectric constant tensor:
#      x y z
#    x 3.855780 0.000000 -0.027200 
#    y 0.000000 4.503500 0.000000 
#    z -0.027200 0.000000 3.670700 
# 
# 
# High freq. dielectric constant tensor:
#      x y z
#    x 1.817980 0.000000 -0.007130 
#    y 0.000000 1.832470 0.000000 
#    z -0.007130 0.000000 1.818150 
# 
# From -- ./inp_files/273220.got.cif
#   From: 2010.06.25/outbox.cif.g09.slc.cpg/sg15_137_cif.got.tgz:273220.got - 2010.06.28 07:06:18.
