data_PCOD8150904
_publ_section_title
;
Structure prediction by ZEFSAII (Michael W. Deem and Ramdas Pophale) SiO2 
 PCOD8150904
Probable space group: C 2/C
;
_chemical_formula_sum "Si O2"
_cell_formula_units_Z 56
_cell_length_a 11.448460
_cell_length_b 24.539175
_cell_length_c 9.146656
_cell_angle_alpha 90.000000
_cell_angle_beta 77.242943
_cell_angle_gamma 90.000000
_cell_volume 2506.191982
_symmetry_space_group_name_H-M "C 2/C"
_symmetry_group_IT_number 15
_symmetry_cell_setting 'monoclinic'
loop_
_space_group_symop_operation_xyz
x,y,z
-x,y,1/2-z
-x,-y,-z
x,-y,1/2+z
1/2+x,1/2+y,z
1/2-x,1/2+y,1/2-z
1/2-x,1/2-y,-z
1/2+x,1/2-y,1/2+z
loop_
_atom_site_type_symbol
_atom_site_label
_atom_site_fract_x
_atom_site_fract_y
_atom_site_fract_z
Si Si1 0.364888 0.513438 0.988802
Si Si2 0.298451 0.908619 0.507952
Si Si3 0.682534 0.819711 0.405156
Si Si4 0.500000 0.423553 0.250000
Si Si5 0.944687 0.213917 0.114033
Si Si6 0.000000 0.618271 0.750000
Si Si7 0.630226 0.338409 0.377250
Si Si8 0.236569 0.118415 0.338944
O O1 0.281624 0.461746 0.992379
O O2 0.304656 0.557715 0.109589
O O3 0.500000 0.500000 0.000000
O O4 0.382706 0.540690 0.823362
O O5 0.422515 0.918467 0.385258
O O6 0.234383 0.855877 0.457852
O O7 0.317689 0.891852 0.671927
O O8 0.648047 0.756285 0.433461
O O9 0.585101 0.845379 0.325749
O O10 0.814592 0.821323 0.294936
O O11 0.684374 0.852733 0.556923
O O12 0.537258 0.387835 0.379113
O O13 0.878211 0.156527 0.163373
O O14 0.000000 0.235780 0.250000
O O15 0.054791 0.210012 0.970000
#
# Coordination Sequence:
#
# PCOD8150904 Si02
#       8
#     8   8   8   4   8   4   8   8
#     4  12  23  40  72 109 143 182 232 294 371 424
#     4  11  25  44  70 103 142 189 235 295 358 430
#     4  11  25  46  71  99 142 196 238 293 357 423
#     4  12  20  38  66 103 141 180 222 286 358 410
#     4  12  23  42  72 110 141 187 238 291 364 423
#     4  10  26  50  70  97 145 196 240 294 358 422
#     4  11  22  42  68  99 147 182 228 294 352 420
#     4  12  25  43  70 107 144 178 241 301 347 434
#
# _framework density 22.344656000000001
#
# number of rings (size 3 to 8) (size 9 to 14) (size 15 to 20)
#    0.000    0.571    6.429    1.286    0.000    2.286 
#    0.000    4.286    0.000    0.000    0.000    0.000 
#    0.000    0.000    0.000    0.000    0.000    0.000 
#
# Total GULP energy -347131.946608 kJ/mol
# GULP energy per Si atom -12397.569522 kJ/mol
# Density = 2.229380 g / cm^3
# Si number density = 22.344656 Si / 1000 Ang^3
#
#
#
# Elastic Constant Matrix: (Units=GPa)
#
#
# Indices 1 2 3 4 5 6 
#
# 1 89.1241 37.6739 59.4425 0.0000 -9.0621 0.0000
# 2 37.6739 110.9296 60.1992 0.0000 -13.6203 0.0000
# 3 59.4425 60.1992 181.7561 0.0000 -21.5561 0.0000
# 4 0.0000 0.0000 0.0000 25.4650 0.0000 -1.0695
# 5 -9.0621 -13.6203 -21.5561 0.0000 45.9050 0.0000
# 6 0.0000 0.0000 0.0000 -1.0695 0.0000 34.0341
#
#
#
# Elastic Compliance Matrix: (Units=1/GPa)
#
#
# Indices 1 2 3 4 5 6 
#
# 1 0.015125 -0.002971 -0.003932 0.000000 0.000258 0.000000
# 2 -0.002971 0.011692 -0.002710 0.000000 0.001610 0.000000
# 3 -0.003932 -0.002710 0.007940 0.000000 0.002148 0.000000
# 4 0.000000 0.000000 0.000000 0.039322 0.000000 0.001236
# 5 0.000258 0.001610 0.002148 0.000000 0.023322 0.000000
# 6 0.000000 0.000000 0.000000 0.001236 0.000000 0.029421
#
#
# Mechanical properties :
#
#
# Convention : Reuss Voigt Hill
#
# Bulk Modulus (GPa) = 64.38674 77.38235 70.88455
# Shear Modulus (GPa) = 33.06346 36.04709 34.55528
#
# Velocity S-wave (km/s) = 3.85086 4.02086 3.93678
# Velocity P-wave (km/s) = 6.97496 7.50086 7.24268
#
# Compressibility (1/GPa) = 0.01553115
#
# Stress axis : x y z
#
# Youngs Moduli (GPa) = 66.11601 85.52778 125.94364
#
# Poissons Ratio (x) = 0.25413 0.49519
# Poissons Ratio (y) = 0.19645 0.34128
# Poissons Ratio (z) = 0.25996 0.23176
#
# Static dielectric constant tensor:
#      x y z
#    x 3.933280 0.000000 -0.139400 
#    y 0.000000 4.024590 0.000000 
#    z -0.139400 0.000000 4.459620 
# 
# 
# High freq. dielectric constant tensor:
#      x y z
#    x 1.867200 0.000000 0.002570 
#    y 0.000000 1.875670 0.000000 
#    z 0.002570 0.000000 1.897360 
# 
# From -- ./inp_files/34258.got.cif
#   From: 2010.06.25/outbox.cif.g09.slc.cpg/sg15_18_cif.got.tgz:34258.got - 2010.06.28 07:06:18.
