data_PCOD8150956
_publ_section_title
;
Structure prediction by ZEFSAII (Michael W. Deem and Ramdas Pophale) SiO2 
 PCOD8150956
Probable space group: C 2/C
;
_chemical_formula_sum "Si O2"
_cell_formula_units_Z 56
_cell_length_a 14.736249
_cell_length_b 22.128120
_cell_length_c 14.223599
_cell_angle_alpha 90.000000
_cell_angle_beta 38.322363
_cell_angle_gamma 90.000000
_cell_volume 2876.023281
_symmetry_space_group_name_H-M "C 2/C"
_symmetry_group_IT_number 15
_symmetry_cell_setting 'monoclinic'
loop_
_space_group_symop_operation_xyz
x,y,z
-x,y,1/2-z
-x,-y,-z
x,-y,1/2+z
1/2+x,1/2+y,z
1/2-x,1/2+y,1/2-z
1/2-x,1/2-y,-z
1/2+x,1/2-y,1/2+z
loop_
_atom_site_type_symbol
_atom_site_label
_atom_site_fract_x
_atom_site_fract_y
_atom_site_fract_z
Si Si1 0.235145 0.140068 0.831005
Si Si2 0.826274 0.094899 0.807715
Si Si3 0.161158 0.094848 0.496353
Si Si4 0.150035 0.965009 0.681499
Si Si5 0.103518 0.143548 0.352234
Si Si6 0.848015 0.245299 0.329230
Si Si7 0.669771 0.030001 0.631800
O O1 0.248264 0.139317 0.706723
O O2 0.345437 0.191264 0.777183
O O3 0.296995 0.075005 0.809956
O O4 0.070274 0.156238 0.998646
O O5 0.990114 0.080947 0.638991
O O6 0.764579 0.026428 0.857911
O O7 0.802369 0.124649 0.930872
O O8 0.183723 0.140670 0.389553
O O9 0.254252 0.033984 0.406225
O O10 0.123718 0.922217 0.790649
O O11 0.258741 0.935683 0.516230
O O12 0.000000 0.981601 0.750000
O O13 0.185915 0.192979 0.220255
O O14 0.750000 0.250000 0.500000
O O15 0.000000 0.228243 0.250000
O O16 0.500000 0.019225 0.750000
#
# Coordination Sequence:
#
# PCOD8150956 Si02
#       7
#     8   8   8   8   8   8   8
#     4  11  21  36  59  84 114 154 192 233 285 333
#     4   9  17  34  60  88 111 143 195 239 268 337
#     4   9  18  36  57  86 116 146 189 234 279 338
#     4  11  17  33  57  87 114 145 189 227 277 343
#     4  11  21  36  62  83 110 155 197 231 280 340
#     4  12  24  41  57  85 116 146 191 237 281 334
#     4  11  21  34  54  90 125 149 178 233 294 340
#
# _framework density 19.471329999999998
#
# number of rings (size 3 to 8) (size 9 to 14) (size 15 to 20)
#    0.000    1.429    5.714    2.571    0.000    2.286 
#    0.000   10.000    0.000    0.000    0.000    0.000 
#    0.000    0.000    0.000    0.000    0.000    0.000 
#
# Total GULP energy -346878.399333 kJ/mol
# GULP energy per Si atom -12388.514262 kJ/mol
# Density = 1.942701 g / cm^3
# Si number density = 19.471330 Si / 1000 Ang^3
#
#
#
# Elastic Constant Matrix: (Units=GPa)
#
#
# Indices 1 2 3 4 5 6 
#
# 1 104.0836 49.2980 44.0256 -0.0192 35.8306 0.0138
# 2 49.2980 71.7638 29.5163 -0.0156 22.3653 0.0159
# 3 44.0256 29.5163 69.2208 -0.0408 23.0890 0.0354
# 4 -0.0192 -0.0156 -0.0408 25.4263 0.0163 5.5167
# 5 35.8306 22.3653 23.0890 0.0163 37.7472 -0.0099
# 6 0.0138 0.0159 0.0354 5.5167 -0.0099 28.3865
#
#
#
# Elastic Compliance Matrix: (Units=1/GPa)
#
#
# Indices 1 2 3 4 5 6 
#
# 1 0.019061 -0.007670 -0.005444 0.000008 -0.010219 -0.000003
# 2 -0.007670 0.021618 -0.003136 0.000006 -0.003610 -0.000007
# 3 -0.005444 -0.003136 0.021235 0.000039 -0.005964 -0.000032
# 4 0.000008 0.000006 0.000039 0.041061 -0.000055 -0.007980
# 5 -0.010219 -0.003610 -0.005964 -0.000055 0.041979 0.000040
# 6 -0.000003 -0.000007 -0.000032 -0.007980 0.000040 0.036779
#
#
# Mechanical properties :
#
#
# Convention : Reuss Voigt Hill
#
# Bulk Modulus (GPa) = 33.99617 54.52755 44.26186
# Shear Modulus (GPa) = 22.31762 26.46054 24.38908
#
# Velocity S-wave (km/s) = 3.38920 3.69039 3.54300
# Velocity P-wave (km/s) = 5.72827 6.79878 6.28636
#
# Compressibility (1/GPa) = 0.02941508
#
# Stress axis : x y z
#
# Youngs Moduli (GPa) = 52.46305 46.25675 47.09128
#
# Poissons Ratio (x) = 0.35480 0.25637
# Poissons Ratio (y) = 0.40240 0.14766
# Poissons Ratio (z) = 0.28561 0.14505
#
# Static dielectric constant tensor:
#      x y z
#    x 3.783490 -0.000010 0.411760 
#    y -0.000010 3.303790 -0.000010 
#    z 0.411760 -0.000010 3.577480 
# 
# 
# High freq. dielectric constant tensor:
#      x y z
#    x 1.755440 0.000000 0.027750 
#    y 0.000000 1.730080 0.000000 
#    z 0.027750 0.000000 1.751580 
# 
# From -- ./inp_files/51564.got.cif
#   From: 2010.06.25/outbox.cif.g09.slc.cpg/sg15_26_cif.got.tgz:51564.got - 2010.06.28 07:06:18.
