data_PCOD8150878
_publ_section_title
;
Structure prediction by ZEFSAII (Michael W. Deem and Ramdas Pophale) SiO2 
 PCOD8150878
Probable space group: C 2/C
;
_chemical_formula_sum "Si O2"
_cell_formula_units_Z 52
_cell_length_a 13.827253
_cell_length_b 5.881056
_cell_length_c 27.287878
_cell_angle_alpha 90.000000
_cell_angle_beta 99.080923
_cell_angle_gamma 90.000000
_cell_volume 2191.206568
_symmetry_space_group_name_H-M "C 2/C"
_symmetry_group_IT_number 15
_symmetry_cell_setting 'monoclinic'
loop_
_space_group_symop_operation_xyz
x,y,z
-x,y,1/2-z
-x,-y,-z
x,-y,1/2+z
1/2+x,1/2+y,z
1/2-x,1/2+y,1/2-z
1/2-x,1/2-y,-z
1/2+x,1/2-y,1/2+z
loop_
_atom_site_type_symbol
_atom_site_label
_atom_site_fract_x
_atom_site_fract_y
_atom_site_fract_z
Si Si1 0.706531 0.167213 0.908686
Si Si2 0.068301 0.019044 0.936412
Si Si3 0.701770 0.166218 0.732049
Si Si4 0.954009 0.361076 0.644068
Si Si5 0.134846 0.146415 0.041437
Si Si6 0.840586 0.515410 0.875342
Si Si7 0.000000 0.496570 0.250000
O O1 0.639481 0.304710 0.941457
O O2 0.771634 0.297363 0.873573
O O3 0.637507 0.026121 0.867264
O O4 0.774924 0.025201 0.950243
O O5 0.076758 0.123950 0.882808
O O6 0.105416 0.191271 0.982350
O O7 0.956678 0.955468 0.936646
O O8 0.751376 0.410444 0.750872
O O9 0.695979 0.173812 0.672320
O O10 0.592440 0.165759 0.745827
O O11 0.046364 0.454414 0.621703
O O12 0.979456 0.332352 0.703218
O O13 0.170363 0.370741 0.072058
#
# Coordination Sequence:
#
# PCOD8150878 Si02
#       7
#     8   8   8   8   8   8   4
#     4  12  24  43  73  99 139 188 231 295 360 436
#     4  11  25  44  72 105 139 187 235 300 362 437
#     4  11  27  48  76 110 147 197 250 307 371 441
#     4  11  24  47  69 100 140 182 242 289 365 430
#     4  11  25  45  70 103 145 182 239 296 362 438
#     4  11  25  44  71 103 143 183 237 300 356 436
#     4  10  26  48  70 106 146 194 240 318 364 442
#
# _framework density 23.731217999999998
#
# number of rings (size 3 to 8) (size 9 to 14) (size 15 to 20)
#    0.000    0.923    3.077    2.308    6.462    4.923 
#    0.000    0.000    0.000    0.000    0.000    0.000 
#    0.000    0.000    0.000    0.000    0.000    0.000 
#
# Total GULP energy -322261.108848 kJ/mol
# GULP energy per Si atom -12394.658033 kJ/mol
# Density = 2.367720 g / cm^3
# Si number density = 23.731218 Si / 1000 Ang^3
#
#
#
# Elastic Constant Matrix: (Units=GPa)
#
#
# Indices 1 2 3 4 5 6 
#
# 1 137.6729 45.7638 35.5590 0.0000 20.7795 0.0000
# 2 45.7638 92.4950 28.3976 0.0000 12.2086 0.0000
# 3 35.5590 28.3976 112.5535 0.0000 1.3688 0.0000
# 4 0.0000 0.0000 0.0000 22.7657 0.0000 -5.4352
# 5 20.7795 12.2086 1.3688 0.0000 30.1089 0.0000
# 6 0.0000 0.0000 0.0000 -5.4352 0.0000 29.3871
#
#
#
# Elastic Compliance Matrix: (Units=1/GPa)
#
#
# Indices 1 2 3 4 5 6 
#
# 1 0.009764 -0.003483 -0.002142 0.000000 -0.005229 0.000000
# 2 -0.003483 0.013641 -0.002305 0.000000 -0.003023 0.000000
# 3 -0.002142 -0.002305 0.010119 0.000000 0.001953 0.000000
# 4 0.000000 0.000000 0.000000 0.045955 0.000000 0.008499
# 5 -0.005229 -0.003023 0.001953 0.000000 0.037958 0.000000
# 6 0.000000 0.000000 0.000000 0.008499 0.000000 0.035600
#
#
# Mechanical properties :
#
#
# Convention : Reuss Voigt Hill
#
# Bulk Modulus (GPa) = 56.61084 62.46247 59.53665
# Shear Modulus (GPa) = 28.60641 31.98575 30.29608
#
# Velocity S-wave (km/s) = 3.47570 3.67527 3.57688
# Velocity P-wave (km/s) = 6.32567 6.66244 6.49624
#
# Compressibility (1/GPa) = 0.01766446
#
# Stress axis : x y z
#
# Youngs Moduli (GPa) = 102.41780 73.30737 98.82209
#
# Poissons Ratio (x) = 0.25533 0.21171
# Poissons Ratio (y) = 0.35672 0.22774
# Poissons Ratio (z) = 0.21942 0.16894
#
# Static dielectric constant tensor:
#      x y z
#    x 4.589360 0.000000 0.197860 
#    y 0.000000 4.138180 0.000000 
#    z 0.197860 0.000000 4.333140 
# 
# 
# High freq. dielectric constant tensor:
#      x y z
#    x 1.971340 0.000000 0.006570 
#    y 0.000000 1.916760 0.000000 
#    z 0.006570 0.000000 1.948510 
# 
# From -- ./inp_files/312400.got.cif
#   From: 2010.06.25/outbox.cif.g09.slc.cpg/sg15_157_cif.got.tgz:312400.got - 2010.06.28 07:06:18.
