data_PCOD8150743
_publ_section_title
;
Structure prediction by ZEFSAII (Michael W. Deem and Ramdas Pophale) SiO2 
 PCOD8150743
Probable space group: C 2/C
;
_chemical_formula_sum "Si O2"
_cell_formula_units_Z 40
_cell_length_a 13.506205
_cell_length_b 12.974864
_cell_length_c 16.847548
_cell_angle_alpha 90.000000
_cell_angle_beta 147.721941
_cell_angle_gamma 90.000000
_cell_volume 1576.657603
_symmetry_space_group_name_H-M "C 2/C"
_symmetry_group_IT_number 15
_symmetry_cell_setting 'monoclinic'
loop_
_space_group_symop_operation_xyz
x,y,z
-x,y,1/2-z
-x,-y,-z
x,-y,1/2+z
1/2+x,1/2+y,z
1/2-x,1/2+y,1/2-z
1/2-x,1/2-y,-z
1/2+x,1/2-y,1/2+z
loop_
_atom_site_type_symbol
_atom_site_label
_atom_site_fract_x
_atom_site_fract_y
_atom_site_fract_z
Si Si1 0.295169 0.203547 0.750660
Si Si2 0.302740 0.818447 0.958728
Si Si3 0.794488 0.993955 0.887046
Si Si4 0.198954 0.954166 0.424114
Si Si5 0.971155 0.314655 0.822829
O O1 0.487847 0.207491 0.928653
O O2 0.319518 0.290222 0.699945
O O3 0.300409 0.098981 0.703603
O O4 0.115066 0.217112 0.686734
O O5 0.250000 0.750000 0.000000
O O6 0.280814 0.940871 0.945880
O O7 0.681943 0.902743 0.769361
O O8 0.802674 0.976298 0.984914
O O9 0.000000 0.000000 0.000000
O O10 0.000000 0.927366 0.250000
O O11 0.336121 0.854820 0.506037
O O12 0.000000 0.284800 0.750000
#
# Coordination Sequence:
#
# PCOD8150743 Si02
#       5
#     8   8   8   8   8
#     4  12  25  45  74 108 147 196 245 311 373 450
#     4  12  24  40  71 111 145 184 250 312 378 436
#     4  11  24  46  72 106 148 198 244 305 376 447
#     4  11  24  45  74 107 151 195 247 315 373 444
#     4  10  25  49  75 106 150 202 252 305 377 449
#
# _framework density 25.370124000000001
#
# number of rings (size 3 to 8) (size 9 to 14) (size 15 to 20)
#    0.000    0.800    4.000    3.000    2.800    2.400 
#    0.000   10.000    0.000    0.000    0.000    0.000 
#    0.000    0.000    0.000    0.000    0.000    0.000 
#
# Total GULP energy -247848.147995 kJ/mol
# GULP energy per Si atom -12392.407400 kJ/mol
# Density = 2.531238 g / cm^3
# Si number density = 25.370124 Si / 1000 Ang^3
#
#
#
# Elastic Constant Matrix: (Units=GPa)
#
#
# Indices 1 2 3 4 5 6 
#
# 1 89.3892 14.4418 18.9167 0.0023 18.8016 0.0009
# 2 14.4418 74.1879 27.3912 -0.0014 7.7920 -0.0002
# 3 18.9167 27.3912 147.6726 0.0004 24.1700 0.0006
# 4 0.0023 -0.0014 0.0004 31.9559 -0.0005 9.3540
# 5 18.8016 7.7920 24.1700 -0.0005 38.9093 0.0003
# 6 0.0009 -0.0002 0.0006 9.3540 0.0003 50.3086
#
#
#
# Elastic Compliance Matrix: (Units=1/GPa)
#
#
# Indices 1 2 3 4 5 6 
#
# 1 0.012721 -0.001747 -0.000397 -0.000001 -0.005550 0.000000
# 2 -0.001747 0.014776 -0.002417 0.000001 -0.000614 0.000000
# 3 -0.000397 -0.002417 0.007971 0.000000 -0.004275 0.000000
# 4 -0.000001 0.000001 0.000000 0.033094 0.000001 -0.006153
# 5 -0.005550 -0.000614 -0.004275 0.000001 0.031162 0.000000
# 6 0.000000 0.000000 0.000000 -0.006153 0.000000 0.021021
#
#
# Mechanical properties :
#
#
# Convention : Reuss Voigt Hill
#
# Bulk Modulus (GPa) = 37.95541 48.08322 43.01932
# Shear Modulus (GPa) = 36.06271 40.93478 38.49875
#
# Velocity S-wave (km/s) = 3.77432 4.02120 3.89972
# Velocity P-wave (km/s) = 5.82985 6.36820 6.10496
#
# Compressibility (1/GPa) = 0.02634670
#
# Stress axis : x y z
#
# Youngs Moduli (GPa) = 78.61206 67.67730 125.46101
#
# Poissons Ratio (x) = 0.11821 0.04982
# Poissons Ratio (y) = 0.13731 0.30318
# Poissons Ratio (z) = 0.03121 0.16354
#
# Static dielectric constant tensor:
#      x y z
#    x 4.501730 0.000000 0.339020 
#    y 0.000000 4.717070 0.000000 
#    z 0.339020 0.000000 5.008400 
# 
# 
# High freq. dielectric constant tensor:
#      x y z
#    x 2.012680 0.000000 0.005270 
#    y 0.000000 2.022720 0.000000 
#    z 0.005270 0.000000 2.031200 
# 
# From -- ./inp_files/205825.got.cif
#   From: 2010.06.25/outbox.cif.g09.slc.cpg/sg15_103_cif.got.tgz:205825.got - 2010.06.28 07:06:18.
