data_PCOD8150914
_publ_section_title
;
Structure prediction by ZEFSAII (Michael W. Deem and Ramdas Pophale) SiO2 
 PCOD8150914
Probable space group: C 2/C
;
_chemical_formula_sum "Si O2"
_cell_formula_units_Z 52
_cell_length_a 24.172393
_cell_length_b 11.748204
_cell_length_c 8.681498
_cell_angle_alpha 90.000000
_cell_angle_beta 112.456485
_cell_angle_gamma 90.000000
_cell_volume 2278.440112
_symmetry_space_group_name_H-M "C 2/C"
_symmetry_group_IT_number 15
_symmetry_cell_setting 'monoclinic'
loop_
_space_group_symop_operation_xyz
x,y,z
-x,y,1/2-z
-x,-y,-z
x,-y,1/2+z
1/2+x,1/2+y,z
1/2-x,1/2+y,1/2-z
1/2-x,1/2-y,-z
1/2+x,1/2-y,1/2+z
loop_
_atom_site_type_symbol
_atom_site_label
_atom_site_fract_x
_atom_site_fract_y
_atom_site_fract_z
Si Si1 0.255736 0.116705 0.019013
Si Si2 0.399917 0.680814 0.927876
Si Si3 0.182980 0.020742 0.220188
Si Si4 0.411047 0.891441 0.358178
Si Si5 0.820034 0.244488 0.102695
Si Si6 0.393195 0.122092 0.194732
Si Si7 0.500000 0.255716 0.750000
O O1 0.207148 0.073285 0.089025
O O2 0.323637 0.088169 0.128357
O O3 0.250000 0.250000 0.000000
O O4 0.237424 0.055951 0.841125
O O5 0.376443 0.554949 0.865101
O O6 0.409860 0.754934 0.783715
O O7 0.350397 0.754099 0.968128
O O8 0.459277 0.666588 0.095069
O O9 0.162767 0.122021 0.310225
O O10 0.344729 0.845662 0.237935
O O11 0.418510 0.877365 0.548744
O O12 0.460134 0.819340 0.320782
O O13 0.423372 0.022654 0.327783
O O14 0.750000 0.250000 0.000000
#
# Coordination Sequence:
#
# PCOD8150914 Si02
#       7
#     8   8   8   8   8   8   4
#     4  12  24  41  68 109 153 185 230 294 371 462
#     4  11  25  45  68 101 138 195 239 300 360 432
#     4  12  24  42  69 101 149 189 231 290 364 438
#     4  11  25  43  72 103 141 192 242 314 362 437
#     4  11  23  42  66  99 143 186 232 288 366 432
#     4  12  24  42  71 109 145 184 249 296 382 437
#     4  10  26  52  70 100 146 190 264 306 368 430
#
# _framework density 22.822633
#
# number of rings (size 3 to 8) (size 9 to 14) (size 15 to 20)
#    0.000    0.615    3.077    5.538    2.154    3.077 
#    0.000    3.077    0.000    0.000    0.000    0.000 
#    0.000    0.000    0.000    0.000    0.000    0.000 
#
# Total GULP energy -322481.100367 kJ/mol
# GULP energy per Si atom -12403.119245 kJ/mol
# Density = 2.277069 g / cm^3
# Si number density = 22.822633 Si / 1000 Ang^3
#
#
#
# Elastic Constant Matrix: (Units=GPa)
#
#
# Indices 1 2 3 4 5 6 
#
# 1 88.9802 25.3842 50.9926 0.0000 1.6700 0.0000
# 2 25.3842 144.1239 59.0179 0.0000 -6.7903 0.0000
# 3 50.9926 59.0179 143.0705 0.0000 -8.6703 0.0000
# 4 0.0000 0.0000 0.0000 49.6085 0.0000 1.3841
# 5 1.6700 -6.7903 -8.6703 0.0000 44.6312 0.0000
# 6 0.0000 0.0000 0.0000 1.3841 0.0000 26.0035
#
#
#
# Elastic Compliance Matrix: (Units=1/GPa)
#
#
# Indices 1 2 3 4 5 6 
#
# 1 0.014264 -0.000560 -0.004948 0.000000 -0.001580 0.000000
# 2 -0.000560 0.008387 -0.003219 0.000000 0.000672 0.000000
# 3 -0.004948 -0.003219 0.010183 0.000000 0.001674 0.000000
# 4 0.000000 0.000000 0.000000 0.020188 0.000000 -0.001075
# 5 -0.001580 0.000672 0.001674 0.000000 0.022892 0.000000
# 6 0.000000 0.000000 0.000000 -0.001075 0.000000 0.038514
#
#
# Mechanical properties :
#
#
# Convention : Reuss Voigt Hill
#
# Bulk Modulus (GPa) = 65.03085 71.88490 68.45787
# Shear Modulus (GPa) = 36.49383 40.10062 38.29723
#
# Velocity S-wave (km/s) = 4.00311 4.19627 4.10083
# Velocity P-wave (km/s) = 7.06558 7.41915 7.24452
#
# Compressibility (1/GPa) = 0.01537732
#
# Stress axis : x y z
#
# Youngs Moduli (GPa) = 70.10737 119.23058 98.20565
#
# Poissons Ratio (x) = 0.06681 0.48597
# Poissons Ratio (y) = 0.03928 0.31616
# Poissons Ratio (z) = 0.34693 0.38384
#
# Static dielectric constant tensor:
#      x y z
#    x 4.278030 0.000000 0.129240 
#    y 0.000000 4.303830 0.000000 
#    z 0.129240 0.000000 4.470670 
# 
# 
# High freq. dielectric constant tensor:
#      x y z
#    x 1.891970 0.000000 -0.006130 
#    y 0.000000 1.902920 0.000000 
#    z -0.006130 0.000000 1.916260 
# 
# From -- ./inp_files/65212.got.cif
#   From: 2010.06.25/outbox.cif.g09.slc.cpg/sg15_33_cif.got.tgz:65212.got - 2010.06.28 07:06:18.
