data_PCOD8150408
_publ_section_title
;
Structure prediction by ZEFSAII (Michael W. Deem and Ramdas Pophale) SiO2 
 PCOD8150408
Probable space group: C 2/C
;
_chemical_formula_sum "Si O2"
_cell_formula_units_Z 24
_cell_length_a 9.113631
_cell_length_b 9.751217
_cell_length_c 16.121028
_cell_angle_alpha 90.000000
_cell_angle_beta 146.032564
_cell_angle_gamma 90.000000
_cell_volume 800.457870
_symmetry_space_group_name_H-M "C 2/C"
_symmetry_group_IT_number 15
_symmetry_cell_setting 'monoclinic'
loop_
_space_group_symop_operation_xyz
x,y,z
-x,y,1/2-z
-x,-y,-z
x,-y,1/2+z
1/2+x,1/2+y,z
1/2-x,1/2+y,1/2-z
1/2-x,1/2-y,-z
1/2+x,1/2-y,1/2+z
loop_
_atom_site_type_symbol
_atom_site_label
_atom_site_fract_x
_atom_site_fract_y
_atom_site_fract_z
Si Si1 0.680997 0.467342 0.507284
Si Si2 0.898176 0.646113 0.481931
Si Si3 0.135686 0.731276 0.208554
O O1 0.500000 0.500000 0.500000
O O2 0.541302 0.368030 0.375366
O O3 0.718142 0.616408 0.478907
O O4 0.966164 0.400099 0.660519
O O5 0.138277 0.747906 0.617696
O O6 0.000000 0.500000 0.500000
O O7 0.752705 0.711593 0.333514
#
# Coordination Sequence:
#
# PCOD8150408 Si02
#       3
#     8   8   8
#     4  10  24  46  77 111 147 194 257 322 379 447
#     4  10  24  48  75 108 154 203 252 313 385 462
#     4  10  24  47  75 107 150 200 251 312 386 460
#
# _framework density 29.982839999999999
#
# number of rings (size 3 to 8) (size 9 to 14) (size 15 to 20)
#    0.000    2.000    0.000    0.000    0.000   22.667 
#    0.000   16.667    0.000    0.000    0.000    0.000 
#    0.000    0.000    0.000    0.000    0.000    0.000 
#
# Total GULP energy -148765.965406 kJ/mol
# GULP energy per Si atom -12397.163784 kJ/mol
# Density = 2.991460 g / cm^3
# Si number density = 29.982840 Si / 1000 Ang^3
#
#
#
# Elastic Constant Matrix: (Units=GPa)
#
#
# Indices 1 2 3 4 5 6 
#
# 1 254.0525 43.3611 59.0576 0.0001 -8.3302 0.0000
# 2 43.3611 120.3302 41.9539 0.0001 7.6538 0.0001
# 3 59.0576 41.9539 76.3155 0.0005 -37.2626 0.0003
# 4 0.0001 0.0001 0.0005 54.2790 0.0002 8.3310
# 5 -8.3302 7.6538 -37.2626 0.0002 39.6717 0.0001
# 6 0.0000 0.0001 0.0003 8.3310 0.0001 59.5154
#
#
#
# Elastic Compliance Matrix: (Units=1/GPa)
#
#
# Indices 1 2 3 4 5 6 
#
# 1 0.005419 0.001433 -0.008424 0.000000 -0.007051 0.000000
# 2 0.001433 0.016935 -0.021920 0.000000 -0.023555 0.000000
# 3 -0.008424 -0.021920 0.060722 -0.000001 0.059495 0.000000
# 4 0.000000 0.000000 -0.000001 0.018828 -0.000001 -0.002636
# 5 -0.007051 -0.023555 0.059495 -0.000001 0.084153 0.000000
# 6 0.000000 0.000000 0.000000 -0.002636 0.000000 0.017171
#
#
# Mechanical properties :
#
#
# Convention : Reuss Voigt Hill
#
# Bulk Modulus (GPa) = 39.59729 82.16038 60.87884
# Shear Modulus (GPa) = 18.55507 51.11491 34.83499
#
# Velocity S-wave (km/s) = 2.49038 4.13341 3.41226
# Velocity P-wave (km/s) = 4.63731 7.08816 5.98944
#
# Compressibility (1/GPa) = 0.02525425
#
# Stress axis : x y z
#
# Youngs Moduli (GPa) = 184.54859 59.04934 16.46842
#
# Poissons Ratio (x) = -0.08461 0.13872
# Poissons Ratio (y) = -0.26442 0.36099
# Poissons Ratio (z) = 1.55456 1.29436
#
# Static dielectric constant tensor:
#      x y z
#    x 6.969310 0.000000 0.005170 
#    y 0.000000 6.630220 0.000000 
#    z 0.005170 0.000000 5.200700 
# 
# 
# High freq. dielectric constant tensor:
#      x y z
#    x 2.255790 0.000000 -0.012670 
#    y 0.000000 2.248670 0.000000 
#    z -0.012670 0.000000 2.195730 
# 
# From -- ./inp_files/187522.got.cif
#   From: 2010.06.25/outbox.cif.g09.slc.cpg/sg15_94_cif.got.tgz:187522.got - 2010.06.28 07:06:18.
