data_PCOD8150369
_publ_section_title
;
Structure prediction by ZEFSAII (Michael W. Deem and Ramdas Pophale) SiO2 
 PCOD8150369
Probable space group: C 2/C
;
_chemical_formula_sum "Si O2"
_cell_formula_units_Z 32
_cell_length_a 18.080283
_cell_length_b 8.887875
_cell_length_c 10.587136
_cell_angle_alpha 90.000000
_cell_angle_beta 132.291660
_cell_angle_gamma 90.000000
_cell_volume 1258.503214
_symmetry_space_group_name_H-M "C 2/C"
_symmetry_group_IT_number 15
_symmetry_cell_setting 'monoclinic'
loop_
_space_group_symop_operation_xyz
x,y,z
-x,y,1/2-z
-x,-y,-z
x,-y,1/2+z
1/2+x,1/2+y,z
1/2-x,1/2+y,1/2-z
1/2-x,1/2-y,-z
1/2+x,1/2-y,1/2+z
loop_
_atom_site_type_symbol
_atom_site_label
_atom_site_fract_x
_atom_site_fract_y
_atom_site_fract_z
Si Si1 0.358796 0.617742 0.397958
Si Si2 0.613394 0.818641 0.840900
Si Si3 0.555382 0.700389 0.512714
Si Si4 0.692657 0.877106 0.510277
O O1 0.332896 0.710281 0.495064
O O2 0.436134 0.713192 0.398367
O O3 0.415062 0.465132 0.502736
O O4 0.258373 0.580450 0.208135
O O5 0.500000 0.850188 0.750000
O O6 0.616887 0.736167 0.710916
O O7 0.673328 0.976411 0.902801
O O8 0.586067 0.816978 0.438935
O O9 0.750000 0.750000 0.500000
#
# Coordination Sequence:
#
# PCOD8150369 Si02
#       4
#     8   8   8   8
#     4  10  24  46  71 101 133 186 230 285 349 402
#     4  10  25  47  73 100 140 186 232 288 346 410
#     4  10  25  47  71  98 143 177 232 290 340 414
#     4  12  28  40  69 105 138 186 231 280 346 413
#
# _framework density 25.427029999999998
#
# number of rings (size 3 to 8) (size 9 to 14) (size 15 to 20)
#    0.000    1.500    0.000    1.500   14.000    4.000 
#    0.000    0.000    0.000    0.000    0.000    0.000 
#    0.000    0.000    0.000    0.000    0.000    0.000 
#
# Total GULP energy -198493.025033 kJ/mol
# GULP energy per Si atom -12405.814065 kJ/mol
# Density = 2.536916 g / cm^3
# Si number density = 25.427030 Si / 1000 Ang^3
#
#
#
# Elastic Constant Matrix: (Units=GPa)
#
#
# Indices 1 2 3 4 5 6 
#
# 1 56.1302 25.8476 -8.7582 0.0000 -15.1342 0.0000
# 2 25.8476 136.6371 21.8220 0.0000 -12.5624 0.0000
# 3 -8.7582 21.8220 59.8657 0.0000 4.6138 0.0000
# 4 0.0000 0.0000 0.0000 44.1734 0.0000 0.5724
# 5 -15.1342 -12.5624 4.6138 0.0000 34.2267 0.0000
# 6 0.0000 0.0000 0.0000 0.5724 0.0000 51.3217
#
#
#
# Elastic Compliance Matrix: (Units=1/GPa)
#
#
# Indices 1 2 3 4 5 6 
#
# 1 0.022533 -0.004217 0.004229 0.000000 0.007846 0.000000
# 2 -0.004217 0.008940 -0.004026 0.000000 0.001959 0.000000
# 3 0.004229 -0.004026 0.018957 0.000000 -0.002163 0.000000
# 4 0.000000 0.000000 0.000000 0.022641 0.000000 -0.000253
# 5 0.007846 0.001959 -0.002163 0.000000 0.033697 0.000000
# 6 0.000000 0.000000 0.000000 -0.000253 0.000000 0.019488
#
#
# Mechanical properties :
#
#
# Convention : Reuss Voigt Hill
#
# Bulk Modulus (GPa) = 23.58438 36.71732 30.15085
# Shear Modulus (GPa) = 33.68876 40.19246 36.94061
#
# Velocity S-wave (km/s) = 3.64389 3.98011 3.81571
# Velocity P-wave (km/s) = 5.19609 5.96602 5.59432
#
# Compressibility (1/GPa) = 0.04240094
#
# Stress axis : x y z
#
# Youngs Moduli (GPa) = 44.38000 111.86297 52.75049
#
# Poissons Ratio (x) = 0.47167 -0.22307
# Poissons Ratio (y) = 0.18713 0.21240
# Poissons Ratio (z) = -0.18767 0.45041
#
# Static dielectric constant tensor:
#      x y z
#    x 4.691110 0.000000 0.111030 
#    y 0.000000 4.444540 0.000000 
#    z 0.111030 0.000000 4.471380 
# 
# 
# High freq. dielectric constant tensor:
#      x y z
#    x 2.027800 0.000000 0.009040 
#    y 0.000000 2.011820 0.000000 
#    z 0.009040 0.000000 2.008900 
# 
# From -- ./inp_files/102391.got.cif
#   From: 2010.06.25/outbox.cif.g09.slc.cpg/sg15_52_cif.got.tgz:102391.got - 2010.06.28 07:06:18.
