data_PCOD8150519
_publ_section_title
;
Structure prediction by ZEFSAII (Michael W. Deem and Ramdas Pophale) SiO2 
 PCOD8150519
Probable space group: C 2/C
;
_chemical_formula_sum "Si O2"
_cell_formula_units_Z 36
_cell_length_a 22.694974
_cell_length_b 8.823030
_cell_length_c 12.205413
_cell_angle_alpha 90.000000
_cell_angle_beta 31.692050
_cell_angle_gamma 90.000000
_cell_volume 1283.960406
_symmetry_space_group_name_H-M "C 2/C"
_symmetry_group_IT_number 15
_symmetry_cell_setting 'monoclinic'
loop_
_space_group_symop_operation_xyz
x,y,z
-x,y,1/2-z
-x,-y,-z
x,-y,1/2+z
1/2+x,1/2+y,z
1/2-x,1/2+y,1/2-z
1/2-x,1/2-y,-z
1/2+x,1/2-y,1/2+z
loop_
_atom_site_type_symbol
_atom_site_label
_atom_site_fract_x
_atom_site_fract_y
_atom_site_fract_z
Si Si1 0.697558 0.494451 0.898679
Si Si2 0.500000 0.001316 0.750000
Si Si3 0.094385 0.761343 0.710010
Si Si4 0.953685 0.764421 0.475178
Si Si5 0.642098 0.724752 0.830920
O O1 0.727486 0.597662 0.742689
O O2 0.802437 0.389520 0.764350
O O3 0.669334 0.601860 0.046240
O O4 0.590457 0.389334 0.039068
O O5 0.547946 0.899873 0.575998
O O6 0.606467 0.099629 0.629036
O O7 0.042519 0.784069 0.581358
O O8 0.125388 0.750786 0.791174
O O9 0.082207 0.811211 0.308592
#
# Coordination Sequence:
#
# PCOD8150519 Si02
#       5
#     8   4   8   8   8
#     4  12  24  50  83 109 166 220 256 347 413 472
#     4  12  22  44  82 108 152 228 250 330 426 454
#     4  10  24  50  75 112 169 204 265 347 392 479
#     4  10  27  47  80 113 161 213 267 338 406 483
#     4  10  26  47  77 122 154 210 283 316 411 502
#
# _framework density 28.038250000000001
#
# number of rings (size 3 to 8) (size 9 to 14) (size 15 to 20)
#    1.333    0.000    2.222    1.333    6.222    0.000 
#    4.000    4.444    4.889    0.000    0.000    0.000 
#    0.000    0.000    0.000    0.000    0.000    0.000 
#
# Total GULP energy -223023.645570 kJ/mol
# GULP energy per Si atom -12390.202532 kJ/mol
# Density = 2.797443 g / cm^3
# Si number density = 28.038250 Si / 1000 Ang^3
#
#
#
# Elastic Constant Matrix: (Units=GPa)
#
#
# Indices 1 2 3 4 5 6 
#
# 1 87.5596 30.6154 52.7326 0.0000 12.4832 0.0000
# 2 30.6154 169.8755 64.1360 0.0000 3.3213 0.0000
# 3 52.7326 64.1360 64.3237 0.0000 -1.7800 0.0000
# 4 0.0000 0.0000 0.0000 51.3281 0.0000 0.0390
# 5 12.4832 3.3213 -1.7800 0.0000 36.3959 0.0000
# 6 0.0000 0.0000 0.0000 0.0390 0.0000 33.8465
#
#
#
# Elastic Compliance Matrix: (Units=1/GPa)
#
#
# Indices 1 2 3 4 5 6 
#
# 1 0.029812 0.006777 -0.031540 0.000000 -0.012386 0.000000
# 2 0.006777 0.011045 -0.016684 0.000000 -0.004148 0.000000
# 3 -0.031540 -0.016684 0.058458 0.000000 0.015199 0.000000
# 4 0.000000 0.000000 0.000000 0.019483 0.000000 -0.000022
# 5 -0.012386 -0.004148 0.015199 0.000000 0.032846 0.000000
# 6 0.000000 0.000000 0.000000 -0.000022 0.000000 0.029545
#
#
# Mechanical properties :
#
#
# Convention : Reuss Voigt Hill
#
# Bulk Modulus (GPa) = 60.89174 68.52521 64.70847
# Shear Modulus (GPa) = 18.54904 35.93241 27.24073
#
# Velocity S-wave (km/s) = 2.57488 3.58376 3.12036
# Velocity P-wave (km/s) = 5.53213 6.45115 6.00924
#
# Compressibility (1/GPa) = 0.01642259
#
# Stress axis : x y z
#
# Youngs Moduli (GPa) = 33.54383 90.53642 17.10620
#
# Poissons Ratio (x) = -0.61358 0.53953
# Poissons Ratio (y) = -0.22733 0.28540
# Poissons Ratio (z) = 1.05797 1.51049
#
# Static dielectric constant tensor:
#      x y z
#    x 5.053380 0.000000 0.195300 
#    y 0.000000 5.126850 0.000000 
#    z 0.195300 0.000000 4.627210 
# 
# 
# High freq. dielectric constant tensor:
#      x y z
#    x 2.145270 0.000000 0.015140 
#    y 0.000000 2.141650 0.000000 
#    z 0.015140 0.000000 2.109080 
# 
# From -- ./inp_files/121312.got.cif
#   From: 2010.06.25/outbox.cif.g09.slc.cpg/sg15_61_cif.got.tgz:121312.got - 2010.06.28 07:06:18.
