data_PCOD8150265
_publ_section_title
;
Structure prediction by ZEFSAII (Michael W. Deem and Ramdas Pophale) SiO2 
 PCOD8150265
Probable space group: C 2/C
;
_chemical_formula_sum "Si O2"
_cell_formula_units_Z 28
_cell_length_a 7.546709
_cell_length_b 12.232359
_cell_length_c 14.354979
_cell_angle_alpha 90.000000
_cell_angle_beta 111.490063
_cell_angle_gamma 90.000000
_cell_volume 1233.042223
_symmetry_space_group_name_H-M "C 2/C"
_symmetry_group_IT_number 15
_symmetry_cell_setting 'monoclinic'
loop_
_space_group_symop_operation_xyz
x,y,z
-x,y,1/2-z
-x,-y,-z
x,-y,1/2+z
1/2+x,1/2+y,z
1/2-x,1/2+y,1/2-z
1/2-x,1/2-y,-z
1/2+x,1/2-y,1/2+z
loop_
_atom_site_type_symbol
_atom_site_label
_atom_site_fract_x
_atom_site_fract_y
_atom_site_fract_z
Si Si1 0.277352 0.862990 0.451244
Si Si2 0.296476 0.262724 0.665712
Si Si3 0.500000 0.708352 0.750000
Si Si4 0.205900 0.405799 0.483396
O O1 0.250000 0.750000 0.500000
O O2 0.484829 0.873891 0.447127
O O3 0.129371 0.870366 0.338093
O O4 0.249761 0.965226 0.516627
O O5 0.500000 0.241295 0.750000
O O6 0.136730 0.286019 0.713686
O O7 0.311090 0.363393 0.597050
O O8 0.220357 0.154817 0.595172
#
# Coordination Sequence:
#
# PCOD8150265 Si02
#       4
#     8   8   4   8
#     4  11  23  46  66 101 137 178 231 280 348 413
#     4  11  23  45  68 102 135 174 232 280 342 417
#     4  12  24  42  70 100 132 182 226 282 346 404
#     4  10  24  45  69  96 142 181 220 291 346 407
#
# _framework density 22.708062999999999
#
# number of rings (size 3 to 8) (size 9 to 14) (size 15 to 20)
#    0.000    1.143    5.714    0.000    2.000    1.143 
#    7.714    0.000    0.000    0.000    0.000    0.000 
#    0.000    0.000    0.000    0.000    0.000    0.000 
#
# Total GULP energy -173596.156488 kJ/mol
# GULP energy per Si atom -12399.725463 kJ/mol
# Density = 2.265638 g / cm^3
# Si number density = 22.708063 Si / 1000 Ang^3
#
#
#
# Elastic Constant Matrix: (Units=GPa)
#
#
# Indices 1 2 3 4 5 6 
#
# 1 74.3953 34.4058 55.5587 0.0000 -17.1545 0.0000
# 2 34.4058 167.9692 51.7819 0.0000 -2.2621 0.0000
# 3 55.5587 51.7819 145.6729 0.0000 14.7883 0.0000
# 4 0.0000 0.0000 0.0000 16.9184 0.0000 1.3551
# 5 -17.1545 -2.2621 14.7883 0.0000 36.6464 0.0000
# 6 0.0000 0.0000 0.0000 1.3551 0.0000 25.0113
#
#
#
# Elastic Compliance Matrix: (Units=1/GPa)
#
#
# Indices 1 2 3 4 5 6 
#
# 1 0.026473 -0.001750 -0.011180 0.000000 0.016795 0.000000
# 2 -0.001750 0.006875 -0.001810 0.000000 0.000336 0.000000
# 3 -0.011180 -0.001810 0.012841 0.000000 -0.010527 0.000000
# 4 0.000000 0.000000 0.000000 0.059365 0.000000 -0.003216
# 5 0.016795 0.000336 -0.010527 0.000000 0.039419 0.000000
# 6 0.000000 0.000000 0.000000 -0.003216 0.000000 0.040156
#
#
# Mechanical properties :
#
#
# Convention : Reuss Voigt Hill
#
# Bulk Modulus (GPa) = 59.85030 74.61447 67.23239
# Shear Modulus (GPa) = 22.70907 32.13463 27.42185
#
# Velocity S-wave (km/s) = 3.16578 3.76589 3.47880
# Velocity P-wave (km/s) = 6.30686 7.19991 6.76813
#
# Compressibility (1/GPa) = 0.01670835
#
# Stress axis : x y z
#
# Youngs Moduli (GPa) = 37.77482 145.46453 77.87763
#
# Poissons Ratio (x) = 0.25454 0.87063
# Poissons Ratio (y) = 0.06610 0.14099
# Poissons Ratio (z) = 0.42230 0.26334
#
# Static dielectric constant tensor:
#      x y z
#    x 4.187800 0.000000 0.107110 
#    y 0.000000 3.950740 0.000000 
#    z 0.107110 0.000000 4.336260 
# 
# 
# High freq. dielectric constant tensor:
#      x y z
#    x 1.904180 0.000000 0.011840 
#    y 0.000000 1.872120 0.000000 
#    z 0.011840 0.000000 1.908930 
# 
# From -- ./inp_files/131582.got.cif
#   From: 2010.06.25/outbox.cif.g09.slc.cpg/sg15_66_cif.got.tgz:131582.got - 2010.06.28 07:06:18.
