data_PCOD8150607
_publ_section_title
;
Structure prediction by ZEFSAII (Michael W. Deem and Ramdas Pophale) SiO2 
 PCOD8150607
Probable space group: C 2/C
;
_chemical_formula_sum "Si O2"
_cell_formula_units_Z 60
_cell_length_a 12.544269
_cell_length_b 16.869742
_cell_length_c 21.468090
_cell_angle_alpha 90.000000
_cell_angle_beta 38.491629
_cell_angle_gamma 90.000000
_cell_volume 2827.593617
_symmetry_space_group_name_H-M "C 2/C"
_symmetry_group_IT_number 15
_symmetry_cell_setting 'monoclinic'
loop_
_space_group_symop_operation_xyz
x,y,z
-x,y,1/2-z
-x,-y,-z
x,-y,1/2+z
1/2+x,1/2+y,z
1/2-x,1/2+y,1/2-z
1/2-x,1/2-y,-z
1/2+x,1/2-y,1/2+z
loop_
_atom_site_type_symbol
_atom_site_label
_atom_site_fract_x
_atom_site_fract_y
_atom_site_fract_z
Si Si1 0.483355 0.910178 0.389937
Si Si2 0.557124 0.221554 0.090384
Si Si3 0.500000 0.374005 0.750000
Si Si4 0.814105 0.147792 0.549946
Si Si5 0.133509 0.682427 0.444622
Si Si6 0.954121 0.568583 0.201154
Si Si7 0.848999 0.124870 0.678674
Si Si8 0.560668 0.547294 0.352406
O O1 0.376116 0.858367 0.390081
O O2 0.412956 0.893290 0.491641
O O3 0.678762 0.882598 0.297381
O O4 0.466262 0.003617 0.382512
O O5 0.497203 0.183037 0.052977
O O6 0.538024 0.154293 0.151513
O O7 0.444416 0.297641 0.159903
O O8 0.750000 0.250000 0.000000
O O9 0.670513 0.320522 0.669045
O O10 0.488537 0.427655 0.694325
O O11 0.886444 0.236648 0.506466
O O12 0.802794 0.129591 0.627625
O O13 0.935027 0.085794 0.459869
O O14 0.751297 0.573191 0.283961
O O15 0.000000 0.541641 0.250000
O O16 0.965907 0.047256 0.634015
#
# Coordination Sequence:
#
# PCOD8150607 Si02
#       8
#     8   8   4   8   8   8   8   8
#     4  11  23  43  69 105 130 179 223 285 350 403
#     4  11  27  45  66  98 137 189 227 281 338 417
#     4  12  24  46  68 102 142 174 226 296 344 404
#     4  11  23  38  75  99 133 171 222 289 345 408
#     4  11  26  42  71 102 137 177 225 287 348 411
#     4  11  26  45  69  97 141 183 230 281 340 411
#     4  10  25  44  66  98 137 174 232 280 335 415
#     4  11  24  45  68 101 131 180 226 283 351 400
#
# _framework density 21.219456999999998
#
# number of rings (size 3 to 8) (size 9 to 14) (size 15 to 20)
#    0.000    1.067    2.667    2.800   11.200    0.533 
#    6.000    0.000    0.000    0.000    0.000    0.000 
#    0.000    0.000    0.000    0.000    0.000    0.000 
#
# Total GULP energy -372121.261274 kJ/mol
# GULP energy per Si atom -12404.042042 kJ/mol
# Density = 2.117116 g / cm^3
# Si number density = 21.219457 Si / 1000 Ang^3
#
#
#
# Elastic Constant Matrix: (Units=GPa)
#
#
# Indices 1 2 3 4 5 6 
#
# 1 100.5684 26.2229 24.2428 -0.0004 -12.3608 0.0010
# 2 26.2229 126.9189 46.8290 -0.0019 0.9166 0.0003
# 3 24.2428 46.8290 99.5171 -0.0144 -5.0307 0.0028
# 4 -0.0004 -0.0019 -0.0144 26.6297 0.0036 5.0282
# 5 -12.3608 0.9166 -5.0307 0.0036 23.8333 -0.0008
# 6 0.0010 0.0003 0.0028 5.0282 -0.0008 29.2178
#
#
#
# Elastic Compliance Matrix: (Units=1/GPa)
#
#
# Indices 1 2 3 4 5 6 
#
# 1 0.011516 -0.001805 -0.001668 -0.000002 0.005690 0.000000
# 2 -0.001805 0.009859 -0.004312 -0.000001 -0.002225 0.000001
# 3 -0.001668 -0.004312 0.012583 0.000007 0.001957 -0.000002
# 4 -0.000002 -0.000001 0.000007 0.038813 -0.000005 -0.006680
# 5 0.005690 -0.002225 0.001957 -0.000005 0.045407 0.000002
# 6 0.000000 0.000001 -0.000002 -0.006680 0.000002 0.035375
#
#
# Mechanical properties :
#
#
# Convention : Reuss Voigt Hill
#
# Bulk Modulus (GPa) = 54.38615 57.95487 56.17051
# Shear Modulus (GPa) = 28.53016 31.25015 29.89015
#
# Velocity S-wave (km/s) = 3.67076 3.84176 3.75723
# Velocity P-wave (km/s) = 6.60696 6.85932 6.73432
#
# Compressibility (1/GPa) = 0.01838703
#
# Stress axis : x y z
#
# Youngs Moduli (GPa) = 86.83910 101.42969 79.47239
#
# Poissons Ratio (x) = 0.18306 0.13259
# Poissons Ratio (y) = 0.15672 0.34270
# Poissons Ratio (z) = 0.14488 0.43738
#
# Static dielectric constant tensor:
#      x y z
#    x 3.954380 -0.000010 -0.118210 
#    y -0.000010 4.112180 0.000010 
#    z -0.118210 0.000010 3.793180 
# 
# 
# High freq. dielectric constant tensor:
#      x y z
#    x 1.837150 0.000000 -0.005870 
#    y 0.000000 1.843070 0.000000 
#    z -0.005870 0.000000 1.831040 
# 
# From -- ./inp_files/239965.got.cif
#   From: 2010.06.25/outbox.cif.g09.slc.cpg/sg15_120_cif.got.tgz:239965.got - 2010.06.28 07:06:18.
