data_PCOD8150858
_publ_section_title
;
Structure prediction by ZEFSAII (Michael W. Deem and Ramdas Pophale) SiO2 
 PCOD8150858
Probable space group: C 2/C
;
_chemical_formula_sum "Si O2"
_cell_formula_units_Z 52
_cell_length_a 11.697623
_cell_length_b 8.771335
_cell_length_c 22.978661
_cell_angle_alpha 90.000000
_cell_angle_beta 114.476684
_cell_angle_gamma 90.000000
_cell_volume 2145.810882
_symmetry_space_group_name_H-M "C 2/C"
_symmetry_group_IT_number 15
_symmetry_cell_setting 'monoclinic'
loop_
_space_group_symop_operation_xyz
x,y,z
-x,y,1/2-z
-x,-y,-z
x,-y,1/2+z
1/2+x,1/2+y,z
1/2-x,1/2+y,1/2-z
1/2-x,1/2-y,-z
1/2+x,1/2-y,1/2+z
loop_
_atom_site_type_symbol
_atom_site_label
_atom_site_fract_x
_atom_site_fract_y
_atom_site_fract_z
Si Si1 0.877190 0.424956 0.999932
Si Si2 0.000000 0.434358 0.250000
Si Si3 0.140334 0.100380 0.787968
Si Si4 0.773704 0.786194 0.730485
Si Si5 0.125065 0.170169 0.594330
Si Si6 0.852086 0.128173 0.580254
Si Si7 0.349174 0.972332 0.613070
O O1 0.858136 0.265737 0.962347
O O2 0.757393 0.538628 0.975557
O O3 0.898510 0.406818 0.074111
O O4 0.000000 0.500000 0.000000
O O5 0.113764 0.326193 0.258181
O O6 0.043305 0.536863 0.314152
O O7 0.177632 0.958333 0.755073
O O8 0.000000 0.151342 0.750000
O O9 0.219713 0.246755 0.783137
O O10 0.156857 0.053125 0.857940
O O11 0.665387 0.773468 0.658124
O O12 0.984299 0.106100 0.574468
O O13 0.215596 0.025099 0.610115
O O14 0.827429 0.307503 0.580273
#
# Coordination Sequence:
#
# PCOD8150858 Si02
#       7
#     8   4   8   8   8   8   8
#     4  12  26  50  76 106 151 193 244 307 365 434
#     4  10  26  46  76 110 150 184 246 300 364 436
#     4  12  26  43  71 106 143 196 239 304 365 428
#     4  11  25  45  70 105 147 190 241 299 363 436
#     4  11  25  49  71 107 147 189 248 296 364 438
#     4  12  27  47  74 105 150 189 251 302 362 435
#     4  11  27  48  75 111 146 198 242 301 369 432
#
# _framework density 24.233263000000001
#
# number of rings (size 3 to 8) (size 9 to 14) (size 15 to 20)
#    0.000    0.615    5.385    0.923    9.692    0.615 
#    2.769    0.000    0.000    0.000    0.000    0.000 
#    0.000    0.000    0.000    0.000    0.000    0.000 
#
# Total GULP energy -322390.087132 kJ/mol
# GULP energy per Si atom -12399.618736 kJ/mol
# Density = 2.417811 g / cm^3
# Si number density = 24.233263 Si / 1000 Ang^3
#
#
#
# Elastic Constant Matrix: (Units=GPa)
#
#
# Indices 1 2 3 4 5 6 
#
# 1 157.6411 42.0443 48.3415 0.0000 4.1535 0.0000
# 2 42.0443 65.4207 1.2660 0.0000 -4.0903 0.0000
# 3 48.3415 1.2660 97.9077 0.0000 -7.6124 0.0000
# 4 0.0000 0.0000 0.0000 23.9902 0.0000 -10.7486
# 5 4.1535 -4.0903 -7.6124 0.0000 39.4750 0.0000
# 6 0.0000 0.0000 0.0000 -10.7486 0.0000 -89.4405
#
#
#
# Elastic Compliance Matrix: (Units=1/GPa)
#
#
# Indices 1 2 3 4 5 6 
#
# 1 0.009549 -0.006205 -0.004835 0.000000 -0.002580 0.000000
# 2 -0.006205 0.019418 0.003066 0.000000 0.003256 0.000000
# 3 -0.004835 0.003066 0.012818 0.000000 0.003298 0.000000
# 4 0.000000 0.000000 0.000000 0.039554 0.000000 -0.004753
# 5 -0.002580 0.003256 0.003298 0.000000 0.026577 0.000000
# 6 0.000000 0.000000 0.000000 -0.004753 0.000000 -0.010609
#
#
# Mechanical properties :
#
#
# Convention : Reuss Voigt Hill
#
# Bulk Modulus (GPa) = 38.70580 56.03037 47.36809
# Shear Modulus (GPa) = 41.02833 10.09278 25.56055
#
# Velocity S-wave (km/s) = 4.11914 2.04301 3.25125
# Velocity P-wave (km/s) = 6.21530 5.36066 5.80373
#
# Compressibility (1/GPa) = 0.02583592
#
# Stress axis : x y z
#
# Youngs Moduli (GPa) = 104.72195 51.49984 78.01611
#
# Poissons Ratio (x) = 0.31954 0.37722
# Poissons Ratio (y) = 0.64977 -0.23917
# Poissons Ratio (z) = 0.50635 -0.15788
#
# Static dielectric constant tensor:
#      x y z
#    x 7.330730 0.000000 -4.981530 
#    y 0.000000 4.155760 0.000000 
#    z -4.981530 0.000000 13.367690 
# 
# 
# High freq. dielectric constant tensor:
#      x y z
#    x 1.983510 0.000000 -0.006640 
#    y 0.000000 1.953040 0.000000 
#    z -0.006640 0.000000 1.967920 
# 
# From -- ./inp_files/291694.got.cif
#   From: 2010.06.25/outbox.cif.g09.slc.cpg/sg15_146_cif.got.tgz:291694.got - 2010.06.28 07:06:18.
