data_PCOD8150603
_publ_section_title
;
Structure prediction by ZEFSAII (Michael W. Deem and Ramdas Pophale) SiO2 
 PCOD8150603
Probable space group: C 2/C
;
_chemical_formula_sum "Si O2"
_cell_formula_units_Z 44
_cell_length_a 26.146263
_cell_length_b 10.441581
_cell_length_c 8.941627
_cell_angle_alpha 90.000000
_cell_angle_beta 126.770910
_cell_angle_gamma 90.000000
_cell_volume 1955.438433
_symmetry_space_group_name_H-M "C 2/C"
_symmetry_group_IT_number 15
_symmetry_cell_setting 'monoclinic'
loop_
_space_group_symop_operation_xyz
x,y,z
-x,y,1/2-z
-x,-y,-z
x,-y,1/2+z
1/2+x,1/2+y,z
1/2-x,1/2+y,1/2-z
1/2-x,1/2-y,-z
1/2+x,1/2-y,1/2+z
loop_
_atom_site_type_symbol
_atom_site_label
_atom_site_fract_x
_atom_site_fract_y
_atom_site_fract_z
Si Si1 0.539046 0.674064 0.067425
Si Si2 0.963751 0.392600 0.843304
Si Si3 0.187079 0.427570 0.901990
Si Si4 0.500000 0.503846 0.750000
Si Si5 0.669269 0.777718 0.343106
Si Si6 0.239029 0.756068 0.242326
O O1 0.542605 0.582441 0.216138
O O2 0.594707 0.778317 0.178890
O O3 0.473643 0.755870 0.944699
O O4 0.547740 0.589992 0.932665
O O5 0.887910 0.407564 0.691600
O O6 0.000000 0.385568 0.750000
O O7 0.000000 0.500000 0.000000
O O8 0.197006 0.578058 0.899711
O O9 0.208957 0.356312 0.789743
O O10 0.233074 0.374955 0.114035
O O11 0.703903 0.704953 0.265772
O O12 0.683550 0.704721 0.525691
#
# Coordination Sequence:
#
# PCOD8150603 Si02
#       6
#     8   8   8   4   8   8
#     4  11  24  48  72 103 142 189 238 301 372 436
#     4  12  26  42  78 115 143 183 236 316 376 426
#     4  11  24  45  73 105 147 180 247 300 355 436
#     4  10  26  48  66 104 146 182 236 284 372 458
#     4  11  23  47  71 100 144 182 247 291 354 430
#     4  10  25  44  65 104 143 193 226 297 357 419
#
# _framework density 22.501346999999999
#
# number of rings (size 3 to 8) (size 9 to 14) (size 15 to 20)
#    0.000    1.091    2.727    2.182    6.364    0.000 
#   13.091    0.000    0.000    0.000    0.000    0.000 
#    0.000    0.000    0.000    0.000    0.000    0.000 
#
# Total GULP energy -272588.648577 kJ/mol
# GULP energy per Si atom -12390.393117 kJ/mol
# Density = 2.245013 g / cm^3
# Si number density = 22.501347 Si / 1000 Ang^3
#
#
#
# Elastic Constant Matrix: (Units=GPa)
#
#
# Indices 1 2 3 4 5 6 
#
# 1 112.2747 45.4667 69.1290 0.0000 -6.2564 0.0000
# 2 45.4667 113.7001 51.0053 0.0000 -0.5923 0.0000
# 3 69.1290 51.0053 108.8360 0.0000 -18.3155 0.0000
# 4 0.0000 0.0000 0.0000 16.7836 0.0000 25.6134
# 5 -6.2564 -0.5923 -18.3155 0.0000 45.4911 0.0000
# 6 0.0000 0.0000 0.0000 25.6134 0.0000 4.8324
#
#
#
# Elastic Compliance Matrix: (Units=1/GPa)
#
#
# Indices 1 2 3 4 5 6 
#
# 1 0.015143 -0.002068 -0.008907 0.000000 -0.001530 0.000000
# 2 -0.002068 0.011609 -0.004451 0.000000 -0.001925 0.000000
# 3 -0.008907 -0.004451 0.017930 0.000000 0.005936 0.000000
# 4 0.000000 0.000000 0.000000 -0.008405 0.000000 0.044550
# 5 -0.001530 -0.001925 0.005936 0.000000 0.024137 0.000000
# 6 0.000000 0.000000 0.000000 0.044550 0.000000 -0.029192
#
#
# Mechanical properties :
#
#
# Convention : Reuss Voigt Hill
#
# Bulk Modulus (GPa) = 72.30212 74.00143 73.15178
# Shear Modulus (GPa) = 74.98232 24.70207 49.84219
#
# Velocity S-wave (km/s) = 5.77891 3.31691 4.71157
# Velocity P-wave (km/s) = 8.75956 6.90131 7.88537
#
# Compressibility (1/GPa) = 0.01383085
#
# Stress axis : x y z
#
# Youngs Moduli (GPa) = 66.03815 86.14333 55.77201
#
# Poissons Ratio (x) = 0.17813 0.49674
# Poissons Ratio (y) = 0.13656 0.24823
# Poissons Ratio (z) = 0.58818 0.38341
#
# Static dielectric constant tensor:
#      x y z
#    x 4.018490 0.000000 -0.199340 
#    y 0.000000 4.137890 0.000000 
#    z -0.199340 0.000000 4.515660 
# 
# 
# High freq. dielectric constant tensor:
#      x y z
#    x 1.879020 0.000000 -0.013670 
#    y 0.000000 1.883380 0.000000 
#    z -0.013670 0.000000 1.911460 
# 
# From -- ./inp_files/65642.got.cif
#   From: 2010.06.25/outbox.cif.g09.slc.cpg/sg15_33_cif.got.tgz:65642.got - 2010.06.28 07:06:18.
