data_PCOD8150611
_publ_section_title
;
Structure prediction by ZEFSAII (Michael W. Deem and Ramdas Pophale) SiO2 
 PCOD8150611
Probable space group: C 2/C
;
_chemical_formula_sum "Si O2"
_cell_formula_units_Z 48
_cell_length_a 22.479464
_cell_length_b 9.235051
_cell_length_c 23.492344
_cell_angle_alpha 90.000000
_cell_angle_beta 152.996930
_cell_angle_gamma 90.000000
_cell_volume 2214.338615
_symmetry_space_group_name_H-M "C 2/C"
_symmetry_group_IT_number 15
_symmetry_cell_setting 'monoclinic'
loop_
_space_group_symop_operation_xyz
x,y,z
-x,y,1/2-z
-x,-y,-z
x,-y,1/2+z
1/2+x,1/2+y,z
1/2-x,1/2+y,1/2-z
1/2-x,1/2-y,-z
1/2+x,1/2-y,1/2+z
loop_
_atom_site_type_symbol
_atom_site_label
_atom_site_fract_x
_atom_site_fract_y
_atom_site_fract_z
Si Si1 0.346190 0.485100 0.378438
Si Si2 0.167971 0.041169 0.758110
Si Si3 0.390707 0.957417 0.036953
Si Si4 0.868587 0.355565 0.748998
Si Si5 0.225676 0.408094 0.953165
Si Si6 0.090699 0.876436 0.953478
O O1 0.500000 0.500000 0.500000
O O2 0.280313 0.435686 0.262915
O O3 0.270575 0.628788 0.336268
O O4 0.330385 0.376678 0.418749
O O5 0.093508 0.187489 0.713525
O O6 0.061634 0.914086 0.668234
O O7 0.285498 0.998445 0.899533
O O8 0.405929 0.788436 0.062438
O O9 0.524315 0.037699 0.131378
O O10 0.354268 0.010135 0.067754
O O11 0.862639 0.391483 0.677580
O O12 0.250000 0.250000 0.000000
O O13 0.350641 0.509194 0.042612
#
# Coordination Sequence:
#
# PCOD8150611 Si02
#       6
#     8   8   8   8   8   8
#     4   9  23  44  70  93 137 175 223 283 335 395
#     4  11  25  44  70  99 136 178 231 276 344 408
#     4  12  26  42  70 103 134 182 226 279 351 398
#     4  11  25  44  69  99 136 178 229 282 336 412
#     4  11  22  47  70  96 137 182 227 279 337 401
#     4  10  25  44  67  99 141 177 229 282 338 401
#
# _framework density 21.676901999999998
#
# number of rings (size 3 to 8) (size 9 to 14) (size 15 to 20)
#    0.000    1.333    1.667    2.000   11.667    2.667 
#    3.000    0.000    0.000    0.000    0.000    0.000 
#    0.000    0.000    0.000    0.000    0.000    0.000 
#
# Total GULP energy -297368.210280 kJ/mol
# GULP energy per Si atom -12390.342095 kJ/mol
# Density = 2.162756 g / cm^3
# Si number density = 21.676902 Si / 1000 Ang^3
#
#
#
# Elastic Constant Matrix: (Units=GPa)
#
#
# Indices 1 2 3 4 5 6 
#
# 1 130.3669 54.4842 50.3039 0.0002 -13.2061 0.0000
# 2 54.4842 183.7637 60.5782 0.0004 -0.9332 0.0001
# 3 50.3039 60.5782 103.7712 0.0012 -16.3332 0.0004
# 4 0.0002 0.0004 0.0012 32.3928 0.0005 4.0564
# 5 -13.2061 -0.9332 -16.3332 0.0005 36.0919 0.0001
# 6 0.0000 0.0001 0.0004 4.0564 0.0001 27.2731
#
#
#
# Elastic Compliance Matrix: (Units=1/GPa)
#
#
# Indices 1 2 3 4 5 6 
#
# 1 0.009965 -0.001805 -0.003457 0.000000 0.002035 0.000000
# 2 -0.001805 0.007167 -0.003643 0.000000 -0.002124 0.000000
# 3 -0.003457 -0.003643 0.014240 -0.000001 0.005085 0.000000
# 4 0.000000 0.000000 -0.000001 0.031457 -0.000001 -0.004679
# 5 0.002035 -0.002124 0.005085 -0.000001 0.030698 0.000000
# 6 0.000000 0.000000 0.000000 -0.004679 0.000000 0.037362
#
#
# Mechanical properties :
#
#
# Convention : Reuss Voigt Hill
#
# Bulk Modulus (GPa) = 73.73560 83.18159 78.45860
# Shear Modulus (GPa) = 32.63313 35.98727 34.31020
#
# Velocity S-wave (km/s) = 3.88420 4.07893 3.98276
# Velocity P-wave (km/s) = 7.36245 7.78719 7.57779
#
# Compressibility (1/GPa) = 0.01356197
#
# Stress axis : x y z
#
# Youngs Moduli (GPa) = 100.35266 139.52658 70.22716
#
# Poissons Ratio (x) = 0.25179 0.24276
# Poissons Ratio (y) = 0.18110 0.25586
# Poissons Ratio (z) = 0.34689 0.50835
#
# Static dielectric constant tensor:
#      x y z
#    x 4.264710 0.000000 -0.242070 
#    y 0.000000 3.885530 0.000000 
#    z -0.242070 0.000000 4.000670 
# 
# 
# High freq. dielectric constant tensor:
#      x y z
#    x 1.864540 0.000000 -0.010100 
#    y 0.000000 1.850820 0.000000 
#    z -0.010100 0.000000 1.851650 
# 
# From -- ./inp_files/281717.got.cif
#   From: 2010.06.25/outbox.cif.g09.slc.cpg/sg15_141_cif.got.tgz:281717.got - 2010.06.28 07:06:18.
