data_PCOD8150224
_publ_section_title
;
Structure prediction by ZEFSAII (Michael W. Deem and Ramdas Pophale) SiO2 
 PCOD8150224
Probable space group: C 2/C
;
_chemical_formula_sum "Si O2"
_cell_formula_units_Z 40
_cell_length_a 17.907030
_cell_length_b 6.466507
_cell_length_c 19.938225
_cell_angle_alpha 90.000000
_cell_angle_beta 45.502438
_cell_angle_gamma 90.000000
_cell_volume 1646.796817
_symmetry_space_group_name_H-M "C 2/C"
_symmetry_group_IT_number 15
_symmetry_cell_setting 'monoclinic'
loop_
_space_group_symop_operation_xyz
x,y,z
-x,y,1/2-z
-x,-y,-z
x,-y,1/2+z
1/2+x,1/2+y,z
1/2-x,1/2+y,1/2-z
1/2-x,1/2-y,-z
1/2+x,1/2-y,1/2+z
loop_
_atom_site_type_symbol
_atom_site_label
_atom_site_fract_x
_atom_site_fract_y
_atom_site_fract_z
Si Si1 0.873204 0.063056 0.549953
Si Si2 0.332210 0.300834 0.850085
Si Si3 0.257233 0.829527 0.151440
Si Si4 0.111076 0.630389 0.343554
Si Si5 0.006449 0.268737 0.135889
O O1 0.764062 0.146820 0.591350
O O2 0.914155 0.177373 0.591543
O O3 0.964846 0.097839 0.437915
O O4 0.854468 0.818626 0.571198
O O5 0.287191 0.536329 0.883791
O O6 0.399664 0.226621 0.870181
O O7 0.398225 0.293558 0.739372
O O8 0.159171 0.704725 0.242978
O O9 0.299778 0.989585 0.179330
O O10 0.007561 0.494071 0.390977
#
# Coordination Sequence:
#
# PCOD8150224 Si02
#       5
#     8   8   8   8   8
#     4  11  23  42  70  96 131 179 222 276 340 398
#     4  10  24  45  62  94 138 177 220 273 342 397
#     4  11  21  42  68  90 134 179 218 278 336 398
#     4  11  21  41  68  99 128 174 225 276 336 393
#     4  11  23  44  65  99 136 171 227 278 331 413
#
# _framework density 24.289577999999999
#
# number of rings (size 3 to 8) (size 9 to 14) (size 15 to 20)
#    0.000    1.200    4.000    2.400    0.000    1.600 
#   14.400    0.000    0.000    0.000    0.000    0.000 
#    0.000    0.000    0.000    0.000    0.000    0.000 
#
# Total GULP energy -247981.710076 kJ/mol
# GULP energy per Si atom -12399.085504 kJ/mol
# Density = 2.423429 g / cm^3
# Si number density = 24.289578 Si / 1000 Ang^3
#
#
#
# Elastic Constant Matrix: (Units=GPa)
#
#
# Indices 1 2 3 4 5 6 
#
# 1 119.5809 61.1860 19.2775 0.0017 -19.1275 -0.0006
# 2 61.1860 97.6173 -3.7075 0.0021 -3.8201 -0.0047
# 3 19.2775 -3.7075 75.6688 -0.0006 2.0128 0.0007
# 4 0.0017 0.0021 -0.0006 -44.9726 0.0008 -2.1076
# 5 -19.1275 -3.8201 2.0128 0.0008 29.6706 0.0003
# 6 -0.0006 -0.0047 0.0007 -2.1076 0.0003 43.8835
#
#
#
# Elastic Compliance Matrix: (Units=1/GPa)
#
#
# Indices 1 2 3 4 5 6 
#
# 1 0.015400 -0.009475 -0.004628 0.000000 0.009022 -0.000001
# 2 -0.009475 0.016143 0.003318 0.000000 -0.004255 0.000002
# 3 -0.004628 0.003318 0.014651 0.000000 -0.003550 0.000000
# 4 0.000000 0.000000 0.000000 -0.022186 0.000001 -0.001066
# 5 0.009022 -0.004255 -0.003550 0.000001 0.039212 -0.000001
# 6 -0.000001 0.000002 0.000000 -0.001066 -0.000001 0.022736
#
#
# Mechanical properties :
#
#
# Convention : Reuss Voigt Hill
#
# Bulk Modulus (GPa) = 40.61009 49.59767 45.10388
# Shear Modulus (GPa) = 43.20242 20.12369 31.66306
#
# Velocity S-wave (km/s) = 4.22197 2.88147 3.61441
# Velocity P-wave (km/s) = 6.36570 5.61553 6.00235
#
# Compressibility (1/GPa) = 0.02462442
#
# Stress axis : x y z
#
# Youngs Moduli (GPa) = 64.93599 61.94787 68.25288
#
# Poissons Ratio (x) = 0.58697 0.31584
# Poissons Ratio (y) = 0.61528 -0.22647
# Poissons Ratio (z) = 0.30049 -0.20555
#
# Static dielectric constant tensor:
#      x y z
#    x 4.271360 0.000000 -0.017330 
#    y 0.000000 4.612950 0.000000 
#    z -0.017330 0.000000 4.436320 
# 
# 
# High freq. dielectric constant tensor:
#      x y z
#    x 1.959770 0.000000 -0.014290 
#    y 0.000000 1.969870 0.000000 
#    z -0.014290 0.000000 1.964860 
# 
# From -- ./inp_files/278792.got.cif
#   From: 2010.06.25/outbox.cif.g09.slc.cpg/sg15_140_cif.got.tgz:278792.got - 2010.06.28 07:06:18.
