data_PCOD8150136
_publ_section_title
;
Structure prediction by ZEFSAII (Michael W. Deem and Ramdas Pophale) SiO2 
 PCOD8150136
Probable space group: C 2/C
;
_chemical_formula_sum "Si O2"
_cell_formula_units_Z 60
_cell_length_a 15.482562
_cell_length_b 8.794993
_cell_length_c 22.294283
_cell_angle_alpha 90.000000
_cell_angle_beta 114.954173
_cell_angle_gamma 90.000000
_cell_volume 2752.386100
_symmetry_space_group_name_H-M "C 2/C"
_symmetry_group_IT_number 15
_symmetry_cell_setting 'monoclinic'
loop_
_space_group_symop_operation_xyz
x,y,z
-x,y,1/2-z
-x,-y,-z
x,-y,1/2+z
1/2+x,1/2+y,z
1/2-x,1/2+y,1/2-z
1/2-x,1/2-y,-z
1/2+x,1/2-y,1/2+z
loop_
_atom_site_type_symbol
_atom_site_label
_atom_site_fract_x
_atom_site_fract_y
_atom_site_fract_z
Si Si1 0.357824 0.476797 0.756143
Si Si2 0.933594 0.129150 0.955400
Si Si3 0.773142 0.925650 0.858488
Si Si4 0.170707 0.365302 0.500123
Si Si5 0.084015 0.489803 0.355050
Si Si6 0.226630 0.100740 0.882322
Si Si7 0.017300 0.810127 0.355253
Si Si8 0.500000 0.754677 0.250000
O O1 0.305994 0.411365 0.799480
O O2 0.279471 0.546930 0.688617
O O3 0.439156 0.600119 0.794038
O O4 0.405475 0.339740 0.734538
O O5 0.914593 0.266445 0.995995
O O6 0.987846 0.198493 0.915255
O O7 0.833881 0.052119 0.910224
O O8 0.000000 0.000000 0.000000
O O9 0.665840 0.986678 0.829254
O O10 0.779550 0.764297 0.895668
O O11 0.250000 0.250000 0.500000
O O12 0.127782 0.463532 0.433533
O O13 0.212823 0.482646 0.560965
O O14 0.017972 0.637822 0.333202
O O15 0.018910 0.350386 0.315709
O O16 0.120783 0.111689 0.879387
#
# Coordination Sequence:
#
# PCOD8150136 Si02
#       8
#     8   8   8   8   8   8   8   4
#     4  11  24  44  69 100 136 181 227 285 343 401
#     4  11  25  43  69  96 143 177 225 275 344 401
#     4  10  26  43  68 101 135 180 229 279 341 408
#     4  12  25  44  70 102 139 179 228 280 343 408
#     4  11  27  45  69 102 137 180 230 282 339 409
#     4  11  24  44  72  97 139 179 229 280 345 406
#     4  10  24  44  68  98 137 180 226 275 341 404
#     4  12  26  42  68  98 138 176 232 282 342 394
#
# _framework density 21.799265999999999
#
# number of rings (size 3 to 8) (size 9 to 14) (size 15 to 20)
#    0.000    1.067    2.667    1.600   11.200    3.733 
#    0.000    0.000    0.000    0.000    0.000    0.000 
#    0.000    0.000    0.000    0.000    0.000    0.000 
#
# Total GULP energy -372112.993321 kJ/mol
# GULP energy per Si atom -12403.766444 kJ/mol
# Density = 2.174965 g / cm^3
# Si number density = 21.799266 Si / 1000 Ang^3
#
#
#
# Elastic Constant Matrix: (Units=GPa)
#
#
# Indices 1 2 3 4 5 6 
#
# 1 91.8983 44.9213 36.8218 0.0000 -20.3511 0.0000
# 2 44.9213 111.7591 37.5762 0.0000 -10.3606 0.0000
# 3 36.8218 37.5762 98.1990 0.0000 -8.0451 0.0000
# 4 0.0000 0.0000 0.0000 32.1304 0.0000 -3.0144
# 5 -20.3511 -10.3606 -8.0451 0.0000 25.3235 0.0000
# 6 0.0000 0.0000 0.0000 -3.0144 0.0000 33.4988
#
#
#
# Elastic Compliance Matrix: (Units=1/GPa)
#
#
# Indices 1 2 3 4 5 6 
#
# 1 0.016959 -0.004579 -0.003741 0.000000 0.010567 0.000000
# 2 -0.004579 0.011737 -0.002754 0.000000 0.000247 0.000000
# 3 -0.003741 -0.002754 0.012630 0.000000 -0.000121 0.000000
# 4 0.000000 0.000000 0.000000 0.031388 0.000000 0.002824
# 5 0.010567 0.000247 -0.000121 0.000000 0.048044 0.000000
# 6 0.000000 0.000000 0.000000 0.002824 0.000000 0.030106
#
#
# Mechanical properties :
#
#
# Convention : Reuss Voigt Hill
#
# Bulk Modulus (GPa) = 52.14371 60.05499 56.09935
# Shear Modulus (GPa) = 27.86976 30.35969 29.11472
#
# Velocity S-wave (km/s) = 3.57945 3.73593 3.65853
# Velocity P-wave (km/s) = 6.40743 6.79842 6.60582
#
# Compressibility (1/GPa) = 0.01917777
#
# Stress axis : x y z
#
# Youngs Moduli (GPa) = 58.96535 85.19864 79.17542
#
# Poissons Ratio (x) = 0.39014 0.29621
# Poissons Ratio (y) = 0.27001 0.21805
# Poissons Ratio (z) = 0.22060 0.23464
#
# Static dielectric constant tensor:
#      x y z
#    x 3.990490 0.000000 -0.125900 
#    y 0.000000 4.066440 0.000000 
#    z -0.125900 0.000000 3.945770 
# 
# 
# High freq. dielectric constant tensor:
#      x y z
#    x 1.861210 0.000000 -0.010380 
#    y 0.000000 1.872250 0.000000 
#    z -0.010380 0.000000 1.857910 
# 
# From -- ./inp_files/273225.got.cif
#   From: 2010.06.25/outbox.cif.g09.slc.cpg/sg15_137_cif.got.tgz:273225.got - 2010.06.28 07:06:18.
