data_PCOD8150287
_publ_section_title
;
Structure prediction by ZEFSAII (Michael W. Deem and Ramdas Pophale) SiO2 
 PCOD8150287
Probable space group: C 2/C
;
_chemical_formula_sum "Si O2"
_cell_formula_units_Z 56
_cell_length_a 11.505276
_cell_length_b 33.126978
_cell_length_c 8.813105
_cell_angle_alpha 90.000000
_cell_angle_beta 50.887569
_cell_angle_gamma 90.000000
_cell_volume 2606.267004
_symmetry_space_group_name_H-M "C 2/C"
_symmetry_group_IT_number 15
_symmetry_cell_setting 'monoclinic'
loop_
_space_group_symop_operation_xyz
x,y,z
-x,y,1/2-z
-x,-y,-z
x,-y,1/2+z
1/2+x,1/2+y,z
1/2-x,1/2+y,1/2-z
1/2-x,1/2-y,-z
1/2+x,1/2-y,1/2+z
loop_
_atom_site_type_symbol
_atom_site_label
_atom_site_fract_x
_atom_site_fract_y
_atom_site_fract_z
Si Si1 0.324399 0.214944 0.245157
Si Si2 0.258600 0.548902 0.697102
Si Si3 0.674626 0.026540 0.089750
Si Si4 0.655667 0.131982 0.696611
Si Si5 0.836924 0.702911 0.576973
Si Si6 0.363335 0.348911 0.765734
Si Si7 0.563573 0.583165 0.530448
O O1 0.272766 0.261031 0.288001
O O2 0.311514 0.193141 0.419932
O O3 0.225055 0.190461 0.210592
O O4 0.491754 0.215842 0.042646
O O5 0.209940 0.519440 0.603450
O O6 0.156225 0.589086 0.780111
O O7 0.436697 0.558061 0.544451
O O8 0.217297 0.525146 0.880920
O O9 0.500000 0.038394 0.250000
O O10 0.781085 0.058279 0.091193
O O11 0.500000 0.144203 0.750000
O O12 0.703899 0.165028 0.782774
O O13 0.768495 0.125465 0.464302
O O14 0.500000 0.331799 0.750000
O O15 0.407790 0.375704 0.584339
O O16 0.500000 0.594061 0.750000
#
# Coordination Sequence:
#
# PCOD8150287 Si02
#       7
#     8   8   8   8   8   8   8
#     4  10  24  45  71 102 137 184 232 277 343 407
#     4  11  25  45  66  99 137 183 225 287 347 411
#     4  11  25  42  70  98 130 178 231 287 347 410
#     4  12  26  45  67 102 144 178 231 290 344 406
#     4  10  24  46  70 102 139 183 227 285 339 412
#     4  12  26  43  69 102 138 186 228 283 343 410
#     4  10  25  46  67 100 135 182 231 283 344 413
#
# _framework density 21.486671999999999
#
# number of rings (size 3 to 8) (size 9 to 14) (size 15 to 20)
#    0.000    1.143    2.857    1.286   10.000    1.143 
#    2.571    0.000    0.000    0.000    0.000    0.000 
#    0.000    0.000    0.000    0.000    0.000    0.000 
#
# Total GULP energy -347226.414110 kJ/mol
# GULP energy per Si atom -12400.943361 kJ/mol
# Density = 2.143777 g / cm^3
# Si number density = 21.486672 Si / 1000 Ang^3
#
#
#
# Elastic Constant Matrix: (Units=GPa)
#
#
# Indices 1 2 3 4 5 6 
#
# 1 127.2756 42.0945 25.8569 0.0000 -5.9028 0.0000
# 2 42.0945 101.3862 36.4857 0.0000 18.8979 0.0000
# 3 25.8569 36.4857 83.1976 0.0000 -0.5863 0.0000
# 4 0.0000 0.0000 0.0000 26.7158 0.0000 18.9706
# 5 -5.9028 18.8979 -0.5863 0.0000 36.7924 0.0000
# 6 0.0000 0.0000 0.0000 18.9706 0.0000 79.5424
#
#
#
# Elastic Compliance Matrix: (Units=1/GPa)
#
#
# Indices 1 2 3 4 5 6 
#
# 1 0.009684 -0.004332 -0.001083 0.000000 0.003762 0.000000
# 2 -0.004332 0.015198 -0.005379 0.000000 -0.008587 0.000000
# 3 -0.001083 -0.005379 0.014735 0.000000 0.002824 0.000000
# 4 0.000000 0.000000 0.000000 0.045063 0.000000 -0.010747
# 5 0.003762 -0.008587 0.002824 0.000000 0.032239 0.000000
# 6 0.000000 0.000000 0.000000 -0.010747 0.000000 0.015135
#
#
# Mechanical properties :
#
#
# Convention : Reuss Voigt Hill
#
# Bulk Modulus (GPa) = 55.46840 57.85928 56.66384
# Shear Modulus (GPa) = 31.31788 42.43829 36.87808
#
# Velocity S-wave (km/s) = 3.82193 4.44903 4.14735
# Velocity P-wave (km/s) = 6.73405 7.30604 7.02587
#
# Compressibility (1/GPa) = 0.01802828
#
# Stress axis : x y z
#
# Youngs Moduli (GPa) = 103.25994 65.79669 67.86448
#
# Poissons Ratio (x) = 0.28503 0.07353
# Poissons Ratio (y) = 0.44733 0.36506
# Poissons Ratio (z) = 0.11188 0.35394
#
# Static dielectric constant tensor:
#      x y z
#    x 4.263650 0.000000 0.014380 
#    y 0.000000 3.626610 0.000000 
#    z 0.014380 0.000000 3.935950 
# 
# 
# High freq. dielectric constant tensor:
#      x y z
#    x 1.864390 0.000000 0.001280 
#    y 0.000000 1.836350 0.000000 
#    z 0.001280 0.000000 1.847770 
# 
# From -- ./inp_files/35560.got.cif
#   From: 2010.06.25/outbox.cif.g09.slc.cpg/sg15_18_cif.got.tgz:35560.got - 2010.06.28 07:06:18.
