data_PCOD8150504
_publ_section_title
;
Structure prediction by ZEFSAII (Michael W. Deem and Ramdas Pophale) SiO2 
 PCOD8150504
Probable space group: C 2/C
;
_chemical_formula_sum "Si O2"
_cell_formula_units_Z 40
_cell_length_a 10.789876
_cell_length_b 21.708736
_cell_length_c 11.416505
_cell_angle_alpha 90.000000
_cell_angle_beta 43.034207
_cell_angle_gamma 90.000000
_cell_volume 1824.926488
_symmetry_space_group_name_H-M "C 2/C"
_symmetry_group_IT_number 15
_symmetry_cell_setting 'monoclinic'
loop_
_space_group_symop_operation_xyz
x,y,z
-x,y,1/2-z
-x,-y,-z
x,-y,1/2+z
1/2+x,1/2+y,z
1/2-x,1/2+y,1/2-z
1/2-x,1/2-y,-z
1/2+x,1/2-y,1/2+z
loop_
_atom_site_type_symbol
_atom_site_label
_atom_site_fract_x
_atom_site_fract_y
_atom_site_fract_z
Si Si1 0.031100 0.695660 0.592459
Si Si2 0.500000 0.485129 0.250000
Si Si3 0.677580 0.602623 0.188496
Si Si4 0.000000 0.677010 0.250000
Si Si5 0.863303 0.221444 0.671938
Si Si6 0.854223 0.882989 0.514001
O O1 0.141076 0.632843 0.490474
O O2 0.129570 0.756057 0.469143
O O3 0.000000 0.705283 0.750000
O O4 0.833516 0.692492 0.666328
O O5 0.671172 0.529013 0.166708
O O6 0.436050 0.445138 0.404395
O O7 0.500000 0.634035 0.250000
O O8 0.669507 0.611229 0.331813
O O9 0.100041 0.717004 0.279369
O O10 0.160315 0.633421 0.088178
O O11 0.008789 0.171713 0.609950
#
# Coordination Sequence:
#
# PCOD8150504 Si02
#       6
#     8   4   8   4   8   8
#     4  12  24  44  72 108 148 184 228 287 358 428
#     4  10  27  46  76  98 140 191 242 296 338 410
#     4  10  24  49  71 101 139 187 243 289 343 417
#     4  12  25  44  66 106 148 179 232 282 360 428
#     4  12  25  41  72 107 146 185 225 289 358 428
#     4  12  24  47  71 103 143 184 236 297 351 413
#
# _framework density 21.918690999999999
#
# number of rings (size 3 to 8) (size 9 to 14) (size 15 to 20)
#    0.600    0.000    4.000    3.600    2.800    1.600 
#    1.800    2.000    0.000    0.000    0.000    0.000 
#    0.000    0.000    0.000    0.000    0.000    0.000 
#
# Total GULP energy -247954.346580 kJ/mol
# GULP energy per Si atom -12397.717329 kJ/mol
# Density = 2.186880 g / cm^3
# Si number density = 21.918691 Si / 1000 Ang^3
#
#
#
# Elastic Constant Matrix: (Units=GPa)
#
#
# Indices 1 2 3 4 5 6 
#
# 1 107.9430 46.1783 62.1051 0.0000 -17.6408 0.0000
# 2 46.1783 133.1863 59.3033 0.0000 -25.2449 0.0000
# 3 62.1051 59.3033 131.0572 0.0000 -19.8627 0.0000
# 4 0.0000 0.0000 0.0000 44.6439 0.0000 -7.5036
# 5 -17.6408 -25.2449 -19.8627 0.0000 47.2518 0.0000
# 6 0.0000 0.0000 0.0000 -7.5036 0.0000 37.8870
#
#
#
# Elastic Compliance Matrix: (Units=1/GPa)
#
#
# Indices 1 2 3 4 5 6 
#
# 1 0.013382 -0.002007 -0.005168 0.000000 0.001752 0.000000
# 2 -0.002007 0.010263 -0.003178 0.000000 0.003398 0.000000
# 3 -0.005168 -0.003178 0.011714 0.000000 0.001297 0.000000
# 4 0.000000 0.000000 0.000000 0.023171 0.000000 0.004589
# 5 0.001752 0.003398 0.001297 0.000000 0.024178 0.000000
# 6 0.000000 0.000000 0.000000 0.004589 0.000000 0.027303
#
#
# Mechanical properties :
#
#
# Convention : Reuss Voigt Hill
#
# Bulk Modulus (GPa) = 68.24283 78.59555 73.41919
# Shear Modulus (GPa) = 36.87269 39.59653 38.23461
#
# Velocity S-wave (km/s) = 4.10597 4.25493 4.18111
# Velocity P-wave (km/s) = 7.32672 7.75080 7.54174
#
# Compressibility (1/GPa) = 0.01465355
#
# Stress axis : x y z
#
# Youngs Moduli (GPa) = 74.72523 97.43467 85.36840
#
# Poissons Ratio (x) = 0.19553 0.44119
# Poissons Ratio (y) = 0.14996 0.27131
# Poissons Ratio (z) = 0.38619 0.30966
#
# Static dielectric constant tensor:
#      x y z
#    x 4.072500 0.000000 -0.208340 
#    y 0.000000 3.938570 0.000000 
#    z -0.208340 0.000000 4.250060 
# 
# 
# High freq. dielectric constant tensor:
#      x y z
#    x 1.870660 0.000000 0.001900 
#    y 0.000000 1.847510 0.000000 
#    z 0.001900 0.000000 1.874260 
# 
# From -- ./inp_files/89339.got.cif
#   From: 2010.06.25/outbox.cif.g09.slc.cpg/sg15_45_cif.got.tgz:89339.got - 2010.06.28 07:06:18.
