data_PCOD8150955
_publ_section_title
;
Structure prediction by ZEFSAII (Michael W. Deem and Ramdas Pophale) SiO2 
 PCOD8150955
Probable space group: C 2/C
;
_chemical_formula_sum "Si O2"
_cell_formula_units_Z 56
_cell_length_a 13.057833
_cell_length_b 18.390256
_cell_length_c 13.924935
_cell_angle_alpha 90.000000
_cell_angle_beta 60.567413
_cell_angle_gamma 90.000000
_cell_volume 2912.309589
_symmetry_space_group_name_H-M "C 2/C"
_symmetry_group_IT_number 15
_symmetry_cell_setting 'monoclinic'
loop_
_space_group_symop_operation_xyz
x,y,z
-x,y,1/2-z
-x,-y,-z
x,-y,1/2+z
1/2+x,1/2+y,z
1/2-x,1/2+y,1/2-z
1/2-x,1/2-y,-z
1/2+x,1/2-y,1/2+z
loop_
_atom_site_type_symbol
_atom_site_label
_atom_site_fract_x
_atom_site_fract_y
_atom_site_fract_z
Si Si1 0.131060 0.519473 0.911255
Si Si2 0.604167 0.146695 0.770721
Si Si3 0.219277 0.020608 0.477034
Si Si4 0.200957 0.068546 0.283194
Si Si5 0.465541 0.698446 0.156752
Si Si6 0.832766 0.134728 0.563191
Si Si7 0.527068 0.439909 0.343539
O O1 0.139136 0.582466 0.827670
O O2 0.198892 0.446896 0.843015
O O3 0.195579 0.547309 0.977722
O O4 0.000000 0.500000 0.000000
O O5 0.500000 0.117756 0.750000
O O6 0.566247 0.217606 0.847950
O O7 0.711018 0.172360 0.651526
O O8 0.266320 0.048279 0.352798
O O9 0.092019 0.056327 0.542591
O O10 0.203096 0.933980 0.485382
O O11 0.150614 0.150196 0.311051
O O12 0.088475 0.018511 0.310347
O O13 0.500000 0.684396 0.250000
O O14 0.578653 0.684450 0.037610
O O15 0.890917 0.115476 0.638305
O O16 0.500000 0.410249 0.250000
#
# Coordination Sequence:
#
# PCOD8150955 Si02
#       7
#     8   8   8   8   8   8   8
#     4  12  25  38  61  86 124 164 204 242 300 374
#     4  11  25  42  57  86 129 167 197 240 309 372
#     4  11  19  35  64  91 111 149 204 257 300 337
#     4  11  20  36  60  92 116 148 202 258 295 349
#     4  11  23  37  63  91 123 157 201 254 309 354
#     4  11  20  38  62  88 121 152 201 258 301 350
#     4  11  17  32  64  93 114 140 198 260 306 334
#
# _framework density 19.228726000000002
#
# number of rings (size 3 to 8) (size 9 to 14) (size 15 to 20)
#    0.000    0.857    7.143    3.000    0.000    3.429 
#    0.000    0.714    0.000    0.000    0.000    0.000 
#    0.000    0.000    0.000    0.000    0.000    0.000 
#
# Total GULP energy -347148.310194 kJ/mol
# GULP energy per Si atom -12398.153935 kJ/mol
# Density = 1.918496 g / cm^3
# Si number density = 19.228726 Si / 1000 Ang^3
#
#
#
# Elastic Constant Matrix: (Units=GPa)
#
#
# Indices 1 2 3 4 5 6 
#
# 1 115.7794 25.8230 47.9097 0.0000 2.6552 0.0000
# 2 25.8230 67.1196 28.1121 0.0000 -0.2914 0.0000
# 3 47.9097 28.1121 112.4356 0.0000 -9.4391 0.0000
# 4 0.0000 0.0000 0.0000 18.7092 0.0000 0.1056
# 5 2.6552 -0.2914 -9.4391 0.0000 43.5163 0.0000
# 6 0.0000 0.0000 0.0000 0.1056 0.0000 14.8672
#
#
#
# Elastic Compliance Matrix: (Units=1/GPa)
#
#
# Indices 1 2 3 4 5 6 
#
# 1 0.010956 -0.002469 -0.004185 0.000000 -0.001593 0.000000
# 2 -0.002469 0.017226 -0.003292 0.000000 -0.000448 0.000000
# 3 -0.004185 -0.003292 0.011734 0.000000 0.002778 0.000000
# 4 0.000000 0.000000 0.000000 0.053452 0.000000 -0.000380
# 5 -0.001593 -0.000448 0.002778 0.000000 0.023677 0.000000
# 6 0.000000 0.000000 0.000000 -0.000380 0.000000 0.067265
#
#
# Mechanical properties :
#
#
# Convention : Reuss Voigt Hill
#
# Bulk Modulus (GPa) = 49.94371 55.44712 52.69542
# Shear Modulus (GPa) = 23.71062 28.31787 26.01424
#
# Velocity S-wave (km/s) = 3.51534 3.84172 3.68215
# Velocity P-wave (km/s) = 6.51971 6.96969 6.74845
#
# Compressibility (1/GPa) = 0.02002254
#
# Stress axis : x y z
#
# Youngs Moduli (GPa) = 91.27374 58.05237 85.22541
#
# Poissons Ratio (x) = 0.14335 0.35665
# Poissons Ratio (y) = 0.22538 0.28059
# Poissons Ratio (z) = 0.38196 0.19113
#
# Static dielectric constant tensor:
#      x y z
#    x 3.683780 0.000000 0.134230 
#    y 0.000000 3.255940 0.000000 
#    z 0.134230 0.000000 4.023350 
# 
# 
# High freq. dielectric constant tensor:
#      x y z
#    x 1.753930 0.000000 -0.000610 
#    y 0.000000 1.708750 0.000000 
#    z -0.000610 0.000000 1.766500 
# 
# From -- ./inp_files/145957.got.cif
#   From: 2010.06.25/outbox.cif.g09.slc.cpg/sg15_73_cif.got.tgz:145957.got - 2010.06.28 07:06:18.
