data_PCOD8150929
_publ_section_title
;
Structure prediction by ZEFSAII (Michael W. Deem and Ramdas Pophale) SiO2 
 PCOD8150929
Probable space group: C 2/C
;
_chemical_formula_sum "Si O2"
_cell_formula_units_Z 52
_cell_length_a 11.861071
_cell_length_b 27.462677
_cell_length_c 8.071339
_cell_angle_alpha 90.000000
_cell_angle_beta 57.618334
_cell_angle_gamma 90.000000
_cell_volume 2220.300096
_symmetry_space_group_name_H-M "C 2/C"
_symmetry_group_IT_number 15
_symmetry_cell_setting 'monoclinic'
loop_
_space_group_symop_operation_xyz
x,y,z
-x,y,1/2-z
-x,-y,-z
x,-y,1/2+z
1/2+x,1/2+y,z
1/2-x,1/2+y,1/2-z
1/2-x,1/2-y,-z
1/2+x,1/2-y,1/2+z
loop_
_atom_site_type_symbol
_atom_site_label
_atom_site_fract_x
_atom_site_fract_y
_atom_site_fract_z
Si Si1 0.000000 0.121933 0.750000
Si Si2 0.727683 0.549840 0.634046
Si Si3 0.475520 0.202179 0.577268
Si Si4 0.097676 0.151603 0.329471
Si Si5 0.250434 0.446474 0.763472
Si Si6 0.983164 0.595702 0.576869
Si Si7 0.728712 0.240144 0.210749
O O1 0.891575 0.087175 0.751125
O O2 0.036516 0.155235 0.563853
O O3 0.682117 0.495685 0.721647
O O4 0.773685 0.550333 0.410863
O O5 0.846658 0.567241 0.657442
O O6 0.500000 0.204739 0.750000
O O7 0.488314 0.148474 0.481060
O O8 0.572873 0.239570 0.395624
O O9 0.318814 0.215949 0.705207
O O10 0.156093 0.097841 0.252851
O O11 0.216381 0.190325 0.248856
O O12 0.000000 0.163848 0.250000
O O13 0.100967 0.441162 0.944295
O O14 0.000000 0.611698 0.750000
O O15 0.750000 0.250000 0.000000
#
# Coordination Sequence:
#
# PCOD8150929 Si02
#       7
#     4   8   8   8   8   8   8
#     4  10  28  44  70 114 142 202 246 304 378 444
#     4  11  25  41  70  99 148 188 246 305 361 448
#     4  11  26  46  75 105 144 189 249 304 378 454
#     4  11  27  47  76 103 154 193 246 309 372 455
#     4  11  24  44  68 106 143 191 247 299 371 433
#     4  11  24  43  71 103 141 191 242 308 368 440
#     4  12  27  47  74 110 145 193 245 311 381 452
#
# _framework density 23.420256999999999
#
# number of rings (size 3 to 8) (size 9 to 14) (size 15 to 20)
#    0.000    0.923    1.538    3.231   11.846    2.462 
#    0.000    0.000    0.000    0.000    0.000    0.000 
#    0.000    0.000    0.000    0.000    0.000    0.000 
#
# Total GULP energy -322130.001158 kJ/mol
# GULP energy per Si atom -12389.615429 kJ/mol
# Density = 2.336695 g / cm^3
# Si number density = 23.420257 Si / 1000 Ang^3
#
#
#
# Elastic Constant Matrix: (Units=GPa)
#
#
# Indices 1 2 3 4 5 6 
#
# 1 76.6176 12.3247 -0.1788 0.0000 11.1472 0.0000
# 2 12.3247 78.2340 7.7009 0.0000 15.5489 0.0000
# 3 -0.1788 7.7009 48.9860 0.0000 -8.7751 0.0000
# 4 0.0000 0.0000 0.0000 28.7539 0.0000 1.2607
# 5 11.1472 15.5489 -8.7751 0.0000 33.0228 0.0000
# 6 0.0000 0.0000 0.0000 1.2607 0.0000 31.7328
#
#
#
# Elastic Compliance Matrix: (Units=1/GPa)
#
#
# Indices 1 2 3 4 5 6 
#
# 1 0.013871 -0.001301 -0.000498 0.000000 -0.004202 0.000000
# 2 -0.001301 0.014847 -0.003688 0.000000 -0.007532 0.000000
# 3 -0.000498 -0.003688 0.022399 0.000000 0.007857 0.000000
# 4 0.000000 0.000000 0.000000 0.034839 0.000000 -0.001384
# 5 -0.004202 -0.007532 0.007857 0.000000 0.037335 0.000000
# 6 0.000000 0.000000 0.000000 -0.001384 0.000000 0.031568
#
#
# Mechanical properties :
#
#
# Convention : Reuss Voigt Hill
#
# Bulk Modulus (GPa) = 24.91004 27.05902 25.98453
# Shear Modulus (GPa) = 27.89965 30.96795 29.43380
#
# Velocity S-wave (km/s) = 3.45521 3.64025 3.54894
# Velocity P-wave (km/s) = 5.15530 5.40808 5.28320
#
# Compressibility (1/GPa) = 0.04014446
#
# Stress axis : x y z
#
# Youngs Moduli (GPa) = 72.09117 67.35342 44.64413
#
# Poissons Ratio (x) = 0.08764 0.02221
# Poissons Ratio (y) = 0.09380 0.16465
# Poissons Ratio (z) = 0.03587 0.24840
#
# Static dielectric constant tensor:
#      x y z
#    x 4.205340 0.000000 -0.091860 
#    y 0.000000 7.638730 0.000000 
#    z -0.091860 0.000000 4.305000 
# 
# 
# High freq. dielectric constant tensor:
#      x y z
#    x 1.935250 0.000000 0.005570 
#    y 0.000000 1.939250 0.000000 
#    z 0.005570 0.000000 1.927740 
# 
# From -- ./inp_files/34090.got.cif
#   From: 2010.06.25/outbox.cif.g09.slc.cpg/sg15_18_cif.got.tgz:34090.got - 2010.06.28 07:06:18.
