data_PCOD8150641
_publ_section_title
;
Structure prediction by ZEFSAII (Michael W. Deem and Ramdas Pophale) SiO2 
 PCOD8150641
Probable space group: C 2/C
;
_chemical_formula_sum "Si O2"
_cell_formula_units_Z 48
_cell_length_a 10.205984
_cell_length_b 9.653584
_cell_length_c 23.618217
_cell_angle_alpha 90.000000
_cell_angle_beta 98.687598
_cell_angle_gamma 90.000000
_cell_volume 2300.270627
_symmetry_space_group_name_H-M "C 2/C"
_symmetry_group_IT_number 15
_symmetry_cell_setting 'monoclinic'
loop_
_space_group_symop_operation_xyz
x,y,z
-x,y,1/2-z
-x,-y,-z
x,-y,1/2+z
1/2+x,1/2+y,z
1/2-x,1/2+y,1/2-z
1/2-x,1/2-y,-z
1/2+x,1/2-y,1/2+z
loop_
_atom_site_type_symbol
_atom_site_label
_atom_site_fract_x
_atom_site_fract_y
_atom_site_fract_z
Si Si1 0.241400 0.117506 0.813854
Si Si2 0.545234 0.140811 0.574906
Si Si3 0.507078 0.326734 0.130551
Si Si4 0.572252 0.564305 0.057386
Si Si5 0.359415 0.851087 0.769502
Si Si6 0.631955 0.894633 0.954852
O O1 0.356716 0.125985 0.866659
O O2 0.100026 0.102462 0.835199
O O3 0.233258 0.257770 0.776722
O O4 0.271728 0.986731 0.775772
O O5 0.490483 0.298463 0.570648
O O6 0.618813 0.100956 0.521460
O O7 0.422610 0.036982 0.575963
O O8 0.586224 0.453952 0.108325
O O9 0.611515 0.232738 0.171014
O O10 0.442359 0.236906 0.076280
O O11 0.715641 0.621200 0.050345
O O12 0.500000 0.500000 0.000000
O O13 0.500000 0.891787 0.750000
#
# Coordination Sequence:
#
# PCOD8150641 Si02
#       6
#     8   8   8   8   8   8
#     4  11  23  45  68  91 129 168 216 269 321 378
#     4  11  23  41  67  94 132 176 209 260 328 385
#     4  11  23  43  67  94 130 168 210 265 323 378
#     4  12  24  39  66 100 131 167 212 260 315 389
#     4  10  25  45  66  92 126 170 216 270 320 376
#     4  11  23  43  65  95 136 173 207 260 327 390
#
# _framework density 20.86711
#
# number of rings (size 3 to 8) (size 9 to 14) (size 15 to 20)
#    0.000    1.000    5.000    1.500    2.333    2.000 
#    3.000    0.000    0.000    0.000    0.000    0.000 
#    0.000    0.000    0.000    0.000    0.000    0.000 
#
# Total GULP energy -297666.572464 kJ/mol
# GULP energy per Si atom -12402.773853 kJ/mol
# Density = 2.081962 g / cm^3
# Si number density = 20.867110 Si / 1000 Ang^3
#
#
#
# Elastic Constant Matrix: (Units=GPa)
#
#
# Indices 1 2 3 4 5 6 
#
# 1 43.2963 33.3676 18.3226 0.0000 7.6428 0.0000
# 2 33.3676 133.1121 29.0461 0.0000 -6.9049 0.0000
# 3 18.3226 29.0461 100.1620 0.0000 10.2229 0.0000
# 4 0.0000 0.0000 0.0000 40.0327 0.0000 -3.3320
# 5 7.6428 -6.9049 10.2229 0.0000 29.0509 0.0000
# 6 0.0000 0.0000 0.0000 -3.3320 0.0000 38.1954
#
#
#
# Elastic Compliance Matrix: (Units=1/GPa)
#
#
# Indices 1 2 3 4 5 6 
#
# 1 0.031963 -0.007934 -0.002588 0.000000 -0.009384 0.000000
# 2 -0.007934 0.010220 -0.002047 0.000000 0.005237 0.000000
# 3 -0.002588 -0.002047 0.011442 0.000000 -0.003832 0.000000
# 4 0.000000 0.000000 0.000000 0.025162 0.000000 0.002195
# 5 -0.009384 0.005237 -0.003832 0.000000 0.039484 0.000000
# 6 0.000000 0.000000 0.000000 0.002195 0.000000 0.026373
#
#
# Mechanical properties :
#
#
# Convention : Reuss Voigt Hill
#
# Bulk Modulus (GPa) = 35.10470 48.67142 41.88806
# Shear Modulus (GPa) = 27.88961 34.51139 31.20050
#
# Velocity S-wave (km/s) = 3.65983 4.07119 3.87098
# Velocity P-wave (km/s) = 5.89225 6.74348 6.33219
#
# Compressibility (1/GPa) = 0.02848622
#
# Stress axis : x y z
#
# Youngs Moduli (GPa) = 31.28581 97.85099 87.39783
#
# Poissons Ratio (x) = 0.77638 0.22622
# Poissons Ratio (y) = 0.24823 0.17887
# Poissons Ratio (z) = 0.08098 0.20027
#
# Static dielectric constant tensor:
#      x y z
#    x 3.432350 0.000000 -0.169520 
#    y 0.000000 4.122840 0.000000 
#    z -0.169520 0.000000 3.839330 
# 
# 
# High freq. dielectric constant tensor:
#      x y z
#    x 1.794760 0.000000 0.008400 
#    y 0.000000 1.834840 0.000000 
#    z 0.008400 0.000000 1.832750 
# 
# From -- ./inp_files/267742.got.cif
#   From: 2010.06.25/outbox.cif.g09.slc.cpg/sg15_134_cif.got.tgz:267742.got - 2010.06.28 07:06:18.
