data_PCOD8150272
_publ_section_title
;
Structure prediction by ZEFSAII (Michael W. Deem and Ramdas Pophale) SiO2 
 PCOD8150272
Probable space group: C 2/C
;
_chemical_formula_sum "Si O2"
_cell_formula_units_Z 48
_cell_length_a 8.600382
_cell_length_b 14.382767
_cell_length_c 27.057349
_cell_angle_alpha 90.000000
_cell_angle_beta 138.732647
_cell_angle_gamma 90.000000
_cell_volume 2207.540212
_symmetry_space_group_name_H-M "C 2/C"
_symmetry_group_IT_number 15
_symmetry_cell_setting 'monoclinic'
loop_
_space_group_symop_operation_xyz
x,y,z
-x,y,1/2-z
-x,-y,-z
x,-y,1/2+z
1/2+x,1/2+y,z
1/2-x,1/2+y,1/2-z
1/2-x,1/2-y,-z
1/2+x,1/2-y,1/2+z
loop_
_atom_site_type_symbol
_atom_site_label
_atom_site_fract_x
_atom_site_fract_y
_atom_site_fract_z
Si Si1 0.621124 0.265475 0.071811
Si Si2 0.272790 0.550546 0.314855
Si Si3 0.997849 0.849773 0.354279
Si Si4 0.510613 0.101367 0.981536
Si Si5 0.606620 0.724764 0.221666
Si Si6 0.537579 0.588547 0.474682
O O1 0.494398 0.294795 0.092027
O O2 0.904361 0.280779 0.143437
O O3 0.584024 0.158690 0.048044
O O4 0.497131 0.322283 0.998627
O O5 0.402856 0.453894 0.336939
O O6 0.331404 0.625768 0.287104
O O7 0.346839 0.590745 0.385668
O O8 0.000000 0.527537 0.250000
O O9 0.838761 0.790338 0.278216
O O10 0.266092 0.860421 0.399716
O O11 0.699500 0.100040 0.983123
O O12 0.500000 0.000000 0.000000
O O13 0.500000 0.703693 0.250000
O O14 0.500000 0.500000 0.500000
#
# Coordination Sequence:
#
# PCOD8150272 Si02
#       6
#     8   8   8   8   8   8
#     4  11  22  44  70 100 139 181 225 293 348 421
#     4  12  25  47  68  97 143 184 232 286 353 425
#     4  11  24  45  69 103 138 185 230 292 358 417
#     4  12  23  43  68 104 140 175 236 287 343 421
#     4  10  24  45  69  99 141 184 233 287 358 422
#     4  12  25  44  71 102 136 182 230 290 352 418
#
# _framework density 21.743658
#
# number of rings (size 3 to 8) (size 9 to 14) (size 15 to 20)
#    0.000    0.667    5.000    2.500    2.333    0.000 
#    6.000    0.833    0.000    0.000    0.000    0.000 
#    0.000    0.000    0.000    0.000    0.000    0.000 
#
# Total GULP energy -297581.238253 kJ/mol
# GULP energy per Si atom -12399.218261 kJ/mol
# Density = 2.169417 g / cm^3
# Si number density = 21.743658 Si / 1000 Ang^3
#
#
#
# Elastic Constant Matrix: (Units=GPa)
#
#
# Indices 1 2 3 4 5 6 
#
# 1 80.1818 26.4753 44.0097 0.0000 21.5516 0.0000
# 2 26.4753 128.5194 49.2002 0.0000 -15.7320 0.0000
# 3 44.0097 49.2002 149.5339 0.0000 13.7385 0.0001
# 4 0.0000 0.0000 0.0000 46.0223 0.0000 -9.3156
# 5 21.5516 -15.7320 13.7385 0.0000 39.6197 0.0000
# 6 0.0000 0.0000 0.0001 -9.3156 0.0000 25.3405
#
#
#
# Elastic Compliance Matrix: (Units=1/GPa)
#
#
# Indices 1 2 3 4 5 6 
#
# 1 0.018248 -0.003813 -0.003166 0.000000 -0.010343 0.000000
# 2 -0.003813 0.010636 -0.003053 0.000000 0.007356 0.000000
# 3 -0.003166 -0.003053 0.008859 0.000000 -0.002562 0.000000
# 4 0.000000 0.000000 0.000000 0.023475 0.000000 0.008630
# 5 -0.010343 0.007356 -0.002562 0.000000 0.034675 0.000000
# 6 0.000000 0.000000 0.000000 0.008630 0.000000 0.042635
#
#
# Mechanical properties :
#
#
# Convention : Reuss Voigt Hill
#
# Bulk Modulus (GPa) = 56.56423 66.40060 61.48242
# Shear Modulus (GPa) = 30.39772 38.09984 34.24878
#
# Velocity S-wave (km/s) = 3.74305 4.19050 3.97308
# Velocity P-wave (km/s) = 6.68963 7.34969 7.02741
#
# Compressibility (1/GPa) = 0.01767902
#
# Stress axis : x y z
#
# Youngs Moduli (GPa) = 54.79936 94.02328 112.87878
#
# Poissons Ratio (x) = 0.35854 0.35735
# Poissons Ratio (y) = 0.20897 0.34461
# Poissons Ratio (z) = 0.17348 0.28705
#
# Static dielectric constant tensor:
#      x y z
#    x 4.461390 0.000000 0.549370 
#    y 0.000000 4.118120 0.000000 
#    z 0.549370 0.000000 4.439920 
# 
# 
# High freq. dielectric constant tensor:
#      x y z
#    x 1.847240 0.000000 0.013190 
#    y 0.000000 1.869420 0.000000 
#    z 0.013190 0.000000 1.869710 
# 
# From -- ./inp_files/289111.got.cif
#   From: 2010.06.25/outbox.cif.g09.slc.cpg/sg15_145_cif.got.tgz:289111.got - 2010.06.28 07:06:18.
