data_PCOD8150325
_publ_section_title
;
Structure prediction by ZEFSAII (Michael W. Deem and Ramdas Pophale) SiO2 
 PCOD8150325
Probable space group: C 2/C
;
_chemical_formula_sum "Si O2"
_cell_formula_units_Z 60
_cell_length_a 18.654642
_cell_length_b 5.181470
_cell_length_c 26.766471
_cell_angle_alpha 90.000000
_cell_angle_beta 90.619453
_cell_angle_gamma 90.000000
_cell_volume 2587.054872
_symmetry_space_group_name_H-M "C 2/C"
_symmetry_group_IT_number 15
_symmetry_cell_setting 'monoclinic'
loop_
_space_group_symop_operation_xyz
x,y,z
-x,y,1/2-z
-x,-y,-z
x,-y,1/2+z
1/2+x,1/2+y,z
1/2-x,1/2+y,1/2-z
1/2-x,1/2-y,-z
1/2+x,1/2-y,1/2+z
loop_
_atom_site_type_symbol
_atom_site_label
_atom_site_fract_x
_atom_site_fract_y
_atom_site_fract_z
Si Si1 0.501065 0.260033 0.850539
Si Si2 0.298898 0.995789 0.505657
Si Si3 0.350058 0.019829 0.615889
Si Si4 0.203960 0.080537 0.242804
Si Si5 0.000000 0.509981 0.250000
Si Si6 0.698844 0.629335 0.637387
Si Si7 0.362579 0.862402 0.406318
Si Si8 0.097048 0.143089 0.810668
O O1 0.442102 0.234584 0.893037
O O2 0.524676 0.554225 0.839307
O O3 0.573362 0.135831 0.871585
O O4 0.473042 0.153057 0.797408
O O5 0.250000 0.750000 0.500000
O O6 0.343942 0.981659 0.556726
O O7 0.357804 0.980075 0.461837
O O8 0.250000 0.250000 0.500000
O O9 0.347266 0.756344 0.648140
O O10 0.283733 0.194002 0.635209
O O11 0.261625 0.863252 0.260194
O O12 0.172908 0.994964 0.189080
O O13 0.138679 0.088287 0.282258
O O14 0.929080 0.663883 0.232690
O O15 0.686052 0.397883 0.597009
O O16 0.658512 0.899445 0.629795
#
# Coordination Sequence:
#
# PCOD8150325 Si02
#       8
#     8   8   8   8   4   8   8   8
#     4  11  27  44  74 103 149 194 241 303 366 439
#     4  12  25  48  78 107 142 189 243 307 378 434
#     4  11  25  46  73 104 143 189 242 302 368 434
#     4  12  25  40  66 102 138 184 238 297 355 424
#     4  10  24  46  66  98 142 200 238 282 368 440
#     4  12  25  45  73 104 145 187 245 303 359 432
#     4  12  27  47  73 109 141 188 247 304 364 435
#     4  11  25  44  68 101 150 190 247 293 372 437
#
# _framework density 23.192395000000001
#
# number of rings (size 3 to 8) (size 9 to 14) (size 15 to 20)
#    0.000    0.533    4.000    2.800   13.067    0.533 
#    0.000    0.667    0.000    0.000    0.000    0.000 
#    0.000    0.000    0.000    0.000    0.000    0.000 
#
# Total GULP energy -371864.314642 kJ/mol
# GULP energy per Si atom -12395.477155 kJ/mol
# Density = 2.313961 g / cm^3
# Si number density = 23.192395 Si / 1000 Ang^3
#
#
#
# Elastic Constant Matrix: (Units=GPa)
#
#
# Indices 1 2 3 4 5 6 
#
# 1 110.5815 23.6410 50.3556 0.0000 -14.9347 0.0000
# 2 23.6410 85.5145 5.7837 0.0000 10.6115 0.0000
# 3 50.3556 5.7837 135.9523 0.0000 10.0332 0.0000
# 4 0.0000 0.0000 0.0000 26.8079 0.0000 -3.9284
# 5 -14.9347 10.6115 10.0332 0.0000 45.6214 0.0000
# 6 0.0000 0.0000 0.0000 -3.9284 0.0000 25.5118
#
#
#
# Elastic Compliance Matrix: (Units=1/GPa)
#
#
# Indices 1 2 3 4 5 6 
#
# 1 0.013124 -0.004071 -0.005158 0.000000 0.006377 0.000000
# 2 -0.004071 0.013317 0.001289 0.000000 -0.004714 0.000000
# 3 -0.005158 0.001289 0.009512 0.000000 -0.004080 0.000000
# 4 0.000000 0.000000 0.000000 0.038164 0.000000 0.005877
# 5 0.006377 -0.004714 -0.004080 0.000000 0.026001 0.000000
# 6 0.000000 0.000000 0.000000 0.005877 0.000000 0.040102
#
#
# Mechanical properties :
#
#
# Convention : Reuss Voigt Hill
#
# Bulk Modulus (GPa) = 49.81764 54.62322 52.22043
# Shear Modulus (GPa) = 30.71422 36.40609 33.56015
#
# Velocity S-wave (km/s) = 3.64307 3.96630 3.80812
# Velocity P-wave (km/s) = 6.26281 6.67673 6.47308
#
# Compressibility (1/GPa) = 0.02007321
#
# Stress axis : x y z
#
# Youngs Moduli (GPa) = 76.19844 75.09205 105.12555
#
# Poissons Ratio (x) = 0.30567 0.54228
# Poissons Ratio (y) = 0.31017 -0.13551
# Poissons Ratio (z) = 0.39306 -0.09680
#
# Static dielectric constant tensor:
#      x y z
#    x 4.054190 0.000000 -0.056800 
#    y 0.000000 4.494880 0.000000 
#    z -0.056800 0.000000 4.644740 
# 
# 
# High freq. dielectric constant tensor:
#      x y z
#    x 1.911420 0.000000 -0.004020 
#    y 0.000000 1.924520 0.000000 
#    z -0.004020 0.000000 1.920890 
# 
# From -- ./inp_files/297768.got.cif
#   From: 2010.06.25/outbox.cif.g09.slc.cpg/sg15_149_cif.got.tgz:297768.got - 2010.06.28 07:06:18.
