data_PCOD8150925
_publ_section_title
;
Structure prediction by ZEFSAII (Michael W. Deem and Ramdas Pophale) SiO2 
 PCOD8150925
Probable space group: C 2/C
;
_chemical_formula_sum "Si O2"
_cell_formula_units_Z 40
_cell_length_a 24.473822
_cell_length_b 4.885246
_cell_length_c 16.855017
_cell_angle_alpha 90.000000
_cell_angle_beta 127.566228
_cell_angle_gamma 90.000000
_cell_volume 1597.343892
_symmetry_space_group_name_H-M "C 2/C"
_symmetry_group_IT_number 15
_symmetry_cell_setting 'monoclinic'
loop_
_space_group_symop_operation_xyz
x,y,z
-x,y,1/2-z
-x,-y,-z
x,-y,1/2+z
1/2+x,1/2+y,z
1/2-x,1/2+y,1/2-z
1/2-x,1/2-y,-z
1/2+x,1/2-y,1/2+z
loop_
_atom_site_type_symbol
_atom_site_label
_atom_site_fract_x
_atom_site_fract_y
_atom_site_fract_z
Si Si1 0.114879 0.553524 0.448524
Si Si2 0.619639 0.454945 0.205433
Si Si3 0.821492 0.050871 0.911850
Si Si4 0.972372 0.547231 0.887877
Si Si5 0.695408 0.174270 0.885244
O O1 0.154738 0.357143 0.545452
O O2 0.136687 0.508010 0.375849
O O3 0.032833 0.509620 0.378825
O O4 0.132776 0.859337 0.490981
O O5 0.666566 0.505154 0.169731
O O6 0.594598 0.141052 0.190772
O O7 0.663114 0.548425 0.320438
O O8 0.550877 0.639161 0.138565
O O9 0.739193 0.009513 0.856622
O O10 0.000000 0.500000 0.000000
O O11 0.750000 0.250000 0.000000
#
# Coordination Sequence:
#
# PCOD8150925 Si02
#       5
#     8   8   8   8   8
#     4  11  23  44  71 101 144 186 223 297 364 413
#     4  12  25  43  75 107 134 190 240 293 356 427
#     4  11  22  43  72 100 138 185 238 290 350 425
#     4  12  23  44  75 107 143 176 243 296 357 428
#     4  10  27  47  67 101 146 186 234 289 354 417
#
# _framework density 25.041571000000001
#
# number of rings (size 3 to 8) (size 9 to 14) (size 15 to 20)
#    0.000    0.800    4.000    2.400    0.000   12.000 
#    0.000    2.000    0.000    0.000    0.000    0.000 
#    0.000    0.000    0.000    0.000    0.000    0.000 
#
# Total GULP energy -248099.570061 kJ/mol
# GULP energy per Si atom -12404.978503 kJ/mol
# Density = 2.498457 g / cm^3
# Si number density = 25.041571 Si / 1000 Ang^3
#
#
#
# Elastic Constant Matrix: (Units=GPa)
#
#
# Indices 1 2 3 4 5 6 
#
# 1 215.7468 8.5104 25.9675 0.0009 2.3743 0.0027
# 2 8.5104 59.4505 -1.5599 0.0038 -6.8788 0.0192
# 3 25.9675 -1.5599 95.4754 -0.0050 -8.8447 0.0003
# 4 0.0009 0.0038 -0.0050 34.9864 -0.0036 9.0756
# 5 2.3743 -6.8788 -8.8447 -0.0036 26.2109 -0.0028
# 6 0.0027 0.0192 0.0003 9.0756 -0.0028 35.7552
#
#
#
# Elastic Compliance Matrix: (Units=1/GPa)
#
#
# Indices 1 2 3 4 5 6 
#
# 1 0.004855 -0.000866 -0.001442 0.000000 -0.001154 0.000000
# 2 -0.000866 0.017551 0.000987 0.000001 0.005018 -0.000009
# 3 -0.001442 0.000987 0.011271 0.000002 0.004193 -0.000001
# 4 0.000000 0.000001 0.000002 0.030597 0.000004 -0.007766
# 5 -0.001154 0.005018 0.004193 0.000004 0.040988 -0.000001
# 6 0.000000 -0.000009 -0.000001 -0.007766 -0.000001 0.029939
#
#
# Mechanical properties :
#
#
# Convention : Reuss Voigt Hill
#
# Bulk Modulus (GPa) = 32.22094 48.50098 40.36096
# Shear Modulus (GPa) = 33.74075 41.90747 37.82411
#
# Velocity S-wave (km/s) = 3.67466 4.09530 3.89067
# Velocity P-wave (km/s) = 5.55870 6.46314 6.02791
#
# Compressibility (1/GPa) = 0.03103571
#
# Stress axis : x y z
#
# Youngs Moduli (GPa) = 205.95417 56.97604 88.72686
#
# Poissons Ratio (x) = 0.04936 0.12791
# Poissons Ratio (y) = 0.17843 -0.08759
# Poissons Ratio (z) = 0.29691 -0.05625
#
# Static dielectric constant tensor:
#      x y z
#    x 5.674830 -0.000190 0.017960 
#    y -0.000190 4.606360 -0.000060 
#    z 0.017960 -0.000060 4.186250 
# 
# 
# High freq. dielectric constant tensor:
#      x y z
#    x 2.021410 0.000000 -0.001530 
#    y 0.000000 1.994890 0.000000 
#    z -0.001530 0.000000 1.990110 
# 
# From -- ./inp_files/221036.got.cif
#   From: 2010.06.25/outbox.cif.g09.slc.cpg/sg15_111_cif.got.tgz:221036.got - 2010.06.28 07:06:18.
