data_PCOD8150594
_publ_section_title
;
Structure prediction by ZEFSAII (Michael W. Deem and Ramdas Pophale) SiO2 
 PCOD8150594
Probable space group: C 2/C
;
_chemical_formula_sum "Si O2"
_cell_formula_units_Z 36
_cell_length_a 10.836787
_cell_length_b 18.367381
_cell_length_c 8.210642
_cell_angle_alpha 90.000000
_cell_angle_beta 120.674630
_cell_angle_gamma 90.000000
_cell_volume 1405.603578
_symmetry_space_group_name_H-M "C 2/C"
_symmetry_group_IT_number 15
_symmetry_cell_setting 'monoclinic'
loop_
_space_group_symop_operation_xyz
x,y,z
-x,y,1/2-z
-x,-y,-z
x,-y,1/2+z
1/2+x,1/2+y,z
1/2-x,1/2+y,1/2-z
1/2-x,1/2-y,-z
1/2+x,1/2-y,1/2+z
loop_
_atom_site_type_symbol
_atom_site_label
_atom_site_fract_x
_atom_site_fract_y
_atom_site_fract_z
Si Si1 0.216868 0.044625 0.904985
Si Si2 0.304070 0.347453 0.395504
Si Si3 0.000000 0.410895 0.750000
Si Si4 0.402854 0.591341 0.360968
Si Si5 0.342808 0.815198 0.888718
O O1 0.244365 0.107878 0.793192
O O2 0.181917 0.968027 0.802217
O O3 0.364318 0.038470 0.110931
O O4 0.087644 0.063337 0.944485
O O5 0.431757 0.391600 0.578289
O O6 0.369478 0.270391 0.382563
O O7 0.169962 0.335353 0.426915
O O8 0.032095 0.360003 0.615081
O O9 0.310039 0.665220 0.297257
#
# Coordination Sequence:
#
# PCOD8150594 Si02
#       5
#     8   8   4   8   8
#     4  11  25  44  75 107 143 192 235 301 357 424
#     4  11  24  43  71 109 143 188 239 296 357 424
#     4  10  26  46  70 104 142 198 234 294 360 428
#     4  11  24  45  73 105 144 188 240 297 356 424
#     4  10  25  43  70 104 148 189 233 289 360 430
#
# _framework density 25.611772999999999
#
# number of rings (size 3 to 8) (size 9 to 14) (size 15 to 20)
#    0.000    1.333    0.000    3.333    6.222    8.000 
#    0.000    3.333    0.000    0.000    0.000    0.000 
#    0.000    0.000    0.000    0.000    0.000    0.000 
#
# Total GULP energy -223245.919393 kJ/mol
# GULP energy per Si atom -12402.551077 kJ/mol
# Density = 2.555348 g / cm^3
# Si number density = 25.611773 Si / 1000 Ang^3
#
#
#
# Elastic Constant Matrix: (Units=GPa)
#
#
# Indices 1 2 3 4 5 6 
#
# 1 118.1286 40.0684 24.2497 0.0000 -12.7638 0.0000
# 2 40.0684 145.2131 64.7472 0.0000 -0.6132 0.0000
# 3 24.2497 64.7472 102.8178 0.0000 -5.1011 0.0000
# 4 0.0000 0.0000 0.0000 42.4684 0.0000 -6.0871
# 5 -12.7638 -0.6132 -5.1011 0.0000 35.7583 0.0000
# 6 0.0000 0.0000 0.0000 -6.0871 0.0000 27.3715
#
#
#
# Elastic Compliance Matrix: (Units=1/GPa)
#
#
# Indices 1 2 3 4 5 6 
#
# 1 0.009772 -0.002404 -0.000624 0.000000 0.003358 0.000000
# 2 -0.002404 0.010184 -0.005922 0.000000 -0.001528 0.000000
# 3 -0.000624 -0.005922 0.013683 0.000000 0.001628 0.000000
# 4 0.000000 0.000000 0.000000 0.024322 0.000000 0.005409
# 5 0.003358 -0.001528 0.001628 0.000000 0.029370 0.000000
# 6 0.000000 0.000000 0.000000 0.005409 0.000000 0.037737
#
#
# Mechanical properties :
#
#
# Convention : Reuss Voigt Hill
#
# Bulk Modulus (GPa) = 63.53828 69.36558 66.45193
# Shear Modulus (GPa) = 33.73507 36.92593 35.33050
#
# Velocity S-wave (km/s) = 3.63322 3.80117 3.71814
# Velocity P-wave (km/s) = 6.51632 6.81230 6.66595
#
# Compressibility (1/GPa) = 0.01573854
#
# Stress axis : x y z
#
# Youngs Moduli (GPa) = 102.33702 98.19691 73.08298
#
# Poissons Ratio (x) = 0.23603 0.04563
# Poissons Ratio (y) = 0.24599 0.43278
# Poissons Ratio (z) = 0.06390 0.58150
#
# Static dielectric constant tensor:
#      x y z
#    x 4.760340 0.000000 -0.397680 
#    y 0.000000 4.493560 0.000000 
#    z -0.397680 0.000000 4.724760 
# 
# 
# High freq. dielectric constant tensor:
#      x y z
#    x 2.030490 0.000000 -0.022070 
#    y 0.000000 2.022480 0.000000 
#    z -0.022070 0.000000 2.032900 
# 
# From -- ./inp_files/29432.got.cif
#   From: 2010.06.25/outbox.cif.g09.slc.cpg/sg15_15_cif.got.tgz:29432.got - 2010.06.28 07:06:18.
