data_PCOD8150992
_publ_section_title
;
Structure prediction by ZEFSAII (Michael W. Deem and Ramdas Pophale) SiO2 
 PCOD8150992
Probable space group: C 2/C
;
_chemical_formula_sum "Si O2"
_cell_formula_units_Z 48
_cell_length_a 9.043858
_cell_length_b 27.244041
_cell_length_c 10.755245
_cell_angle_alpha 90.000000
_cell_angle_beta 59.670561
_cell_angle_gamma 90.000000
_cell_volume 2287.309335
_symmetry_space_group_name_H-M "C 2/C"
_symmetry_group_IT_number 15
_symmetry_cell_setting 'monoclinic'
loop_
_space_group_symop_operation_xyz
x,y,z
-x,y,1/2-z
-x,-y,-z
x,-y,1/2+z
1/2+x,1/2+y,z
1/2-x,1/2+y,1/2-z
1/2-x,1/2-y,-z
1/2+x,1/2-y,1/2+z
loop_
_atom_site_type_symbol
_atom_site_label
_atom_site_fract_x
_atom_site_fract_y
_atom_site_fract_z
Si Si1 0.985834 0.362212 0.566433
Si Si2 0.949599 0.741044 0.408931
Si Si3 0.735203 0.607157 0.352801
Si Si4 0.640766 0.083385 0.783324
Si Si5 0.109713 0.006423 0.327977
Si Si6 0.939580 0.847790 0.132958
O O1 0.792594 0.364560 0.702796
O O2 0.013926 0.305058 0.515975
O O3 0.124955 0.381614 0.604258
O O4 0.012145 0.399862 0.444997
O O5 0.750000 0.750000 0.500000
O O6 0.000000 0.723199 0.250000
O O7 0.055189 0.789805 0.400662
O O8 0.734327 0.550826 0.309644
O O9 0.552881 0.623813 0.483470
O O10 0.500000 0.062462 0.750000
O O11 0.777455 0.041104 0.756018
O O12 0.747861 0.131777 0.696144
O O13 0.000000 0.017962 0.250000
O O14 0.000000 0.000000 0.500000
O O15 0.000000 0.857083 0.250000
#
# Coordination Sequence:
#
# PCOD8150992 Si02
#       6
#     8   8   8   8   8   8
#     4  11  22  40  62 104 141 169 225 286 341 400
#     4  11  18  34  66 103 130 176 227 281 333 401
#     4  11  22  38  67  98 136 170 221 289 335 404
#     4  12  27  44  65  95 140 182 226 284 347 410
#     4  12  27  47  73  99 132 183 237 282 355 419
#     4  11  20  40  69  99 136 180 231 284 341 407
#
# _framework density 20.985354999999998
#
# number of rings (size 3 to 8) (size 9 to 14) (size 15 to 20)
#    0.000    0.667    6.667    2.500    4.667    0.667 
#    0.000    0.833    0.000    2.000    0.000    0.000 
#    0.000    0.000    0.000    0.000    0.000    0.000 
#
# Total GULP energy -297366.016748 kJ/mol
# GULP energy per Si atom -12390.250698 kJ/mol
# Density = 2.093759 g / cm^3
# Si number density = 20.985355 Si / 1000 Ang^3
#
#
#
# Elastic Constant Matrix: (Units=GPa)
#
#
# Indices 1 2 3 4 5 6 
#
# 1 56.7272 22.5391 17.4175 0.0000 -7.2235 0.0000
# 2 22.5391 145.0257 19.2182 0.0000 5.0318 0.0000
# 3 17.4175 19.2182 131.7699 0.0000 -8.1742 0.0000
# 4 0.0000 0.0000 0.0000 34.1839 0.0000 -3.9831
# 5 -7.2235 5.0318 -8.1742 0.0000 21.6615 0.0000
# 6 0.0000 0.0000 0.0000 -3.9831 0.0000 26.0989
#
#
#
# Elastic Compliance Matrix: (Units=1/GPa)
#
#
# Indices 1 2 3 4 5 6 
#
# 1 0.020303 -0.003154 -0.001800 0.000000 0.006824 0.000000
# 2 -0.003154 0.007613 -0.000889 0.000000 -0.003156 0.000000
# 3 -0.001800 -0.000889 0.008122 0.000000 0.002671 0.000000
# 4 0.000000 0.000000 0.000000 0.029783 0.000000 0.004545
# 5 0.006824 -0.003156 0.002671 0.000000 0.050181 0.000000
# 6 0.000000 0.000000 0.000000 0.004545 0.000000 0.039009
#
#
# Mechanical properties :
#
#
# Convention : Reuss Voigt Hill
#
# Bulk Modulus (GPa) = 41.06491 50.20802 45.63647
# Shear Modulus (GPa) = 28.60158 34.67873 31.64015
#
# Velocity S-wave (km/s) = 3.69579 4.06953 3.88716
# Velocity P-wave (km/s) = 6.15002 6.78665 6.47616
#
# Compressibility (1/GPa) = 0.02435169
#
# Stress axis : x y z
#
# Youngs Moduli (GPa) = 49.25400 131.35856 123.11688
#
# Poissons Ratio (x) = 0.41424 0.22166
# Poissons Ratio (y) = 0.15532 0.10948
# Poissons Ratio (z) = 0.08868 0.11680
#
# Static dielectric constant tensor:
#      x y z
#    x 3.560150 0.000000 -0.210160 
#    y 0.000000 4.189120 0.000000 
#    z -0.210160 0.000000 4.633240 
# 
# 
# High freq. dielectric constant tensor:
#      x y z
#    x 1.778990 0.000000 -0.023690 
#    y 0.000000 1.838370 0.000000 
#    z -0.023690 0.000000 1.843380 
# 
# From -- ./inp_files/80517.got.cif
#   From: 2010.06.25/outbox.cif.g09.slc.cpg/sg15_41_cif.got.tgz:80517.got - 2010.06.28 07:06:18.
