data_PCOD8150423
_publ_section_title
;
Structure prediction by ZEFSAII (Michael W. Deem and Ramdas Pophale) SiO2 
 PCOD8150423
Probable space group: C 2/C
;
_chemical_formula_sum "Si O2"
_cell_formula_units_Z 32
_cell_length_a 18.147465
_cell_length_b 17.877033
_cell_length_c 8.867830
_cell_angle_alpha 90.000000
_cell_angle_beta 31.155524
_cell_angle_gamma 90.000000
_cell_volume 1488.414970
_symmetry_space_group_name_H-M "C 2/C"
_symmetry_group_IT_number 15
_symmetry_cell_setting 'monoclinic'
loop_
_space_group_symop_operation_xyz
x,y,z
-x,y,1/2-z
-x,-y,-z
x,-y,1/2+z
1/2+x,1/2+y,z
1/2-x,1/2+y,1/2-z
1/2-x,1/2-y,-z
1/2+x,1/2-y,1/2+z
loop_
_atom_site_type_symbol
_atom_site_label
_atom_site_fract_x
_atom_site_fract_y
_atom_site_fract_z
Si Si1 0.000000 0.382802 0.750000
Si Si2 0.145440 0.909207 0.053609
Si Si3 0.804031 0.065336 0.687113
Si Si4 0.372837 0.203549 0.206256
Si Si5 0.000000 0.811726 0.750000
O O1 0.976574 0.331894 0.646206
O O2 0.133800 0.435639 0.483423
O O3 0.136485 0.922341 0.248657
O O4 0.000000 0.868475 0.250000
O O5 0.285992 0.860330 0.764500
O O6 0.146636 0.987028 0.963453
O O7 0.862778 0.133195 0.478366
O O8 0.250000 0.250000 0.500000
O O9 0.477381 0.256451 0.929521
#
# Coordination Sequence:
#
# PCOD8150423 Si02
#       5
#     4   8   8   8   4
#     4  10  24  47  65  98 148 170 226 294 338 409
#     4  11  24  44  70  99 139 181 229 283 345 409
#     4  11  25  43  70 101 137 178 231 287 339 412
#     4  11  25  44  67 101 138 182 224 287 344 402
#     4  12  24  45  67 108 132 178 240 274 352 403
#
# _framework density 21.499381
#
# number of rings (size 3 to 8) (size 9 to 14) (size 15 to 20)
#    0.000    1.000    6.250    0.750    1.750    8.000 
#    0.000    0.000    0.000    0.000    0.000    0.000 
#    0.000    0.000    0.000    0.000    0.000    0.000 
#
# Total GULP energy -198328.555942 kJ/mol
# GULP energy per Si atom -12395.534746 kJ/mol
# Density = 2.145045 g / cm^3
# Si number density = 21.499381 Si / 1000 Ang^3
#
#
#
# Elastic Constant Matrix: (Units=GPa)
#
#
# Indices 1 2 3 4 5 6 
#
# 1 109.2418 26.2838 41.2308 -0.0005 -28.8164 0.0001
# 2 26.2838 93.1330 27.1103 -0.0002 -1.9389 -0.0001
# 3 41.2308 27.1103 117.9120 -0.0006 -7.0214 0.0000
# 4 -0.0005 -0.0002 -0.0006 7.2814 0.0005 4.0772
# 5 -28.8164 -1.9389 -7.0214 0.0005 33.7947 0.0000
# 6 0.0001 -0.0001 0.0000 4.0772 0.0000 23.3552
#
#
#
# Elastic Compliance Matrix: (Units=1/GPa)
#
#
# Indices 1 2 3 4 5 6 
#
# 1 0.014114 -0.002688 -0.003655 0.000000 0.011121 0.000000
# 2 -0.002688 0.012020 -0.001943 0.000000 -0.002006 0.000000
# 3 -0.003655 -0.001943 0.010139 0.000001 -0.001122 0.000000
# 4 0.000000 0.000000 0.000001 0.152217 -0.000002 -0.026573
# 5 0.011121 -0.002006 -0.001122 -0.000002 0.038725 0.000000
# 6 0.000000 0.000000 0.000000 -0.026573 0.000000 0.047456
#
#
# Mechanical properties :
#
#
# Convention : Reuss Voigt Hill
#
# Bulk Modulus (GPa) = 50.75981 56.61517 53.68749
# Shear Modulus (GPa) = 16.78930 27.93039 22.35984
#
# Velocity S-wave (km/s) = 2.79753 3.60825 3.22844
# Velocity P-wave (km/s) = 5.83918 6.61437 6.23882
#
# Compressibility (1/GPa) = 0.01970063
#
# Stress axis : x y z
#
# Youngs Moduli (GPa) = 70.85287 83.19650 98.62933
#
# Poissons Ratio (x) = 0.22360 0.36049
# Poissons Ratio (y) = 0.19043 0.19166
# Poissons Ratio (z) = 0.25897 0.16167
#
# Static dielectric constant tensor:
#      x y z
#    x 4.148970 -0.000010 -1.984120 
#    y -0.000010 4.498500 0.000020 
#    z -1.984120 0.000020 11.301180 
# 
# 
# High freq. dielectric constant tensor:
#      x y z
#    x 1.833370 0.000000 -0.007590 
#    y 0.000000 1.856970 0.000000 
#    z -0.007590 0.000000 1.851550 
# 
# From -- ./inp_files/49959.got.cif
#   From: 2010.06.25/outbox.cif.g09.slc.cpg/sg15_25_cif.got.tgz:49959.got - 2010.06.28 07:06:18.
