data_PCOD8150293
_publ_section_title
;
Structure prediction by ZEFSAII (Michael W. Deem and Ramdas Pophale) SiO2 
 PCOD8150293
Probable space group: C 2/C
;
_chemical_formula_sum "Si O2"
_cell_formula_units_Z 56
_cell_length_a 12.648428
_cell_length_b 14.442652
_cell_length_c 30.646622
_cell_angle_alpha 90.000000
_cell_angle_beta 27.987611
_cell_angle_gamma 90.000000
_cell_volume 2627.233923
_symmetry_space_group_name_H-M "C 2/C"
_symmetry_group_IT_number 15
_symmetry_cell_setting 'monoclinic'
loop_
_space_group_symop_operation_xyz
x,y,z
-x,y,1/2-z
-x,-y,-z
x,-y,1/2+z
1/2+x,1/2+y,z
1/2-x,1/2+y,1/2-z
1/2-x,1/2-y,-z
1/2+x,1/2-y,1/2+z
loop_
_atom_site_type_symbol
_atom_site_label
_atom_site_fract_x
_atom_site_fract_y
_atom_site_fract_z
Si Si1 0.899305 0.078964 0.363837
Si Si2 0.868806 0.710725 0.342794
Si Si3 0.148839 0.443937 0.039900
Si Si4 0.900592 0.377979 0.659086
Si Si5 0.235724 0.246651 0.144000
Si Si6 0.276184 0.593603 0.858301
Si Si7 0.434622 0.395927 0.013040
O O1 0.859970 0.063989 0.429634
O O2 0.802573 0.177070 0.382656
O O3 0.162551 0.070523 0.255162
O O4 0.747789 0.998953 0.396906
O O5 0.791655 0.815370 0.383185
O O6 0.653694 0.648370 0.411818
O O7 0.000000 0.714487 0.250000
O O8 0.023755 0.671909 0.324531
O O9 0.225787 0.391365 0.055610
O O10 0.087121 0.548995 0.075337
O O11 0.934058 0.392766 0.097593
O O12 0.882123 0.302210 0.627959
O O13 0.365564 0.338555 0.081264
O O14 0.000000 0.279279 0.250000
O O15 0.500000 0.579169 0.750000
O O16 0.500000 0.500000 0.000000
#
# Coordination Sequence:
#
# PCOD8150293 Si02
#       7
#     8   8   8   8   8   8   8
#     4  11  22  43  72 104 135 180 236 287 341 407
#     4  11  26  44  67 100 143 178 227 289 343 414
#     4  12  24  42  72  96 138 189 220 287 348 400
#     4  11  23  46  70 100 139 180 235 282 341 412
#     4  10  24  45  72 100 136 178 234 286 339 412
#     4  11  22  41  70 103 134 173 237 291 338 401
#     4  12  27  46  63 102 141 181 227 281 347 412
#
# _framework density 21.315194000000002
#
# number of rings (size 3 to 8) (size 9 to 14) (size 15 to 20)
#    0.000    0.857    4.286    2.571    2.000    9.143 
#    2.571    0.000    0.000    0.000    0.000    0.000 
#    0.000    0.000    0.000    0.000    0.000    0.000 
#
# Total GULP energy -347257.074190 kJ/mol
# GULP energy per Si atom -12402.038364 kJ/mol
# Density = 2.126668 g / cm^3
# Si number density = 21.315194 Si / 1000 Ang^3
#
#
#
# Elastic Constant Matrix: (Units=GPa)
#
#
# Indices 1 2 3 4 5 6 
#
# 1 133.4422 43.3732 38.8614 0.0262 -5.0506 -0.0054
# 2 43.3732 140.9407 53.8301 0.0109 5.9407 -0.0013
# 3 38.8614 53.8301 94.2993 0.2058 4.1750 -0.1204
# 4 0.0262 0.0109 0.2058 31.7760 -0.0818 5.2989
# 5 -5.0506 5.9407 4.1750 -0.0818 36.5303 0.0186
# 6 -0.0054 -0.0013 -0.1204 5.2989 0.0186 36.1905
#
#
#
# Elastic Compliance Matrix: (Units=1/GPa)
#
#
# Indices 1 2 3 4 5 6 
#
# 1 0.008943 -0.001779 -0.002752 0.000018 0.001840 -0.000011
# 2 -0.001779 0.009456 -0.004609 0.000028 -0.001257 -0.000019
# 3 -0.002752 -0.004609 0.014427 -0.000103 -0.001280 0.000063
# 4 0.000018 0.000028 -0.000103 0.032259 0.000084 -0.004724
# 5 0.001840 -0.001257 -0.001280 0.000084 0.027980 -0.000031
# 6 -0.000011 -0.000019 0.000063 -0.004724 -0.000031 0.028323
#
#
# Mechanical properties :
#
#
# Convention : Reuss Voigt Hill
#
# Bulk Modulus (GPa) = 68.74585 71.20128 69.97356
# Shear Modulus (GPa) = 34.59827 36.40719 35.50273
#
# Velocity S-wave (km/s) = 4.03323 4.13733 4.08561
# Velocity P-wave (km/s) = 7.34924 7.50332 7.42668
#
# Compressibility (1/GPa) = 0.01454633
#
# Stress axis : x y z
#
# Youngs Moduli (GPa) = 111.81904 105.75299 69.31622
#
# Poissons Ratio (x) = 0.18811 0.19073
# Poissons Ratio (y) = 0.19890 0.31950
# Poissons Ratio (z) = 0.30768 0.48745
#
# Static dielectric constant tensor:
#      x y z
#    x 3.937230 0.000040 -0.022530 
#    y 0.000040 4.099940 -0.000030 
#    z -0.022530 -0.000030 3.940680 
# 
# 
# High freq. dielectric constant tensor:
#      x y z
#    x 1.835960 0.000000 -0.003700 
#    y 0.000000 1.839170 0.000000 
#    z -0.003700 0.000000 1.845490 
# 
# From -- ./inp_files/311334.got.cif
#   From: 2010.06.25/outbox.cif.g09.slc.cpg/sg15_156_cif.got.tgz:311334.got - 2010.06.28 07:06:18.
