data_PCOD8150807
_publ_section_title
;
Structure prediction by ZEFSAII (Michael W. Deem and Ramdas Pophale) SiO2 
 PCOD8150807
Probable space group: C 2/C
;
_chemical_formula_sum "Si O2"
_cell_formula_units_Z 36
_cell_length_a 7.722137
_cell_length_b 21.831174
_cell_length_c 9.139662
_cell_angle_alpha 90.000000
_cell_angle_beta 93.055913
_cell_angle_gamma 90.000000
_cell_volume 1538.603501
_symmetry_space_group_name_H-M "C 2/C"
_symmetry_group_IT_number 15
_symmetry_cell_setting 'monoclinic'
loop_
_space_group_symop_operation_xyz
x,y,z
-x,y,1/2-z
-x,-y,-z
x,-y,1/2+z
1/2+x,1/2+y,z
1/2-x,1/2+y,1/2-z
1/2-x,1/2-y,-z
1/2+x,1/2-y,1/2+z
loop_
_atom_site_type_symbol
_atom_site_label
_atom_site_fract_x
_atom_site_fract_y
_atom_site_fract_z
Si Si1 0.500000 0.277465 0.750000
Si Si2 0.350089 0.370973 0.952481
Si Si3 0.203797 0.817901 0.255641
Si Si4 0.669168 0.434738 0.072600
Si Si5 0.805961 0.461495 0.765882
O O1 0.478188 0.319839 0.891423
O O2 0.674424 0.238423 0.782410
O O3 0.224766 0.397440 0.821300
O O4 0.240423 0.341209 0.079485
O O5 0.467094 0.426575 0.021444
O O6 0.240714 0.871273 0.141375
O O7 0.000000 0.799026 0.250000
O O8 0.678559 0.486798 0.196718
O O9 0.780494 0.452719 0.936551
O O10 0.000000 0.484545 0.750000
#
# Coordination Sequence:
#
# PCOD8150807 Si02
#       5
#     4   8   8   8   8
#     4  12  24  46  76  98 148 186 240 286 342 422
#     4  11  24  48  65 106 136 190 233 286 352 416
#     4  10  26  44  73 104 142 186 237 286 350 416
#     4  11  24  46  68 103 140 186 230 288 357 417
#     4  12  25  41  73 103 143 179 235 295 352 417
#
# _framework density 23.397843999999999
#
# number of rings (size 3 to 8) (size 9 to 14) (size 15 to 20)
#    0.000    0.889    2.222    3.333    4.667    8.000 
#    0.000    0.000    0.000    0.000    0.000    0.000 
#    0.000    0.000    0.000    0.000    0.000    0.000 
#
# Total GULP energy -223285.032480 kJ/mol
# GULP energy per Si atom -12404.724027 kJ/mol
# Density = 2.334459 g / cm^3
# Si number density = 23.397844 Si / 1000 Ang^3
#
#
#
# Elastic Constant Matrix: (Units=GPa)
#
#
# Indices 1 2 3 4 5 6 
#
# 1 86.4824 51.2133 32.8204 0.0000 -5.8095 0.0000
# 2 51.2133 104.8119 47.4670 0.0000 4.6382 0.0000
# 3 32.8204 47.4670 143.2647 0.0000 -8.8620 0.0000
# 4 0.0000 0.0000 0.0000 22.8187 0.0000 0.5885
# 5 -5.8095 4.6382 -8.8620 0.0000 22.5285 0.0000
# 6 0.0000 0.0000 0.0000 0.5885 0.0000 35.5704
#
#
#
# Elastic Compliance Matrix: (Units=1/GPa)
#
#
# Indices 1 2 3 4 5 6 
#
# 1 0.017164 -0.008265 -0.000835 0.000000 0.005799 0.000000
# 2 -0.008265 0.015544 -0.003676 0.000000 -0.006778 0.000000
# 3 -0.000835 -0.003676 0.008633 0.000000 0.003937 0.000000
# 4 0.000000 0.000000 0.000000 0.043842 0.000000 -0.000725
# 5 0.005799 -0.006778 0.003937 0.000000 0.048828 0.000000
# 6 0.000000 0.000000 0.000000 -0.000725 0.000000 0.028125
#
#
# Mechanical properties :
#
#
# Convention : Reuss Voigt Hill
#
# Bulk Modulus (GPa) = 63.33563 66.39558 64.86561
# Shear Modulus (GPa) = 25.91326 29.72076 27.81701
#
# Velocity S-wave (km/s) = 3.33153 3.56790 3.45174
# Velocity P-wave (km/s) = 6.47507 6.73882 6.60826
#
# Compressibility (1/GPa) = 0.01578890
#
# Stress axis : x y z
#
# Youngs Moduli (GPa) = 58.26158 64.33296 115.83693
#
# Poissons Ratio (x) = 0.53173 0.09671
# Poissons Ratio (y) = 0.48154 0.42581
# Poissons Ratio (z) = 0.04864 0.23648
#
# Static dielectric constant tensor:
#      x y z
#    x 3.820260 0.000000 0.022360 
#    y 0.000000 4.238350 0.000000 
#    z 0.022360 0.000000 4.560320 
# 
# 
# High freq. dielectric constant tensor:
#      x y z
#    x 1.903730 0.000000 -0.004050 
#    y 0.000000 1.929060 0.000000 
#    z -0.004050 0.000000 1.948590 
# 
# From -- ./inp_files/22503.got.cif
#   From: 2010.06.25/outbox.cif.g09.slc.cpg/sg15_12_cif.got.tgz:22503.got - 2010.06.28 07:06:18.
