data_PCOD8150575
_publ_section_title
;
Structure prediction by ZEFSAII (Michael W. Deem and Ramdas Pophale) SiO2 
 PCOD8150575
Probable space group: C 2/C
;
_chemical_formula_sum "Si O2"
_cell_formula_units_Z 56
_cell_length_a 5.415811
_cell_length_b 27.161575
_cell_length_c 17.725925
_cell_angle_alpha 90.000000
_cell_angle_beta 106.260902
_cell_angle_gamma 90.000000
_cell_volume 2503.208636
_symmetry_space_group_name_H-M "C 2/C"
_symmetry_group_IT_number 15
_symmetry_cell_setting 'monoclinic'
loop_
_space_group_symop_operation_xyz
x,y,z
-x,y,1/2-z
-x,-y,-z
x,-y,1/2+z
1/2+x,1/2+y,z
1/2-x,1/2+y,1/2-z
1/2-x,1/2-y,-z
1/2+x,1/2-y,1/2+z
loop_
_atom_site_type_symbol
_atom_site_label
_atom_site_fract_x
_atom_site_fract_y
_atom_site_fract_z
Si Si1 0.202163 0.942860 0.832676
Si Si2 0.915181 0.621825 0.579314
Si Si3 0.796025 0.449449 0.299499
Si Si4 0.316078 0.233829 0.089129
Si Si5 0.995035 0.943803 0.517425
Si Si6 0.566406 0.127517 0.429006
Si Si7 0.120579 0.721244 0.842332
O O1 0.068580 0.937842 0.901116
O O2 0.394143 0.896218 0.847796
O O3 0.000000 0.934291 0.750000
O O4 0.344851 0.995532 0.836466
O O5 0.698780 0.580161 0.558670
O O6 0.827155 0.665793 0.626228
O O7 0.163609 0.593267 0.634425
O O8 0.935894 0.644589 0.496633
O O9 0.500000 0.445042 0.250000
O O10 0.000000 0.440436 0.250000
O O11 0.294397 0.174676 0.094580
O O12 0.605871 0.250572 0.135234
O O13 0.095117 0.254304 0.123775
O O14 0.250000 0.250000 0.000000
O O15 0.262122 0.917252 0.526325
O O16 0.000000 0.000000 0.500000
O O17 0.000000 0.720605 0.750000
#
# Coordination Sequence:
#
# PCOD8150575 Si02
#       7
#     8   8   8   8   8   8   8
#     4  10  25  43  65 101 145 187 240 295 356 427
#     4  11  25  44  72 105 143 187 243 299 364 435
#     4  11  26  43  68 103 144 196 232 292 363 427
#     4  12  26  50  79 104 149 192 246 299 371 445
#     4  11  24  43  72 105 143 189 243 292 355 437
#     4  11  25  43  74 103 135 195 240 295 364 435
#     4  12  28  50  75 114 145 191 246 316 371 433
#
# _framework density 22.371286999999999
#
# number of rings (size 3 to 8) (size 9 to 14) (size 15 to 20)
#    0.000    0.857    1.429    3.857   14.000    4.000 
#    2.571    0.000    0.000    0.000    0.000    0.000 
#    0.000    0.000    0.000    0.000    0.000    0.000 
#
# Total GULP energy -347100.127442 kJ/mol
# GULP energy per Si atom -12396.433123 kJ/mol
# Density = 2.232037 g / cm^3
# Si number density = 22.371287 Si / 1000 Ang^3
#
#
#
# Elastic Constant Matrix: (Units=GPa)
#
#
# Indices 1 2 3 4 5 6 
#
# 1 105.3265 33.8964 27.6832 0.0000 10.6750 0.0000
# 2 33.8964 156.7221 46.6794 0.0000 14.7850 0.0000
# 3 27.6832 46.6794 113.2765 0.0000 13.5204 0.0000
# 4 0.0000 0.0000 0.0000 27.6449 0.0000 -5.5837
# 5 10.6750 14.7850 13.5204 0.0000 31.9832 0.0000
# 6 0.0000 0.0000 0.0000 -5.5837 0.0000 26.5759
#
#
#
# Elastic Compliance Matrix: (Units=1/GPa)
#
#
# Indices 1 2 3 4 5 6 
#
# 1 0.010669 -0.001604 -0.001695 0.000000 -0.002103 0.000000
# 2 -0.001604 0.007666 -0.002536 0.000000 -0.001936 0.000000
# 3 -0.001695 -0.002536 0.010615 0.000000 -0.002749 0.000000
# 4 0.000000 0.000000 0.000000 0.037776 0.000000 0.007937
# 5 -0.002103 -0.001936 -0.002749 0.000000 0.034026 0.000000
# 6 0.000000 0.000000 0.000000 0.007937 0.000000 0.039296
#
#
# Mechanical properties :
#
#
# Convention : Reuss Voigt Hill
#
# Bulk Modulus (GPa) = 57.87164 65.76035 61.81599
# Shear Modulus (GPa) = 31.75042 35.04520 33.39781
#
# Velocity S-wave (km/s) = 3.77138 3.96223 3.86798
# Velocity P-wave (km/s) = 6.69995 7.09867 6.90219
#
# Compressibility (1/GPa) = 0.01727962
#
# Stress axis : x y z
#
# Youngs Moduli (GPa) = 93.72695 130.45272 94.20304
#
# Poissons Ratio (x) = 0.20928 0.15971
# Poissons Ratio (y) = 0.15036 0.23887
# Poissons Ratio (z) = 0.15890 0.33079
#
# Static dielectric constant tensor:
#      x y z
#    x 3.414780 0.000000 0.644720 
#    y 0.000000 4.088720 0.000000 
#    z 0.644720 0.000000 3.822040 
# 
# 
# High freq. dielectric constant tensor:
#      x y z
#    x 1.879820 0.000000 0.006360 
#    y 0.000000 1.895300 0.000000 
#    z 0.006360 0.000000 1.895730 
# 
# From -- ./inp_files/186216.got.cif
#   From: 2010.06.25/outbox.cif.g09.slc.cpg/sg15_94_cif.got.tgz:186216.got - 2010.06.28 07:06:18.
