data_PCOD8150823
_publ_section_title
;
Structure prediction by ZEFSAII (Michael W. Deem and Ramdas Pophale) SiO2 
 PCOD8150823
Probable space group: C 2/C
;
_chemical_formula_sum "Si O2"
_cell_formula_units_Z 24
_cell_length_a 5.676543
_cell_length_b 19.358350
_cell_length_c 10.408869
_cell_angle_alpha 90.000000
_cell_angle_beta 120.651285
_cell_angle_gamma 90.000000
_cell_volume 984.008137
_symmetry_space_group_name_H-M "C 2/C"
_symmetry_group_IT_number 15
_symmetry_cell_setting 'monoclinic'
loop_
_space_group_symop_operation_xyz
x,y,z
-x,y,1/2-z
-x,-y,-z
x,-y,1/2+z
1/2+x,1/2+y,z
1/2-x,1/2+y,1/2-z
1/2-x,1/2-y,-z
1/2+x,1/2-y,1/2+z
loop_
_atom_site_type_symbol
_atom_site_label
_atom_site_fract_x
_atom_site_fract_y
_atom_site_fract_z
Si Si1 0.937774 0.187197 0.513766
Si Si2 0.016547 0.418890 0.988656
Si Si3 0.000000 0.344678 0.250000
Si Si4 0.500000 0.350868 0.750000
O O1 0.750000 0.250000 0.500000
O O2 0.799532 0.112801 0.509708
O O3 0.996755 0.195356 0.378147
O O4 0.217389 0.198974 0.673600
O O5 0.770818 0.397918 0.825497
O O6 0.000000 0.500000 0.000000
O O7 0.967630 0.391496 0.116873
#
# Coordination Sequence:
#
# PCOD8150823 Si02
#       4
#     8   8   4   4
#     4  11  26  49  75 109 151 197 253 315 374 452
#     4  11  26  43  74 107 148 195 246 310 369 445
#     4  10  26  45  74 108 145 196 246 304 377 440
#     4  10  26  45  74 108 145 196 246 304 377 440
#
# _framework density 24.390042000000001
#
# number of rings (size 3 to 8) (size 9 to 14) (size 15 to 20)
#    0.000    1.333    0.000    2.000    9.333   16.000 
#    0.000    5.000    0.000    0.000    0.000    0.000 
#    0.000    0.000    0.000    0.000    0.000    0.000 
#
# Total GULP energy -148803.333165 kJ/mol
# GULP energy per Si atom -12400.277764 kJ/mol
# Density = 2.433453 g / cm^3
# Si number density = 24.390042 Si / 1000 Ang^3
#
#
#
# Elastic Constant Matrix: (Units=GPa)
#
#
# Indices 1 2 3 4 5 6 
#
# 1 134.9982 54.5233 51.3716 0.0000 38.6561 0.0000
# 2 54.5233 142.1686 41.9447 0.0000 20.6368 0.0000
# 3 51.3716 41.9447 150.8726 0.0000 45.6176 0.0000
# 4 0.0000 0.0000 0.0000 24.1840 0.0000 1.7101
# 5 38.6561 20.6368 45.6176 0.0000 61.3812 0.0000
# 6 0.0000 0.0000 0.0000 1.7101 0.0000 38.3998
#
#
#
# Elastic Compliance Matrix: (Units=1/GPa)
#
#
# Indices 1 2 3 4 5 6 
#
# 1 0.010414 -0.002932 -0.001349 0.000000 -0.004570 0.000000
# 2 -0.002932 0.008567 -0.001381 0.000000 -0.000007 0.000000
# 3 -0.001349 -0.001381 0.009124 0.000000 -0.005467 0.000000
# 4 0.000000 0.000000 0.000000 0.041480 0.000000 -0.001847
# 5 -0.004570 -0.000007 -0.005467 0.000000 0.023235 0.000000
# 6 0.000000 0.000000 0.000000 -0.001847 0.000000 0.026124
#
#
# Mechanical properties :
#
#
# Convention : Reuss Voigt Hill
#
# Bulk Modulus (GPa) = 59.59325 80.41316 70.00321
# Shear Modulus (GPa) = 36.80174 43.47298 40.13736
#
# Velocity S-wave (km/s) = 3.88865 4.22644 4.06106
# Velocity P-wave (km/s) = 6.68196 7.54044 7.12414
#
# Compressibility (1/GPa) = 0.01678042
#
# Stress axis : x y z
#
# Youngs Moduli (GPa) = 96.02706 116.72630 109.59558
#
# Poissons Ratio (x) = 0.34230 0.14782
# Poissons Ratio (y) = 0.28160 0.15136
# Poissons Ratio (z) = 0.12952 0.16121
#
# Static dielectric constant tensor:
#      x y z
#    x 5.792280 0.000000 0.337000 
#    y 0.000000 4.221520 0.000000 
#    z 0.337000 0.000000 4.958720 
# 
# 
# High freq. dielectric constant tensor:
#      x y z
#    x 1.985590 0.000000 0.004050 
#    y 0.000000 1.954130 0.000000 
#    z 0.004050 0.000000 1.998900 
# 
# From -- ./inp_files/19325.got.cif
#   From: 2010.06.25/outbox.cif.g09.slc.cpg/sg15_10_cif.got.tgz:19325.got - 2010.06.28 07:06:18.
