data_PCOD8150985
_publ_section_title
;
Structure prediction by ZEFSAII (Michael W. Deem and Ramdas Pophale) SiO2 
 PCOD8150985
Probable space group: C 2/C
;
_chemical_formula_sum "Si O2"
_cell_formula_units_Z 40
_cell_length_a 16.877083
_cell_length_b 20.601480
_cell_length_c 8.786339
_cell_angle_alpha 90.000000
_cell_angle_beta 136.409732
_cell_angle_gamma 90.000000
_cell_volume 2106.375754
_symmetry_space_group_name_H-M "C 2/C"
_symmetry_group_IT_number 15
_symmetry_cell_setting 'monoclinic'
loop_
_space_group_symop_operation_xyz
x,y,z
-x,y,1/2-z
-x,-y,-z
x,-y,1/2+z
1/2+x,1/2+y,z
1/2-x,1/2+y,1/2-z
1/2-x,1/2-y,-z
1/2+x,1/2-y,1/2+z
loop_
_atom_site_type_symbol
_atom_site_label
_atom_site_fract_x
_atom_site_fract_y
_atom_site_fract_z
Si Si1 0.816087 0.837136 0.830764
Si Si2 0.504187 0.570739 0.075117
Si Si3 0.911297 0.296475 0.500561
Si Si4 0.075588 0.292910 0.495272
Si Si5 0.822601 0.834198 0.202505
O O1 0.882702 0.893205 0.832873
O O2 0.681258 0.839706 0.594963
O O3 0.864619 0.767416 0.847813
O O4 0.830517 0.840958 0.032580
O O5 0.500000 0.567359 0.250000
O O6 0.500000 0.500000 0.000000
O O7 0.388589 0.605957 0.864760
O O8 0.809956 0.340123 0.428919
O O9 0.000000 0.272456 0.750000
O O10 0.986634 0.334162 0.477408
O O11 0.126035 0.233542 0.666175
O O12 0.000000 0.266427 0.250000
#
# Coordination Sequence:
#
# PCOD8150985 Si02
#       5
#     8   8   8   8   8
#     4  11  21  37  60  84 123 158 197 239 293 348
#     4  12  26  43  63  86 114 153 201 247 289 344
#     4  11  18  34  58  89 125 159 190 229 301 354
#     4  11  22  33  56  92 127 156 190 242 296 351
#     4  11  21  36  59  87 120 160 196 239 290 350
#
# _framework density 18.989964000000001
#
# number of rings (size 3 to 8) (size 9 to 14) (size 15 to 20)
#    0.000    0.800    6.000    3.600    2.800    1.600 
#    0.000    0.000    0.000    2.400    0.000    0.000 
#    0.000    0.000    0.000    0.000    0.000    0.000 
#
# Total GULP energy -247845.155665 kJ/mol
# GULP energy per Si atom -12392.257783 kJ/mol
# Density = 1.894674 g / cm^3
# Si number density = 18.989964 Si / 1000 Ang^3
#
#
#
# Elastic Constant Matrix: (Units=GPa)
#
#
# Indices 1 2 3 4 5 6 
#
# 1 177.8003 56.0273 72.7061 0.0000 20.5444 0.0000
# 2 56.0273 91.1794 32.7655 0.0000 11.0996 0.0000
# 3 72.7061 32.7655 118.5740 0.0000 3.9011 0.0000
# 4 0.0000 0.0000 0.0000 19.8983 0.0000 -4.5895
# 5 20.5444 11.0996 3.9011 0.0000 37.7593 0.0000
# 6 0.0000 0.0000 0.0000 -4.5895 0.0000 19.0311
#
#
#
# Elastic Compliance Matrix: (Units=1/GPa)
#
#
# Indices 1 2 3 4 5 6 
#
# 1 0.008906 -0.003486 -0.004387 0.000000 -0.003368 0.000000
# 2 -0.003486 0.013950 -0.001650 0.000000 -0.002034 0.000000
# 3 -0.004387 -0.001650 0.011524 0.000000 0.001681 0.000000
# 4 0.000000 0.000000 0.000000 0.053216 0.000000 0.012833
# 5 -0.003368 -0.002034 0.001681 0.000000 0.028740 0.000000
# 6 0.000000 0.000000 0.000000 0.012833 0.000000 0.055641
#
#
# Mechanical properties :
#
#
# Convention : Reuss Voigt Hill
#
# Bulk Modulus (GPa) = 65.21568 78.95014 72.08291
# Shear Modulus (GPa) = 25.49291 30.40806 27.95049
#
# Velocity S-wave (km/s) = 3.66791 4.00593 3.84064
# Velocity P-wave (km/s) = 7.23566 7.94113 7.59659
#
# Compressibility (1/GPa) = 0.01533374
#
# Stress axis : x y z
#
# Youngs Moduli (GPa) = 112.28819 71.68424 86.77524
#
# Poissons Ratio (x) = 0.24989 0.38065
# Poissons Ratio (y) = 0.39144 0.14321
# Poissons Ratio (z) = 0.49256 0.11831
#
# Static dielectric constant tensor:
#      x y z
#    x 4.207970 0.000000 0.269630 
#    y 0.000000 3.038550 0.000000 
#    z 0.269630 0.000000 3.745110 
# 
# 
# High freq. dielectric constant tensor:
#      x y z
#    x 1.775200 0.000000 0.005460 
#    y 0.000000 1.668040 0.000000 
#    z 0.005460 0.000000 1.752310 
# 
# From -- ./inp_files/30179.got.cif
#   From: 2010.06.25/outbox.cif.g09.slc.cpg/sg15_16_cif.got.tgz:30179.got - 2010.06.28 07:06:18.
