data_PCOD8150614
_publ_section_title
;
Structure prediction by ZEFSAII (Michael W. Deem and Ramdas Pophale) SiO2 
 PCOD8150614
Probable space group: C 2/C
;
_chemical_formula_sum "Si O2"
_cell_formula_units_Z 64
_cell_length_a 18.511068
_cell_length_b 10.886516
_cell_length_c 14.799125
_cell_angle_alpha 90.000000
_cell_angle_beta 85.991255
_cell_angle_gamma 90.000000
_cell_volume 2975.038425
_symmetry_space_group_name_H-M "C 2/C"
_symmetry_group_IT_number 15
_symmetry_cell_setting 'monoclinic'
loop_
_space_group_symop_operation_xyz
x,y,z
-x,y,1/2-z
-x,-y,-z
x,-y,1/2+z
1/2+x,1/2+y,z
1/2-x,1/2+y,1/2-z
1/2-x,1/2-y,-z
1/2+x,1/2-y,1/2+z
loop_
_atom_site_type_symbol
_atom_site_label
_atom_site_fract_x
_atom_site_fract_y
_atom_site_fract_z
Si Si1 0.929548 0.328675 0.572392
Si Si2 0.048802 0.351476 0.131072
Si Si3 0.188420 0.048473 0.305793
Si Si4 0.419937 0.881660 0.866168
Si Si5 0.770862 0.611516 0.473600
Si Si6 0.894679 0.286530 0.197825
Si Si7 0.301993 0.994461 0.651269
Si Si8 0.575982 0.656427 0.774963
O O1 0.912864 0.323726 0.467457
O O2 0.870227 0.408628 0.628490
O O3 0.929745 0.195257 0.619492
O O4 0.009650 0.380933 0.576693
O O5 0.073545 0.481317 0.175303
O O6 0.081871 0.258568 0.201040
O O7 0.962135 0.334201 0.131634
O O8 0.228419 0.037093 0.398874
O O9 0.131853 0.155010 0.332912
O O10 0.248666 0.077979 0.224418
O O11 0.145142 0.932000 0.268078
O O12 0.354284 0.873732 0.940504
O O13 0.414765 0.778150 0.789065
O O14 0.750000 0.750000 0.500000
O O15 0.760882 0.525504 0.561821
O O16 0.827381 0.379092 0.195242
O O17 0.500000 0.592421 0.750000
#
# Coordination Sequence:
#
# PCOD8150614 Si02
#       8
#     8   8   8   8   8   8   8   8
#     4  11  22  40  70 102 131 170 233 293 342 404
#     4  11  22  40  71 101 130 165 235 303 342 392
#     4  12  28  46  65  98 146 184 228 283 345 428
#     4  11  21  43  68 102 136 173 231 290 340 413
#     4  12  24  42  70 101 137 185 233 278 347 417
#     4  11  25  42  67  96 134 176 228 286 351 401
#     4  12  24  43  69 103 136 180 225 287 356 406
#     4  10  25  44  68  94 140 189 225 278 357 419
#
# _framework density 21.512326999999999
#
# number of rings (size 3 to 8) (size 9 to 14) (size 15 to 20)
#    0.000    0.750    3.750    4.125    7.000    1.000 
#    0.000    1.875    0.000    0.000    0.000    0.000 
#    0.000    0.000    0.000    0.000    0.000    0.000 
#
# Total GULP energy -396595.525706 kJ/mol
# GULP energy per Si atom -12393.610178 kJ/mol
# Density = 2.146336 g / cm^3
# Si number density = 21.512327 Si / 1000 Ang^3
#
#
#
# Elastic Constant Matrix: (Units=GPa)
#
#
# Indices 1 2 3 4 5 6 
#
# 1 116.6163 47.9618 51.1246 0.0000 0.4380 0.0000
# 2 47.9618 67.6145 29.6330 0.0000 -2.8054 0.0000
# 3 51.1246 29.6330 135.0279 0.0000 6.7154 0.0000
# 4 0.0000 0.0000 0.0000 26.3330 0.0000 5.6438
# 5 0.4380 -2.8054 6.7154 0.0000 33.5539 0.0000
# 6 0.0000 0.0000 0.0000 5.6438 0.0000 38.8363
#
#
#
# Elastic Compliance Matrix: (Units=1/GPa)
#
#
# Indices 1 2 3 4 5 6 
#
# 1 0.013305 -0.008012 -0.003270 0.000000 -0.000189 0.000000
# 2 -0.008012 0.021338 -0.001761 0.000000 0.002241 0.000000
# 3 -0.003270 -0.001761 0.009126 0.000000 -0.001931 0.000000
# 4 0.000000 0.000000 0.000000 0.039196 0.000000 -0.005696
# 5 -0.000189 0.002241 -0.001931 0.000000 0.030379 0.000000
# 6 0.000000 0.000000 0.000000 -0.005696 0.000000 0.026577
#
#
# Mechanical properties :
#
#
# Convention : Reuss Voigt Hill
#
# Bulk Modulus (GPa) = 56.54983 64.07751 60.31367
# Shear Modulus (GPa) = 29.08664 32.44724 30.76694
#
# Velocity S-wave (km/s) = 3.68107 3.88791 3.78590
# Velocity P-wave (km/s) = 6.66418 7.07146 6.87084
#
# Compressibility (1/GPa) = 0.01768352
#
# Stress axis : x y z
#
# Youngs Moduli (GPa) = 75.16216 46.86515 109.57431
#
# Poissons Ratio (x) = 0.37550 0.35827
# Poissons Ratio (y) = 0.60223 0.19291
# Poissons Ratio (z) = 0.24575 0.08251
#
# Static dielectric constant tensor:
#      x y z
#    x 4.046790 0.000000 0.136450 
#    y 0.000000 3.702320 0.000000 
#    z 0.136450 0.000000 3.962630 
# 
# 
# High freq. dielectric constant tensor:
#      x y z
#    x 1.855740 0.000000 0.008550 
#    y 0.000000 1.819040 0.000000 
#    z 0.008550 0.000000 1.855440 
# 
# From -- ./inp_files/161345.got.cif
#   From: 2010.06.25/outbox.cif.g09.slc.cpg/sg15_81_cif.got.tgz:161345.got - 2010.06.28 07:06:18.
