data_PCOD8150518
_publ_section_title
;
Structure prediction by ZEFSAII (Michael W. Deem and Ramdas Pophale) SiO2 
 PCOD8150518
Probable space group: C 2/C
;
_chemical_formula_sum "Si O2"
_cell_formula_units_Z 52
_cell_length_a 25.395636
_cell_length_b 6.344919
_cell_length_c 13.491628
_cell_angle_alpha 90.000000
_cell_angle_beta 75.734951
_cell_angle_gamma 90.000000
_cell_volume 2106.918826
_symmetry_space_group_name_H-M "C 2/C"
_symmetry_group_IT_number 15
_symmetry_cell_setting 'monoclinic'
loop_
_space_group_symop_operation_xyz
x,y,z
-x,y,1/2-z
-x,-y,-z
x,-y,1/2+z
1/2+x,1/2+y,z
1/2-x,1/2+y,1/2-z
1/2-x,1/2-y,-z
1/2+x,1/2-y,1/2+z
loop_
_atom_site_type_symbol
_atom_site_label
_atom_site_fract_x
_atom_site_fract_y
_atom_site_fract_z
Si Si1 0.282067 0.627116 0.661445
Si Si2 0.500000 0.420028 0.750000
Si Si3 0.624741 0.084394 0.456760
Si Si4 0.054440 0.028679 0.037814
Si Si5 0.185618 0.090852 0.174311
Si Si6 0.689637 0.298131 0.997131
Si Si7 0.412530 0.738997 0.150283
O O1 0.223763 0.701566 0.644648
O O2 0.280603 0.589153 0.780859
O O3 0.302672 0.398442 0.615062
O O4 0.324508 0.804090 0.614988
O O5 0.541975 0.548980 0.658266
O O6 0.529838 0.280278 0.820510
O O7 0.650109 0.906363 0.518783
O O8 0.594132 0.981696 0.376325
O O9 0.580815 0.235828 0.530672
O O10 0.095049 0.882642 0.954016
O O11 0.000000 0.000000 0.000000
O O12 0.130468 0.153497 0.252569
O O13 0.167503 0.989863 0.077653
O O14 0.750000 0.250000 0.000000
#
# Coordination Sequence:
#
# PCOD8150518 Si02
#       7
#     8   4   8   8   8   8   8
#     4  12  25  47  66 112 155 196 254 310 362 457
#     4  10  26  46  78 102 132 192 246 318 380 448
#     4  12  24  46  74 103 160 196 240 321 375 445
#     4  10  24  50  74 104 149 189 253 323 374 449
#     4  12  24  42  76 101 155 204 252 307 380 452
#     4  12  26  44  68 112 150 205 254 303 368 454
#     4  11  25  47  72 108 144 195 252 309 385 447
#
# _framework density 24.680592000000001
#
# number of rings (size 3 to 8) (size 9 to 14) (size 15 to 20)
#    0.000    0.615    4.615    2.308    4.308    3.692 
#    0.000    3.846    0.000    0.000    0.000    0.000 
#    0.000    0.000    0.000    0.000    0.000    0.000 
#
# Total GULP energy -322098.136164 kJ/mol
# GULP energy per Si atom -12388.389852 kJ/mol
# Density = 2.462442 g / cm^3
# Si number density = 24.680592 Si / 1000 Ang^3
#
#
#
# Elastic Constant Matrix: (Units=GPa)
#
#
# Indices 1 2 3 4 5 6 
#
# 1 90.2560 40.5743 28.2024 0.0000 -5.6868 0.0000
# 2 40.5743 95.5926 34.3478 0.0000 -7.4160 0.0000
# 3 28.2024 34.3478 137.2516 0.0000 -4.9164 0.0000
# 4 0.0000 0.0000 0.0000 34.4817 0.0000 9.1254
# 5 -5.6868 -7.4160 -4.9164 0.0000 45.8395 0.0000
# 6 0.0000 0.0000 0.0000 9.1254 0.0000 45.5783
#
#
#
# Elastic Compliance Matrix: (Units=1/GPa)
#
#
# Indices 1 2 3 4 5 6 
#
# 1 0.013999 -0.005343 -0.001514 0.000000 0.000710 0.000000
# 2 -0.005343 0.013646 -0.002270 0.000000 0.001301 0.000000
# 3 -0.001514 -0.002270 0.008177 0.000000 0.000322 0.000000
# 4 0.000000 0.000000 0.000000 0.030624 0.000000 -0.006131
# 5 0.000710 0.001301 0.000322 0.000000 0.022148 0.000000
# 6 0.000000 0.000000 0.000000 -0.006131 0.000000 0.023168
#
#
# Mechanical properties :
#
#
# Convention : Reuss Voigt Hill
#
# Bulk Modulus (GPa) = 56.92528 58.81657 57.87092
# Shear Modulus (GPa) = 36.79944 39.84496 38.32220
#
# Velocity S-wave (km/s) = 3.86557 4.02235 3.94474
# Velocity P-wave (km/s) = 6.56037 6.74205 6.65183
#
# Compressibility (1/GPa) = 0.01756689
#
# Stress axis : x y z
#
# Youngs Moduli (GPa) = 71.43205 73.28373 122.29875
#
# Poissons Ratio (x) = 0.39155 0.18517
# Poissons Ratio (y) = 0.38166 0.27767
# Poissons Ratio (z) = 0.10815 0.16638
#
# Static dielectric constant tensor:
#      x y z
#    x 4.993480 0.000000 0.376100 
#    y 0.000000 4.569270 0.000000 
#    z 0.376100 0.000000 6.024540 
# 
# 
# High freq. dielectric constant tensor:
#      x y z
#    x 2.012870 0.000000 -0.003420 
#    y 0.000000 1.955820 0.000000 
#    z -0.003420 0.000000 1.993140 
# 
# From -- ./inp_files/180059.got.cif
#   From: 2010.06.25/outbox.cif.g09.slc.cpg/sg15_91_cif.got.tgz:180059.got - 2010.06.28 07:06:18.
